data_PCOD8187731
_publ_section_title
;
Structure prediction by ZEFSAII (Michael W. Deem and Ramdas Pophale) SiO2 
 PCOD8187731
Probable space group: F D D 2
;
_chemical_formula_sum "Si O2"
_cell_formula_units_Z 64
_cell_length_a 5.143842
_cell_length_b 19.654527
_cell_length_c 24.840320
_cell_angle_alpha 90.000000
_cell_angle_beta 90.000000
_cell_angle_gamma 90.000000
_cell_volume 2511.350924
_symmetry_space_group_name_H-M "F D D 2"
_symmetry_group_IT_number 43
_symmetry_cell_setting 'orthorhombic'
loop_
_space_group_symop_operation_xyz
x,y,z
-x,-y,z
1/4-x,1/4+y,1/4+z
1/4+x,1/4-y,1/4+z
x,1/2+y,1/2+z
-x,1/2-y,1/2+z
1/4-x,3/4+y,3/4+z
1/4+x,3/4-y,3/4+z
1/2+x,y,1/2+z
1/2-x,-y,1/2+z
3/4-x,1/4+y,3/4+z
3/4+x,1/4-y,3/4+z
1/2+x,1/2+y,z
1/2-x,1/2-y,z
3/4-x,3/4+y,1/4+z
3/4+x,3/4-y,1/4+z
loop_
_atom_site_type_symbol
_atom_site_label
_atom_site_fract_x
_atom_site_fract_y
_atom_site_fract_z
Si Si1 0.709713 0.407614 0.933920
Si Si2 0.552448 0.575203 0.656789
Si Si3 0.087760 0.685260 0.802068
Si Si4 0.500901 0.711192 0.072513
O O1 0.427616 0.374655 0.924369
O O2 0.925827 0.348917 0.932201
O O3 0.755693 0.463600 0.887648
O O4 0.740238 0.447649 0.990198
O O5 0.500000 0.500000 0.678959
O O6 0.587966 0.574840 0.591180
O O7 0.250000 0.750000 0.823978
O O8 0.262381 0.616890 0.803160
O O9 0.750000 0.750000 0.049100
O O10 0.250000 0.750000 0.049498
#
# Coordination Sequence:
#
# PCOD8187731 Si02
#       4
#    16  16  16  16
#     4  11  25  44  69 103 139 187 239 297 359 432
#     4  11  24  45  69 103 146 186 236 299 363 430
#     4  11  26  46  74 105 141 189 243 296 361 434
#     4  11  24  45  67  97 136 178 226 286 349 418
#
# _framework density 25.484289
#
# number of rings (size 3 to 8) (size 9 to 14) (size 15 to 20)
#    0.000    1.000    0.000    7.500    0.000   12.000 
#    0.000    0.000    0.000    0.000    0.000    0.000 
#    0.000    0.000    0.000    0.000    0.000    0.000 
#
# Total GULP energy -198451.994706 kJ/mol
# GULP energy per Si atom -12403.249669 kJ/mol
# Density = 2.542629 g / cm^3
# Si number density = 25.484289 Si / 1000 Ang^3
#
#
#
# Elastic Constant Matrix: (Units=GPa)
#
#
# Indices 1 2 3 4 5 6 
#
# 1 165.5459 56.5135 13.9656 0.0000 0.0000 0.0000
# 2 56.5135 137.9696 -19.7162 0.0000 0.0000 0.0000
# 3 13.9656 -19.7162 94.8579 0.0000 0.0000 0.0000
# 4 0.0000 0.0000 0.0000 11.6030 0.0000 0.0000
# 5 0.0000 0.0000 0.0000 0.0000 17.8569 0.0000
# 6 0.0000 0.0000 0.0000 0.0000 0.0000 42.8651
#
#
#
# Elastic Compliance Matrix: (Units=1/GPa)
#
#
# Indices 1 2 3 4 5 6 
#
# 1 0.007293 -0.003237 -0.001746 0.000000 0.000000 0.000000
# 2 -0.003237 0.008906 0.002328 0.000000 0.000000 0.000000
# 3 -0.001746 0.002328 0.011283 0.000000 0.000000 0.000000
# 4 0.000000 0.000000 0.000000 0.086185 0.000000 0.000000
# 5 0.000000 0.000000 0.000000 0.000000 0.056001 0.000000
# 6 0.000000 0.000000 0.000000 0.000000 0.000000 0.023329
#
#
# Mechanical properties :
#
#
# Convention : Reuss Voigt Hill
#
# Bulk Modulus (GPa) = 45.10337 55.54435 50.32386
# Shear Modulus (GPa) = 24.30745 37.63905 30.97325
#
# Velocity S-wave (km/s) = 3.09175 3.84728 3.49002
# Velocity P-wave (km/s) = 5.52106 6.44812 6.00252
#
# Compressibility (1/GPa) = 0.02217129
#
# Stress axis : x y z
#
# Youngs Moduli (GPa) = 137.11905 112.27825 88.62863
#
# Poissons Ratio (x) = 0.36342 0.15479
# Poissons Ratio (y) = 0.44383 -0.20631
# Poissons Ratio (z) = 0.23948 -0.26136
#
# Static dielectric constant tensor:
#      x y z
#    x 4.548590 0.000000 0.000000 
#    y 0.000000 4.584780 0.000000 
#    z 0.000000 0.000000 4.729830 
# 
# 
# High freq. dielectric constant tensor:
#      x y z
#    x 2.017670 0.000000 0.000000 
#    y 0.000000 2.024080 0.000000 
#    z 0.000000 0.000000 2.012810 
# 
# From -- ./inp_files/23387.got.cif
#   From: 2010.06.25/outbox.cif.g09.slc.cpg/sg43_12_cif.got.tgz:23387.got - 2010.06.26 16:48:59.
