data_PCOD8187506
_publ_section_title
;
Structure prediction by ZEFSAII (Michael W. Deem and Ramdas Pophale) SiO2 
 PCOD8187506
Probable space group: F D D 2
;
_chemical_formula_sum "Si O2"
_cell_formula_units_Z 88
_cell_length_a 25.750457
_cell_length_b 6.015020
_cell_length_c 24.936202
_cell_angle_alpha 90.000000
_cell_angle_beta 90.000000
_cell_angle_gamma 90.000000
_cell_volume 3862.356205
_symmetry_space_group_name_H-M "F D D 2"
_symmetry_group_IT_number 43
_symmetry_cell_setting 'orthorhombic'
loop_
_space_group_symop_operation_xyz
x,y,z
-x,-y,z
1/4-x,1/4+y,1/4+z
1/4+x,1/4-y,1/4+z
x,1/2+y,1/2+z
-x,1/2-y,1/2+z
1/4-x,3/4+y,3/4+z
1/4+x,3/4-y,3/4+z
1/2+x,y,1/2+z
1/2-x,-y,1/2+z
3/4-x,1/4+y,3/4+z
3/4+x,1/4-y,3/4+z
1/2+x,1/2+y,z
1/2-x,1/2-y,z
3/4-x,3/4+y,1/4+z
3/4+x,3/4-y,1/4+z
loop_
_atom_site_type_symbol
_atom_site_label
_atom_site_fract_x
_atom_site_fract_y
_atom_site_fract_z
Si Si1 0.532443 0.804570 0.798550
Si Si2 0.355110 0.698699 0.402961
Si Si3 0.134170 0.540881 0.793056
Si Si4 0.250000 0.250000 0.964687
Si Si5 0.943050 0.397921 0.946672
Si Si6 0.088765 0.419501 0.355894
O O1 0.493737 0.717435 0.752309
O O2 0.546943 0.603333 0.837800
O O3 0.500000 0.000000 0.829162
O O4 0.584713 0.901291 0.772709
O O5 0.345932 0.558205 0.349211
O O6 0.300592 0.708957 0.431124
O O7 0.400674 0.594496 0.439811
O O8 0.367861 0.955713 0.390658
O O9 0.178066 0.511960 0.747282
O O10 0.117076 0.796951 0.805255
O O11 0.942653 0.255442 0.892073
O O12 0.000000 0.500000 0.957012
#
# Coordination Sequence:
#
# PCOD8187506 Si02
#       6
#    16  16  16   8  16  16
#     4  11  24  40  72 104 143 181 232 297 356 417
#     4  10  25  44  69 106 137 186 238 298 359 429
#     4  10  23  45  67 102 141 183 237 291 362 427
#     4  12  24  42  74 104 142 178 238 296 364 424
#     4  11  25  46  73 100 144 190 242 295 359 433
#     4  10  25  45  72 104 145 184 244 291 359 425
#
# _framework density 22.784019000000001
#
# number of rings (size 3 to 8) (size 9 to 14) (size 15 to 20)
#    0.000    1.455    1.818    1.091    6.364   13.091 
#    0.000    0.000    0.000    0.000    0.000    0.000 
#    0.000    0.000    0.000    0.000    0.000    0.000 
#
# Total GULP energy -272666.005166 kJ/mol
# GULP energy per Si atom -12393.909326 kJ/mol
# Density = 2.273216 g / cm^3
# Si number density = 22.784019 Si / 1000 Ang^3
#
#
#
# Elastic Constant Matrix: (Units=GPa)
#
#
# Indices 1 2 3 4 5 6 
#
# 1 157.4318 74.8092 56.9615 0.0024 -0.0033 -0.0084
# 2 74.8092 143.9912 53.8415 0.0121 0.0009 0.0058
# 3 56.9615 53.8415 94.3946 0.0012 0.0008 0.0018
# 4 0.0024 0.0121 0.0012 16.7788 0.0003 0.0005
# 5 -0.0033 0.0009 0.0008 0.0003 25.1289 0.0016
# 6 -0.0084 0.0058 0.0018 0.0005 0.0016 35.5586
#
#
#
# Elastic Compliance Matrix: (Units=1/GPa)
#
#
# Indices 1 2 3 4 5 6 
#
# 1 0.009324 -0.003483 -0.003640 0.000001 0.000001 0.000003
# 2 -0.003483 0.010129 -0.003675 -0.000007 -0.000001 -0.000002
# 3 -0.003640 -0.003675 0.014887 0.000002 -0.000001 -0.000001
# 4 0.000001 -0.000007 0.000002 0.059599 -0.000001 -0.000001
# 5 0.000001 -0.000001 -0.000001 -0.000001 0.039795 -0.000002
# 6 0.000003 -0.000002 -0.000001 -0.000001 -0.000002 0.028123
#
#
# Mechanical properties :
#
#
# Convention : Reuss Voigt Hill
#
# Bulk Modulus (GPa) = 78.47619 85.22688 81.85153
# Shear Modulus (GPa) = 26.63818 29.50694 28.07256
#
# Velocity S-wave (km/s) = 3.42301 3.60261 3.51396
# Velocity P-wave (km/s) = 7.08103 7.40221 7.24340
#
# Compressibility (1/GPa) = 0.01274272
#
# Stress axis : x y z
#
# Youngs Moduli (GPa) = 107.24954 98.72747 67.17448
#
# Poissons Ratio (x) = 0.34389 0.24450
# Poissons Ratio (y) = 0.37358 0.24690
# Poissons Ratio (z) = 0.39036 0.36287
#
# Static dielectric constant tensor:
#      x y z
#    x 4.080030 -0.000010 0.000000 
#    y -0.000010 5.012580 0.000000 
#    z 0.000000 0.000000 4.090670 
# 
# 
# High freq. dielectric constant tensor:
#      x y z
#    x 1.895530 0.000000 0.000000 
#    y 0.000000 1.914520 0.000000 
#    z 0.000000 0.000000 1.893070 
# 
# From -- ./inp_files/22950.got.cif
#   From: 2010.06.25/outbox.cif.g09.slc.cpg/sg43_12_cif.got.tgz:22950.got - 2010.06.26 16:48:59.
