data_PCOD8187750
_publ_section_title
;
Structure prediction by ZEFSAII (Michael W. Deem and Ramdas Pophale) SiO2 
 PCOD8187750
Probable space group: F D D 2
;
_chemical_formula_sum "Si O2"
_cell_formula_units_Z 56
_cell_length_a 16.268325
_cell_length_b 8.998112
_cell_length_c 13.426846
_cell_angle_alpha 90.000000
_cell_angle_beta 90.000000
_cell_angle_gamma 90.000000
_cell_volume 1965.478250
_symmetry_space_group_name_H-M "F D D 2"
_symmetry_group_IT_number 43
_symmetry_cell_setting 'orthorhombic'
loop_
_space_group_symop_operation_xyz
x,y,z
-x,-y,z
1/4-x,1/4+y,1/4+z
1/4+x,1/4-y,1/4+z
x,1/2+y,1/2+z
-x,1/2-y,1/2+z
1/4-x,3/4+y,3/4+z
1/4+x,3/4-y,3/4+z
1/2+x,y,1/2+z
1/2-x,-y,1/2+z
3/4-x,1/4+y,3/4+z
3/4+x,1/4-y,3/4+z
1/2+x,1/2+y,z
1/2-x,1/2-y,z
3/4-x,3/4+y,1/4+z
3/4+x,3/4-y,1/4+z
loop_
_atom_site_type_symbol
_atom_site_label
_atom_site_fract_x
_atom_site_fract_y
_atom_site_fract_z
Si Si1 0.977276 0.832845 0.842930
Si Si2 0.500000 0.500000 0.098717
Si Si3 0.168764 0.329987 0.884430
Si Si4 0.601444 0.601106 0.275769
O O1 0.898908 0.795937 0.914171
O O2 0.946037 0.825116 0.728606
O O3 0.052049 0.712507 0.851024
O O4 0.000000 0.000000 0.868908
O O5 0.558590 0.601600 0.168050
O O6 0.552870 0.399461 0.023058
O O7 0.250000 0.250000 0.835845
O O8 0.109956 0.431805 0.813890
#
# Coordination Sequence:
#
# PCOD8187750 Si02
#       4
#    16   8  16  16
#     4  11  26  46  77 114 159 204 272 331 409 478
#     4  12  28  50  84 116 158 216 276 330 412 484
#     4  11  24  47  75 114 158 207 268 328 401 484
#     4  12  24  52  77 116 159 218 262 341 402 496
#
# _framework density 28.491793999999999
#
# number of rings (size 3 to 8) (size 9 to 14) (size 15 to 20)
#    0.000    0.571    5.714    0.000    4.000    4.571 
#   10.286    0.000    0.000    0.000    0.000    0.000 
#    0.000    0.000    0.000    0.000    0.000    0.000 
#
# Total GULP energy -173496.814382 kJ/mol
# GULP energy per Si atom -12392.629599 kJ/mol
# Density = 2.842695 g / cm^3
# Si number density = 28.491794 Si / 1000 Ang^3
#
#
#
# Elastic Constant Matrix: (Units=GPa)
#
#
# Indices 1 2 3 4 5 6 
#
# 1 216.2275 96.4879 24.1071 0.0000 0.0000 0.0000
# 2 96.4879 169.3571 18.3125 0.0000 0.0000 0.0000
# 3 24.1071 18.3125 70.1673 0.0000 0.0000 0.0000
# 4 0.0000 0.0000 0.0000 31.2251 0.0000 0.0000
# 5 0.0000 0.0000 0.0000 0.0000 46.6119 0.0000
# 6 0.0000 0.0000 0.0000 0.0000 0.0000 88.2055
#
#
#
# Elastic Compliance Matrix: (Units=1/GPa)
#
#
# Indices 1 2 3 4 5 6 
#
# 1 0.006309 -0.003457 -0.001265 0.000000 0.000000 0.000000
# 2 -0.003457 0.007971 -0.000892 0.000000 0.000000 0.000000
# 3 -0.001265 -0.000892 0.014919 0.000000 0.000000 0.000000
# 4 0.000000 0.000000 0.000000 0.032026 0.000000 0.000000
# 5 0.000000 0.000000 0.000000 0.000000 0.021454 0.000000
# 6 0.000000 0.000000 0.000000 0.000000 0.000000 0.011337
#
#
# Mechanical properties :
#
#
# Convention : Reuss Voigt Hill
#
# Bulk Modulus (GPa) = 55.65172 81.50741 68.57956
# Shear Modulus (GPa) = 44.94994 54.33143 49.64069
#
# Velocity S-wave (km/s) = 3.97627 4.37156 4.17859
# Velocity P-wave (km/s) = 6.37620 7.35868 6.88499
#
# Compressibility (1/GPa) = 0.01796890
#
# Stress axis : x y z
#
# Youngs Moduli (GPa) = 158.51328 125.45512 67.02766
#
# Poissons Ratio (x) = 0.43375 0.08480
# Poissons Ratio (y) = 0.54805 0.05982
# Poissons Ratio (z) = 0.20054 0.11196
#
# Static dielectric constant tensor:
#      x y z
#    x 5.787520 0.000000 0.000000 
#    y 0.000000 5.368870 0.000000 
#    z 0.000000 0.000000 4.900450 
# 
# 
# High freq. dielectric constant tensor:
#      x y z
#    x 2.189800 0.000000 0.000000 
#    y 0.000000 2.174140 0.000000 
#    z 0.000000 0.000000 2.127080 
# 
# From -- ./inp_files/9337.got.cif
#   From: 2010.06.25/outbox.cif.g09.slc.cpg/sg43_5_cif.got.tgz:9337.got - 2010.06.26 16:48:59.
