data_PCOD8187339
_publ_section_title
;
Structure prediction by ZEFSAII (Michael W. Deem and Ramdas Pophale) SiO2 
 PCOD8187339
Probable space group: F D D 2
;
_chemical_formula_sum "Si O2"
_cell_formula_units_Z 120
_cell_length_a 21.450852
_cell_length_b 18.275844
_cell_length_c 14.417674
_cell_angle_alpha 90.000000
_cell_angle_beta 90.000000
_cell_angle_gamma 90.000000
_cell_volume 5652.195698
_symmetry_space_group_name_H-M "F D D 2"
_symmetry_group_IT_number 43
_symmetry_cell_setting 'orthorhombic'
loop_
_space_group_symop_operation_xyz
x,y,z
-x,-y,z
1/4-x,1/4+y,1/4+z
1/4+x,1/4-y,1/4+z
x,1/2+y,1/2+z
-x,1/2-y,1/2+z
1/4-x,3/4+y,3/4+z
1/4+x,3/4-y,3/4+z
1/2+x,y,1/2+z
1/2-x,-y,1/2+z
3/4-x,1/4+y,3/4+z
3/4+x,1/4-y,3/4+z
1/2+x,1/2+y,z
1/2-x,1/2-y,z
3/4-x,3/4+y,1/4+z
3/4+x,3/4-y,1/4+z
loop_
_atom_site_type_symbol
_atom_site_label
_atom_site_fract_x
_atom_site_fract_y
_atom_site_fract_z
Si Si1 0.270833 0.665735 0.929050
Si Si2 0.597260 0.057156 0.500915
Si Si3 0.687013 0.563133 0.660642
Si Si4 0.812002 0.285442 0.247803
Si Si5 0.568402 0.680501 0.334933
Si Si6 0.660005 0.698354 0.954194
Si Si7 0.500000 0.500000 0.857877
Si Si8 0.352952 0.909995 0.964777
O O1 0.250000 0.750000 0.941765
O O2 0.315009 0.657568 0.840749
O O3 0.213469 0.608144 0.916401
O O4 0.308661 0.640246 0.019417
O O5 0.642864 0.113618 0.451653
O O6 0.543877 0.045566 0.425374
O O7 0.637215 0.986457 0.530057
O O8 0.690950 0.628494 0.732966
O O9 0.753212 0.533844 0.619339
O O10 0.652434 0.497762 0.714806
O O11 0.649611 0.599440 0.575291
O O12 0.750000 0.250000 0.204492
O O13 0.809522 0.275665 0.358612
O O14 0.871507 0.243682 0.200389
O O15 0.600025 0.651295 0.428159
O O16 0.706537 0.702407 0.040942
#
# Coordination Sequence:
#
# PCOD8187339 Si02
#       8
#    16  16  16  16  16  16   8  16
#     4  11  23  43  65  98 137 173 229 283 344 421
#     4  12  25  45  70  96 137 185 232 284 347 425
#     4  10  24  43  66 104 137 174 235 288 353 421
#     4  11  21  43  69 100 134 174 227 284 356 415
#     4  11  23  41  69 102 135 178 230 285 356 417
#     4  11  26  45  68  97 136 183 232 286 345 421
#     4  12  24  46  68  96 134 180 228 282 352 406
#     4  10  22  39  65 103 132 176 214 283 348 414
#
# _framework density 21.230688000000001
#
# number of rings (size 3 to 8) (size 9 to 14) (size 15 to 20)
#    0.000    1.067    4.000    1.600    5.600    0.000 
#    4.800    0.000    0.000    0.000    0.000    0.000 
#    0.000    0.000    0.000    0.000    0.000    0.000 
#
# Total GULP energy -371795.083619 kJ/mol
# GULP energy per Si atom -12393.169454 kJ/mol
# Density = 2.118237 g / cm^3
# Si number density = 21.230688 Si / 1000 Ang^3
#
#
#
# Elastic Constant Matrix: (Units=GPa)
#
#
# Indices 1 2 3 4 5 6 
#
# 1 115.7479 39.8806 48.4832 0.0000 0.0000 0.0000
# 2 39.8806 79.2101 21.9687 0.0000 0.0000 0.0000
# 3 48.4832 21.9687 67.4789 0.0000 0.0000 0.0000
# 4 0.0000 0.0000 0.0000 81.0461 0.0000 0.0000
# 5 0.0000 0.0000 0.0000 0.0000 -62.3273 0.0000
# 6 0.0000 0.0000 0.0000 0.0000 0.0000 17.2395
#
#
#
# Elastic Compliance Matrix: (Units=1/GPa)
#
#
# Indices 1 2 3 4 5 6 
#
# 1 0.013726 -0.004590 -0.008368 0.000000 0.000000 0.000000
# 2 -0.004590 0.015413 -0.001720 0.000000 0.000000 0.000000
# 3 -0.008368 -0.001720 0.021391 0.000000 0.000000 0.000000
# 4 0.000000 0.000000 0.000000 0.012339 0.000000 0.000000
# 5 0.000000 0.000000 0.000000 0.000000 -0.016044 0.000000
# 6 0.000000 0.000000 0.000000 0.000000 0.000000 0.058006
#
#
# Mechanical properties :
#
#
# Convention : Reuss Voigt Hill
#
# Bulk Modulus (GPa) = 47.22564 53.67797 50.45181
# Shear Modulus (GPa) = 35.39978 17.33195 26.36587
#
# Velocity S-wave (km/s) = 4.08780 2.86031 3.52785
# Velocity P-wave (km/s) = 6.67626 6.02051 6.35685
#
# Compressibility (1/GPa) = 0.02117494
#
# Stress axis : x y z
#
# Youngs Moduli (GPa) = 72.85521 64.88192 46.74757
#
# Poissons Ratio (x) = 0.29780 0.39117
# Poissons Ratio (y) = 0.33440 0.08040
# Poissons Ratio (z) = 0.60962 0.11159
#
# Static dielectric constant tensor:
#      x y z
#    x 5.173720 0.000000 0.000000 
#    y 0.000000 3.654480 0.000000 
#    z 0.000000 0.000000 3.871520 
# 
# 
# High freq. dielectric constant tensor:
#      x y z
#    x 1.843530 0.000000 0.000000 
#    y 0.000000 1.819680 0.000000 
#    z 0.000000 0.000000 1.837570 
# 
# From -- ./inp_files/11320.got.cif
#   From: 2010.06.25/outbox.cif.g09.slc.cpg/sg43_6_cif.got.tgz:11320.got - 2010.06.26 16:48:59.
