data_PCOD8187138
_publ_section_title
;
Structure prediction by ZEFSAII (Michael W. Deem and Ramdas Pophale) SiO2 
 PCOD8187138
Probable space group: F D D 2
;
_chemical_formula_sum "Si O2"
_cell_formula_units_Z 80
_cell_length_a 19.734842
_cell_length_b 13.487674
_cell_length_c 14.027374
_cell_angle_alpha 90.000000
_cell_angle_beta 90.000000
_cell_angle_gamma 90.000000
_cell_volume 3733.765947
_symmetry_space_group_name_H-M "F D D 2"
_symmetry_group_IT_number 43
_symmetry_cell_setting 'orthorhombic'
loop_
_space_group_symop_operation_xyz
x,y,z
-x,-y,z
1/4-x,1/4+y,1/4+z
1/4+x,1/4-y,1/4+z
x,1/2+y,1/2+z
-x,1/2-y,1/2+z
1/4-x,3/4+y,3/4+z
1/4+x,3/4-y,3/4+z
1/2+x,y,1/2+z
1/2-x,-y,1/2+z
3/4-x,1/4+y,3/4+z
3/4+x,1/4-y,3/4+z
1/2+x,1/2+y,z
1/2-x,1/2-y,z
3/4-x,3/4+y,1/4+z
3/4+x,3/4-y,1/4+z
loop_
_atom_site_type_symbol
_atom_site_label
_atom_site_fract_x
_atom_site_fract_y
_atom_site_fract_z
Si Si1 0.578025 0.257207 0.937650
Si Si2 0.520197 0.144654 0.094189
Si Si3 0.257950 0.632466 0.555452
Si Si4 0.323821 0.203284 0.591505
Si Si5 0.605780 0.969199 0.034154
O O1 0.549217 0.349430 0.879329
O O2 0.574922 0.162710 0.868385
O O3 0.534930 0.244403 0.035332
O O4 0.651986 0.282758 0.981692
O O5 0.494201 0.162511 0.200915
O O6 0.459779 0.098355 0.033670
O O7 0.586882 0.071508 0.089885
O O8 0.250000 0.750000 0.550827
O O9 0.331707 0.588546 0.584832
O O10 0.250000 0.250000 0.598828
O O11 0.371859 0.257471 0.671795
#
# Coordination Sequence:
#
# PCOD8187138 Si02
#       5
#    16  16  16  16  16
#     4  11  26  43  69 109 141 185 234 298 359 421
#     4  10  21  41  70 104 130 186 237 294 341 425
#     4  12  26  43  69 107 148 185 231 298 365 425
#     4  11  23  44  75 102 140 185 245 289 355 422
#     4  10  20  40  72  99 133 180 249 285 335 422
#
# _framework density 21.426088
#
# number of rings (size 3 to 8) (size 9 to 14) (size 15 to 20)
#    0.000    1.200    8.000    0.000    8.400    1.600 
#    0.000    5.000    0.000    0.000    0.000    0.000 
#    0.000    0.000    0.000    0.000    0.000    0.000 
#
# Total GULP energy -247813.807193 kJ/mol
# GULP energy per Si atom -12390.690360 kJ/mol
# Density = 2.137732 g / cm^3
# Si number density = 21.426088 Si / 1000 Ang^3
#
#
#
# Elastic Constant Matrix: (Units=GPa)
#
#
# Indices 1 2 3 4 5 6 
#
# 1 76.8933 24.5582 42.2472 0.0000 0.0000 0.0000
# 2 24.5582 67.3734 44.7418 0.0000 0.0000 0.0000
# 3 42.2472 44.7418 128.1112 0.0000 0.0000 0.0000
# 4 0.0000 0.0000 0.0000 25.7539 0.0000 0.0000
# 5 0.0000 0.0000 0.0000 0.0000 39.9852 0.0000
# 6 0.0000 0.0000 0.0000 0.0000 0.0000 18.9491
#
#
#
# Elastic Compliance Matrix: (Units=1/GPa)
#
#
# Indices 1 2 3 4 5 6 
#
# 1 0.016365 -0.003100 -0.004314 0.000000 0.000000 0.000000
# 2 -0.003100 0.019912 -0.005932 0.000000 0.000000 0.000000
# 3 -0.004314 -0.005932 0.011300 0.000000 0.000000 0.000000
# 4 0.000000 0.000000 0.000000 0.038829 0.000000 0.000000
# 5 0.000000 0.000000 0.000000 0.000000 0.025009 0.000000
# 6 0.000000 0.000000 0.000000 0.000000 0.000000 0.052773
#
#
# Mechanical properties :
#
#
# Convention : Reuss Voigt Hill
#
# Bulk Modulus (GPa) = 47.88108 55.05250 51.46679
# Shear Modulus (GPa) = 25.27261 27.65969 26.46615
#
# Velocity S-wave (km/s) = 3.43815 3.59686 3.51840
# Velocity P-wave (km/s) = 6.17712 6.55742 6.37011
#
# Compressibility (1/GPa) = 0.02088507
#
# Stress axis : x y z
#
# Youngs Moduli (GPa) = 61.10415 50.22111 88.49606
#
# Poissons Ratio (x) = 0.15571 0.38178
# Poissons Ratio (y) = 0.18945 0.52493
# Poissons Ratio (z) = 0.26361 0.29789
#
# Static dielectric constant tensor:
#      x y z
#    x 3.788650 0.000000 0.000000 
#    y 0.000000 3.842160 0.000000 
#    z 0.000000 0.000000 3.953620 
# 
# 
# High freq. dielectric constant tensor:
#      x y z
#    x 1.830830 0.000000 0.000000 
#    y 0.000000 1.827780 0.000000 
#    z 0.000000 0.000000 1.840930 
# 
# From -- ./inp_files/10865.got.cif
#   From: 2010.06.25/outbox.cif.g09.slc.cpg/sg43_6_cif.got.tgz:10865.got - 2010.06.26 16:48:59.
