data_PCOD8187696
_publ_section_title
;
Structure prediction by ZEFSAII (Michael W. Deem and Ramdas Pophale) SiO2 
 PCOD8187696
Probable space group: F D D 2
;
_chemical_formula_sum "Si O2"
_cell_formula_units_Z 120
_cell_length_a 10.365659
_cell_length_b 19.925879
_cell_length_c 25.296798
_cell_angle_alpha 90.000000
_cell_angle_beta 90.000000
_cell_angle_gamma 90.000000
_cell_volume 5224.923778
_symmetry_space_group_name_H-M "F D D 2"
_symmetry_group_IT_number 43
_symmetry_cell_setting 'orthorhombic'
loop_
_space_group_symop_operation_xyz
x,y,z
-x,-y,z
1/4-x,1/4+y,1/4+z
1/4+x,1/4-y,1/4+z
x,1/2+y,1/2+z
-x,1/2-y,1/2+z
1/4-x,3/4+y,3/4+z
1/4+x,3/4-y,3/4+z
1/2+x,y,1/2+z
1/2-x,-y,1/2+z
3/4-x,1/4+y,3/4+z
3/4+x,1/4-y,3/4+z
1/2+x,1/2+y,z
1/2-x,1/2-y,z
3/4-x,3/4+y,1/4+z
3/4+x,3/4-y,1/4+z
loop_
_atom_site_type_symbol
_atom_site_label
_atom_site_fract_x
_atom_site_fract_y
_atom_site_fract_z
Si Si1 0.439334 0.237229 0.865530
Si Si2 0.821494 0.685661 0.357401
Si Si3 0.767512 0.081844 0.944635
Si Si4 0.020674 0.094653 0.387381
Si Si5 0.545512 0.689603 0.704372
Si Si6 0.336357 0.899870 0.785244
Si Si7 0.750000 0.250000 0.279585
Si Si8 0.350109 0.800939 0.472991
O O1 0.533978 0.293931 0.841205
O O2 0.525569 0.174729 0.883486
O O3 0.343473 0.209567 0.820232
O O4 0.369228 0.270190 0.915182
O O5 0.750000 0.750000 0.384095
O O6 0.831356 0.620852 0.395695
O O7 0.746546 0.663788 0.304916
O O8 0.611771 0.077886 0.937971
O O9 0.804001 0.002524 0.948684
O O10 0.803492 0.121439 0.997192
O O11 0.087213 0.064006 0.333924
O O12 0.876434 0.068156 0.398893
O O13 0.657250 0.699602 0.748052
O O14 0.460917 0.624722 0.717600
O O15 0.235951 0.948773 0.754840
O O16 0.250000 0.750000 0.502317
#
# Coordination Sequence:
#
# PCOD8187696 Si02
#       8
#    16  16  16  16  16  16   8  16
#     4  12  22  46  72 102 133 190 247 288 349 445
#     4  11  23  43  71 100 139 180 240 289 345 437
#     4  11  23  42  68 105 136 187 235 297 363 418
#     4  11  23  44  70 104 147 184 238 300 354 448
#     4  12  25  43  68 105 151 180 246 307 363 440
#     4  11  25  42  75 103 142 188 238 301 364 438
#     4  12  24  40  76  96 136 194 236 290 362 426
#     4  12  26  47  73 105 146 193 246 304 372 436
#
# _framework density 22.966842
#
# number of rings (size 3 to 8) (size 9 to 14) (size 15 to 20)
#    0.000    0.533    7.333    1.600    1.867    0.000 
#    0.000   17.333    0.000    0.000    0.000    0.000 
#    0.000    0.000    0.000    0.000    0.000    0.000 
#
# Total GULP energy -371720.344060 kJ/mol
# GULP energy per Si atom -12390.678135 kJ/mol
# Density = 2.291457 g / cm^3
# Si number density = 22.966842 Si / 1000 Ang^3
#
#
#
# Elastic Constant Matrix: (Units=GPa)
#
#
# Indices 1 2 3 4 5 6 
#
# 1 71.1162 20.8578 36.7868 0.0000 0.0000 0.0000
# 2 20.8578 111.7291 27.0529 0.0000 0.0000 0.0000
# 3 36.7868 27.0529 101.8256 0.0000 0.0000 0.0000
# 4 0.0000 0.0000 0.0000 13.2067 0.0000 0.0000
# 5 0.0000 0.0000 0.0000 0.0000 44.7695 0.0000
# 6 0.0000 0.0000 0.0000 0.0000 0.0000 48.1838
#
#
#
# Elastic Compliance Matrix: (Units=1/GPa)
#
#
# Indices 1 2 3 4 5 6 
#
# 1 0.017652 -0.001872 -0.005880 0.000000 0.000000 0.000000
# 2 -0.001872 0.009764 -0.001918 0.000000 0.000000 0.000000
# 3 -0.005880 -0.001918 0.012455 0.000000 0.000000 0.000000
# 4 0.000000 0.000000 0.000000 0.075719 0.000000 0.000000
# 5 0.000000 0.000000 0.000000 0.000000 0.022337 0.000000
# 6 0.000000 0.000000 0.000000 0.000000 0.000000 0.020754
#
#
# Mechanical properties :
#
#
# Convention : Reuss Voigt Hill
#
# Bulk Modulus (GPa) = 48.70546 50.45177 49.57862
# Shear Modulus (GPa) = 27.04703 34.56355 30.80529
#
# Velocity S-wave (km/s) = 3.43542 3.88355 3.66634
# Velocity P-wave (km/s) = 6.08186 6.49032 6.28941
#
# Compressibility (1/GPa) = 0.02053158
#
# Stress axis : x y z
#
# Youngs Moduli (GPa) = 56.65085 102.41705 80.29207
#
# Poissons Ratio (x) = 0.19168 0.47211
# Poissons Ratio (y) = 0.10603 0.15399
# Poissons Ratio (z) = 0.33310 0.19643
#
# Static dielectric constant tensor:
#      x y z
#    x 4.508300 0.000000 0.000000 
#    y 0.000000 4.132570 0.000000 
#    z 0.000000 0.000000 4.217050 
# 
# 
# High freq. dielectric constant tensor:
#      x y z
#    x 1.919070 0.000000 0.000000 
#    y 0.000000 1.898160 0.000000 
#    z 0.000000 0.000000 1.900930 
# 
# From -- ./inp_files/21256.got.cif
#   From: 2010.06.25/outbox.cif.g09.slc.cpg/sg43_11_cif.got.tgz:21256.got - 2010.06.26 16:48:59.
