data_PCOD8187441
_publ_section_title
;
Structure prediction by ZEFSAII (Michael W. Deem and Ramdas Pophale) SiO2 
 PCOD8187441
Probable space group: F D D 2
;
_chemical_formula_sum "Si O2"
_cell_formula_units_Z 88
_cell_length_a 8.920429
_cell_length_b 19.188551
_cell_length_c 22.274665
_cell_angle_alpha 90.000000
_cell_angle_beta 90.000000
_cell_angle_gamma 90.000000
_cell_volume 3812.756787
_symmetry_space_group_name_H-M "F D D 2"
_symmetry_group_IT_number 43
_symmetry_cell_setting 'orthorhombic'
loop_
_space_group_symop_operation_xyz
x,y,z
-x,-y,z
1/4-x,1/4+y,1/4+z
1/4+x,1/4-y,1/4+z
x,1/2+y,1/2+z
-x,1/2-y,1/2+z
1/4-x,3/4+y,3/4+z
1/4+x,3/4-y,3/4+z
1/2+x,y,1/2+z
1/2-x,-y,1/2+z
3/4-x,1/4+y,3/4+z
3/4+x,1/4-y,3/4+z
1/2+x,1/2+y,z
1/2-x,1/2-y,z
3/4-x,3/4+y,1/4+z
3/4+x,3/4-y,1/4+z
loop_
_atom_site_type_symbol
_atom_site_label
_atom_site_fract_x
_atom_site_fract_y
_atom_site_fract_z
Si Si1 0.315405 0.894485 0.496440
Si Si2 0.180554 0.905751 0.372013
Si Si3 0.483309 0.420408 0.515129
Si Si4 0.000000 0.000000 0.076239
Si Si5 0.590455 0.720189 0.077990
Si Si6 0.603183 0.875446 0.653458
O O1 0.308132 0.905769 0.424501
O O2 0.143966 0.882230 0.515130
O O3 0.403353 0.823351 0.515158
O O4 0.385900 0.959808 0.532120
O O5 0.181645 0.833730 0.334450
O O6 0.011763 0.915139 0.394471
O O7 0.219371 0.967790 0.324986
O O8 0.500000 0.500000 0.493919
O O9 0.356829 0.377072 0.476278
O O10 0.904071 0.049545 0.121059
O O11 0.750000 0.750000 0.096899
O O12 0.538604 0.668396 0.131093
#
# Coordination Sequence:
#
# PCOD8187441 Si02
#       6
#    16  16  16   8  16  16
#     4  10  23  41  67  99 137 173 229 286 344 417
#     4  11  23  43  68  98 140 185 224 289 350 414
#     4  11  22  42  65  95 133 181 231 280 348 414
#     4  10  22  44  70 108 134 178 238 292 342 414
#     4  11  22  43  66  99 137 176 233 282 348 412
#     4  10  23  44  68  97 140 181 233 286 348 421
#
# _framework density 23.080413
#
# number of rings (size 3 to 8) (size 9 to 14) (size 15 to 20)
#    0.000    1.455    1.818    3.818    1.273    0.727 
#    9.818    0.000    0.000    0.000    0.000    0.000 
#    0.000    0.000    0.000    0.000    0.000    0.000 
#
# Total GULP energy -272546.917656 kJ/mol
# GULP energy per Si atom -12388.496257 kJ/mol
# Density = 2.302788 g / cm^3
# Si number density = 23.080413 Si / 1000 Ang^3
#
#
#
# Elastic Constant Matrix: (Units=GPa)
#
#
# Indices 1 2 3 4 5 6 
#
# 1 70.8650 42.6806 28.8196 0.0000 0.0000 0.0000
# 2 42.6806 120.4732 68.9163 0.0000 0.0000 0.0000
# 3 28.8196 68.9163 146.2646 0.0000 0.0000 0.0000
# 4 0.0000 0.0000 0.0000 31.9306 0.0000 0.0000
# 5 0.0000 0.0000 0.0000 0.0000 30.4423 0.0000
# 6 0.0000 0.0000 0.0000 0.0000 0.0000 35.9609
#
#
#
# Elastic Compliance Matrix: (Units=1/GPa)
#
#
# Indices 1 2 3 4 5 6 
#
# 1 0.017998 -0.005952 -0.000742 0.000000 0.000000 0.000000
# 2 -0.005952 0.013332 -0.005109 0.000000 0.000000 0.000000
# 3 -0.000742 -0.005109 0.009390 0.000000 0.000000 0.000000
# 4 0.000000 0.000000 0.000000 0.031318 0.000000 0.000000
# 5 0.000000 0.000000 0.000000 0.000000 0.032849 0.000000
# 6 0.000000 0.000000 0.000000 0.000000 0.000000 0.027808
#
#
# Mechanical properties :
#
#
# Convention : Reuss Voigt Hill
#
# Bulk Modulus (GPa) = 58.42944 68.71509 63.57227
# Shear Modulus (GPa) = 30.86338 32.81251 31.83795
#
# Velocity S-wave (km/s) = 3.66076 3.77458 3.71810
# Velocity P-wave (km/s) = 6.57562 6.98808 6.78498
#
# Compressibility (1/GPa) = 0.01711466
#
# Stress axis : x y z
#
# Youngs Moduli (GPa) = 55.56274 75.00956 106.49325
#
# Poissons Ratio (x) = 0.44644 0.07901
# Poissons Ratio (y) = 0.33069 0.54406
# Poissons Ratio (z) = 0.04122 0.38321
#
# Static dielectric constant tensor:
#      x y z
#    x 4.047890 0.000000 0.000000 
#    y 0.000000 4.191770 0.000000 
#    z 0.000000 0.000000 4.305060 
# 
# 
# High freq. dielectric constant tensor:
#      x y z
#    x 1.906010 0.000000 0.000000 
#    y 0.000000 1.910330 0.000000 
#    z 0.000000 0.000000 1.911590 
# 
# From -- ./inp_files/20199.got.cif
#   From: 2010.06.25/outbox.cif.g09.slc.cpg/sg43_11_cif.got.tgz:20199.got - 2010.06.26 16:48:59.
