data_PCOD8187909
_publ_section_title
;
Structure prediction by ZEFSAII (Michael W. Deem and Ramdas Pophale) SiO2 
 PCOD8187909
Probable space group: I M M 2
;
_chemical_formula_sum "Si O2"
_cell_formula_units_Z 64
_cell_length_a 14.682018
_cell_length_b 8.991256
_cell_length_c 28.121082
_cell_angle_alpha 90.000000
_cell_angle_beta 90.000000
_cell_angle_gamma 90.000000
_cell_volume 3712.257917
_symmetry_space_group_name_H-M "I M M 2"
_symmetry_group_IT_number 44
_symmetry_cell_setting 'orthorhombic'
loop_
_space_group_symop_operation_xyz
x,y,z
-x,-y,z
-x,y,z
x,-y,z
1/2+x,1/2+y,1/2+z
1/2-x,1/2-y,1/2+z
1/2-x,1/2+y,1/2+z
1/2+x,1/2-y,1/2+z
loop_
_atom_site_type_symbol
_atom_site_label
_atom_site_fract_x
_atom_site_fract_y
_atom_site_fract_z
Si Si1 0.396652 0.674676 0.151730
Si Si2 0.605528 0.329877 0.260395
Si Si3 0.605422 0.825769 0.535868
Si Si4 0.226348 0.176583 0.114050
Si Si5 0.100781 0.323501 0.928725
Si Si6 0.100995 0.823669 0.197651
Si Si7 0.215120 0.676432 0.841790
Si Si8 0.900338 0.176947 0.303679
O O1 0.500000 0.719035 0.138101
O O2 0.382374 0.500000 0.145118
O O3 0.376631 0.720938 0.206212
O O4 0.328934 0.760983 0.116293
O O5 0.500000 0.310473 0.273078
O O6 0.635780 0.500000 0.267619
O O7 0.662524 0.225723 0.294860
O O8 0.500000 0.786518 0.547238
O O9 0.674126 0.732268 0.567663
O O10 0.629455 0.777684 0.481873
O O11 0.622623 0.000000 0.543841
O O12 0.173223 0.240846 0.160191
O O13 0.229499 0.000000 0.112705
O O14 0.098450 0.500000 0.925322
O O15 0.170853 0.256283 0.889857
O O16 0.000000 0.260843 0.917097
O O17 0.121911 0.762983 0.250584
O O18 0.000000 0.771532 0.182028
O O19 0.106329 0.000000 0.197293
O O20 0.210884 0.500000 0.843014
O O21 0.320353 0.732085 0.838890
O O22 0.000000 0.236183 0.320606
O O23 0.903040 0.000000 0.301830
#
# Coordination Sequence:
#
# PCOD8187909 Si02
#       8
#     8   8   8   8   8   8   8   8
#     4   9  19  35  50  64  90 129 164 190 223 276
#     4   9  18  31  45  65  96 128 153 183 228 278
#     4   9  18  33  50  66  90 126 160 188 229 290
#     4  11  20  29  47  73  95 116 150 198 245 282
#     4   8  15  28  45  66  91 118 151 193 237 278
#     4   8  14  24  37  58  92 125 145 169 216 275
#     4  10  17  26  46  71  91 118 159 201 236 270
#     4   8  14  24  38  60  91 121 146 177 220 265
#
# _framework density 17.240182999999998
#
# number of rings (size 3 to 8) (size 9 to 14) (size 15 to 20)
#    0.000    3.000    0.000    4.125    0.000    3.250 
#    0.000    1.875    0.000    1.875    0.000    7.000 
#    0.000    0.000    0.000    0.000    0.000    0.000 
#
# Total GULP energy -396604.356591 kJ/mol
# GULP energy per Si atom -12393.886143 kJ/mol
# Density = 1.720094 g / cm^3
# Si number density = 17.240183 Si / 1000 Ang^3
#
#
#
# Elastic Constant Matrix: (Units=GPa)
#
#
# Indices 1 2 3 4 5 6 
#
# 1 139.4756 33.1983 86.7725 0.0000 0.0000 0.0000
# 2 33.1983 28.4400 27.3672 0.0000 0.0000 0.0000
# 3 86.7725 27.3672 102.5193 0.0000 0.0000 0.0000
# 4 0.0000 0.0000 0.0000 19.8062 0.0000 0.0000
# 5 0.0000 0.0000 0.0000 0.0000 31.3224 0.0000
# 6 0.0000 0.0000 0.0000 0.0000 0.0000 17.7139
#
#
#
# Elastic Compliance Matrix: (Units=1/GPa)
#
#
# Indices 1 2 3 4 5 6 
#
# 1 0.016322 -0.007750 -0.011746 0.000000 0.000000 0.000000
# 2 -0.007750 0.050996 -0.007054 0.000000 0.000000 0.000000
# 3 -0.011746 -0.007054 0.021579 0.000000 0.000000 0.000000
# 4 0.000000 0.000000 0.000000 0.050489 0.000000 0.000000
# 5 0.000000 0.000000 0.000000 0.000000 0.031926 0.000000
# 6 0.000000 0.000000 0.000000 0.000000 0.000000 0.056453
#
#
# Mechanical properties :
#
#
# Convention : Reuss Voigt Hill
#
# Bulk Modulus (GPa) = 27.93487 62.79010 45.36248
# Shear Modulus (GPa) = 17.07668 21.97499 19.52583
#
# Velocity S-wave (km/s) = 3.15066 3.57408 3.36903
# Velocity P-wave (km/s) = 5.42900 7.31655 6.44228
#
# Compressibility (1/GPa) = 0.03579756
#
# Stress axis : x y z
#
# Youngs Moduli (GPa) = 61.26676 19.60950 46.34068
#
# Poissons Ratio (x) = 0.15197 0.54433
# Poissons Ratio (y) = 0.47480 0.32688
# Poissons Ratio (z) = 0.71966 0.13832
#
# Static dielectric constant tensor:
#      x y z
#    x 3.533520 0.000000 0.000000 
#    y 0.000000 2.781630 0.000000 
#    z 0.000000 0.000000 3.257030 
# 
# 
# High freq. dielectric constant tensor:
#      x y z
#    x 1.671560 0.000000 0.000000 
#    y 0.000000 1.626850 0.000000 
#    z 0.000000 0.000000 1.648790 
# 
# From -- ./inp_files/27509.got.cif
#   From: 2010.03.12/outbox.cif.g09.slc.cpg/sg44_14_cif.got.tgz:27509.got - 2010.04.14 02:36:11.
