data_PCOD8187915
_publ_section_title
;
Structure prediction by ZEFSAII (Michael W. Deem and Ramdas Pophale) SiO2 
 PCOD8187915
Probable space group: I M M 2
;
_chemical_formula_sum "Si O2"
_cell_formula_units_Z 56
_cell_length_a 8.660601
_cell_length_b 22.621408
_cell_length_c 17.853401
_cell_angle_alpha 90.000000
_cell_angle_beta 90.000000
_cell_angle_gamma 90.000000
_cell_volume 3497.748856
_symmetry_space_group_name_H-M "I M M 2"
_symmetry_group_IT_number 44
_symmetry_cell_setting 'orthorhombic'
loop_
_space_group_symop_operation_xyz
x,y,z
-x,-y,z
-x,y,z
x,-y,z
1/2+x,1/2+y,1/2+z
1/2-x,1/2-y,1/2+z
1/2-x,1/2+y,1/2+z
1/2+x,1/2-y,1/2+z
loop_
_atom_site_type_symbol
_atom_site_label
_atom_site_fract_x
_atom_site_fract_y
_atom_site_fract_z
Si Si1 0.816239 0.067243 0.248280
Si Si2 0.318909 0.222079 0.826483
Si Si3 0.680231 0.316913 0.014605
Si Si4 0.319721 0.693741 0.469622
Si Si5 0.820093 0.153346 0.123416
Si Si6 0.317749 0.848127 0.367749
Si Si7 0.819170 0.283367 0.159270
O O1 0.750588 0.100641 0.173727
O O2 0.742008 0.096049 0.321419
O O3 0.000000 0.071182 0.254583
O O4 0.759577 0.000000 0.242524
O O5 0.500000 0.224790 0.841336
O O6 0.239275 0.176774 0.886315
O O7 0.254321 0.288254 0.834116
O O8 0.282374 0.196395 0.743990
O O9 0.500000 0.329273 0.009589
O O10 0.737547 0.327709 0.100115
O O11 0.720475 0.250204 0.992630
O O12 0.765718 0.358708 0.954091
O O13 0.500000 0.710628 0.467361
O O14 0.289010 0.643805 0.533665
O O15 0.752757 0.216813 0.148793
O O16 0.000000 0.154535 0.140309
O O17 0.500000 0.843412 0.362768
O O18 0.000000 0.284450 0.141636
#
# Coordination Sequence:
#
# PCOD8187915 Si02
#       7
#     8   8   8   8   8   8   8
#     4  10  19  32  49  65  82 112 155 192 223 258
#     4  10  17  27  43  62  86 114 146 177 211 258
#     4  10  18  27  41  60  82 108 145 177 209 258
#     4   9  16  26  39  57  83 112 142 172 213 259
#     4   8  14  27  42  57  80 111 141 175 218 255
#     4  11  20  30  43  59  85 115 146 180 222 261
#     4   9  16  27  42  59  86 114 139 172 214 260
#
# _framework density 16.010297999999999
#
# number of rings (size 3 to 8) (size 9 to 14) (size 15 to 20)
#    0.000    2.429    1.429    6.000    0.000    1.429 
#    0.000    0.714    0.000    0.000    0.000    0.000 
#    0.000    1.143    0.000   10.571    0.000    2.857 
#
# Total GULP energy -346926.980986 kJ/mol
# GULP energy per Si atom -12390.249321 kJ/mol
# Density = 1.597386 g / cm^3
# Si number density = 16.010298 Si / 1000 Ang^3
#
#
#
# Elastic Constant Matrix: (Units=GPa)
#
#
# Indices 1 2 3 4 5 6 
#
# 1 47.2847 15.3090 37.2609 0.0000 0.0000 0.0000
# 2 15.3090 49.5918 48.5821 0.0000 0.0000 0.0000
# 3 37.2609 48.5821 158.9825 0.0000 0.0000 0.0000
# 4 0.0000 0.0000 0.0000 17.7580 0.0000 0.0000
# 5 0.0000 0.0000 0.0000 0.0000 28.9448 0.0000
# 6 0.0000 0.0000 0.0000 0.0000 0.0000 10.6626
#
#
#
# Elastic Compliance Matrix: (Units=1/GPa)
#
#
# Indices 1 2 3 4 5 6 
#
# 1 0.026241 -0.002962 -0.005245 0.000000 0.000000 0.000000
# 2 -0.002962 0.029115 -0.008203 0.000000 0.000000 0.000000
# 3 -0.005245 -0.008203 0.010026 0.000000 0.000000 0.000000
# 4 0.000000 0.000000 0.000000 0.056313 0.000000 0.000000
# 5 0.000000 0.000000 0.000000 0.000000 0.034548 0.000000
# 6 0.000000 0.000000 0.000000 0.000000 0.000000 0.093786
#
#
# Mechanical properties :
#
#
# Convention : Reuss Voigt Hill
#
# Bulk Modulus (GPa) = 30.71122 50.90701 40.80911
# Shear Modulus (GPa) = 17.02409 21.78689 19.40549
#
# Velocity S-wave (km/s) = 3.26440 3.69291 3.48525
# Velocity P-wave (km/s) = 5.78206 7.07452 6.46069
#
# Compressibility (1/GPa) = 0.03256139
#
# Stress axis : x y z
#
# Youngs Moduli (GPa) = 38.10898 34.34691 99.74292
#
# Poissons Ratio (x) = 0.10175 0.52313
# Poissons Ratio (y) = 0.11290 0.81815
# Poissons Ratio (z) = 0.19987 0.28173
#
# Static dielectric constant tensor:
#      x y z
#    x 2.972900 0.000000 0.000000 
#    y 0.000000 2.622350 0.000000 
#    z 0.000000 0.000000 3.771650 
# 
# 
# High freq. dielectric constant tensor:
#      x y z
#    x 1.613820 0.000000 0.000000 
#    y 0.000000 1.533460 0.000000 
#    z 0.000000 0.000000 1.640490 
# 
# From -- ./inp_files/20671.got.cif
#   From: 2010.03.12/outbox.cif.g09.slc.cpg/sg44_11_cif.got.tgz:20671.got - 2010.04.14 02:36:11.
