data_PCOD8187433
_publ_section_title
;
Structure prediction by ZEFSAII (Michael W. Deem and Ramdas Pophale) SiO2 
 PCOD8187433
Probable space group: F D D 2
;
_chemical_formula_sum "Si O2"
_cell_formula_units_Z 120
_cell_length_a 24.682229
_cell_length_b 25.769071
_cell_length_c 8.632243
_cell_angle_alpha 90.000000
_cell_angle_beta 90.000000
_cell_angle_gamma 90.000000
_cell_volume 5490.435536
_symmetry_space_group_name_H-M "F D D 2"
_symmetry_group_IT_number 43
_symmetry_cell_setting 'orthorhombic'
loop_
_space_group_symop_operation_xyz
x,y,z
-x,-y,z
1/4-x,1/4+y,1/4+z
1/4+x,1/4-y,1/4+z
x,1/2+y,1/2+z
-x,1/2-y,1/2+z
1/4-x,3/4+y,3/4+z
1/4+x,3/4-y,3/4+z
1/2+x,y,1/2+z
1/2-x,-y,1/2+z
3/4-x,1/4+y,3/4+z
3/4+x,1/4-y,3/4+z
1/2+x,1/2+y,z
1/2-x,1/2-y,z
3/4-x,3/4+y,1/4+z
3/4+x,3/4-y,1/4+z
loop_
_atom_site_type_symbol
_atom_site_label
_atom_site_fract_x
_atom_site_fract_y
_atom_site_fract_z
Si Si1 0.680446 0.015200 0.369580
Si Si2 0.248422 0.344914 0.632688
Si Si3 0.250000 0.750000 0.328453
Si Si4 0.962326 0.727392 0.467977
Si Si5 0.165511 0.694997 0.548123
Si Si6 0.142128 0.124825 0.783774
Si Si7 0.802886 0.362546 0.832636
Si Si8 0.161401 0.416920 0.757232
O O1 0.707201 0.029959 0.533284
O O2 0.651023 0.063899 0.291491
O O3 0.726266 0.994045 0.254285
O O4 0.632137 0.974201 0.389836
O O5 0.223957 0.293356 0.712968
O O6 0.308070 0.347942 0.700200
O O7 0.254332 0.343336 0.445773
O O8 0.214932 0.395949 0.673459
O O9 0.201029 0.731298 0.437123
O O10 0.948753 0.674339 0.556818
O O11 0.919341 0.771085 0.524514
O O12 0.135269 0.649448 0.453166
O O13 0.205502 0.668290 0.672495
O O14 0.090755 0.139886 0.676886
O O15 0.860874 0.348474 0.902594
#
# Coordination Sequence:
#
# PCOD8187433 Si02
#       8
#    16  16   8  16  16  16  16  16
#     4  12  25  45  71 103 138 186 237 290 357 423
#     4  10  22  44  66  97 137 185 230 290 345 431
#     4  10  24  46  70  98 144 188 238 280 372 424
#     4  12  26  44  71 101 140 186 238 291 354 422
#     4  11  24  46  66 105 140 185 231 299 355 426
#     4  10  23  41  69  98 137 178 235 286 351 417
#     4  11  25  43  67 103 143 180 239 293 355 422
#     4  11  23  43  69 100 141 183 237 291 356 422
#
# _framework density 21.856190000000002
#
# number of rings (size 3 to 8) (size 9 to 14) (size 15 to 20)
#    0.000    1.067    4.000    1.600    3.733    3.733 
#    4.800    0.000    0.000    0.000    0.000    0.000 
#    0.000    0.000    0.000    0.000    0.000    0.000 
#
# Total GULP energy -372014.099165 kJ/mol
# GULP energy per Si atom -12400.469972 kJ/mol
# Density = 2.180644 g / cm^3
# Si number density = 21.856190 Si / 1000 Ang^3
#
#
#
# Elastic Constant Matrix: (Units=GPa)
#
#
# Indices 1 2 3 4 5 6 
#
# 1 67.8075 39.4635 38.2857 0.0026 -0.0017 -0.0029
# 2 39.4635 150.9980 60.0669 0.0019 -0.0026 -0.0009
# 3 38.2857 60.0669 150.0828 0.0155 -0.0196 -0.0067
# 4 0.0026 0.0019 0.0155 37.3358 -0.0094 -0.0024
# 5 -0.0017 -0.0026 -0.0196 -0.0094 40.1023 0.0047
# 6 -0.0029 -0.0009 -0.0067 -0.0024 0.0047 26.4633
#
#
#
# Elastic Compliance Matrix: (Units=1/GPa)
#
#
# Indices 1 2 3 4 5 6 
#
# 1 0.018709 -0.003557 -0.003349 0.000000 -0.000001 0.000001
# 2 -0.003557 0.008553 -0.002516 0.000001 -0.000001 -0.000001
# 3 -0.003349 -0.002516 0.008524 -0.000003 0.000004 0.000002
# 4 0.000000 0.000001 -0.000003 0.026784 0.000006 0.000002
# 5 -0.000001 -0.000001 0.000004 0.000006 0.024936 -0.000004
# 6 0.000001 -0.000001 0.000002 0.000002 -0.000004 0.037788
#
#
# Mechanical properties :
#
#
# Convention : Reuss Voigt Hill
#
# Bulk Modulus (GPa) = 59.02414 71.61340 65.31877
# Shear Modulus (GPa) = 33.38106 36.18511 34.78308
#
# Velocity S-wave (km/s) = 3.91231 4.07332 3.99363
# Velocity P-wave (km/s) = 6.89003 7.41346 7.15654
#
# Compressibility (1/GPa) = 0.01694222
#
# Stress axis : x y z
#
# Youngs Moduli (GPa) = 53.45065 116.91712 117.31457
#
# Poissons Ratio (x) = 0.41592 0.39286
# Poissons Ratio (y) = 0.19015 0.29512
# Poissons Ratio (z) = 0.17900 0.29412
#
# Static dielectric constant tensor:
#      x y z
#    x 3.695340 0.000020 0.000020 
#    y 0.000020 4.065920 -0.000040 
#    z 0.000020 -0.000040 4.285250 
# 
# 
# High freq. dielectric constant tensor:
#      x y z
#    x 1.842610 0.000000 0.000000 
#    y 0.000000 1.869280 0.000000 
#    z 0.000000 0.000000 1.872640 
# 
# From -- ./inp_files/4343.got.cif
#   From: 2010.06.25/outbox.cif.g09.slc.cpg/sg43_3_cif.got.tgz:4343.got - 2010.06.26 16:48:59.
