data_PCOD8187686
_publ_section_title
;
Structure prediction by ZEFSAII (Michael W. Deem and Ramdas Pophale) SiO2 
 PCOD8187686
Probable space group: F D D 2
;
_chemical_formula_sum "Si O2"
_cell_formula_units_Z 64
_cell_length_a 21.571507
_cell_length_b 6.292791
_cell_length_c 18.543306
_cell_angle_alpha 90.000000
_cell_angle_beta 90.000000
_cell_angle_gamma 90.000000
_cell_volume 2517.160797
_symmetry_space_group_name_H-M "F D D 2"
_symmetry_group_IT_number 43
_symmetry_cell_setting 'orthorhombic'
loop_
_space_group_symop_operation_xyz
x,y,z
-x,-y,z
1/4-x,1/4+y,1/4+z
1/4+x,1/4-y,1/4+z
x,1/2+y,1/2+z
-x,1/2-y,1/2+z
1/4-x,3/4+y,3/4+z
1/4+x,3/4-y,3/4+z
1/2+x,y,1/2+z
1/2-x,-y,1/2+z
3/4-x,1/4+y,3/4+z
3/4+x,1/4-y,3/4+z
1/2+x,1/2+y,z
1/2-x,1/2-y,z
3/4-x,3/4+y,1/4+z
3/4+x,3/4-y,1/4+z
loop_
_atom_site_type_symbol
_atom_site_label
_atom_site_fract_x
_atom_site_fract_y
_atom_site_fract_z
Si Si1 0.250000 0.250000 0.973460
Si Si2 0.607832 0.148586 0.893788
Si Si3 0.500000 0.500000 0.484989
Si Si4 0.047999 0.694037 0.601606
Si Si5 0.311459 0.385669 0.529580
O O1 0.285246 0.425178 0.925105
O O2 0.204322 0.365006 0.030864
O O3 0.630016 0.358310 0.849514
O O4 0.610059 0.940258 0.841121
O O5 0.542111 0.154708 0.934935
O O6 0.664240 0.143779 0.949141
O O7 0.544034 0.351770 0.533121
O O8 0.000000 0.500000 0.591497
O O9 0.250000 0.250000 0.542799
#
# Coordination Sequence:
#
# PCOD8187686 Si02
#       5
#     8  16   8  16  16
#     4  11  22  48  80 114 152 213 274 328 411 500
#     4  12  25  52  77 116 169 204 269 349 409 503
#     4  11  28  48  78 126 156 215 284 332 423 500
#     4  11  23  51  80 112 162 216 271 343 418 488
#     4  12  26  50  79 114 162 210 273 334 415 495
#
# _framework density 25.425469
#
# number of rings (size 3 to 8) (size 9 to 14) (size 15 to 20)
#    0.000    0.500    6.250    1.500    3.500    2.000 
#    6.750    0.000    0.000    0.000    0.000    0.000 
#    0.000    0.000    0.000    0.000    0.000    0.000 
#
# Total GULP energy -198212.128363 kJ/mol
# GULP energy per Si atom -12388.258023 kJ/mol
# Density = 2.536760 g / cm^3
# Si number density = 25.425469 Si / 1000 Ang^3
#
#
#
# Elastic Constant Matrix: (Units=GPa)
#
#
# Indices 1 2 3 4 5 6 
#
# 1 117.5785 60.0434 43.2601 -0.0003 0.0031 0.0001
# 2 60.0434 138.1705 65.2706 -0.0007 0.0010 0.0002
# 3 43.2601 65.2706 139.2486 0.0000 0.0018 0.0000
# 4 -0.0003 -0.0007 0.0000 15.4324 -0.0027 0.0004
# 5 0.0031 0.0010 0.0018 -0.0027 -496.1532 -0.0031
# 6 0.0001 0.0002 0.0000 0.0004 -0.0031 65.1008
#
#
#
# Elastic Compliance Matrix: (Units=1/GPa)
#
#
# Indices 1 2 3 4 5 6 
#
# 1 0.011181 -0.004133 -0.001536 0.000000 0.000000 0.000000
# 2 -0.004133 0.010824 -0.003789 0.000000 0.000000 0.000000
# 3 -0.001536 -0.003789 0.009435 0.000000 0.000000 0.000000
# 4 0.000000 0.000000 0.000000 0.064799 0.000000 0.000000
# 5 0.000000 0.000000 0.000000 0.000000 -0.002016 0.000000
# 6 0.000000 0.000000 0.000000 0.000000 0.000000 0.015361
#
#
# Mechanical properties :
#
#
# Convention : Reuss Voigt Hill
#
# Bulk Modulus (GPa) = 79.85972 81.34954 80.60463
# Shear Modulus (GPa) = 37.68619 -68.02911 -15.17146
#
# Velocity S-wave (km/s) = 3.85414 -5.17826 -2.44540
# Velocity P-wave (km/s) = 7.16124 1.92035 4.87830
#
# Compressibility (1/GPa) = 0.01252196
#
# Stress axis : x y z
#
# Youngs Moduli (GPa) = 89.43940 92.39119 105.98985
#
# Poissons Ratio (x) = 0.38185 0.16282
# Poissons Ratio (y) = 0.36965 0.40164
# Poissons Ratio (z) = 0.13740 0.35010
#
# Static dielectric constant tensor:
#      x y z
#    x 8.654480 -0.000030 -0.000010 
#    y -0.000030 5.009520 0.000000 
#    z -0.000010 0.000000 4.771390 
# 
# 
# High freq. dielectric constant tensor:
#      x y z
#    x 2.010140 0.000000 0.000000 
#    y 0.000000 2.012170 0.000000 
#    z 0.000000 0.000000 2.023960 
# 
# From -- ./inp_files/18484.got.cif
#   From: 2010.06.25/outbox.cif.g09.slc.cpg/sg43_10_cif.got.tgz:18484.got - 2010.06.26 16:48:59.
