data_PCOD8187336
_publ_section_title
;
Structure prediction by ZEFSAII (Michael W. Deem and Ramdas Pophale) SiO2 
 PCOD8187336
Probable space group: F D D 2
;
_chemical_formula_sum "Si O2"
_cell_formula_units_Z 96
_cell_length_a 11.297661
_cell_length_b 17.195971
_cell_length_c 25.596897
_cell_angle_alpha 90.000000
_cell_angle_beta 90.000000
_cell_angle_gamma 90.000000
_cell_volume 4972.817991
_symmetry_space_group_name_H-M "F D D 2"
_symmetry_group_IT_number 43
_symmetry_cell_setting 'orthorhombic'
loop_
_space_group_symop_operation_xyz
x,y,z
-x,-y,z
1/4-x,1/4+y,1/4+z
1/4+x,1/4-y,1/4+z
x,1/2+y,1/2+z
-x,1/2-y,1/2+z
1/4-x,3/4+y,3/4+z
1/4+x,3/4-y,3/4+z
1/2+x,y,1/2+z
1/2-x,-y,1/2+z
3/4-x,1/4+y,3/4+z
3/4+x,1/4-y,3/4+z
1/2+x,1/2+y,z
1/2-x,1/2-y,z
3/4-x,3/4+y,1/4+z
3/4+x,3/4-y,1/4+z
loop_
_atom_site_type_symbol
_atom_site_label
_atom_site_fract_x
_atom_site_fract_y
_atom_site_fract_z
Si Si1 0.863158 0.528901 0.649650
Si Si2 0.562860 0.576038 0.474166
Si Si3 0.138031 0.881755 0.552233
Si Si4 0.250000 0.750000 0.714834
Si Si5 0.750000 0.250000 0.496034
Si Si6 0.538293 0.228182 0.784625
Si Si7 0.915448 0.343478 0.419167
O O1 0.837309 0.606071 0.682993
O O2 0.818531 0.553444 0.592268
O O3 0.783465 0.458673 0.671535
O O4 0.000000 0.500000 0.650607
O O5 0.500000 0.500000 0.446608
O O6 0.475688 0.596206 0.520345
O O7 0.683791 0.565121 0.505094
O O8 0.163318 0.793214 0.536329
O O9 0.106453 0.900573 0.612115
O O10 0.255802 0.930577 0.537386
O O11 0.347199 0.789054 0.751032
O O12 0.304242 0.682578 0.679884
O O13 0.819158 0.310356 0.459229
#
# Coordination Sequence:
#
# PCOD8187336 Si02
#       7
#    16  16  16   8   8  16  16
#     4  11  22  42  64  92 126 170 212 258 328 391
#     4  10  22  41  64  92 127 165 212 266 318 386
#     4  10  22  40  63  94 124 161 210 260 316 385
#     4  12  21  44  58  90 122 164 203 260 318 374
#     4  12  21  42  66  98 124 166 215 268 318 390
#     4  10  22  39  64  86 124 165 205 259 321 377
#     4  11  25  37  66  92 126 164 211 262 321 381
#
# _framework density 19.304949000000001
#
# number of rings (size 3 to 8) (size 9 to 14) (size 15 to 20)
#    0.000    1.333    4.167    1.500    5.833    0.000 
#    0.000    2.500    0.000    0.000    0.000    0.000 
#    0.000    0.000    0.000    0.000    0.000    0.000 
#
# Total GULP energy -297424.074524 kJ/mol
# GULP energy per Si atom -12392.669772 kJ/mol
# Density = 1.926101 g / cm^3
# Si number density = 19.304949 Si / 1000 Ang^3
#
#
#
# Elastic Constant Matrix: (Units=GPa)
#
#
# Indices 1 2 3 4 5 6 
#
# 1 105.6915 35.1738 44.5859 0.0000 0.0000 0.0000
# 2 35.1738 120.4725 63.1575 0.0000 0.0000 0.0000
# 3 44.5859 63.1575 106.1057 0.0000 0.0000 0.0000
# 4 0.0000 0.0000 0.0000 35.5321 0.0000 0.0000
# 5 0.0000 0.0000 0.0000 0.0000 35.6375 0.0000
# 6 0.0000 0.0000 0.0000 0.0000 0.0000 24.7833
#
#
#
# Elastic Compliance Matrix: (Units=1/GPa)
#
#
# Indices 1 2 3 4 5 6 
#
# 1 0.011620 -0.001211 -0.004162 0.000000 0.000000 0.000000
# 2 -0.001211 0.012192 -0.006748 0.000000 0.000000 0.000000
# 3 -0.004162 -0.006748 0.015190 0.000000 0.000000 0.000000
# 4 0.000000 0.000000 0.000000 0.028144 0.000000 0.000000
# 5 0.000000 0.000000 0.000000 0.000000 0.028060 0.000000
# 6 0.000000 0.000000 0.000000 0.000000 0.000000 0.040350
#
#
# Mechanical properties :
#
#
# Convention : Reuss Voigt Hill
#
# Bulk Modulus (GPa) = 67.75010 68.67822 68.21416
# Shear Modulus (GPa) = 30.35482 31.81409 31.08446
#
# Velocity S-wave (km/s) = 3.96963 4.06393 4.01706
# Velocity P-wave (km/s) = 7.49543 7.59430 7.54503
#
# Compressibility (1/GPa) = 0.01476012
#
# Stress axis : x y z
#
# Youngs Moduli (GPa) = 86.05674 82.02170 65.83129
#
# Poissons Ratio (x) = 0.09930 0.27401
# Poissons Ratio (y) = 0.10419 0.44425
# Poissons Ratio (z) = 0.35819 0.55351
#
# Static dielectric constant tensor:
#      x y z
#    x 3.774930 0.000000 0.000000 
#    y 0.000000 2.750360 0.000000 
#    z 0.000000 0.000000 3.587550 
# 
# 
# High freq. dielectric constant tensor:
#      x y z
#    x 1.761560 0.000000 0.000000 
#    y 0.000000 1.751640 0.000000 
#    z 0.000000 0.000000 1.758590 
# 
# From -- ./inp_files/18343.got.cif
#   From: 2010.06.25/outbox.cif.g09.slc.cpg/sg43_10_cif.got.tgz:18343.got - 2010.06.26 16:48:59.
