data_PCOD8187825
_publ_section_title
;
Structure prediction by ZEFSAII (Michael W. Deem and Ramdas Pophale) SiO2 
 PCOD8187825
Probable space group: F D D 2
;
_chemical_formula_sum "Si O2"
_cell_formula_units_Z 72
_cell_length_a 5.385525
_cell_length_b 18.634280
_cell_length_c 31.577382
_cell_angle_alpha 90.000000
_cell_angle_beta 90.000000
_cell_angle_gamma 90.000000
_cell_volume 3168.960195
_symmetry_space_group_name_H-M "F D D 2"
_symmetry_group_IT_number 43
_symmetry_cell_setting 'orthorhombic'
loop_
_space_group_symop_operation_xyz
x,y,z
-x,-y,z
1/4-x,1/4+y,1/4+z
1/4+x,1/4-y,1/4+z
x,1/2+y,1/2+z
-x,1/2-y,1/2+z
1/4-x,3/4+y,3/4+z
1/4+x,3/4-y,3/4+z
1/2+x,y,1/2+z
1/2-x,-y,1/2+z
3/4-x,1/4+y,3/4+z
3/4+x,1/4-y,3/4+z
1/2+x,1/2+y,z
1/2-x,1/2-y,z
3/4-x,3/4+y,1/4+z
3/4+x,3/4-y,1/4+z
loop_
_atom_site_type_symbol
_atom_site_label
_atom_site_fract_x
_atom_site_fract_y
_atom_site_fract_z
Si Si1 0.354612 0.390336 0.789110
Si Si2 0.500000 0.000000 0.831114
Si Si3 0.500000 0.500000 0.936727
Si Si4 0.145388 0.390336 0.373117
Si Si5 0.250000 0.250000 0.975500
Si Si6 0.250000 0.750000 0.921133
Si Si7 0.500000 0.500000 0.491095
O O1 0.500000 0.367843 0.831114
O O2 0.528541 0.427966 0.753927
O O3 0.230379 0.319433 0.770745
O O4 0.153821 0.450500 0.799661
O O5 0.653820 0.049501 0.862566
O O6 0.471458 0.427966 0.908300
O O7 0.749008 0.498615 0.964254
O O8 0.269620 0.319433 0.391482
O O9 0.499008 0.248615 0.947973
#
# Coordination Sequence:
#
# PCOD8187825 Si02
#       7
#    16   8   8  16   8   8   8
#     4  12  27  48  77 109 149 204 252 304 370 452
#     4  12  24  48  76 102 150 196 260 292 376 434
#     4  12  25  53  72 116 150 202 237 313 382 445
#     4  12  27  48  77 109 149 204 252 304 370 452
#     4  12  25  53  72 116 150 202 237 313 382 445
#     4  12  31  45  81 112 155 186 257 316 371 431
#     4  12  31  45  81 112 155 186 257 316 371 431
#
# _framework density 22.720388
#
# number of rings (size 3 to 8) (size 9 to 14) (size 15 to 20)
#    0.000    0.000    4.444    4.000    9.333    0.000 
#    0.000    0.000    0.000    0.000    0.000    0.000 
#    0.000    0.000    0.000    0.000    0.000    0.000 
#
# Total GULP energy -223261.046796 kJ/mol
# GULP energy per Si atom -12403.391489 kJ/mol
# Density = 2.266868 g / cm^3
# Si number density = 22.720388 Si / 1000 Ang^3
#
#
#
# Elastic Constant Matrix: (Units=GPa)
#
#
# Indices 1 2 3 4 5 6 
#
# 1 160.7190 61.0488 91.5297 0.0000 0.0000 0.0000
# 2 61.0488 196.5440 95.7613 0.0000 0.0000 0.0000
# 3 91.5297 95.7613 167.7298 0.0000 0.0000 0.0000
# 4 0.0000 0.0000 0.0000 -19.5362 0.0000 0.0000
# 5 0.0000 0.0000 0.0000 0.0000 126.6519 0.0000
# 6 0.0000 0.0000 0.0000 0.0000 0.0000 -0.2516
#
#
#
# Elastic Compliance Matrix: (Units=1/GPa)
#
#
# Indices 1 2 3 4 5 6 
#
# 1 0.009072 -0.000562 -0.004630 0.000000 0.000000 0.000000
# 2 -0.000562 0.007083 -0.003737 0.000000 0.000000 0.000000
# 3 -0.004630 -0.003737 0.010622 0.000000 0.000000 0.000000
# 4 0.000000 0.000000 0.000000 -0.051187 0.000000 0.000000
# 5 0.000000 0.000000 0.000000 0.000000 0.007896 0.000000
# 6 0.000000 0.000000 0.000000 0.000000 0.000000 -3.974747
#
#
# Mechanical properties :
#
#
# Convention : Reuss Voigt Hill
#
# Bulk Modulus (GPa) = 112.11634 113.51914 112.81774
# Shear Modulus (GPa) = -1.25931 39.81637 19.27853
#
# Velocity S-wave (km/s) = -0.74530 4.19077 2.91608
# Velocity P-wave (km/s) = 6.97944 8.57256 7.81669
#
# Compressibility (1/GPa) = 0.00891931
#
# Stress axis : x y z
#
# Youngs Moduli (GPa) = 110.22666 141.17353 94.14312
#
# Poissons Ratio (x) = 0.07937 0.43585
# Poissons Ratio (y) = 0.06197 0.35184
# Poissons Ratio (z) = 0.51032 0.52761
#
# Static dielectric constant tensor:
#      x y z
#    x 4.174240 0.000000 0.000000 
#    y 0.000000 4.340560 0.000000 
#    z 0.000000 0.000000 4.494150 
# 
# 
# High freq. dielectric constant tensor:
#      x y z
#    x 1.898840 0.000000 0.000000 
#    y 0.000000 1.911330 0.000000 
#    z 0.000000 0.000000 1.919400 
# 
# From -- ./inp_files/23457.got.cif
#   From: 2010.06.25/outbox.cif.g09.slc.cpg/sg43_12_cif.got.tgz:23457.got - 2010.06.26 16:48:59.
