data_PCOD8187687
_publ_section_title
;
Structure prediction by ZEFSAII (Michael W. Deem and Ramdas Pophale) SiO2 
 PCOD8187687
Probable space group: F D D 2
;
_chemical_formula_sum "Si O2"
_cell_formula_units_Z 72
_cell_length_a 10.712872
_cell_length_b 9.660306
_cell_length_c 35.090654
_cell_angle_alpha 90.000000
_cell_angle_beta 90.000000
_cell_angle_gamma 90.000000
_cell_volume 3631.518506
_symmetry_space_group_name_H-M "F D D 2"
_symmetry_group_IT_number 43
_symmetry_cell_setting 'orthorhombic'
loop_
_space_group_symop_operation_xyz
x,y,z
-x,-y,z
1/4-x,1/4+y,1/4+z
1/4+x,1/4-y,1/4+z
x,1/2+y,1/2+z
-x,1/2-y,1/2+z
1/4-x,3/4+y,3/4+z
1/4+x,3/4-y,3/4+z
1/2+x,y,1/2+z
1/2-x,-y,1/2+z
3/4-x,1/4+y,3/4+z
3/4+x,1/4-y,3/4+z
1/2+x,1/2+y,z
1/2-x,1/2-y,z
3/4-x,3/4+y,1/4+z
3/4+x,3/4-y,1/4+z
loop_
_atom_site_type_symbol
_atom_site_label
_atom_site_fract_x
_atom_site_fract_y
_atom_site_fract_z
Si Si1 0.454361 0.216855 0.450080
Si Si2 0.732230 0.030813 0.951146
Si Si3 0.593543 0.873710 0.889599
Si Si4 0.381420 0.420956 0.762583
Si Si5 0.000000 0.500000 0.074456
O O1 0.350513 0.334024 0.450066
O O2 0.380466 0.069449 0.451120
O O3 0.531229 0.242550 0.411200
O O4 0.546676 0.229308 0.486122
O O5 0.708397 0.930439 0.915176
O O6 0.686700 0.957663 0.989405
O O7 0.641613 0.818109 0.849550
O O8 0.500000 0.000000 0.881915
O O9 0.500000 0.500000 0.779383
O O10 0.302543 0.372190 0.798463
#
# Coordination Sequence:
#
# PCOD8187687 Si02
#       5
#    16  16  16  16   8
#     4   9  18  38  65  88 114 152 201 253 301 354
#     4   9  18  38  65  88 114 152 201 253 301 354
#     4   9  21  38  58  86 118 154 198 248 300 360
#     4  11  23  38  56  86 122 158 200 244 298 364
#     4  12  24  40  56  84 132 168 192 248 316 356
#
# _framework density 19.826416999999999
#
# number of rings (size 3 to 8) (size 9 to 14) (size 15 to 20)
#    0.000    2.222    2.222    1.333    6.222    4.444 
#    0.000    0.000    0.000    0.000    0.000    0.000 
#    0.000    0.000    0.000    0.000    0.000    0.000 
#
# Total GULP energy -223145.124670 kJ/mol
# GULP energy per Si atom -12396.951371 kJ/mol
# Density = 1.978129 g / cm^3
# Si number density = 19.826417 Si / 1000 Ang^3
#
#
#
# Elastic Constant Matrix: (Units=GPa)
#
#
# Indices 1 2 3 4 5 6 
#
# 1 126.8444 34.7980 55.0008 0.0000 0.0000 0.0000
# 2 34.7980 37.5464 31.0854 0.0000 0.0000 0.0000
# 3 55.0008 31.0854 125.0773 0.0000 0.0000 0.0000
# 4 0.0000 0.0000 0.0000 -6.2787 0.0000 0.0000
# 5 0.0000 0.0000 0.0000 0.0000 34.7228 0.0000
# 6 0.0000 0.0000 0.0000 0.0000 0.0000 39.1240
#
#
#
# Elastic Compliance Matrix: (Units=1/GPa)
#
#
# Indices 1 2 3 4 5 6 
#
# 1 0.011404 -0.008080 -0.003007 0.000000 0.000000 0.000000
# 2 -0.008080 0.039259 -0.006204 0.000000 0.000000 0.000000
# 3 -0.003007 -0.006204 0.010859 0.000000 0.000000 0.000000
# 4 0.000000 0.000000 0.000000 -0.159268 0.000000 0.000000
# 5 0.000000 0.000000 0.000000 0.000000 0.028800 0.000000
# 6 0.000000 0.000000 0.000000 0.000000 0.000000 0.025560
#
#
# Mechanical properties :
#
#
# Convention : Reuss Voigt Hill
#
# Bulk Modulus (GPa) = 37.11862 59.02628 48.07245
# Shear Modulus (GPa) = 28718.96756 24.75252 14371.86004
#
# Velocity S-wave (km/s) = 120.48506 3.53719 85.23251
# Velocity P-wave (km/s) = 139.19157 6.82044 98.54139
#
# Compressibility (1/GPa) = 0.02694065
#
# Stress axis : x y z
#
# Youngs Moduli (GPa) = 87.68842 25.47211 92.08933
#
# Poissons Ratio (x) = 0.20581 0.27688
# Poissons Ratio (y) = 0.70852 0.57131
# Poissons Ratio (z) = 0.26365 0.15803
#
# Static dielectric constant tensor:
#      x y z
#    x 4.134770 0.000000 0.000000 
#    y 0.000000 3.656810 0.000000 
#    z 0.000000 0.000000 3.390010 
# 
# 
# High freq. dielectric constant tensor:
#      x y z
#    x 1.791420 0.000000 0.000000 
#    y 0.000000 1.773180 0.000000 
#    z 0.000000 0.000000 1.750820 
# 
# From -- ./inp_files/24864.got.cif
#   From: 2010.06.25/outbox.cif.g09.slc.cpg/sg43_13_cif.got.tgz:24864.got - 2010.06.26 16:48:59.
