data_PCOD8187977
_publ_section_title
;
Structure prediction by ZEFSAII (Michael W. Deem and Ramdas Pophale) SiO2 
 PCOD8187977
Probable space group: I M M 2
;
_chemical_formula_sum "Si O2"
_cell_formula_units_Z 28
_cell_length_a 9.754957
_cell_length_b 19.815088
_cell_length_c 6.964770
_cell_angle_alpha 90.000000
_cell_angle_beta 90.000000
_cell_angle_gamma 90.000000
_cell_volume 1346.257525
_symmetry_space_group_name_H-M "I M M 2"
_symmetry_group_IT_number 44
_symmetry_cell_setting 'orthorhombic'
loop_
_space_group_symop_operation_xyz
x,y,z
-x,-y,z
-x,y,z
x,-y,z
1/2+x,1/2+y,1/2+z
1/2-x,1/2-y,1/2+z
1/2-x,1/2+y,1/2+z
1/2+x,1/2-y,1/2+z
loop_
_atom_site_type_symbol
_atom_site_label
_atom_site_fract_x
_atom_site_fract_y
_atom_site_fract_z
Si Si1 0.000000 0.854776 0.077271
Si Si2 0.000000 0.644581 0.336561
Si Si3 0.293473 0.500000 0.098714
Si Si4 0.000000 0.500000 0.247465
Si Si5 0.000000 0.000000 0.263945
Si Si6 0.198058 0.143687 0.742526
Si Si7 0.000000 0.782474 0.478446
O O1 0.000000 0.803704 0.255582
O O2 0.000000 0.932865 0.137495
O O3 0.863994 0.838289 0.951145
O O4 0.139997 0.656655 0.219088
O O5 0.000000 0.564745 0.392878
O O6 0.000000 0.700671 0.504285
O O7 0.345802 0.433784 0.208456
O O8 0.127625 0.500000 0.099981
O O9 0.359390 0.500000 0.887376
O O10 0.135900 0.189809 0.576746
#
# Coordination Sequence:
#
# PCOD8187977 Si02
#       7
#     4   4   4   2   2   8   4
#     4  11  22  36  61  95 125 164 210 254 313 372
#     4  10  23  41  69  88 125 171 209 254 317 380
#     4  10  17  38  62  89 125 165 205 261 305 360
#     4   8  20  40  64  88 118 174 212 250 316 364
#     4  12  18  34  64  96 124 164 214 254 300 382
#     4  10  22  42  62  91 130 165 207 261 313 366
#     4  11  23  39  60  95 125 161 210 256 319 370
#
# _framework density 20.798397000000001
#
# number of rings (size 3 to 8) (size 9 to 14) (size 15 to 20)
#    0.000    1.714    2.857    1.714    4.000    0.000 
#    0.000    2.857    0.000    0.000    0.000    0.000 
#    0.000    0.000    0.000    0.000    0.000    0.000 
#
# Total GULP energy -173455.722928 kJ/mol
# GULP energy per Si atom -12389.694495 kJ/mol
# Density = 2.075106 g / cm^3
# Si number density = 20.798397 Si / 1000 Ang^3
#
#
#
# Elastic Constant Matrix: (Units=GPa)
#
#
# Indices 1 2 3 4 5 6 
#
# 1 162.2399 58.2964 53.6905 -0.0014 0.0026 -0.0050
# 2 58.2964 157.3359 46.5276 -0.0011 -0.0019 0.0012
# 3 53.6905 46.5276 118.1427 -0.0128 0.0075 -0.0471
# 4 -0.0014 -0.0011 -0.0128 22.2709 0.0014 -0.0043
# 5 0.0026 -0.0019 0.0075 0.0014 16.0191 -0.0037
# 6 -0.0050 0.0012 -0.0471 -0.0043 -0.0037 -26.0852
#
#
#
# Elastic Compliance Matrix: (Units=1/GPa)
#
#
# Indices 1 2 3 4 5 6 
#
# 1 0.007818 -0.002089 -0.002730 -0.000001 0.000000 0.000003
# 2 -0.002089 0.007752 -0.002103 -0.000001 0.000002 0.000005
# 3 -0.002730 -0.002103 0.010533 0.000006 -0.000005 -0.000019
# 4 -0.000001 -0.000001 0.000006 0.044902 -0.000004 -0.000007
# 5 0.000000 0.000002 -0.000005 -0.000004 0.062425 -0.000009
# 6 0.000003 0.000005 -0.000019 -0.000007 -0.000009 -0.038336
#
#
# Mechanical properties :
#
#
# Convention : Reuss Voigt Hill
#
# Bulk Modulus (GPa) = 81.58160 83.86084 82.72122
# Shear Modulus (GPa) = 44.23764 21.05458 32.64611
#
# Velocity S-wave (km/s) = 4.61692 3.18515 3.96617
# Velocity P-wave (km/s) = 8.22990 7.34406 7.79957
#
# Compressibility (1/GPa) = 0.01225767
#
# Stress axis : x y z
#
# Youngs Moduli (GPa) = 127.91107 128.99875 94.93621
#
# Poissons Ratio (x) = 0.26953 0.25918
# Poissons Ratio (y) = 0.26726 0.19969
# Poissons Ratio (z) = 0.34920 0.27134
#
# Static dielectric constant tensor:
#      x y z
#    x 3.935310 0.000000 0.000000 
#    y 0.000000 4.132080 0.000000 
#    z 0.000000 0.000000 3.378700 
# 
# 
# High freq. dielectric constant tensor:
#      x y z
#    x 1.831780 0.000000 0.000000 
#    y 0.000000 1.833860 0.000000 
#    z 0.000000 0.000000 1.771600 
# 
# From -- ./inp_files/835.got.cif
#   From: 2010.03.12/outbox.cif.g09.slc.cpg/sg44_1_cif.got.tgz:835.got - 2010.04.14 02:36:11.
