data_PCOD8187492
_publ_section_title
;
Structure prediction by ZEFSAII (Michael W. Deem and Ramdas Pophale) SiO2 
 PCOD8187492
Probable space group: F D D 2
;
_chemical_formula_sum "Si O2"
_cell_formula_units_Z 112
_cell_length_a 12.647130
_cell_length_b 25.910327
_cell_length_c 13.928658
_cell_angle_alpha 90.000000
_cell_angle_beta 90.000000
_cell_angle_gamma 90.000000
_cell_volume 4564.299684
_symmetry_space_group_name_H-M "F D D 2"
_symmetry_group_IT_number 43
_symmetry_cell_setting 'orthorhombic'
loop_
_space_group_symop_operation_xyz
x,y,z
-x,-y,z
1/4-x,1/4+y,1/4+z
1/4+x,1/4-y,1/4+z
x,1/2+y,1/2+z
-x,1/2-y,1/2+z
1/4-x,3/4+y,3/4+z
1/4+x,3/4-y,3/4+z
1/2+x,y,1/2+z
1/2-x,-y,1/2+z
3/4-x,1/4+y,3/4+z
3/4+x,1/4-y,3/4+z
1/2+x,1/2+y,z
1/2-x,1/2-y,z
3/4-x,3/4+y,1/4+z
3/4+x,3/4-y,1/4+z
loop_
_atom_site_type_symbol
_atom_site_label
_atom_site_fract_x
_atom_site_fract_y
_atom_site_fract_z
Si Si1 0.857042 0.730391 0.088150
Si Si2 0.897933 0.620702 0.113124
Si Si3 0.179222 0.521904 0.857356
Si Si4 0.489543 0.830318 0.780851
Si Si5 0.387558 0.986954 0.565451
Si Si6 0.928134 0.152992 0.946675
Si Si7 0.624742 0.657653 0.660767
O O1 0.750000 0.750000 0.038669
O O2 0.954811 0.765592 0.059113
O O3 0.853936 0.731557 0.202645
O O4 0.868594 0.672208 0.053554
O O5 0.909452 0.582202 0.021774
O O6 0.804884 0.608267 0.191100
O O7 0.010239 0.629940 0.164045
O O8 0.177449 0.554302 0.956817
O O9 0.129649 0.558348 0.777200
O O10 0.125479 0.465643 0.866744
O O11 0.442691 0.783400 0.845359
O O12 0.390359 0.851528 0.716319
O O13 0.544142 0.872858 0.848484
O O14 0.348867 0.930480 0.596724
O O15 0.500000 0.000000 0.612866
#
# Coordination Sequence:
#
# PCOD8187492 Si02
#       7
#    16  16  16  16  16  16  16
#     4   9  19  40  66  95 137 171 230 303 356 420
#     4  11  24  44  71 102 138 191 242 305 369 441
#     4  10  25  44  65 104 146 184 245 301 373 445
#     4  11  27  46  74 105 147 196 239 308 380 440
#     4  10  23  43  68 104 141 175 235 306 355 429
#     4  12  26  39  79 100 137 189 258 290 367 449
#     4  11  28  49  70 104 156 192 243 311 381 457
#
# _framework density 24.538264999999999
#
# number of rings (size 3 to 8) (size 9 to 14) (size 15 to 20)
#    0.000    1.429    0.000    5.143   16.000    0.000 
#    0.000    2.143    0.000    0.000    0.000    0.000 
#    0.000    0.000    0.000    0.000    0.000    0.000 
#
# Total GULP energy -346874.517841 kJ/mol
# GULP energy per Si atom -12388.375637 kJ/mol
# Density = 2.448241 g / cm^3
# Si number density = 24.538265 Si / 1000 Ang^3
#
#
#
# Elastic Constant Matrix: (Units=GPa)
#
#
# Indices 1 2 3 4 5 6 
#
# 1 68.3755 15.5045 10.0517 0.0000 0.0000 0.0000
# 2 15.5045 67.3366 29.1827 0.0000 0.0000 0.0000
# 3 10.0517 29.1827 57.2393 0.0000 0.0000 0.0000
# 4 0.0000 0.0000 0.0000 42.6374 0.0000 0.0000
# 5 0.0000 0.0000 0.0000 0.0000 30.1780 0.0000
# 6 0.0000 0.0000 0.0000 0.0000 0.0000 46.1151
#
#
#
# Elastic Compliance Matrix: (Units=1/GPa)
#
#
# Indices 1 2 3 4 5 6 
#
# 1 0.015490 -0.003065 -0.001158 0.000000 0.000000 0.000000
# 2 -0.003065 0.019669 -0.009490 0.000000 0.000000 0.000000
# 3 -0.001158 -0.009490 0.022512 0.000000 0.000000 0.000000
# 4 0.000000 0.000000 0.000000 0.023454 0.000000 0.000000
# 5 0.000000 0.000000 0.000000 0.000000 0.033137 0.000000
# 6 0.000000 0.000000 0.000000 0.000000 0.000000 0.021685
#
#
# Mechanical properties :
#
#
# Convention : Reuss Voigt Hill
#
# Bulk Modulus (GPa) = 33.06144 33.60326 33.33235
# Shear Modulus (GPa) = 28.82609 33.00027 30.91318
#
# Velocity S-wave (km/s) = 3.43117 3.67120 3.55321
# Velocity P-wave (km/s) = 5.40369 5.62976 5.51788
#
# Compressibility (1/GPa) = 0.03024671
#
# Stress axis : x y z
#
# Youngs Moduli (GPa) = 64.55656 50.84075 44.42062
#
# Poissons Ratio (x) = 0.15583 0.05142
# Poissons Ratio (y) = 0.19787 0.42155
# Poissons Ratio (z) = 0.07473 0.48247
#
# Static dielectric constant tensor:
#      x y z
#    x 4.927100 0.000000 0.000000 
#    y 0.000000 4.799370 0.000000 
#    z 0.000000 0.000000 3.961040 
# 
# 
# High freq. dielectric constant tensor:
#      x y z
#    x 1.972210 0.000000 0.000000 
#    y 0.000000 1.990180 0.000000 
#    z 0.000000 0.000000 1.955570 
# 
# From -- ./inp_files/10182.got.cif
#   From: 2010.06.25/outbox.cif.g09.slc.cpg/sg43_6_cif.got.tgz:10182.got - 2010.06.26 16:48:59.
