data_PCOD8187943
_publ_section_title
;
Structure prediction by ZEFSAII (Michael W. Deem and Ramdas Pophale) SiO2 
 PCOD8187943
Probable space group: I M M 2
;
_chemical_formula_sum "Si O2"
_cell_formula_units_Z 64
_cell_length_a 8.934167
_cell_length_b 20.014912
_cell_length_c 20.890947
_cell_angle_alpha 90.000000
_cell_angle_beta 90.000000
_cell_angle_gamma 90.000000
_cell_volume 3735.647409
_symmetry_space_group_name_H-M "I M M 2"
_symmetry_group_IT_number 44
_symmetry_cell_setting 'orthorhombic'
loop_
_space_group_symop_operation_xyz
x,y,z
-x,-y,z
-x,y,z
x,-y,z
1/2+x,1/2+y,1/2+z
1/2-x,1/2-y,1/2+z
1/2-x,1/2+y,1/2+z
1/2+x,1/2-y,1/2+z
loop_
_atom_site_type_symbol
_atom_site_label
_atom_site_fract_x
_atom_site_fract_y
_atom_site_fract_z
Si Si1 0.321976 0.072540 0.399860
Si Si2 0.323825 0.203613 0.199402
Si Si3 0.322353 0.927256 0.544153
Si Si4 0.822341 0.072176 0.006851
Si Si5 0.677476 0.213219 0.587508
Si Si6 0.825881 0.924499 0.153099
Si Si7 0.822479 0.293359 0.841806
Si Si8 0.321672 0.710468 0.460365
O O1 0.500000 0.074782 0.400694
O O2 0.262112 0.082536 0.472106
O O3 0.257800 0.132277 0.356108
O O4 0.267415 0.000000 0.373606
O O5 0.500000 0.206334 0.189349
O O6 0.247466 0.251997 0.148860
O O7 0.271029 0.127001 0.194139
O O8 0.276659 0.228835 0.270419
O O9 0.500000 0.926400 0.542272
O O10 0.267925 0.864431 0.586900
O O11 0.267152 0.000000 0.571166
O O12 0.760915 0.134006 0.964764
O O13 0.000000 0.070484 0.004367
O O14 0.760316 0.000000 0.981931
O O15 0.772961 0.083187 0.079909
O O16 0.500000 0.219565 0.593214
O O17 0.734123 0.248309 0.522252
O O18 0.000000 0.906039 0.159768
O O19 0.795263 0.000000 0.177307
O O20 0.756878 0.242047 0.894797
O O21 0.000000 0.295342 0.848520
O O22 0.500000 0.711439 0.459509
#
# Coordination Sequence:
#
# PCOD8187943 Si02
#       8
#     8   8   8   8   8   8   8   8
#     4   8  12  20  36  60  89 114 139 178 229 276
#     4  11  22  31  42  66 103 134 157 187 232 291
#     4   8  13  22  42  73  96 107 138 198 247 272
#     4   8  13  22  41  69  91 106 138 193 241 269
#     4  10  17  29  51  71  89 119 159 199 238 278
#     4   9  17  31  50  70  93 123 161 198 230 271
#     4   9  17  27  38  60  93 125 150 183 232 276
#     4   9  14  24  45  67  85 112 154 197 233 267
#
# _framework density 17.132238000000001
#
# number of rings (size 3 to 8) (size 9 to 14) (size 15 to 20)
#    0.000    3.000    2.500    1.875    0.000    0.750 
#    0.000    1.250    0.000    2.625    0.000    1.750 
#    0.000    0.000    0.000    0.000    0.000    0.000 
#
# Total GULP energy -396447.447270 kJ/mol
# GULP energy per Si atom -12388.982727 kJ/mol
# Density = 1.709324 g / cm^3
# Si number density = 17.132238 Si / 1000 Ang^3
#
#
#
# Elastic Constant Matrix: (Units=GPa)
#
#
# Indices 1 2 3 4 5 6 
#
# 1 17.1567 20.1856 20.4988 0.0000 0.0000 0.0000
# 2 20.1856 156.4344 78.7433 0.0000 0.0000 0.0000
# 3 20.4988 78.7433 115.8721 0.0000 0.0000 0.0000
# 4 0.0000 0.0000 0.0000 23.6238 0.0000 0.0000
# 5 0.0000 0.0000 0.0000 0.0000 15.2180 0.0000
# 6 0.0000 0.0000 0.0000 0.0000 0.0000 12.4959
#
#
#
# Elastic Compliance Matrix: (Units=1/GPa)
#
#
# Indices 1 2 3 4 5 6 
#
# 1 0.076045 -0.004622 -0.010312 0.000000 0.000000 0.000000
# 2 -0.004622 0.009997 -0.005976 0.000000 0.000000 0.000000
# 3 -0.010312 -0.005976 0.014516 0.000000 0.000000 0.000000
# 4 0.000000 0.000000 0.000000 0.042330 0.000000 0.000000
# 5 0.000000 0.000000 0.000000 0.000000 0.065712 0.000000
# 6 0.000000 0.000000 0.000000 0.000000 0.000000 0.080026
#
#
# Mechanical properties :
#
#
# Convention : Reuss Voigt Hill
#
# Bulk Modulus (GPa) = 17.02485 58.70205 37.86345
# Shear Modulus (GPa) = 14.28470 21.60324 17.94397
#
# Velocity S-wave (km/s) = 2.89068 3.55487 3.23984
# Velocity P-wave (km/s) = 4.59350 7.15457 6.01199
#
# Compressibility (1/GPa) = 0.05873768
#
# Stress axis : x y z
#
# Youngs Moduli (GPa) = 13.15010 100.03091 68.89111
#
# Poissons Ratio (x) = 0.46231 0.71043
# Poissons Ratio (y) = 0.06078 0.41169
# Poissons Ratio (z) = 0.13561 0.59778
#
# Static dielectric constant tensor:
#      x y z
#    x 2.592340 0.000000 0.000000 
#    y 0.000000 3.802440 0.000000 
#    z 0.000000 0.000000 3.143530 
# 
# 
# High freq. dielectric constant tensor:
#      x y z
#    x 1.596520 0.000000 0.000000 
#    y 0.000000 1.678170 0.000000 
#    z 0.000000 0.000000 1.636450 
# 
# From -- ./inp_files/23421.got.cif
#   From: 2010.03.12/outbox.cif.g09.slc.cpg/sg44_12_cif.got.tgz:23421.got - 2010.04.14 02:36:11.
