data_PCOD8187865
_publ_section_title
;
Structure prediction by ZEFSAII (Michael W. Deem and Ramdas Pophale) SiO2 
 PCOD8187865
Probable space group: F D D 2
;
_chemical_formula_sum "Si O2"
_cell_formula_units_Z 24
_cell_length_a 13.050796
_cell_length_b 13.037641
_cell_length_c 4.475749
_cell_angle_alpha 90.000000
_cell_angle_beta 90.000000
_cell_angle_gamma 90.000000
_cell_volume 761.555822
_symmetry_space_group_name_H-M "F D D 2"
_symmetry_group_IT_number 43
_symmetry_cell_setting 'orthorhombic'
loop_
_space_group_symop_operation_xyz
x,y,z
-x,-y,z
1/4-x,1/4+y,1/4+z
1/4+x,1/4-y,1/4+z
x,1/2+y,1/2+z
-x,1/2-y,1/2+z
1/4-x,3/4+y,3/4+z
1/4+x,3/4-y,3/4+z
1/2+x,y,1/2+z
1/2-x,-y,1/2+z
3/4-x,1/4+y,3/4+z
3/4+x,1/4-y,3/4+z
1/2+x,1/2+y,z
1/2-x,1/2-y,z
3/4-x,3/4+y,1/4+z
3/4+x,3/4-y,1/4+z
loop_
_atom_site_type_symbol
_atom_site_label
_atom_site_fract_x
_atom_site_fract_y
_atom_site_fract_z
Si Si1 0.000000 0.500000 0.764860
Si Si2 0.051206 0.801192 0.640347
O O1 0.909385 0.465311 0.548375
O O2 0.965187 0.590680 0.981271
O O3 0.037700 0.711897 0.390873
#
# Coordination Sequence:
#
# PCOD8187865 Si02
#       2
#     8  16
#     4  12  36  66 106 148 202 268 338 420 510 600
#     4  12  36  60 102 150 206 262 340 416 508 604
#
# _framework density 31.514437000000001
#
# number of rings (size 3 to 8) (size 9 to 14) (size 15 to 20)
#    0.000    0.000    0.000    0.000   18.667   16.000 
#    0.000    0.000    0.000    0.000    0.000    0.000 
#    0.000    0.000    0.000    0.000    0.000    0.000 
#
# Total GULP energy -74378.523446 kJ/mol
# GULP energy per Si atom -12396.420574 kJ/mol
# Density = 3.144271 g / cm^3
# Si number density = 31.514437 Si / 1000 Ang^3
#
#
#
# Elastic Constant Matrix: (Units=GPa)
#
#
# Indices 1 2 3 4 5 6 
#
# 1 220.5016 211.0901 164.2245 0.0019 0.0002 -0.0002
# 2 211.0901 216.9536 162.3929 0.0021 -0.0006 -0.0006
# 3 164.2245 162.3929 292.2081 0.0072 -0.0018 -0.0015
# 4 0.0019 0.0021 0.0072 108.6866 -0.0005 -0.0013
# 5 0.0002 -0.0006 -0.0018 -0.0005 108.6044 0.0001
# 6 -0.0002 -0.0006 -0.0015 -0.0013 0.0001 51.0277
#
#
#
# Elastic Compliance Matrix: (Units=1/GPa)
#
#
# Indices 1 2 3 4 5 6 
#
# 1 0.067160 -0.063513 -0.002448 0.000000 0.000000 -0.000001
# 2 -0.063513 0.067956 -0.002071 0.000000 0.000000 0.000000
# 3 -0.002448 -0.002071 0.005949 0.000000 0.000000 0.000000
# 4 0.000000 0.000000 0.000000 0.009201 0.000000 0.000000
# 5 0.000000 0.000000 0.000000 0.000000 0.009208 0.000000
# 6 -0.000001 0.000000 0.000000 0.000000 0.000000 0.019597
#
#
# Mechanical properties :
#
#
# Convention : Reuss Voigt Hill
#
# Bulk Modulus (GPa) = 199.94785 200.56428 200.25606
# Shear Modulus (GPa) = 15.78276 66.46080 41.12178
#
# Velocity S-wave (km/s) = 2.24031 4.59726 3.61620
# Velocity P-wave (km/s) = 8.38309 9.58957 9.00655
#
# Compressibility (1/GPa) = 0.00500130
#
# Stress axis : x y z
#
# Youngs Moduli (GPa) = 14.88976 14.71548 168.09489
#
# Poissons Ratio (x) = 0.93462 0.41151
# Poissons Ratio (y) = 0.94569 0.34813
# Poissons Ratio (z) = 0.03645 0.03048
#
# Static dielectric constant tensor:
#      x y z
#    x 6.701160 0.000000 0.000000 
#    y 0.000000 6.713260 0.000000 
#    z 0.000000 0.000000 7.672880 
# 
# 
# High freq. dielectric constant tensor:
#      x y z
#    x 2.327310 0.000000 0.000000 
#    y 0.000000 2.327630 0.000000 
#    z 0.000000 0.000000 2.343940 
# 
# From -- ./inp_files/191.got.cif
#   From: 2010.06.25/outbox.cif.g09.slc.cpg/sg43_1_cif.got.tgz:191.got - 2010.06.26 16:48:59.
