data_PCOD8187764
_publ_section_title
;
Structure prediction by ZEFSAII (Michael W. Deem and Ramdas Pophale) SiO2 
 PCOD8187764
Probable space group: F D D 2
;
_chemical_formula_sum "Si O2"
_cell_formula_units_Z 104
_cell_length_a 20.797379
_cell_length_b 25.781598
_cell_length_c 8.297653
_cell_angle_alpha 90.000000
_cell_angle_beta 90.000000
_cell_angle_gamma 90.000000
_cell_volume 4449.115781
_symmetry_space_group_name_H-M "F D D 2"
_symmetry_group_IT_number 43
_symmetry_cell_setting 'orthorhombic'
loop_
_space_group_symop_operation_xyz
x,y,z
-x,-y,z
1/4-x,1/4+y,1/4+z
1/4+x,1/4-y,1/4+z
x,1/2+y,1/2+z
-x,1/2-y,1/2+z
1/4-x,3/4+y,3/4+z
1/4+x,3/4-y,3/4+z
1/2+x,y,1/2+z
1/2-x,-y,1/2+z
3/4-x,1/4+y,3/4+z
3/4+x,1/4-y,3/4+z
1/2+x,1/2+y,z
1/2-x,1/2-y,z
3/4-x,3/4+y,1/4+z
3/4+x,3/4-y,1/4+z
loop_
_atom_site_type_symbol
_atom_site_label
_atom_site_fract_x
_atom_site_fract_y
_atom_site_fract_z
Si Si1 0.731331 0.535129 0.116000
Si Si2 0.157819 0.292844 0.862902
Si Si3 0.477074 0.183769 0.734069
Si Si4 0.226391 0.670884 0.138861
Si Si5 0.113708 0.178607 0.855101
Si Si6 0.599914 0.073985 0.470952
Si Si7 0.750000 0.750000 0.396298
O O1 0.740071 0.553352 0.298631
O O2 0.794471 0.558129 0.024660
O O3 0.734973 0.473090 0.101521
O O4 0.667726 0.553095 0.028731
O O5 0.099355 0.312655 0.754562
O O6 0.221630 0.305303 0.761848
O O7 0.149345 0.231775 0.909806
O O8 0.160931 0.322515 0.030452
O O9 0.503916 0.127493 0.786172
O O10 0.161750 0.652025 0.227086
O O11 0.204750 0.715437 0.012088
O O12 0.101630 0.136739 0.001774
O O13 0.542740 0.040560 0.547048
#
# Coordination Sequence:
#
# PCOD8187764 Si02
#       7
#    16  16  16  16  16  16   8
#     4  11  26  47  72 110 150 195 253 318 377 477
#     4  11  25  46  75 108 148 202 251 315 377 465
#     4  11  25  46  74 105 147 201 255 309 390 456
#     4  12  25  47  76 108 149 203 255 313 391 468
#     4  11  25  45  75 106 145 199 249 307 384 458
#     4  12  28  46  76 110 151 195 253 322 388 447
#     4  12  28  46  70 116 148 196 252 326 378 460
#
# _framework density 23.375432
#
# number of rings (size 3 to 8) (size 9 to 14) (size 15 to 20)
#    0.000    0.615    3.077    3.692    6.462    3.692 
#    0.000    0.000    0.000    0.000    0.000    0.000 
#    0.000    0.000    0.000    0.000    0.000    0.000 
#
# Total GULP energy -322207.399148 kJ/mol
# GULP energy per Si atom -12392.592275 kJ/mol
# Density = 2.332223 g / cm^3
# Si number density = 23.375432 Si / 1000 Ang^3
#
#
#
# Elastic Constant Matrix: (Units=GPa)
#
#
# Indices 1 2 3 4 5 6 
#
# 1 130.2940 49.0684 43.1449 0.0010 -0.0025 -0.0007
# 2 49.0684 171.9399 49.1927 -0.0001 -0.0009 -0.0004
# 3 43.1449 49.1927 110.3052 0.0003 -0.0052 -0.0018
# 4 0.0010 -0.0001 0.0003 34.6669 -0.0010 -0.0003
# 5 -0.0025 -0.0009 -0.0052 -0.0010 27.6319 0.0012
# 6 -0.0007 -0.0004 -0.0018 -0.0003 0.0012 28.9802
#
#
#
# Elastic Compliance Matrix: (Units=1/GPa)
#
#
# Indices 1 2 3 4 5 6 
#
# 1 0.009303 -0.001850 -0.002814 0.000000 0.000000 0.000000
# 2 -0.001850 0.007034 -0.002414 0.000000 0.000000 0.000000
# 3 -0.002814 -0.002414 0.011243 0.000000 0.000002 0.000001
# 4 0.000000 0.000000 0.000000 0.028846 0.000001 0.000000
# 5 0.000000 0.000000 0.000002 0.000001 0.036190 -0.000001
# 6 0.000000 0.000000 0.000001 0.000000 -0.000001 0.034506
#
#
# Mechanical properties :
#
#
# Convention : Reuss Voigt Hill
#
# Bulk Modulus (GPa) = 74.48355 77.26121 75.87238
# Shear Modulus (GPa) = 34.30458 36.33134 35.31796
#
# Velocity S-wave (km/s) = 3.83502 3.94668 3.89125
# Velocity P-wave (km/s) = 7.17935 7.34115 7.26070
#
# Compressibility (1/GPa) = 0.01342578
#
# Stress axis : x y z
#
# Youngs Moduli (GPa) = 107.48722 142.15744 88.94601
#
# Poissons Ratio (x) = 0.26298 0.25029
# Poissons Ratio (y) = 0.19885 0.21468
# Poissons Ratio (z) = 0.30246 0.34311
#
# Static dielectric constant tensor:
#      x y z
#    x 4.159140 0.000000 0.000000 
#    y 0.000000 4.627880 0.000000 
#    z 0.000000 0.000000 4.108260 
# 
# 
# High freq. dielectric constant tensor:
#      x y z
#    x 1.927420 0.000000 0.000000 
#    y 0.000000 1.956300 0.000000 
#    z 0.000000 0.000000 1.907980 
# 
# From -- ./inp_files/3368.got.cif
#   From: 2010.06.25/outbox.cif.g09.slc.cpg/sg43_2_cif.got.tgz:3368.got - 2010.06.26 16:48:59.
