data_PCOD8187011
_publ_section_title
;
Structure prediction by ZEFSAII (Michael W. Deem and Ramdas Pophale) SiO2 
 PCOD8187011
Probable space group: F D D 2
;
_chemical_formula_sum "Si O2"
_cell_formula_units_Z 80
_cell_length_a 16.652851
_cell_length_b 28.024441
_cell_length_c 8.251054
_cell_angle_alpha 90.000000
_cell_angle_beta 90.000000
_cell_angle_gamma 90.000000
_cell_volume 3850.658321
_symmetry_space_group_name_H-M "F D D 2"
_symmetry_group_IT_number 43
_symmetry_cell_setting 'orthorhombic'
loop_
_space_group_symop_operation_xyz
x,y,z
-x,-y,z
1/4-x,1/4+y,1/4+z
1/4+x,1/4-y,1/4+z
x,1/2+y,1/2+z
-x,1/2-y,1/2+z
1/4-x,3/4+y,3/4+z
1/4+x,3/4-y,3/4+z
1/2+x,y,1/2+z
1/2-x,-y,1/2+z
3/4-x,1/4+y,3/4+z
3/4+x,1/4-y,3/4+z
1/2+x,1/2+y,z
1/2-x,1/2-y,z
3/4-x,3/4+y,1/4+z
3/4+x,3/4-y,1/4+z
loop_
_atom_site_type_symbol
_atom_site_label
_atom_site_fract_x
_atom_site_fract_y
_atom_site_fract_z
Si Si1 0.039403 0.686455 0.882380
Si Si2 0.423838 0.241416 0.101221
Si Si3 0.638913 0.673685 0.923743
Si Si4 0.197084 0.836599 0.577496
Si Si5 0.158545 0.135949 0.591319
O O1 0.050442 0.729785 0.759698
O O2 0.988402 0.643980 0.797282
O O3 0.126019 0.665533 0.936823
O O4 0.993768 0.704875 0.044992
O O5 0.343516 0.211787 0.144239
O O6 0.406947 0.276849 0.951462
O O7 0.575578 0.630158 0.948968
O O8 0.675911 0.672235 0.742149
O O9 0.707640 0.669318 0.061225
O O10 0.160367 0.848545 0.399009
#
# Coordination Sequence:
#
# PCOD8187011 Si02
#       5
#    16  16  16  16  16
#     4  11  22  40  61  97 122 173 206 276 314 398
#     4  11  23  35  64  89 128 159 225 252 329 379
#     4  10  19  37  64  84 120 165 208 260 317 384
#     4   9  19  37  62  88 114 165 211 252 315 391
#     4   9  18  39  63  86 122 155 216 250 333 373
#
# _framework density 20.775669000000001
#
# number of rings (size 3 to 8) (size 9 to 14) (size 15 to 20)
#    1.200    0.800    2.000    1.800    2.800    1.600 
#    0.000    0.000    0.000    0.000    0.000    0.000 
#    0.000    0.000    0.000    0.000    0.000    0.000 
#
# Total GULP energy -247862.775704 kJ/mol
# GULP energy per Si atom -12393.138785 kJ/mol
# Density = 2.072838 g / cm^3
# Si number density = 20.775669 Si / 1000 Ang^3
#
#
#
# Elastic Constant Matrix: (Units=GPa)
#
#
# Indices 1 2 3 4 5 6 
#
# 1 79.8656 32.4413 27.5680 0.0000 -0.0001 0.0000
# 2 32.4413 104.0319 22.3125 0.0000 0.0000 0.0000
# 3 27.5680 22.3125 49.0562 0.0001 -0.0002 0.0000
# 4 0.0000 0.0000 0.0001 39.1335 0.0000 0.0000
# 5 -0.0001 0.0000 -0.0002 0.0000 25.3210 0.0000
# 6 0.0000 0.0000 0.0000 0.0000 0.0000 35.4324
#
#
#
# Elastic Compliance Matrix: (Units=1/GPa)
#
#
# Indices 1 2 3 4 5 6 
#
# 1 0.016624 -0.003524 -0.007739 0.000000 0.000000 0.000000
# 2 -0.003524 0.011399 -0.003204 0.000000 0.000000 0.000000
# 3 -0.007739 -0.003204 0.026191 0.000000 0.000000 0.000000
# 4 0.000000 0.000000 0.000000 0.025554 0.000000 0.000000
# 5 0.000000 0.000000 0.000000 0.000000 0.039493 0.000000
# 6 0.000000 0.000000 0.000000 0.000000 0.000000 0.028223
#
#
# Mechanical properties :
#
#
# Convention : Reuss Voigt Hill
#
# Bulk Modulus (GPa) = 39.55846 44.17749 41.86798
# Shear Modulus (GPa) = 27.04983 30.01952 28.53467
#
# Velocity S-wave (km/s) = 3.61223 3.80536 3.71005
# Velocity P-wave (km/s) = 6.03984 6.37321 6.20877
#
# Compressibility (1/GPa) = 0.02527904
#
# Stress axis : x y z
#
# Youngs Moduli (GPa) = 60.15417 87.73018 38.18067
#
# Poissons Ratio (x) = 0.30917 0.29549
# Poissons Ratio (y) = 0.21199 0.12233
# Poissons Ratio (z) = 0.46555 0.28109
#
# Static dielectric constant tensor:
#      x y z
#    x 3.535090 0.000000 0.000000 
#    y 0.000000 3.729610 0.000000 
#    z 0.000000 0.000000 3.198370 
# 
# 
# High freq. dielectric constant tensor:
#      x y z
#    x 1.804440 0.000000 0.000000 
#    y 0.000000 1.815990 0.000000 
#    z 0.000000 0.000000 1.774680 
# 
# From -- ./inp_files/2791.got.cif
#   From: 2010.06.25/outbox.cif.g09.slc.cpg/sg43_2_cif.got.tgz:2791.got - 2010.06.26 16:48:59.
