data_PCOD8187814
_publ_section_title
;
Structure prediction by ZEFSAII (Michael W. Deem and Ramdas Pophale) SiO2 
 PCOD8187814
Probable space group: F D D 2
;
_chemical_formula_sum "Si O2"
_cell_formula_units_Z 72
_cell_length_a 25.565088
_cell_length_b 6.662065
_cell_length_c 19.930383
_cell_angle_alpha 90.000000
_cell_angle_beta 90.000000
_cell_angle_gamma 90.000000
_cell_volume 3394.468651
_symmetry_space_group_name_H-M "F D D 2"
_symmetry_group_IT_number 43
_symmetry_cell_setting 'orthorhombic'
loop_
_space_group_symop_operation_xyz
x,y,z
-x,-y,z
1/4-x,1/4+y,1/4+z
1/4+x,1/4-y,1/4+z
x,1/2+y,1/2+z
-x,1/2-y,1/2+z
1/4-x,3/4+y,3/4+z
1/4+x,3/4-y,3/4+z
1/2+x,y,1/2+z
1/2-x,-y,1/2+z
3/4-x,1/4+y,3/4+z
3/4+x,1/4-y,3/4+z
1/2+x,1/2+y,z
1/2-x,1/2-y,z
3/4-x,3/4+y,1/4+z
3/4+x,3/4-y,1/4+z
loop_
_atom_site_type_symbol
_atom_site_label
_atom_site_fract_x
_atom_site_fract_y
_atom_site_fract_z
Si Si1 0.376198 0.831021 0.608370
Si Si2 0.285798 0.080232 0.148745
Si Si3 0.809165 0.816965 0.770876
Si Si4 0.000000 0.500000 0.808218
Si Si5 0.611944 0.551102 0.260124
O O1 0.326220 0.685870 0.597411
O O2 0.427064 0.712636 0.582468
O O3 0.379747 0.855056 0.687817
O O4 0.371819 0.039746 0.569224
O O5 0.250000 0.250000 0.185154
O O6 0.316101 0.942695 0.202255
O O7 0.245953 0.945473 0.105462
O O8 0.750000 0.750000 0.780850
O O9 0.847770 0.629122 0.769866
O O10 0.948128 0.520912 0.763335
#
# Coordination Sequence:
#
# PCOD8187814 Si02
#       5
#    16  16  16   8  16
#     4  12  26  46  72 103 146 189 239 303 367 435
#     4  12  23  46  76 103 139 196 247 288 361 443
#     4  12  27  45  73 106 144 187 242 301 364 434
#     4  12  24  44  74 104 140 192 238 300 360 436
#     4  12  27  47  72 106 144 190 243 301 366 441
#
# _framework density 21.210978999999998
#
# number of rings (size 3 to 8) (size 9 to 14) (size 15 to 20)
#    0.000    0.000    7.778    2.667    0.000    1.778 
#    4.000    0.000    0.000    0.000    0.000    0.000 
#    0.000    0.000    0.000    0.000    0.000    0.000 
#
# Total GULP energy -223221.109028 kJ/mol
# GULP energy per Si atom -12401.172724 kJ/mol
# Density = 2.116270 g / cm^3
# Si number density = 21.210979 Si / 1000 Ang^3
#
#
#
# Elastic Constant Matrix: (Units=GPa)
#
#
# Indices 1 2 3 4 5 6 
#
# 1 153.3287 72.8999 28.4580 0.0000 0.0000 -0.0002
# 2 72.8999 133.7072 34.8153 0.0002 -0.0001 -0.0003
# 3 28.4580 34.8153 77.6095 0.0001 0.0000 0.0000
# 4 0.0000 0.0002 0.0001 42.2904 0.0000 -0.0001
# 5 0.0000 -0.0001 0.0000 0.0000 30.6018 0.0000
# 6 -0.0002 -0.0003 0.0000 -0.0001 0.0000 51.7209
#
#
#
# Elastic Compliance Matrix: (Units=1/GPa)
#
#
# Indices 1 2 3 4 5 6 
#
# 1 0.008907 -0.004536 -0.001231 0.000000 0.000000 0.000000
# 2 -0.004536 0.010778 -0.003172 0.000000 0.000000 0.000000
# 3 -0.001231 -0.003172 0.014759 0.000000 0.000000 0.000000
# 4 0.000000 0.000000 0.000000 0.023646 0.000000 0.000000
# 5 0.000000 0.000000 0.000000 0.000000 0.032678 0.000000
# 6 0.000000 0.000000 0.000000 0.000000 0.000000 0.019335
#
#
# Mechanical properties :
#
#
# Convention : Reuss Voigt Hill
#
# Bulk Modulus (GPa) = 60.36216 70.77686 65.56951
# Shear Modulus (GPa) = 37.45256 40.15409 38.80332
#
# Velocity S-wave (km/s) = 4.20660 4.35567 4.28179
# Velocity P-wave (km/s) = 7.21899 7.66396 7.44480
#
# Compressibility (1/GPa) = 0.01656667
#
# Stress axis : x y z
#
# Youngs Moduli (GPa) = 112.27212 92.78312 67.75356
#
# Poissons Ratio (x) = 0.42083 0.08343
# Poissons Ratio (y) = 0.50922 0.21490
# Poissons Ratio (z) = 0.13825 0.29429
#
# Static dielectric constant tensor:
#      x y z
#    x 3.949410 0.000000 0.000000 
#    y 0.000000 4.147700 0.000000 
#    z 0.000000 0.000000 3.713470 
# 
# 
# High freq. dielectric constant tensor:
#      x y z
#    x 1.843000 0.000000 0.000000 
#    y 0.000000 1.859070 0.000000 
#    z 0.000000 0.000000 1.815970 
# 
# From -- ./inp_files/15652.got.cif
#   From: 2010.06.25/outbox.cif.g09.slc.cpg/sg43_8_cif.got.tgz:15652.got - 2010.06.26 16:48:59.
