data_PCOD8187961
_publ_section_title
;
Structure prediction by ZEFSAII (Michael W. Deem and Ramdas Pophale) SiO2 
 PCOD8187961
Probable space group: I M M 2
;
_chemical_formula_sum "Si O2"
_cell_formula_units_Z 64
_cell_length_a 20.775232
_cell_length_b 8.973138
_cell_length_c 19.852087
_cell_angle_alpha 90.000000
_cell_angle_beta 90.000000
_cell_angle_gamma 90.000000
_cell_volume 3700.806677
_symmetry_space_group_name_H-M "I M M 2"
_symmetry_group_IT_number 44
_symmetry_cell_setting 'orthorhombic'
loop_
_space_group_symop_operation_xyz
x,y,z
-x,-y,z
-x,y,z
x,-y,z
1/2+x,1/2+y,1/2+z
1/2-x,1/2-y,1/2+z
1/2-x,1/2+y,1/2+z
1/2+x,1/2-y,1/2+z
loop_
_atom_site_type_symbol
_atom_site_label
_atom_site_fract_x
_atom_site_fract_y
_atom_site_fract_z
Si Si1 0.188152 0.173821 0.378480
Si Si2 0.190975 0.177978 0.949867
Si Si3 0.239125 0.827062 0.236427
Si Si4 0.374188 0.325047 0.228004
Si Si5 0.267506 0.325389 0.590244
Si Si6 0.622192 0.175056 0.093912
Si Si7 0.429690 0.323734 0.368241
Si Si8 0.073240 0.326839 0.450644
O O1 0.245651 0.260419 0.414146
O O2 0.190867 0.203944 0.297984
O O3 0.119165 0.231475 0.402831
O O4 0.194834 0.000000 0.395061
O O5 0.126619 0.244279 0.915317
O O6 0.193541 0.000000 0.943548
O O7 0.190039 0.235731 0.027822
O O8 0.303236 0.732443 0.245693
O O9 0.205209 0.782607 0.164650
O O10 0.259880 0.000000 0.233636
O O11 0.370426 0.500000 0.217523
O O12 0.405257 0.253442 0.160948
O O13 0.419012 0.280007 0.290580
O O14 0.265327 0.500000 0.580646
O O15 0.194750 0.265272 0.583023
O O16 0.619594 0.000000 0.106784
O O17 0.581118 0.221245 0.028660
O O18 0.500000 0.261782 0.390357
O O19 0.428183 0.500000 0.376456
O O20 0.091655 0.500000 0.442721
O O21 0.000000 0.295711 0.428639
#
# Coordination Sequence:
#
# PCOD8187961 Si02
#       8
#     8   8   8   8   8   8   8   8
#     4  11  21  32  51  76 104 131 162 214 264 301
#     4  10  17  31  54  73  94 129 172 211 246 298
#     4   9  18  32  48  70 101 132 162 201 255 306
#     4  10  18  28  46  71 100 133 170 206 242 292
#     4   8  14  27  49  71  91 123 162 202 243 288
#     4   9  17  31  48  68  99 131 165 204 245 295
#     4   9  18  30  45  70 102 132 163 206 253 290
#     4  10  21  37  55  73  98 136 178 212 247 304
#
# _framework density 17.293527000000001
#
# number of rings (size 3 to 8) (size 9 to 14) (size 15 to 20)
#    0.000    2.500    2.500    1.500    0.000    1.750 
#    0.000    0.000    0.000    3.750    0.000    3.500 
#    0.000    0.000    0.000    0.000    0.000    0.000 
#
# Total GULP energy -396587.123855 kJ/mol
# GULP energy per Si atom -12393.347620 kJ/mol
# Density = 1.725417 g / cm^3
# Si number density = 17.293527 Si / 1000 Ang^3
#
#
#
# Elastic Constant Matrix: (Units=GPa)
#
#
# Indices 1 2 3 4 5 6 
#
# 1 95.8041 22.2065 61.8088 0.0000 0.0000 0.0000
# 2 22.2065 36.7884 33.1758 0.0000 0.0000 0.0000
# 3 61.8088 33.1758 131.2008 0.0000 0.0000 0.0000
# 4 0.0000 0.0000 0.0000 23.9999 0.0000 0.0000
# 5 0.0000 0.0000 0.0000 0.0000 24.8305 0.0000
# 6 0.0000 0.0000 0.0000 0.0000 0.0000 8.8427
#
#
#
# Elastic Compliance Matrix: (Units=1/GPa)
#
#
# Indices 1 2 3 4 5 6 
#
# 1 0.015346 -0.003554 -0.006331 0.000000 0.000000 0.000000
# 2 -0.003554 0.036035 -0.007438 0.000000 0.000000 0.000000
# 3 -0.006331 -0.007438 0.012485 0.000000 0.000000 0.000000
# 4 0.000000 0.000000 0.000000 0.041667 0.000000 0.000000
# 5 0.000000 0.000000 0.000000 0.000000 0.040273 0.000000
# 6 0.000000 0.000000 0.000000 0.000000 0.000000 0.113088
#
#
# Mechanical properties :
#
#
# Convention : Reuss Voigt Hill
#
# Bulk Modulus (GPa) = 34.22185 55.35283 44.78734
# Shear Modulus (GPa) = 16.48643 21.30810 18.89727
#
# Velocity S-wave (km/s) = 3.09095 3.51400 3.30924
# Velocity P-wave (km/s) = 5.70705 6.96718 6.36836
#
# Compressibility (1/GPa) = 0.02922110
#
# Stress axis : x y z
#
# Youngs Moduli (GPa) = 65.16257 27.75072 80.09573
#
# Poissons Ratio (x) = 0.09863 0.50708
# Poissons Ratio (y) = 0.23160 0.59571
# Poissons Ratio (z) = 0.41254 0.20640
#
# Static dielectric constant tensor:
#      x y z
#    x 3.142920 0.000000 0.000000 
#    y 0.000000 3.010070 0.000000 
#    z 0.000000 0.000000 3.697600 
# 
# 
# High freq. dielectric constant tensor:
#      x y z
#    x 1.639380 0.000000 0.000000 
#    y 0.000000 1.643760 0.000000 
#    z 0.000000 0.000000 1.680540 
# 
# From -- ./inp_files/23272.got.cif
#   From: 2010.03.12/outbox.cif.g09.slc.cpg/sg44_12_cif.got.tgz:23272.got - 2010.04.14 02:36:11.
