data_PCOD8187240
_publ_section_title
;
Structure prediction by ZEFSAII (Michael W. Deem and Ramdas Pophale) SiO2 
 PCOD8187240
Probable space group: F D D 2
;
_chemical_formula_sum "Si O2"
_cell_formula_units_Z 80
_cell_length_a 9.437103
_cell_length_b 22.950962
_cell_length_c 15.934711
_cell_angle_alpha 90.000000
_cell_angle_beta 90.000000
_cell_angle_gamma 90.000000
_cell_volume 3451.308494
_symmetry_space_group_name_H-M "F D D 2"
_symmetry_group_IT_number 43
_symmetry_cell_setting 'orthorhombic'
loop_
_space_group_symop_operation_xyz
x,y,z
-x,-y,z
1/4-x,1/4+y,1/4+z
1/4+x,1/4-y,1/4+z
x,1/2+y,1/2+z
-x,1/2-y,1/2+z
1/4-x,3/4+y,3/4+z
1/4+x,3/4-y,3/4+z
1/2+x,y,1/2+z
1/2-x,-y,1/2+z
3/4-x,1/4+y,3/4+z
3/4+x,1/4-y,3/4+z
1/2+x,1/2+y,z
1/2-x,1/2-y,z
3/4-x,3/4+y,1/4+z
3/4+x,3/4-y,1/4+z
loop_
_atom_site_type_symbol
_atom_site_label
_atom_site_fract_x
_atom_site_fract_y
_atom_site_fract_z
Si Si1 0.729843 0.182155 0.181130
Si Si2 0.933798 0.632595 0.384946
Si Si3 0.163683 0.492963 0.689175
Si Si4 0.974304 0.658790 0.071320
Si Si5 0.892914 0.604765 0.562678
O O1 0.750000 0.250000 0.199250
O O2 0.569513 0.164366 0.154965
O O3 0.769634 0.147813 0.266577
O O4 0.829456 0.163477 0.103390
O O5 0.061174 0.594658 0.348541
O O6 0.987798 0.696121 0.415809
O O7 0.857006 0.600921 0.464102
O O8 0.813648 0.641957 0.315488
O O9 0.253575 0.466364 0.765330
O O10 0.171058 0.451686 0.607641
O O11 0.000000 0.500000 0.717520
#
# Coordination Sequence:
#
# PCOD8187240 Si02
#       5
#    16  16  16  16  16
#     4  11  23  42  63  86 121 167 204 240 300 375
#     4  11  22  40  63  93 125 152 199 264 301 341
#     4   9  20  41  65  85 121 172 203 232 301 384
#     4  11  23  39  64  95 121 152 205 258 303 348
#     4  10  21  40  65  87 119 167 205 234 296 378
#
# _framework density 23.179614999999998
#
# number of rings (size 3 to 8) (size 9 to 14) (size 15 to 20)
#    0.000    1.600    0.000    6.600    0.000    4.800 
#    0.000   20.000    0.000    0.000    0.000    0.000 
#    0.000    0.000    0.000    0.000    0.000    0.000 
#
# Total GULP energy -248078.799599 kJ/mol
# GULP energy per Si atom -12403.939980 kJ/mol
# Density = 2.312686 g / cm^3
# Si number density = 23.179615 Si / 1000 Ang^3
#
#
#
# Elastic Constant Matrix: (Units=GPa)
#
#
# Indices 1 2 3 4 5 6 
#
# 1 50.2685 -4.8290 -12.1047 0.0000 0.0000 0.0000
# 2 -4.8290 71.7409 2.4008 0.0000 0.0000 0.0000
# 3 -12.1047 2.4008 55.7063 0.0000 0.0000 0.0000
# 4 0.0000 0.0000 0.0000 22.5590 0.0000 0.0000
# 5 0.0000 0.0000 0.0000 0.0000 32.7401 0.0000
# 6 0.0000 0.0000 0.0000 0.0000 0.0000 37.6814
#
#
#
# Elastic Compliance Matrix: (Units=1/GPa)
#
#
# Indices 1 2 3 4 5 6 
#
# 1 0.021106 0.001269 0.004532 0.000000 0.000000 0.000000
# 2 0.001269 0.014035 -0.000329 0.000000 0.000000 0.000000
# 3 0.004532 -0.000329 0.018950 0.000000 0.000000 0.000000
# 4 0.000000 0.000000 0.000000 0.044328 0.000000 0.000000
# 5 0.000000 0.000000 0.000000 0.000000 0.030544 0.000000
# 6 0.000000 0.000000 0.000000 0.000000 0.000000 0.026538
#
#
# Mechanical properties :
#
#
# Convention : Reuss Voigt Hill
#
# Bulk Modulus (GPa) = 15.37634 16.51665 15.94649
# Shear Modulus (GPa) = 30.07748 31.41266 30.74507
#
# Velocity S-wave (km/s) = 3.60611 3.68528 3.64591
# Velocity P-wave (km/s) = 4.89761 5.02487 4.96165
#
# Compressibility (1/GPa) = 0.06503499
#
# Stress axis : x y z
#
# Youngs Moduli (GPa) = 47.37925 71.24796 52.76995
#
# Poissons Ratio (x) = -0.09042 -0.23913
# Poissons Ratio (y) = -0.06013 0.01737
# Poissons Ratio (z) = -0.21470 0.02345
#
# Static dielectric constant tensor:
#      x y z
#    x 3.949520 0.000000 0.000000 
#    y 0.000000 4.181620 0.000000 
#    z 0.000000 0.000000 4.132740 
# 
# 
# High freq. dielectric constant tensor:
#      x y z
#    x 1.904010 0.000000 0.000000 
#    y 0.000000 1.911970 0.000000 
#    z 0.000000 0.000000 1.918180 
# 
# From -- ./inp_files/9534.got.cif
#   From: 2010.06.25/outbox.cif.g09.slc.cpg/sg43_5_cif.got.tgz:9534.got - 2010.06.26 16:48:59.
