data_PCOD8187777
_publ_section_title
;
Structure prediction by ZEFSAII (Michael W. Deem and Ramdas Pophale) SiO2 
 PCOD8187777
Probable space group: F D D 2
;
_chemical_formula_sum "Si O2"
_cell_formula_units_Z 120
_cell_length_a 17.559719
_cell_length_b 17.559715
_cell_length_c 17.740374
_cell_angle_alpha 90.000000
_cell_angle_beta 90.000000
_cell_angle_gamma 90.000000
_cell_volume 5470.131869
_symmetry_space_group_name_H-M "F D D 2"
_symmetry_group_IT_number 43
_symmetry_cell_setting 'orthorhombic'
loop_
_space_group_symop_operation_xyz
x,y,z
-x,-y,z
1/4-x,1/4+y,1/4+z
1/4+x,1/4-y,1/4+z
x,1/2+y,1/2+z
-x,1/2-y,1/2+z
1/4-x,3/4+y,3/4+z
1/4+x,3/4-y,3/4+z
1/2+x,y,1/2+z
1/2-x,-y,1/2+z
3/4-x,1/4+y,3/4+z
3/4+x,1/4-y,3/4+z
1/2+x,1/2+y,z
1/2-x,1/2-y,z
3/4-x,3/4+y,1/4+z
3/4+x,3/4-y,1/4+z
loop_
_atom_site_type_symbol
_atom_site_label
_atom_site_fract_x
_atom_site_fract_y
_atom_site_fract_z
Si Si1 0.397728 0.737945 0.143340
Si Si2 0.876784 0.735873 0.996156
Si Si3 0.250000 0.250000 0.745413
Si Si4 0.385417 0.480885 0.233877
Si Si5 0.762056 0.397728 0.347485
Si Si6 0.230885 0.635417 0.506948
Si Si7 0.253254 0.996747 0.120413
Si Si8 0.514127 0.873216 0.744670
O O1 0.322562 0.747595 0.192171
O O2 0.429041 0.820960 0.120414
O O3 0.461582 0.693788 0.189653
O O4 0.385768 0.693712 0.064795
O O5 0.916077 0.752734 0.914542
O O6 0.943788 0.711582 0.051171
O O7 0.833674 0.806772 0.036980
O O8 0.812781 0.671613 0.987322
O O9 0.247594 0.177438 0.798654
O O10 0.316097 0.495936 0.178434
O O11 0.443227 0.416325 0.203845
O O12 0.421613 0.562780 0.253504
O O13 0.806289 0.385767 0.426030
O O14 0.245935 0.566097 0.562391
O O15 0.247267 0.916077 0.076284
#
# Coordination Sequence:
#
# PCOD8187777 Si02
#       8
#    16  16   8  16  16  16  16  16
#     4  12  25  44  69 104 136 184 228 296 349 426
#     4  11  26  45  68 101 139 181 237 290 354 428
#     4  12  28  40  72 104 144 180 242 284 376 416
#     4  11  26  45  69  99 141 183 232 295 355 432
#     4  12  25  44  69 104 136 184 228 296 349 426
#     4  11  26  45  69  99 141 183 232 295 355 432
#     4  12  26  44  72 102 138 190 236 292 368 424
#     4  11  26  45  68 101 139 181 237 290 354 428
#
# _framework density 21.937314000000001
#
# number of rings (size 3 to 8) (size 9 to 14) (size 15 to 20)
#    0.000    0.533    2.667    4.800   11.200    0.000 
#    0.000    0.000    0.000    3.200    0.000    0.000 
#    0.000    0.000    0.000    0.000    0.000    0.000 
#
# Total GULP energy -371796.963465 kJ/mol
# GULP energy per Si atom -12393.232115 kJ/mol
# Density = 2.188738 g / cm^3
# Si number density = 21.937314 Si / 1000 Ang^3
#
#
#
# Elastic Constant Matrix: (Units=GPa)
#
#
# Indices 1 2 3 4 5 6 
#
# 1 130.0251 76.4673 71.0157 0.0000 0.0000 0.0000
# 2 76.4673 130.0242 71.0158 0.0000 0.0000 0.0000
# 3 71.0157 71.0158 154.3537 0.0000 0.0000 0.0000
# 4 0.0000 0.0000 0.0000 24.1678 0.0000 0.0000
# 5 0.0000 0.0000 0.0000 0.0000 24.1705 0.0000
# 6 0.0000 0.0000 0.0000 0.0000 0.0000 30.9050
#
#
#
# Elastic Compliance Matrix: (Units=1/GPa)
#
#
# Indices 1 2 3 4 5 6 
#
# 1 0.012878 -0.005793 -0.003260 0.000000 0.000000 0.000000
# 2 -0.005793 0.012878 -0.003260 0.000000 0.000000 0.000000
# 3 -0.003260 -0.003260 0.009478 0.000000 0.000000 0.000000
# 4 0.000000 0.000000 0.000000 0.041377 0.000000 0.000000
# 5 0.000000 0.000000 0.000000 0.000000 0.041373 0.000000
# 6 0.000000 0.000000 0.000000 0.000000 0.000000 0.032357
#
#
# Mechanical properties :
#
#
# Convention : Reuss Voigt Hill
#
# Bulk Modulus (GPa) = 94.25745 94.60007 94.42876
# Shear Modulus (GPa) = 28.01062 28.90892 28.45977
#
# Velocity S-wave (km/s) = 3.57718 3.63408 3.60574
# Velocity P-wave (km/s) = 7.75381 7.79906 7.77647
#
# Compressibility (1/GPa) = 0.01060924
#
# Stress axis : x y z
#
# Youngs Moduli (GPa) = 77.65084 77.64994 105.50689
#
# Poissons Ratio (x) = 0.44985 0.34391
# Poissons Ratio (y) = 0.44986 0.34392
# Poissons Ratio (z) = 0.25311 0.25311
#
# Static dielectric constant tensor:
#      x y z
#    x 3.995980 0.000000 0.000000 
#    y 0.000000 3.995940 0.000000 
#    z 0.000000 0.000000 4.202520 
# 
# 
# High freq. dielectric constant tensor:
#      x y z
#    x 1.870150 0.000000 0.000000 
#    y 0.000000 1.870150 0.000000 
#    z 0.000000 0.000000 1.871490 
# 
# From -- ./inp_files/14286.got.cif
#   From: 2010.06.25/outbox.cif.g09.slc.cpg/sg43_8_cif.got.tgz:14286.got - 2010.06.26 16:48:59.
