data_PCOD8187725
_publ_section_title
;
Structure prediction by ZEFSAII (Michael W. Deem and Ramdas Pophale) SiO2 
 PCOD8187725
Probable space group: F D D 2
;
_chemical_formula_sum "Si O2"
_cell_formula_units_Z 112
_cell_length_a 27.407714
_cell_length_b 14.178361
_cell_length_c 11.947104
_cell_angle_alpha 90.000000
_cell_angle_beta 90.000000
_cell_angle_gamma 90.000000
_cell_volume 4642.602361
_symmetry_space_group_name_H-M "F D D 2"
_symmetry_group_IT_number 43
_symmetry_cell_setting 'orthorhombic'
loop_
_space_group_symop_operation_xyz
x,y,z
-x,-y,z
1/4-x,1/4+y,1/4+z
1/4+x,1/4-y,1/4+z
x,1/2+y,1/2+z
-x,1/2-y,1/2+z
1/4-x,3/4+y,3/4+z
1/4+x,3/4-y,3/4+z
1/2+x,y,1/2+z
1/2-x,-y,1/2+z
3/4-x,1/4+y,3/4+z
3/4+x,1/4-y,3/4+z
1/2+x,1/2+y,z
1/2-x,1/2-y,z
3/4-x,3/4+y,1/4+z
3/4+x,3/4-y,1/4+z
loop_
_atom_site_type_symbol
_atom_site_label
_atom_site_fract_x
_atom_site_fract_y
_atom_site_fract_z
Si Si1 0.249148 0.073089 0.660250
Si Si2 0.409784 0.584483 0.152304
Si Si3 0.657378 0.994070 0.049688
Si Si4 0.000000 0.000000 0.529043
Si Si5 0.000000 0.500000 0.375262
Si Si6 0.492905 0.846585 0.557018
Si Si7 0.331647 0.629012 0.991847
Si Si8 0.076980 0.542222 0.203542
O O1 0.223834 0.168875 0.705098
O O2 0.297370 0.106196 0.596981
O O3 0.213235 0.017738 0.578190
O O4 0.261303 0.005477 0.766225
O O5 0.386455 0.671758 0.221380
O O6 0.467140 0.602870 0.134118
O O7 0.406411 0.489062 0.223601
O O8 0.382402 0.578559 0.030665
O O9 0.625213 0.986321 0.163262
O O10 0.655537 0.894986 0.988946
O O11 0.040884 0.054089 0.599170
O O12 0.014954 0.590280 0.447196
O O13 0.048235 0.482340 0.298752
O O14 0.442379 0.837667 0.627897
#
# Coordination Sequence:
#
# PCOD8187725 Si02
#       8
#    16  16  16   8   8  16  16  16
#     4  12  25  44  75 106 147 196 251 309 379 447
#     4  12  24  45  75 109 152 192 258 316 377 458
#     4  12  23  43  71 107 147 195 250 312 378 454
#     4  11  24  43  70 106 140 193 250 305 374 450
#     4  11  24  49  68 100 152 197 246 305 368 452
#     4  12  25  48  74 106 151 197 251 310 377 451
#     4  12  26  46  75 111 149 201 253 316 384 448
#     4  11  25  44  69 104 149 197 246 312 377 446
#
# _framework density 24.124400999999999
#
# number of rings (size 3 to 8) (size 9 to 14) (size 15 to 20)
#    0.000    0.286    4.286    5.143    0.000    1.143 
#    0.000    0.000    0.000    0.000    0.000    0.000 
#    0.000    0.000    0.000    0.000    0.000    0.000 
#
# Total GULP energy -347180.390394 kJ/mol
# GULP energy per Si atom -12399.299657 kJ/mol
# Density = 2.406949 g / cm^3
# Si number density = 24.124401 Si / 1000 Ang^3
#
#
#
# Elastic Constant Matrix: (Units=GPa)
#
#
# Indices 1 2 3 4 5 6 
#
# 1 73.6954 18.8753 17.5190 0.0000 0.0000 0.0000
# 2 18.8753 132.7045 42.5869 0.0000 0.0000 0.0000
# 3 17.5190 42.5869 86.0232 0.0000 0.0000 0.0000
# 4 0.0000 0.0000 0.0000 57.4135 0.0000 0.0000
# 5 0.0000 0.0000 0.0000 0.0000 51.4678 0.0000
# 6 0.0000 0.0000 0.0000 0.0000 0.0000 26.8564
#
#
#
# Elastic Compliance Matrix: (Units=1/GPa)
#
#
# Indices 1 2 3 4 5 6 
#
# 1 0.014452 -0.001321 -0.002289 0.000000 0.000000 0.000000
# 2 -0.001321 0.009080 -0.004226 0.000000 0.000000 0.000000
# 3 -0.002289 -0.004226 0.014183 0.000000 0.000000 0.000000
# 4 0.000000 0.000000 0.000000 0.017417 0.000000 0.000000
# 5 0.000000 0.000000 0.000000 0.000000 0.019430 0.000000
# 6 0.000000 0.000000 0.000000 0.000000 0.000000 0.037235
#
#
# Mechanical properties :
#
#
# Convention : Reuss Voigt Hill
#
# Bulk Modulus (GPa) = 45.36724 50.04282 47.70503
# Shear Modulus (GPa) = 37.08744 41.37700 39.23222
#
# Velocity S-wave (km/s) = 3.92515 4.14593 4.03705
# Velocity P-wave (km/s) = 6.27605 6.61113 6.44576
#
# Compressibility (1/GPa) = 0.02204234
#
# Stress axis : x y z
#
# Youngs Moduli (GPa) = 69.19505 110.13706 70.50647
#
# Poissons Ratio (x) = 0.14548 0.16141
# Poissons Ratio (y) = 0.09140 0.29796
# Poissons Ratio (z) = 0.15840 0.46543
#
# Static dielectric constant tensor:
#      x y z
#    x 4.282990 0.000000 0.000000 
#    y 0.000000 4.298500 0.000000 
#    z 0.000000 0.000000 4.600300 
# 
# 
# High freq. dielectric constant tensor:
#      x y z
#    x 1.954980 0.000000 0.000000 
#    y 0.000000 1.952550 0.000000 
#    z 0.000000 0.000000 1.970840 
# 
# From -- ./inp_files/6349.got.cif
#   From: 2010.06.25/outbox.cif.g09.slc.cpg/sg43_4_cif.got.tgz:6349.got - 2010.06.26 16:48:59.
