data_PCOD8187142
_publ_section_title
;
Structure prediction by ZEFSAII (Michael W. Deem and Ramdas Pophale) SiO2 
 PCOD8187142
Probable space group: F D D 2
;
_chemical_formula_sum "Si O2"
_cell_formula_units_Z 112
_cell_length_a 19.931305
_cell_length_b 11.091360
_cell_length_c 22.951446
_cell_angle_alpha 90.000000
_cell_angle_beta 90.000000
_cell_angle_gamma 90.000000
_cell_volume 5073.767814
_symmetry_space_group_name_H-M "F D D 2"
_symmetry_group_IT_number 43
_symmetry_cell_setting 'orthorhombic'
loop_
_space_group_symop_operation_xyz
x,y,z
-x,-y,z
1/4-x,1/4+y,1/4+z
1/4+x,1/4-y,1/4+z
x,1/2+y,1/2+z
-x,1/2-y,1/2+z
1/4-x,3/4+y,3/4+z
1/4+x,3/4-y,3/4+z
1/2+x,y,1/2+z
1/2-x,-y,1/2+z
3/4-x,1/4+y,3/4+z
3/4+x,1/4-y,3/4+z
1/2+x,1/2+y,z
1/2-x,1/2-y,z
3/4-x,3/4+y,1/4+z
3/4+x,3/4-y,1/4+z
loop_
_atom_site_type_symbol
_atom_site_label
_atom_site_fract_x
_atom_site_fract_y
_atom_site_fract_z
Si Si1 0.316221 0.816447 0.426820
Si Si2 0.574986 0.189494 0.608657
Si Si3 0.540372 0.747524 0.896484
Si Si4 0.154782 0.306495 0.525545
Si Si5 0.500000 0.000000 0.679210
Si Si6 0.750000 0.750000 0.623903
Si Si7 0.756402 0.389477 0.757963
Si Si8 0.945661 0.178249 0.800102
O O1 0.250000 0.750000 0.401792
O O2 0.380335 0.735984 0.408679
O O3 0.303637 0.834310 0.496333
O O4 0.334526 0.940925 0.395286
O O5 0.549378 0.215631 0.543279
O O6 0.644926 0.116103 0.601441
O O7 0.514839 0.114533 0.638994
O O8 0.509809 0.649719 0.940222
O O9 0.518424 0.699390 0.831697
O O10 0.505518 0.877242 0.910717
O O11 0.185089 0.231862 0.470885
O O12 0.182750 0.248963 0.584626
O O13 0.075641 0.297351 0.524208
O O14 0.174011 0.446774 0.520757
O O15 0.750000 0.250000 0.776356
#
# Coordination Sequence:
#
# PCOD8187142 Si02
#       8
#    16  16  16  16   8   8  16  16
#     4  12  29  48  68 108 149 192 244 296 367 448
#     4  12  24  43  69 105 140 184 244 302 365 429
#     4  11  26  46  73 102 140 192 238 299 366 434
#     4  10  20  41  67 105 134 174 233 294 362 428
#     4  11  20  38  68 102 138 168 229 304 360 412
#     4   9  24  46  68  98 140 182 235 286 360 434
#     4  12  23  40  70 104 140 178 242 301 355 442
#     4  11  23  46  76 101 140 189 242 302 364 434
#
# _framework density 22.074325000000002
#
# number of rings (size 3 to 8) (size 9 to 14) (size 15 to 20)
#    0.000    0.857    5.000    0.857    6.000    1.143 
#    1.286    0.000    0.000    0.000    0.000    0.000 
#    0.000    0.000    0.000    0.000    0.000    0.000 
#
# Total GULP energy -347042.791247 kJ/mol
# GULP energy per Si atom -12394.385402 kJ/mol
# Density = 2.202408 g / cm^3
# Si number density = 22.074325 Si / 1000 Ang^3
#
#
#
# Elastic Constant Matrix: (Units=GPa)
#
#
# Indices 1 2 3 4 5 6 
#
# 1 137.2732 23.1615 29.9172 0.0000 0.0000 0.0000
# 2 23.1615 71.6204 28.4412 0.0000 0.0000 0.0000
# 3 29.9172 28.4412 84.6545 0.0000 0.0000 0.0000
# 4 0.0000 0.0000 0.0000 27.5172 0.0000 0.0000
# 5 0.0000 0.0000 0.0000 0.0000 30.8851 0.0000
# 6 0.0000 0.0000 0.0000 0.0000 0.0000 32.4570
#
#
#
# Elastic Compliance Matrix: (Units=1/GPa)
#
#
# Indices 1 2 3 4 5 6 
#
# 1 0.008069 -0.001704 -0.002279 0.000000 0.000000 0.000000
# 2 -0.001704 0.016472 -0.004932 0.000000 0.000000 0.000000
# 3 -0.002279 -0.004932 0.014275 0.000000 0.000000 0.000000
# 4 0.000000 0.000000 0.000000 0.036341 0.000000 0.000000
# 5 0.000000 0.000000 0.000000 0.000000 0.032378 0.000000
# 6 0.000000 0.000000 0.000000 0.000000 0.000000 0.030810
#
#
# Mechanical properties :
#
#
# Convention : Reuss Voigt Hill
#
# Bulk Modulus (GPa) = 47.65122 50.73201 49.19161
# Shear Modulus (GPa) = 30.64271 32.30705 31.47488
#
# Velocity S-wave (km/s) = 3.72984 3.82980 3.78015
# Velocity P-wave (km/s) = 6.33897 6.52600 6.43317
#
# Compressibility (1/GPa) = 0.02098582
#
# Stress axis : x y z
#
# Youngs Moduli (GPa) = 123.93098 60.70842 70.05233
#
# Poissons Ratio (x) = 0.10347 0.15965
# Poissons Ratio (y) = 0.21123 0.34548
# Poissons Ratio (z) = 0.28244 0.29940
#
# Static dielectric constant tensor:
#      x y z
#    x 4.038930 0.000000 0.000000 
#    y 0.000000 3.809460 0.000000 
#    z 0.000000 0.000000 4.000840 
# 
# 
# High freq. dielectric constant tensor:
#      x y z
#    x 1.871290 0.000000 0.000000 
#    y 0.000000 1.848080 0.000000 
#    z 0.000000 0.000000 1.871250 
# 
# From -- ./inp_files/22438.got.cif
#   From: 2010.06.25/outbox.cif.g09.slc.cpg/sg43_12_cif.got.tgz:22438.got - 2010.06.26 16:48:59.
