data_PCOD8187495
_publ_section_title
;
Structure prediction by ZEFSAII (Michael W. Deem and Ramdas Pophale) SiO2 
 PCOD8187495
Probable space group: F D D 2
;
_chemical_formula_sum "Si O2"
_cell_formula_units_Z 120
_cell_length_a 13.731248
_cell_length_b 17.212199
_cell_length_c 23.880989
_cell_angle_alpha 90.000000
_cell_angle_beta 90.000000
_cell_angle_gamma 90.000000
_cell_volume 5644.151703
_symmetry_space_group_name_H-M "F D D 2"
_symmetry_group_IT_number 43
_symmetry_cell_setting 'orthorhombic'
loop_
_space_group_symop_operation_xyz
x,y,z
-x,-y,z
1/4-x,1/4+y,1/4+z
1/4+x,1/4-y,1/4+z
x,1/2+y,1/2+z
-x,1/2-y,1/2+z
1/4-x,3/4+y,3/4+z
1/4+x,3/4-y,3/4+z
1/2+x,y,1/2+z
1/2-x,-y,1/2+z
3/4-x,1/4+y,3/4+z
3/4+x,1/4-y,3/4+z
1/2+x,1/2+y,z
1/2-x,1/2-y,z
3/4-x,3/4+y,1/4+z
3/4+x,3/4-y,1/4+z
loop_
_atom_site_type_symbol
_atom_site_label
_atom_site_fract_x
_atom_site_fract_y
_atom_site_fract_z
Si Si1 0.112257 0.506463 0.342400
Si Si2 0.391240 0.312558 0.318669
Si Si3 0.750000 0.250000 0.355344
Si Si4 0.376787 0.880660 0.242059
Si Si5 0.847521 0.464233 0.024418
Si Si6 0.428906 0.123171 0.179521
Si Si7 0.547047 0.079977 0.918769
Si Si8 0.817869 0.645698 0.294388
O O1 0.126085 0.544937 0.281759
O O2 0.165936 0.549917 0.392742
O O3 0.158717 0.421583 0.338358
O O4 0.000000 0.500000 0.358595
O O5 0.493233 0.323740 0.286687
O O6 0.405434 0.359532 0.376027
O O7 0.298880 0.348608 0.286040
O O8 0.366648 0.221096 0.323884
O O9 0.813914 0.189100 0.316554
O O10 0.832795 0.296112 0.391268
O O11 0.400941 0.807500 0.281829
O O12 0.459826 0.886372 0.196209
O O13 0.278188 0.876440 0.207145
O O14 0.866524 0.445480 0.959868
O O15 0.359252 0.126994 0.233018
O O16 0.500000 0.000000 0.892440
#
# Coordination Sequence:
#
# PCOD8187495 Si02
#       8
#    16  16   8  16  16  16  16  16
#     4  12  24  43  70 101 138 177 230 287 341 408
#     4  11  25  47  66  92 147 189 217 283 334 418
#     4  12  22  42  74 108 126 168 230 300 362 386
#     4  11  21  44  67 105 133 165 230 295 339 407
#     4  11  20  43  71 101 135 165 229 285 344 408
#     4  12  24  40  73  98 136 180 218 292 351 393
#     4  10  23  43  75  99 129 179 229 286 355 397
#     4  11  27  46  63 101 141 183 239 262 331 434
#
# _framework density 21.260945
#
# number of rings (size 3 to 8) (size 9 to 14) (size 15 to 20)
#    0.000    0.800    6.000    1.600    5.600    0.000 
#    0.000    1.333    0.000    0.000    0.000    0.000 
#    0.000    0.000    0.000    0.000    0.000    0.000 
#
# Total GULP energy -371834.637222 kJ/mol
# GULP energy per Si atom -12394.487907 kJ/mol
# Density = 2.121255 g / cm^3
# Si number density = 21.260945 Si / 1000 Ang^3
#
#
#
# Elastic Constant Matrix: (Units=GPa)
#
#
# Indices 1 2 3 4 5 6 
#
# 1 112.1612 28.8635 30.4374 0.0000 0.0000 0.0000
# 2 28.8635 102.9069 53.8505 0.0000 0.0000 0.0000
# 3 30.4374 53.8505 106.2787 0.0000 0.0000 0.0000
# 4 0.0000 0.0000 0.0000 17.2774 0.0000 0.0000
# 5 0.0000 0.0000 0.0000 0.0000 37.9332 0.0000
# 6 0.0000 0.0000 0.0000 0.0000 0.0000 27.7958
#
#
#
# Elastic Compliance Matrix: (Units=1/GPa)
#
#
# Indices 1 2 3 4 5 6 
#
# 1 0.009896 -0.001759 -0.001943 0.000000 0.000000 0.000000
# 2 -0.001759 0.013536 -0.006355 0.000000 0.000000 0.000000
# 3 -0.001943 -0.006355 0.013186 0.000000 0.000000 0.000000
# 4 0.000000 0.000000 0.000000 0.057879 0.000000 0.000000
# 5 0.000000 0.000000 0.000000 0.000000 0.026362 0.000000
# 6 0.000000 0.000000 0.000000 0.000000 0.000000 0.035977
#
#
# Mechanical properties :
#
#
# Convention : Reuss Voigt Hill
#
# Bulk Modulus (GPa) = 60.59062 60.84994 60.72028
# Shear Modulus (GPa) = 27.40469 30.48097 28.94283
#
# Velocity S-wave (km/s) = 3.59412 3.79048 3.69360
# Velocity P-wave (km/s) = 6.76639 6.91662 6.84192
#
# Compressibility (1/GPa) = 0.01650420
#
# Stress axis : x y z
#
# Youngs Moduli (GPa) = 101.05507 73.87491 75.83986
#
# Poissons Ratio (x) = 0.12994 0.14734
# Poissons Ratio (y) = 0.17774 0.48197
# Poissons Ratio (z) = 0.19633 0.46948
#
# Static dielectric constant tensor:
#      x y z
#    x 3.913970 0.000000 0.000000 
#    y 0.000000 4.007200 0.000000 
#    z 0.000000 0.000000 3.865130 
# 
# 
# High freq. dielectric constant tensor:
#      x y z
#    x 1.841920 0.000000 0.000000 
#    y 0.000000 1.829650 0.000000 
#    z 0.000000 0.000000 1.830560 
# 
# From -- ./inp_files/21831.got.cif
#   From: 2010.06.25/outbox.cif.g09.slc.cpg/sg43_11_cif.got.tgz:21831.got - 2010.06.26 16:48:59.
