data_PCOD8187547
_publ_section_title
;
Structure prediction by ZEFSAII (Michael W. Deem and Ramdas Pophale) SiO2 
 PCOD8187547
Probable space group: F D D 2
;
_chemical_formula_sum "Si O2"
_cell_formula_units_Z 120
_cell_length_a 8.931278
_cell_length_b 23.053073
_cell_length_c 27.099682
_cell_angle_alpha 90.000000
_cell_angle_beta 90.000000
_cell_angle_gamma 90.000000
_cell_volume 5579.645767
_symmetry_space_group_name_H-M "F D D 2"
_symmetry_group_IT_number 43
_symmetry_cell_setting 'orthorhombic'
loop_
_space_group_symop_operation_xyz
x,y,z
-x,-y,z
1/4-x,1/4+y,1/4+z
1/4+x,1/4-y,1/4+z
x,1/2+y,1/2+z
-x,1/2-y,1/2+z
1/4-x,3/4+y,3/4+z
1/4+x,3/4-y,3/4+z
1/2+x,y,1/2+z
1/2-x,-y,1/2+z
3/4-x,1/4+y,3/4+z
3/4+x,1/4-y,3/4+z
1/2+x,1/2+y,z
1/2-x,1/2-y,z
3/4-x,3/4+y,1/4+z
3/4+x,3/4-y,1/4+z
loop_
_atom_site_type_symbol
_atom_site_label
_atom_site_fract_x
_atom_site_fract_y
_atom_site_fract_z
Si Si1 0.300484 0.141596 0.332850
Si Si2 0.825727 0.007067 0.829670
Si Si3 0.507374 0.671857 0.388071
Si Si4 0.980341 0.339162 0.418584
Si Si5 0.500000 0.500000 0.638108
Si Si6 0.378379 0.796881 0.162583
Si Si7 0.164003 0.496757 0.732794
Si Si8 0.854562 0.194348 0.727361
O O1 0.276604 0.073204 0.336675
O O2 0.437287 0.163959 0.366153
O O3 0.343980 0.159686 0.278037
O O4 0.144768 0.170209 0.350072
O O5 0.738799 0.967109 0.867848
O O6 0.785415 0.984475 0.775012
O O7 0.000000 0.000000 0.838863
O O8 0.383144 0.713910 0.360727
O O9 0.442105 0.609431 0.401756
O O10 0.562075 0.700231 0.439327
O O11 0.828148 0.300804 0.420006
O O12 0.951729 0.405560 0.431651
O O13 0.080993 0.311808 0.461247
O O14 0.250000 0.750000 0.167575
O O15 0.471969 0.792653 0.214047
O O16 0.000000 0.500000 0.757270
O O17 0.750000 0.250000 0.729625
#
# Coordination Sequence:
#
# PCOD8187547 Si02
#       8
#    16  16  16  16   8  16  16  16
#     4  12  26  47  74 106 151 200 248 306 387 454
#     4  12  27  45  78 110 143 198 257 309 375 459
#     4  11  25  45  75 105 146 192 249 319 368 441
#     4  11  23  47  70 104 142 191 248 313 360 441
#     4  10  24  42  80  98 136 184 254 308 368 422
#     4  12  25  50  73 108 153 194 245 308 379 448
#     4  11  24  43  74 106 141 191 251 310 364 435
#     4  12  28  46  72 108 153 199 244 305 386 457
#
# _framework density 21.506741999999999
#
# number of rings (size 3 to 8) (size 9 to 14) (size 15 to 20)
#    0.000    0.533    5.333    2.400    9.333    0.000 
#    1.200    0.000    0.000    0.000    0.000    0.000 
#    0.000    0.000    0.000    0.000    0.000    0.000 
#
# Total GULP energy -371871.782664 kJ/mol
# GULP energy per Si atom -12395.726089 kJ/mol
# Density = 2.145779 g / cm^3
# Si number density = 21.506742 Si / 1000 Ang^3
#
#
#
# Elastic Constant Matrix: (Units=GPa)
#
#
# Indices 1 2 3 4 5 6 
#
# 1 138.8616 43.1227 50.4822 0.0000 0.0000 0.0000
# 2 43.1227 106.7579 22.9333 0.0000 0.0000 0.0000
# 3 50.4822 22.9333 101.1547 0.0000 0.0000 0.0000
# 4 0.0000 0.0000 0.0000 17.9859 0.0000 0.0000
# 5 0.0000 0.0000 0.0000 0.0000 34.8351 0.0000
# 6 0.0000 0.0000 0.0000 0.0000 0.0000 42.3082
#
#
#
# Elastic Compliance Matrix: (Units=1/GPa)
#
#
# Indices 1 2 3 4 5 6 
#
# 1 0.009635 -0.003005 -0.004127 0.000000 0.000000 0.000000
# 2 -0.003005 0.010784 -0.000945 0.000000 0.000000 0.000000
# 3 -0.004127 -0.000945 0.012160 0.000000 0.000000 0.000000
# 4 0.000000 0.000000 0.000000 0.055599 0.000000 0.000000
# 5 0.000000 0.000000 0.000000 0.000000 0.028707 0.000000
# 6 0.000000 0.000000 0.000000 0.000000 0.000000 0.023636
#
#
# Mechanical properties :
#
#
# Convention : Reuss Voigt Hill
#
# Bulk Modulus (GPa) = 60.88717 64.42782 62.65749
# Shear Modulus (GPa) = 30.83557 34.37490 32.60523
#
# Velocity S-wave (km/s) = 3.79061 4.00225 3.89787
# Velocity P-wave (km/s) = 6.89424 7.16794 7.03242
#
# Compressibility (1/GPa) = 0.01642382
#
# Stress axis : x y z
#
# Youngs Moduli (GPa) = 103.78722 92.73047 82.23823
#
# Poissons Ratio (x) = 0.27869 0.33941
# Poissons Ratio (y) = 0.31191 0.07772
# Poissons Ratio (z) = 0.42834 0.08763
#
# Static dielectric constant tensor:
#      x y z
#    x 4.311230 0.000000 0.000000 
#    y 0.000000 4.215010 0.000000 
#    z 0.000000 0.000000 3.737250 
# 
# 
# High freq. dielectric constant tensor:
#      x y z
#    x 1.864370 0.000000 0.000000 
#    y 0.000000 1.863260 0.000000 
#    z 0.000000 0.000000 1.826300 
# 
# From -- ./inp_files/22821.got.cif
#   From: 2010.06.25/outbox.cif.g09.slc.cpg/sg43_12_cif.got.tgz:22821.got - 2010.06.26 16:48:59.
