data_PCOD8187602
_publ_section_title
;
Structure prediction by ZEFSAII (Michael W. Deem and Ramdas Pophale) SiO2 
 PCOD8187602
Probable space group: F D D 2
;
_chemical_formula_sum "Si O2"
_cell_formula_units_Z 56
_cell_length_a 13.988648
_cell_length_b 33.450426
_cell_length_c 4.790285
_cell_angle_alpha 90.000000
_cell_angle_beta 90.000000
_cell_angle_gamma 90.000000
_cell_volume 2241.500023
_symmetry_space_group_name_H-M "F D D 2"
_symmetry_group_IT_number 43
_symmetry_cell_setting 'orthorhombic'
loop_
_space_group_symop_operation_xyz
x,y,z
-x,-y,z
1/4-x,1/4+y,1/4+z
1/4+x,1/4-y,1/4+z
x,1/2+y,1/2+z
-x,1/2-y,1/2+z
1/4-x,3/4+y,3/4+z
1/4+x,3/4-y,3/4+z
1/2+x,y,1/2+z
1/2-x,-y,1/2+z
3/4-x,1/4+y,3/4+z
3/4+x,1/4-y,3/4+z
1/2+x,1/2+y,z
1/2-x,1/2-y,z
3/4-x,3/4+y,1/4+z
3/4+x,3/4-y,1/4+z
loop_
_atom_site_type_symbol
_atom_site_label
_atom_site_fract_x
_atom_site_fract_y
_atom_site_fract_z
Si Si1 0.382794 0.849456 0.443350
Si Si2 0.011245 0.415641 0.684827
Si Si3 0.946981 0.766671 0.951555
Si Si4 0.750000 0.750000 0.250481
O O1 0.356194 0.834848 0.751745
O O2 0.434661 0.891323 0.498056
O O3 0.450927 0.813026 0.341264
O O4 0.290394 0.853672 0.234815
O O5 0.980491 0.462068 0.705428
O O6 0.840962 0.755056 0.050053
O O7 0.026588 0.761050 0.189648
#
# Coordination Sequence:
#
# PCOD8187602 Si02
#       4
#    16  16  16   8
#     4  11  25  44  68 107 138 185 248 290 380 436
#     4  11  25  44  71 102 145 186 240 305 368 438
#     4  11  25  43  72 101 140 189 243 300 373 441
#     4  10  26  46  70 104 146 188 246 304 374 432
#
# _framework density 24.983267999999999
#
# number of rings (size 3 to 8) (size 9 to 14) (size 15 to 20)
#    0.000    1.143    0.000    5.143    8.000   10.286 
#    0.000    0.000    0.000    0.000    0.000    0.000 
#    0.000    0.000    0.000    0.000    0.000    0.000 
#
# Total GULP energy -173481.165016 kJ/mol
# GULP energy per Si atom -12391.511787 kJ/mol
# Density = 2.492640 g / cm^3
# Si number density = 24.983268 Si / 1000 Ang^3
#
#
#
# Elastic Constant Matrix: (Units=GPa)
#
#
# Indices 1 2 3 4 5 6 
#
# 1 72.0723 59.8072 19.4819 -0.0056 0.0015 -0.0024
# 2 59.8072 191.1837 42.2374 0.0041 0.0033 -0.0005
# 3 19.4819 42.2374 114.4138 0.0109 0.0025 0.0003
# 4 -0.0056 0.0041 0.0109 31.6723 -0.0050 0.0013
# 5 0.0015 0.0033 0.0025 -0.0050 49.3941 0.0035
# 6 -0.0024 -0.0005 0.0003 0.0013 0.0035 34.3622
#
#
#
# Elastic Compliance Matrix: (Units=1/GPa)
#
#
# Indices 1 2 3 4 5 6 
#
# 1 0.018872 -0.005655 -0.001126 0.000004 0.000000 0.000001
# 2 -0.005655 0.007389 -0.001765 -0.000001 0.000000 0.000000
# 3 -0.001126 -0.001765 0.009583 -0.000003 0.000000 0.000000
# 4 0.000004 -0.000001 -0.000003 0.031573 0.000003 -0.000001
# 5 0.000000 0.000000 0.000000 0.000003 0.020245 -0.000002
# 6 0.000001 0.000000 0.000000 -0.000001 -0.000002 0.029102
#
#
# Mechanical properties :
#
#
# Convention : Reuss Voigt Hill
#
# Bulk Modulus (GPa) = 53.32393 68.96919 61.14656
# Shear Modulus (GPa) = 35.68679 40.16193 37.92436
#
# Velocity S-wave (km/s) = 3.78355 4.01378 3.90037
# Velocity P-wave (km/s) = 6.36217 7.01047 6.69417
#
# Compressibility (1/GPa) = 0.01875331
#
# Stress axis : x y z
#
# Youngs Moduli (GPa) = 52.98911 135.32717 104.34606
#
# Poissons Ratio (x) = 0.76526 0.11748
# Poissons Ratio (y) = 0.29965 0.18418
# Poissons Ratio (z) = 0.05966 0.23886
#
# Static dielectric constant tensor:
#      x y z
#    x 4.329580 -0.000020 0.000000 
#    y -0.000020 5.379830 0.000010 
#    z 0.000000 0.000010 4.439870 
# 
# 
# High freq. dielectric constant tensor:
#      x y z
#    x 1.980700 0.000000 0.000000 
#    y 0.000000 2.003760 0.000000 
#    z 0.000000 0.000000 2.001380 
# 
# From -- ./inp_files/314.got.cif
#   From: 2010.06.25/outbox.cif.g09.slc.cpg/sg43_1_cif.got.tgz:314.got - 2010.06.26 16:48:59.
