data_PCOD8187244
_publ_section_title
;
Structure prediction by ZEFSAII (Michael W. Deem and Ramdas Pophale) SiO2 
 PCOD8187244
Probable space group: F D D 2
;
_chemical_formula_sum "Si O2"
_cell_formula_units_Z 128
_cell_length_a 22.129810
_cell_length_b 23.478666
_cell_length_c 12.289737
_cell_angle_alpha 90.000000
_cell_angle_beta 90.000000
_cell_angle_gamma 90.000000
_cell_volume 6385.482104
_symmetry_space_group_name_H-M "F D D 2"
_symmetry_group_IT_number 43
_symmetry_cell_setting 'orthorhombic'
loop_
_space_group_symop_operation_xyz
x,y,z
-x,-y,z
1/4-x,1/4+y,1/4+z
1/4+x,1/4-y,1/4+z
x,1/2+y,1/2+z
-x,1/2-y,1/2+z
1/4-x,3/4+y,3/4+z
1/4+x,3/4-y,3/4+z
1/2+x,y,1/2+z
1/2-x,-y,1/2+z
3/4-x,1/4+y,3/4+z
3/4+x,1/4-y,3/4+z
1/2+x,1/2+y,z
1/2-x,1/2-y,z
3/4-x,3/4+y,1/4+z
3/4+x,3/4-y,1/4+z
loop_
_atom_site_type_symbol
_atom_site_label
_atom_site_fract_x
_atom_site_fract_y
_atom_site_fract_z
Si Si1 0.420991 0.222109 0.114080
Si Si2 0.950395 0.038878 0.888505
Si Si3 0.147253 0.093368 0.064951
Si Si4 0.726642 0.074355 0.152976
Si Si5 0.653827 0.486696 0.228545
Si Si6 0.217195 0.544912 0.910966
Si Si7 0.739512 0.840192 0.339449
Si Si8 0.471966 0.055062 0.807387
O O1 0.356944 0.249220 0.137881
O O2 0.428729 0.171871 0.200954
O O3 0.466597 0.272326 0.137188
O O4 0.429191 0.196704 0.993397
O O5 0.936778 0.101657 0.845263
O O6 0.000000 0.000000 0.823289
O O7 0.976864 0.046379 0.010164
O O8 0.076798 0.108482 0.046259
O O9 0.152610 0.041257 0.149630
O O10 0.795079 0.056700 0.183665
O O11 0.721819 0.142791 0.142116
O O12 0.705181 0.046060 0.039904
O O13 0.668007 0.505696 0.352275
O O14 0.591636 0.452794 0.243641
O O15 0.215566 0.606462 0.854766
O O16 0.729578 0.814495 0.460093
O O17 0.500000 0.000000 0.869879
#
# Coordination Sequence:
#
# PCOD8187244 Si02
#       8
#    16  16  16  16  16  16  16  16
#     4  11  23  43  63  93 131 176 215 273 326 400
#     4  12  24  40  67 101 134 167 221 282 335 387
#     4  12  22  40  70  98 133 166 217 284 332 395
#     4  10  25  44  62  91 134 180 214 264 338 408
#     4  11  22  41  67  97 125 173 223 271 337 389
#     4  10  21  40  66  91 126 171 221 263 334 394
#     4  11  21  36  67 104 126 163 215 284 338 374
#     4  11  23  39  65 100 131 165 222 282 326 391
#
# _framework density 20.045470999999999
#
# number of rings (size 3 to 8) (size 9 to 14) (size 15 to 20)
#    0.000    1.000    6.250    1.125    0.000    2.000 
#    6.750    0.625    0.000    0.000    0.000    0.000 
#    0.000    0.000    0.000    0.000    0.000    0.000 
#
# Total GULP energy -396602.532871 kJ/mol
# GULP energy per Si atom -12393.829152 kJ/mol
# Density = 1.999985 g / cm^3
# Si number density = 20.045471 Si / 1000 Ang^3
#
#
#
# Elastic Constant Matrix: (Units=GPa)
#
#
# Indices 1 2 3 4 5 6 
#
# 1 77.4481 39.9249 35.3102 0.0000 0.0000 0.0000
# 2 39.9249 137.7792 57.4291 0.0000 0.0000 0.0000
# 3 35.3102 57.4291 118.5176 0.0000 0.0000 0.0000
# 4 0.0000 0.0000 0.0000 11.4813 0.0000 0.0000
# 5 0.0000 0.0000 0.0000 0.0000 22.7225 0.0000
# 6 0.0000 0.0000 0.0000 0.0000 0.0000 35.1920
#
#
#
# Elastic Compliance Matrix: (Units=1/GPa)
#
#
# Indices 1 2 3 4 5 6 
#
# 1 0.016079 -0.003336 -0.003174 0.000000 0.000000 0.000000
# 2 -0.003336 0.009787 -0.003749 0.000000 0.000000 0.000000
# 3 -0.003174 -0.003749 0.011200 0.000000 0.000000 0.000000
# 4 0.000000 0.000000 0.000000 0.087098 0.000000 0.000000
# 5 0.000000 0.000000 0.000000 0.000000 0.044009 0.000000
# 6 0.000000 0.000000 0.000000 0.000000 0.000000 0.028416
#
#
# Mechanical properties :
#
#
# Convention : Reuss Voigt Hill
#
# Bulk Modulus (GPa) = 60.42905 66.56372 63.49638
# Shear Modulus (GPa) = 22.45966 27.28455 24.87210
#
# Velocity S-wave (km/s) = 3.35092 3.69336 3.52630
# Velocity P-wave (km/s) = 6.72183 7.17400 6.95159
#
# Compressibility (1/GPa) = 0.01654833
#
# Stress axis : x y z
#
# Youngs Moduli (GPa) = 62.19397 102.17391 89.28970
#
# Poissons Ratio (x) = 0.34089 0.28338
# Poissons Ratio (y) = 0.20750 0.33470
# Poissons Ratio (z) = 0.19739 0.38300
#
# Static dielectric constant tensor:
#      x y z
#    x 3.728670 0.000000 0.000000 
#    y 0.000000 3.870680 0.000000 
#    z 0.000000 0.000000 3.592370 
# 
# 
# High freq. dielectric constant tensor:
#      x y z
#    x 1.782190 0.000000 0.000000 
#    y 0.000000 1.797130 0.000000 
#    z 0.000000 0.000000 1.764090 
# 
# From -- ./inp_files/7686.got.cif
#   From: 2010.06.25/outbox.cif.g09.slc.cpg/sg43_4_cif.got.tgz:7686.got - 2010.06.26 16:48:59.
