data_PCOD8187209
_publ_section_title
;
Structure prediction by ZEFSAII (Michael W. Deem and Ramdas Pophale) SiO2 
 PCOD8187209
Probable space group: F D D 2
;
_chemical_formula_sum "Si O2"
_cell_formula_units_Z 112
_cell_length_a 22.126388
_cell_length_b 22.969633
_cell_length_c 11.001632
_cell_angle_alpha 90.000000
_cell_angle_beta 90.000000
_cell_angle_gamma 90.000000
_cell_volume 5591.414571
_symmetry_space_group_name_H-M "F D D 2"
_symmetry_group_IT_number 43
_symmetry_cell_setting 'orthorhombic'
loop_
_space_group_symop_operation_xyz
x,y,z
-x,-y,z
1/4-x,1/4+y,1/4+z
1/4+x,1/4-y,1/4+z
x,1/2+y,1/2+z
-x,1/2-y,1/2+z
1/4-x,3/4+y,3/4+z
1/4+x,3/4-y,3/4+z
1/2+x,y,1/2+z
1/2-x,-y,1/2+z
3/4-x,1/4+y,3/4+z
3/4+x,1/4-y,3/4+z
1/2+x,1/2+y,z
1/2-x,1/2-y,z
3/4-x,3/4+y,1/4+z
3/4+x,3/4-y,1/4+z
loop_
_atom_site_type_symbol
_atom_site_label
_atom_site_fract_x
_atom_site_fract_y
_atom_site_fract_z
Si Si1 0.701886 0.088899 0.492860
Si Si2 0.529558 0.331867 0.304194
Si Si3 0.364420 0.880353 0.268326
Si Si4 0.724918 0.191720 0.884301
Si Si5 0.181713 0.474633 0.907467
Si Si6 0.480630 0.935953 0.372403
Si Si7 0.342284 0.520502 0.127011
O O1 0.666833 0.128992 0.397534
O O2 0.753589 0.055915 0.416945
O O3 0.723772 0.133954 0.592751
O O4 0.660002 0.041705 0.560199
O O5 0.568595 0.340048 0.424888
O O6 0.520422 0.390484 0.229856
O O7 0.567239 0.285993 0.225387
O O8 0.462609 0.310819 0.335057
O O9 0.382809 0.817320 0.219537
O O10 0.419421 0.923895 0.298230
O O11 0.750000 0.250000 0.950776
O O12 0.770140 0.182589 0.769330
O O13 0.655373 0.199242 0.840663
O O14 0.162092 0.487976 0.770985
O O15 0.500000 0.000000 0.328438
#
# Coordination Sequence:
#
# PCOD8187209 Si02
#       7
#    16  16  16  16  16  16  16
#     4  10  21  38  63  91 126 171 217 271 334 391
#     4  11  24  41  70  97 131 184 219 276 347 398
#     4  11  22  42  63  98 134 166 224 275 329 412
#     4  11  24  44  64  99 134 172 228 280 333 403
#     4  10  22  40  63  93 131 170 220 269 332 404
#     4  10  23  40  63  95 129 168 219 273 333 401
#     4  11  22  43  65  94 134 174 231 278 330 413
#
# _framework density 20.030709999999999
#
# number of rings (size 3 to 8) (size 9 to 14) (size 15 to 20)
#    0.000    1.429    2.857    2.571    2.000    3.429 
#    0.000    0.714    0.000    0.000    0.000    0.000 
#    0.000    0.000    0.000    0.000    0.000    0.000 
#
# Total GULP energy -347137.277957 kJ/mol
# GULP energy per Si atom -12397.759927 kJ/mol
# Density = 1.998512 g / cm^3
# Si number density = 20.030710 Si / 1000 Ang^3
#
#
#
# Elastic Constant Matrix: (Units=GPa)
#
#
# Indices 1 2 3 4 5 6 
#
# 1 86.7553 37.7565 33.7099 0.0000 0.0000 0.0000
# 2 37.7565 115.6212 52.4396 0.0000 0.0000 0.0000
# 3 33.7099 52.4396 110.8614 -0.0001 0.0000 0.0000
# 4 0.0000 0.0000 -0.0001 24.6589 0.0000 0.0000
# 5 0.0000 0.0000 0.0000 0.0000 25.8894 0.0000
# 6 0.0000 0.0000 0.0000 0.0000 0.0000 23.0830
#
#
#
# Elastic Compliance Matrix: (Units=1/GPa)
#
#
# Indices 1 2 3 4 5 6 
#
# 1 0.014032 -0.003370 -0.002673 0.000000 0.000000 0.000000
# 2 -0.003370 0.011821 -0.004567 0.000000 0.000000 0.000000
# 3 -0.002673 -0.004567 0.011993 0.000000 0.000000 0.000000
# 4 0.000000 0.000000 0.000000 0.040553 0.000000 0.000000
# 5 0.000000 0.000000 0.000000 0.000000 0.038626 0.000000
# 6 0.000000 0.000000 0.000000 0.000000 0.000000 0.043322
#
#
# Mechanical properties :
#
#
# Convention : Reuss Voigt Hill
#
# Bulk Modulus (GPa) = 60.14330 62.33886 61.24108
# Shear Modulus (GPa) = 26.72262 27.34838 27.03550
#
# Velocity S-wave (km/s) = 3.65647 3.69904 3.67782
# Velocity P-wave (km/s) = 6.92222 7.03086 6.97675
#
# Compressibility (1/GPa) = 0.01662696
#
# Stress axis : x y z
#
# Youngs Moduli (GPa) = 71.26679 84.59808 83.38157
#
# Poissons Ratio (x) = 0.28509 0.22285
# Poissons Ratio (y) = 0.24017 0.38078
# Poissons Ratio (z) = 0.19047 0.38633
#
# Static dielectric constant tensor:
#      x y z
#    x 3.792400 0.000000 0.000000 
#    y 0.000000 3.699370 0.000000 
#    z 0.000000 0.000000 3.636270 
# 
# 
# High freq. dielectric constant tensor:
#      x y z
#    x 1.787550 0.000000 0.000000 
#    y 0.000000 1.787910 0.000000 
#    z 0.000000 0.000000 1.786560 
# 
# From -- ./inp_files/7152.got.cif
#   From: 2010.06.25/outbox.cif.g09.slc.cpg/sg43_4_cif.got.tgz:7152.got - 2010.06.26 16:48:59.
