data_PCOD8187330
_publ_section_title
;
Structure prediction by ZEFSAII (Michael W. Deem and Ramdas Pophale) SiO2 
 PCOD8187330
Probable space group: F D D 2
;
_chemical_formula_sum "Si O2"
_cell_formula_units_Z 88
_cell_length_a 13.432572
_cell_length_b 12.410669
_cell_length_c 25.361513
_cell_angle_alpha 90.000000
_cell_angle_beta 90.000000
_cell_angle_gamma 90.000000
_cell_volume 4227.946945
_symmetry_space_group_name_H-M "F D D 2"
_symmetry_group_IT_number 43
_symmetry_cell_setting 'orthorhombic'
loop_
_space_group_symop_operation_xyz
x,y,z
-x,-y,z
1/4-x,1/4+y,1/4+z
1/4+x,1/4-y,1/4+z
x,1/2+y,1/2+z
-x,1/2-y,1/2+z
1/4-x,3/4+y,3/4+z
1/4+x,3/4-y,3/4+z
1/2+x,y,1/2+z
1/2-x,-y,1/2+z
3/4-x,1/4+y,3/4+z
3/4+x,1/4-y,3/4+z
1/2+x,1/2+y,z
1/2-x,1/2-y,z
3/4-x,3/4+y,1/4+z
3/4+x,3/4-y,1/4+z
loop_
_atom_site_type_symbol
_atom_site_label
_atom_site_fract_x
_atom_site_fract_y
_atom_site_fract_z
Si Si1 0.826023 0.663492 0.798330
Si Si2 0.000000 0.000000 0.647919
Si Si3 0.717185 0.067143 0.780272
Si Si4 0.386496 0.912125 0.453644
Si Si5 0.343957 0.808883 0.602981
Si Si6 0.551336 0.232890 0.803605
O O1 0.750000 0.750000 0.770743
O O2 0.794028 0.654939 0.860143
O O3 0.822391 0.551579 0.766384
O O4 0.939486 0.696924 0.799139
O O5 0.087827 0.947356 0.681790
O O6 0.754952 0.130429 0.728194
O O7 0.805621 0.043820 0.820959
O O8 0.629627 0.134984 0.808189
O O9 0.316950 0.950911 0.500361
O O10 0.396806 0.006869 0.410866
O O11 0.250000 0.750000 0.574477
O O12 0.318042 0.937251 0.603953
#
# Coordination Sequence:
#
# PCOD8187330 Si02
#       6
#    16   8  16  16  16  16
#     4  10  22  43  64  94 129 181 222 275 348 407
#     4  10  22  38  70  94 126 170 234 286 318 418
#     4  11  23  41  63  99 135 172 221 289 351 397
#     4  11  23  39  67  98 127 171 234 278 334 417
#     4  11  20  40  65  93 126 172 231 272 330 414
#     4  11  24  39  69  95 136 180 215 292 350 410
#
# _framework density 20.813884999999999
#
# number of rings (size 3 to 8) (size 9 to 14) (size 15 to 20)
#    0.545    0.727    1.818    6.000    7.636    0.000 
#    0.000    9.091    0.000    0.000    0.000    0.000 
#    0.000    0.000    0.000    0.000    0.000    0.000 
#
# Total GULP energy -272578.039384 kJ/mol
# GULP energy per Si atom -12389.910881 kJ/mol
# Density = 2.076651 g / cm^3
# Si number density = 20.813885 Si / 1000 Ang^3
#
#
#
# Elastic Constant Matrix: (Units=GPa)
#
#
# Indices 1 2 3 4 5 6 
#
# 1 145.1908 57.1572 27.1705 0.0000 0.0000 0.0000
# 2 57.1572 160.3670 44.6000 0.0000 0.0000 0.0000
# 3 27.1705 44.6000 81.0539 0.0000 0.0000 0.0000
# 4 0.0000 0.0000 0.0000 -69.0217 0.0000 0.0000
# 5 0.0000 0.0000 0.0000 0.0000 20.2042 0.0000
# 6 0.0000 0.0000 0.0000 0.0000 0.0000 50.1478
#
#
#
# Elastic Compliance Matrix: (Units=1/GPa)
#
#
# Indices 1 2 3 4 5 6 
#
# 1 0.008132 -0.002527 -0.001336 0.000000 0.000000 0.000000
# 2 -0.002527 0.008148 -0.003636 0.000000 0.000000 0.000000
# 3 -0.001336 -0.003636 0.014786 0.000000 0.000000 0.000000
# 4 0.000000 0.000000 0.000000 -0.014488 0.000000 0.000000
# 5 0.000000 0.000000 0.000000 0.000000 0.049495 0.000000
# 6 0.000000 0.000000 0.000000 0.000000 0.000000 0.019941
#
#
# Mechanical properties :
#
#
# Convention : Reuss Voigt Hill
#
# Bulk Modulus (GPa) = 62.23400 71.60745 66.92073
# Shear Modulus (GPa) = 47.00712 17.44500 32.22606
#
# Velocity S-wave (km/s) = 4.75747 2.89821 3.93911
# Velocity P-wave (km/s) = 7.75520 6.75854 7.27396
#
# Compressibility (1/GPa) = 0.01606839
#
# Stress axis : x y z
#
# Youngs Moduli (GPa) = 122.96753 122.73526 67.63172
#
# Poissons Ratio (x) = 0.31015 0.09033
# Poissons Ratio (y) = 0.31074 0.24592
# Poissons Ratio (z) = 0.16423 0.44628
#
# Static dielectric constant tensor:
#      x y z
#    x 3.896700 0.000000 0.000000 
#    y 0.000000 16.812690 0.000000 
#    z 0.000000 0.000000 3.618860 
# 
# 
# High freq. dielectric constant tensor:
#      x y z
#    x 1.833720 0.000000 0.000000 
#    y 0.000000 1.822260 0.000000 
#    z 0.000000 0.000000 1.788170 
# 
# From -- ./inp_files/25559.got.cif
#   From: 2010.06.25/outbox.cif.g09.slc.cpg/sg43_13_cif.got.tgz:25559.got - 2010.06.26 16:48:59.
