data_PCOD8187358
_publ_section_title
;
Structure prediction by ZEFSAII (Michael W. Deem and Ramdas Pophale) SiO2 
 PCOD8187358
Probable space group: F D D 2
;
_chemical_formula_sum "Si O2"
_cell_formula_units_Z 120
_cell_length_a 24.712017
_cell_length_b 14.702697
_cell_length_c 15.489887
_cell_angle_alpha 90.000000
_cell_angle_beta 90.000000
_cell_angle_gamma 90.000000
_cell_volume 5627.991733
_symmetry_space_group_name_H-M "F D D 2"
_symmetry_group_IT_number 43
_symmetry_cell_setting 'orthorhombic'
loop_
_space_group_symop_operation_xyz
x,y,z
-x,-y,z
1/4-x,1/4+y,1/4+z
1/4+x,1/4-y,1/4+z
x,1/2+y,1/2+z
-x,1/2-y,1/2+z
1/4-x,3/4+y,3/4+z
1/4+x,3/4-y,3/4+z
1/2+x,y,1/2+z
1/2-x,-y,1/2+z
3/4-x,1/4+y,3/4+z
3/4+x,1/4-y,3/4+z
1/2+x,1/2+y,z
1/2-x,1/2-y,z
3/4-x,3/4+y,1/4+z
3/4+x,3/4-y,1/4+z
loop_
_atom_site_type_symbol
_atom_site_label
_atom_site_fract_x
_atom_site_fract_y
_atom_site_fract_z
Si Si1 0.896212 0.825082 0.627680
Si Si2 0.250000 0.250000 0.059573
Si Si3 0.674343 0.024511 0.195487
Si Si4 0.110847 0.916756 0.842273
Si Si5 0.012131 0.593436 0.026029
Si Si6 0.215721 0.939213 0.525772
Si Si7 0.552998 0.047580 0.846518
Si Si8 0.172550 0.982368 0.011611
O O1 0.868566 0.922755 0.637168
O O2 0.951793 0.834400 0.575981
O O3 0.913242 0.780810 0.720392
O O4 0.856539 0.759559 0.574203
O O5 0.200584 0.200834 0.110926
O O6 0.220150 0.330442 0.008259
O O7 0.710280 0.099922 0.243754
O O8 0.642366 0.963321 0.263391
O O9 0.709003 0.963173 0.127634
O O10 0.110315 0.809338 0.816082
O O11 0.141775 0.939903 0.930094
O O12 0.000000 0.500000 0.081511
O O13 0.045597 0.547622 0.948529
O O14 0.269890 0.978292 0.481895
O O15 0.561991 0.150915 0.823475
O O16 0.500000 0.000000 0.801897
#
# Coordination Sequence:
#
# PCOD8187358 Si02
#       8
#    16   8  16  16  16  16  16  16
#     4  12  24  38  73  99 132 178 228 280 349 402
#     4  10  22  40  64  96 138 170 222 280 330 422
#     4  12  23  43  67  99 140 174 223 294 341 415
#     4  11  25  43  71 101 140 185 233 281 360 419
#     4  11  24  42  66 102 136 174 230 291 343 408
#     4  11  23  42  65 100 135 176 223 283 346 407
#     4  11  23  46  66  98 135 176 231 289 345 405
#     4  11  25  46  69  98 142 187 229 290 347 436
#
# _framework density 21.321992999999999
#
# number of rings (size 3 to 8) (size 9 to 14) (size 15 to 20)
#    0.000    0.800    5.333    2.400    2.800    0.000 
#    0.000    1.333    1.467    0.000    0.000    0.000 
#    0.000    0.000    0.000    0.000    0.000    0.000 
#
# Total GULP energy -371690.342233 kJ/mol
# GULP energy per Si atom -12389.678074 kJ/mol
# Density = 2.127346 g / cm^3
# Si number density = 21.321993 Si / 1000 Ang^3
#
#
#
# Elastic Constant Matrix: (Units=GPa)
#
#
# Indices 1 2 3 4 5 6 
#
# 1 110.2365 48.9013 34.7667 0.0000 0.0000 0.0000
# 2 48.9013 154.5645 35.0886 0.0000 0.0000 0.0000
# 3 34.7667 35.0886 52.4866 0.0000 0.0000 0.0000
# 4 0.0000 0.0000 0.0000 27.6402 0.0000 0.0000
# 5 0.0000 0.0000 0.0000 0.0000 29.9354 0.0000
# 6 0.0000 0.0000 0.0000 0.0000 0.0000 43.3968
#
#
#
# Elastic Compliance Matrix: (Units=1/GPa)
#
#
# Indices 1 2 3 4 5 6 
#
# 1 0.012168 -0.002381 -0.006468 0.000000 0.000000 0.000000
# 2 -0.002381 0.008093 -0.003833 0.000000 0.000000 0.000000
# 3 -0.006468 -0.003833 0.025899 0.000000 0.000000 0.000000
# 4 0.000000 0.000000 0.000000 0.036179 0.000000 0.000000
# 5 0.000000 0.000000 0.000000 0.000000 0.033405 0.000000
# 6 0.000000 0.000000 0.000000 0.000000 0.000000 0.023043
#
#
# Mechanical properties :
#
#
# Convention : Reuss Voigt Hill
#
# Bulk Modulus (GPa) = 48.08705 61.64454 54.86580
# Shear Modulus (GPa) = 29.22533 33.42987 31.32760
#
# Velocity S-wave (km/s) = 3.70627 3.96392 3.83725
# Velocity P-wave (km/s) = 6.39664 7.06570 6.73948
#
# Compressibility (1/GPa) = 0.02079562
#
# Stress axis : x y z
#
# Youngs Moduli (GPa) = 82.18561 123.55731 38.61110
#
# Poissons Ratio (x) = 0.29423 0.24973
# Poissons Ratio (y) = 0.19571 0.14801
# Poissons Ratio (z) = 0.53155 0.47363
#
# Static dielectric constant tensor:
#      x y z
#    x 4.196500 0.000000 0.000000 
#    y 0.000000 4.209420 0.000000 
#    z 0.000000 0.000000 3.507390 
# 
# 
# High freq. dielectric constant tensor:
#      x y z
#    x 1.855310 0.000000 0.000000 
#    y 0.000000 1.849920 0.000000 
#    z 0.000000 0.000000 1.808300 
# 
# From -- ./inp_files/14876.got.cif
#   From: 2010.06.25/outbox.cif.g09.slc.cpg/sg43_8_cif.got.tgz:14876.got - 2010.06.26 16:48:59.
