data_PCOD8187701
_publ_section_title
;
Structure prediction by ZEFSAII (Michael W. Deem and Ramdas Pophale) SiO2 
 PCOD8187701
Probable space group: F D D 2
;
_chemical_formula_sum "Si O2"
_cell_formula_units_Z 96
_cell_length_a 25.294007
_cell_length_b 17.817992
_cell_length_c 9.996117
_cell_angle_alpha 90.000000
_cell_angle_beta 90.000000
_cell_angle_gamma 90.000000
_cell_volume 4505.134121
_symmetry_space_group_name_H-M "F D D 2"
_symmetry_group_IT_number 43
_symmetry_cell_setting 'orthorhombic'
loop_
_space_group_symop_operation_xyz
x,y,z
-x,-y,z
1/4-x,1/4+y,1/4+z
1/4+x,1/4-y,1/4+z
x,1/2+y,1/2+z
-x,1/2-y,1/2+z
1/4-x,3/4+y,3/4+z
1/4+x,3/4-y,3/4+z
1/2+x,y,1/2+z
1/2-x,-y,1/2+z
3/4-x,1/4+y,3/4+z
3/4+x,1/4-y,3/4+z
1/2+x,1/2+y,z
1/2-x,1/2-y,z
3/4-x,3/4+y,1/4+z
3/4+x,3/4-y,1/4+z
loop_
_atom_site_type_symbol
_atom_site_label
_atom_site_fract_x
_atom_site_fract_y
_atom_site_fract_z
Si Si1 0.682129 0.591004 0.078120
Si Si2 0.168703 0.866554 0.231277
Si Si3 0.113822 0.718054 0.221638
Si Si4 0.531342 0.888092 0.051464
Si Si5 0.466134 0.278637 0.955598
Si Si6 0.903905 0.809553 0.210545
O O1 0.724281 0.554525 0.178801
O O2 0.650372 0.654037 0.159459
O O3 0.713663 0.631668 0.960565
O O4 0.644662 0.526656 0.010255
O O5 0.119936 0.808222 0.224977
O O6 0.156253 0.936581 0.329736
O O7 0.223300 0.826367 0.276574
O O8 0.178332 0.895130 0.082385
O O9 0.172189 0.688374 0.245963
O O10 0.072834 0.694553 0.336895
O O11 0.534417 0.810143 0.971858
O O12 0.447169 0.315597 0.093675
#
# Coordination Sequence:
#
# PCOD8187701 Si02
#       6
#    16  16  16  16  16  16
#     4  11  23  44  72  99 136 181 232 283 350 412
#     4  12  25  41  67 102 137 176 223 289 346 406
#     4  12  24  43  68  99 137 175 231 281 343 415
#     4  11  23  43  67 100 131 178 225 281 343 416
#     4  11  23  44  73  95 133 185 230 278 350 420
#     4  11  25  43  70 102 136 179 230 286 342 417
#
# _framework density 21.309021999999999
#
# number of rings (size 3 to 8) (size 9 to 14) (size 15 to 20)
#    0.000    0.667    6.667    1.500    0.000    1.333 
#    0.000    2.500    0.000    0.000    0.000    0.000 
#    0.000    0.000    0.000    0.000    0.000    0.000 
#
# Total GULP energy -297596.722625 kJ/mol
# GULP energy per Si atom -12399.863443 kJ/mol
# Density = 2.126052 g / cm^3
# Si number density = 21.309022 Si / 1000 Ang^3
#
#
#
# Elastic Constant Matrix: (Units=GPa)
#
#
# Indices 1 2 3 4 5 6 
#
# 1 110.8722 42.7000 45.5557 -0.0001 0.0000 0.0000
# 2 42.7000 55.3652 43.9821 0.0000 0.0000 0.0000
# 3 45.5557 43.9821 143.9849 -0.0004 0.0002 0.0000
# 4 -0.0001 0.0000 -0.0004 36.5697 0.0001 0.0000
# 5 0.0000 0.0000 0.0002 0.0001 26.6224 0.0000
# 6 0.0000 0.0000 0.0000 0.0000 0.0000 39.5607
#
#
#
# Elastic Compliance Matrix: (Units=1/GPa)
#
#
# Indices 1 2 3 4 5 6 
#
# 1 0.013038 -0.008950 -0.001391 0.000000 0.000000 0.000000
# 2 -0.008950 0.029993 -0.006330 0.000000 0.000000 0.000000
# 3 -0.001391 -0.006330 0.009319 0.000000 0.000000 0.000000
# 4 0.000000 0.000000 0.000000 0.027345 0.000000 0.000000
# 5 0.000000 0.000000 0.000000 0.000000 0.037562 0.000000
# 6 0.000000 0.000000 0.000000 0.000000 0.000000 0.025278
#
#
# Mechanical properties :
#
#
# Convention : Reuss Voigt Hill
#
# Bulk Modulus (GPa) = 52.61158 63.85533 58.23346
# Shear Modulus (GPa) = 27.44023 32.41618 29.92821
#
# Velocity S-wave (km/s) = 3.59239 3.90454 3.75171
# Velocity P-wave (km/s) = 6.47691 7.09638 6.79371
#
# Compressibility (1/GPa) = 0.01900722
#
# Stress axis : x y z
#
# Youngs Moduli (GPa) = 76.69867 33.34069 107.30869
#
# Poissons Ratio (x) = 0.29841 0.14928
# Poissons Ratio (y) = 0.68648 0.67927
# Poissons Ratio (z) = 0.10670 0.21105
#
# Static dielectric constant tensor:
#      x y z
#    x 3.926380 0.000000 0.000000 
#    y 0.000000 3.940430 0.000000 
#    z 0.000000 0.000000 4.013340 
# 
# 
# High freq. dielectric constant tensor:
#      x y z
#    x 1.835830 0.000000 0.000000 
#    y 0.000000 1.828570 0.000000 
#    z 0.000000 0.000000 1.850300 
# 
# From -- ./inp_files/3286.got.cif
#   From: 2010.06.25/outbox.cif.g09.slc.cpg/sg43_2_cif.got.tgz:3286.got - 2010.06.26 16:48:59.
