data_PCOD8187464
_publ_section_title
;
Structure prediction by ZEFSAII (Michael W. Deem and Ramdas Pophale) SiO2 
 PCOD8187464
Probable space group: F D D 2
;
_chemical_formula_sum "Si O2"
_cell_formula_units_Z 96
_cell_length_a 10.838625
_cell_length_b 21.120998
_cell_length_c 19.113001
_cell_angle_alpha 90.000000
_cell_angle_beta 90.000000
_cell_angle_gamma 90.000000
_cell_volume 4375.397442
_symmetry_space_group_name_H-M "F D D 2"
_symmetry_group_IT_number 43
_symmetry_cell_setting 'orthorhombic'
loop_
_space_group_symop_operation_xyz
x,y,z
-x,-y,z
1/4-x,1/4+y,1/4+z
1/4+x,1/4-y,1/4+z
x,1/2+y,1/2+z
-x,1/2-y,1/2+z
1/4-x,3/4+y,3/4+z
1/4+x,3/4-y,3/4+z
1/2+x,y,1/2+z
1/2-x,-y,1/2+z
3/4-x,1/4+y,3/4+z
3/4+x,1/4-y,3/4+z
1/2+x,1/2+y,z
1/2-x,1/2-y,z
3/4-x,3/4+y,1/4+z
3/4+x,3/4-y,1/4+z
loop_
_atom_site_type_symbol
_atom_site_label
_atom_site_fract_x
_atom_site_fract_y
_atom_site_fract_z
Si Si1 0.500000 0.500000 0.767990
Si Si2 0.593672 0.442575 0.262120
Si Si3 0.698779 0.041032 0.371296
Si Si4 0.250000 0.250000 0.791695
Si Si5 0.616813 0.670672 0.905202
Si Si6 0.102949 0.748389 0.877220
Si Si7 0.737764 0.054735 0.988091
O O1 0.591733 0.540086 0.814758
O O2 0.588274 0.455077 0.724206
O O3 0.500000 0.500000 0.272623
O O4 0.673583 0.438976 0.333163
O O5 0.682153 0.455106 0.194644
O O6 0.512453 0.380667 0.242547
O O7 0.650735 0.097837 0.420786
O O8 0.706712 0.975974 0.416746
O O9 0.306712 0.305557 0.838362
O O10 0.151967 0.281085 0.740353
O O11 0.470821 0.685126 0.890244
O O12 0.250000 0.750000 0.875170
O O13 0.062035 0.717552 0.805478
#
# Coordination Sequence:
#
# PCOD8187464 Si02
#       7
#     8  16  16   8  16  16  16
#     4  11  26  46  68 106 147 182 246 304 363 444
#     4  11  26  49  73 103 149 197 243 306 374 440
#     4  12  27  45  75 111 139 196 251 305 366 449
#     4   9  20  42  70 102 135 186 234 298 363 428
#     4  10  22  46  74  98 144 189 239 302 367 431
#     4  10  24  49  70 103 149 196 230 306 378 432
#     4  11  26  44  75 110 143 190 253 303 365 445
#
# _framework density 21.940864999999999
#
# number of rings (size 3 to 8) (size 9 to 14) (size 15 to 20)
#    0.000    1.333    3.333    0.000    9.333    2.667 
#    0.000    0.000    0.000    0.000    0.000    0.000 
#    0.000    0.000    0.000    0.000    0.000    0.000 
#
# Total GULP energy -297406.126351 kJ/mol
# GULP energy per Si atom -12391.921931 kJ/mol
# Density = 2.189093 g / cm^3
# Si number density = 21.940865 Si / 1000 Ang^3
#
#
#
# Elastic Constant Matrix: (Units=GPa)
#
#
# Indices 1 2 3 4 5 6 
#
# 1 130.8621 49.4705 38.2373 0.0000 0.0000 0.0000
# 2 49.4705 143.7387 32.0341 0.0000 0.0000 0.0000
# 3 38.2373 32.0341 96.6504 0.0000 0.0000 0.0000
# 4 0.0000 0.0000 0.0000 22.3301 0.0000 0.0000
# 5 0.0000 0.0000 0.0000 0.0000 26.7589 0.0000
# 6 0.0000 0.0000 0.0000 0.0000 0.0000 22.7109
#
#
#
# Elastic Compliance Matrix: (Units=1/GPa)
#
#
# Indices 1 2 3 4 5 6 
#
# 1 0.009473 -0.002619 -0.002880 0.000000 0.000000 0.000000
# 2 -0.002619 0.008236 -0.001694 0.000000 0.000000 0.000000
# 3 -0.002880 -0.001694 0.012047 0.000000 0.000000 0.000000
# 4 0.000000 0.000000 0.000000 0.044783 0.000000 0.000000
# 5 0.000000 0.000000 0.000000 0.000000 0.037371 0.000000
# 6 0.000000 0.000000 0.000000 0.000000 0.000000 0.044032
#
#
# Mechanical properties :
#
#
# Convention : Reuss Voigt Hill
#
# Bulk Modulus (GPa) = 65.05407 67.85944 66.45675
# Shear Modulus (GPa) = 28.49825 31.12726 29.81275
#
# Velocity S-wave (km/s) = 3.60789 3.77063 3.69016
# Velocity P-wave (km/s) = 6.86075 7.06770 6.96499
#
# Compressibility (1/GPa) = 0.01537183
#
# Stress axis : x y z
#
# Youngs Moduli (GPa) = 105.56309 121.42184 83.00613
#
# Poissons Ratio (x) = 0.31794 0.23905
# Poissons Ratio (y) = 0.27642 0.14059
# Poissons Ratio (z) = 0.30401 0.20566
#
# Static dielectric constant tensor:
#      x y z
#    x 6.665510 0.000000 0.000000 
#    y 0.000000 4.027890 0.000000 
#    z 0.000000 0.000000 4.123380 
# 
# 
# High freq. dielectric constant tensor:
#      x y z
#    x 1.870190 0.000000 0.000000 
#    y 0.000000 1.854540 0.000000 
#    z 0.000000 0.000000 1.869280 
# 
# From -- ./inp_files/17153.got.cif
#   From: 2010.06.25/outbox.cif.g09.slc.cpg/sg43_9_cif.got.tgz:17153.got - 2010.06.26 16:48:59.
