data_PCOD8187412
_publ_section_title
;
Structure prediction by ZEFSAII (Michael W. Deem and Ramdas Pophale) SiO2 
 PCOD8187412
Probable space group: F D D 2
;
_chemical_formula_sum "Si O2"
_cell_formula_units_Z 104
_cell_length_a 24.103056
_cell_length_b 15.147555
_cell_length_c 13.644889
_cell_angle_alpha 90.000000
_cell_angle_beta 90.000000
_cell_angle_gamma 90.000000
_cell_volume 4981.781264
_symmetry_space_group_name_H-M "F D D 2"
_symmetry_group_IT_number 43
_symmetry_cell_setting 'orthorhombic'
loop_
_space_group_symop_operation_xyz
x,y,z
-x,-y,z
1/4-x,1/4+y,1/4+z
1/4+x,1/4-y,1/4+z
x,1/2+y,1/2+z
-x,1/2-y,1/2+z
1/4-x,3/4+y,3/4+z
1/4+x,3/4-y,3/4+z
1/2+x,y,1/2+z
1/2-x,-y,1/2+z
3/4-x,1/4+y,3/4+z
3/4+x,1/4-y,3/4+z
1/2+x,1/2+y,z
1/2-x,1/2-y,z
3/4-x,3/4+y,1/4+z
3/4+x,3/4-y,1/4+z
loop_
_atom_site_type_symbol
_atom_site_label
_atom_site_fract_x
_atom_site_fract_y
_atom_site_fract_z
Si Si1 0.291914 0.408329 0.723460
Si Si2 0.114214 0.561857 0.589647
Si Si3 0.000000 0.500000 0.669261
Si Si4 0.974369 0.687063 0.753377
Si Si5 0.868778 0.763110 0.653475
Si Si6 0.168113 0.918050 0.212442
Si Si7 0.086513 0.745103 0.656782
O O1 0.287322 0.453766 0.617462
O O2 0.325487 0.316079 0.721367
O O3 0.228431 0.401301 0.759561
O O4 0.324820 0.468000 0.799406
O O5 0.050743 0.530383 0.601365
O O6 0.160616 0.502442 0.643589
O O7 0.122029 0.657268 0.637361
O O8 0.126463 0.561036 0.472978
O O9 0.023906 0.419069 0.734350
O O10 0.928693 0.745543 0.698786
O O11 0.031729 0.727212 0.718733
O O12 0.844011 0.664906 0.640615
O O13 0.875223 0.819273 0.552977
#
# Coordination Sequence:
#
# PCOD8187412 Si02
#       7
#    16  16   8  16  16  16  16
#     4  12  26  42  67  97 146 180 224 282 358 415
#     4  11  23  41  69  99 136 175 236 283 344 410
#     4  10  22  42  72 100 128 170 238 298 342 386
#     4  11  23  43  67  99 133 177 229 293 335 405
#     4  12  24  42  67 101 134 178 227 285 345 411
#     4  12  24  42  72 100 133 177 234 297 341 402
#     4  11  26  43  66  97 139 186 228 275 349 416
#
# _framework density 20.876068
#
# number of rings (size 3 to 8) (size 9 to 14) (size 15 to 20)
#    0.000    0.615    6.154    1.385    6.462    0.000 
#    0.000    0.000    0.000    0.000    0.000    0.000 
#    0.000    0.000    0.000    0.000    0.000    0.000 
#
# Total GULP energy -322247.055139 kJ/mol
# GULP energy per Si atom -12394.117505 kJ/mol
# Density = 2.082855 g / cm^3
# Si number density = 20.876068 Si / 1000 Ang^3
#
#
#
# Elastic Constant Matrix: (Units=GPa)
#
#
# Indices 1 2 3 4 5 6 
#
# 1 106.7557 47.9727 40.5036 0.0000 0.0000 0.0000
# 2 47.9727 86.6176 41.1393 0.0000 0.0000 0.0000
# 3 40.5036 41.1393 123.3160 0.0000 0.0000 0.0000
# 4 0.0000 0.0000 0.0000 27.4783 0.0000 0.0000
# 5 0.0000 0.0000 0.0000 0.0000 39.0126 0.0000
# 6 0.0000 0.0000 0.0000 0.0000 0.0000 38.1658
#
#
#
# Elastic Compliance Matrix: (Units=1/GPa)
#
#
# Indices 1 2 3 4 5 6 
#
# 1 0.012960 -0.006127 -0.002213 0.000000 0.000000 0.000000
# 2 -0.006127 0.016615 -0.003531 0.000000 0.000000 0.000000
# 3 -0.002213 -0.003531 0.010014 0.000000 0.000000 0.000000
# 4 0.000000 0.000000 0.000000 0.036392 0.000000 0.000000
# 5 0.000000 0.000000 0.000000 0.000000 0.025633 0.000000
# 6 0.000000 0.000000 0.000000 0.000000 0.000000 0.026201
#
#
# Mechanical properties :
#
#
# Convention : Reuss Voigt Hill
#
# Bulk Modulus (GPa) = 63.09705 63.99117 63.54411
# Shear Modulus (GPa) = 31.87987 33.40292 32.64139
#
# Velocity S-wave (km/s) = 3.91205 4.00441 3.95850
# Velocity P-wave (km/s) = 7.12009 7.21802 7.16923
#
# Compressibility (1/GPa) = 0.01584860
#
# Stress axis : x y z
#
# Youngs Moduli (GPa) = 77.16096 60.18591 99.86145
#
# Poissons Ratio (x) = 0.36875 0.22097
# Poissons Ratio (y) = 0.47275 0.35257
# Poissons Ratio (z) = 0.17074 0.21249
#
# Static dielectric constant tensor:
#      x y z
#    x 4.017350 0.000000 0.000000 
#    y 0.000000 3.740060 0.000000 
#    z 0.000000 0.000000 3.766130 
# 
# 
# High freq. dielectric constant tensor:
#      x y z
#    x 1.835280 0.000000 0.000000 
#    y 0.000000 1.803870 0.000000 
#    z 0.000000 0.000000 1.813770 
# 
# From -- ./inp_files/7952.got.cif
#   From: 2010.06.25/outbox.cif.g09.slc.cpg/sg43_4_cif.got.tgz:7952.got - 2010.06.26 16:48:59.
