data_PCOD8187557
_publ_section_title
;
Structure prediction by ZEFSAII (Michael W. Deem and Ramdas Pophale) SiO2 
 PCOD8187557
Probable space group: F D D 2
;
_chemical_formula_sum "Si O2"
_cell_formula_units_Z 104
_cell_length_a 23.206509
_cell_length_b 7.566429
_cell_length_c 26.314409
_cell_angle_alpha 90.000000
_cell_angle_beta 90.000000
_cell_angle_gamma 90.000000
_cell_volume 4620.557673
_symmetry_space_group_name_H-M "F D D 2"
_symmetry_group_IT_number 43
_symmetry_cell_setting 'orthorhombic'
loop_
_space_group_symop_operation_xyz
x,y,z
-x,-y,z
1/4-x,1/4+y,1/4+z
1/4+x,1/4-y,1/4+z
x,1/2+y,1/2+z
-x,1/2-y,1/2+z
1/4-x,3/4+y,3/4+z
1/4+x,3/4-y,3/4+z
1/2+x,y,1/2+z
1/2-x,-y,1/2+z
3/4-x,1/4+y,3/4+z
3/4+x,1/4-y,3/4+z
1/2+x,1/2+y,z
1/2-x,1/2-y,z
3/4-x,3/4+y,1/4+z
3/4+x,3/4-y,1/4+z
loop_
_atom_site_type_symbol
_atom_site_label
_atom_site_fract_x
_atom_site_fract_y
_atom_site_fract_z
Si Si1 0.449985 0.198813 0.359410
Si Si2 0.505034 0.796037 0.569560
Si Si3 0.131606 0.989683 0.379168
Si Si4 0.487092 0.205551 0.958322
Si Si5 0.385363 0.127768 0.093823
Si Si6 0.750000 0.250000 0.521933
Si Si7 0.863667 0.121616 0.482129
O O1 0.418137 0.388446 0.355530
O O2 0.488258 0.184213 0.410509
O O3 0.401349 0.048755 0.358645
O O4 0.490887 0.169523 0.309985
O O5 0.561157 0.732533 0.597571
O O6 0.517950 0.765406 0.510079
O O7 0.452186 0.685960 0.593365
O O8 0.500000 0.000000 0.582039
O O9 0.115809 0.779646 0.381438
O O10 0.141206 0.034574 0.439375
O O11 0.419229 0.242090 0.967897
O O12 0.500000 0.000000 0.947338
O O13 0.371870 0.045206 0.038328
O O14 0.804430 0.233736 0.484295
#
# Coordination Sequence:
#
# PCOD8187557 Si02
#       7
#    16  16  16  16  16   8  16
#     4  11  25  45  71 105 136 182 245 293 362 436
#     4  11  23  42  70 105 146 189 244 290 362 432
#     4  12  24  44  73 101 142 189 238 300 357 433
#     4  11  23  43  69 104 140 186 244 292 358 439
#     4  10  24  47  68 101 145 190 231 304 355 429
#     4  10  26  48  68 106 150 188 238 312 366 440
#     4  10  24  44  69 100 141 183 238 287 364 428
#
# _framework density 22.508105
#
# number of rings (size 3 to 8) (size 9 to 14) (size 15 to 20)
#    0.000    1.231    3.077    2.308    7.538    1.231 
#    0.000    1.538    0.000    0.000    0.000    0.000 
#    0.000    0.000    0.000    0.000    0.000    0.000 
#
# Total GULP energy -322139.746552 kJ/mol
# GULP energy per Si atom -12389.990252 kJ/mol
# Density = 2.245688 g / cm^3
# Si number density = 22.508105 Si / 1000 Ang^3
#
#
#
# Elastic Constant Matrix: (Units=GPa)
#
#
# Indices 1 2 3 4 5 6 
#
# 1 147.5927 30.4576 54.5737 0.0000 -0.0006 -0.0010
# 2 30.4576 100.9507 22.7775 0.0013 -0.0010 -0.0021
# 3 54.5737 22.7775 109.7713 -0.0003 0.0001 0.0003
# 4 0.0000 0.0013 -0.0003 67.3677 0.0005 -0.0005
# 5 -0.0006 -0.0010 0.0001 0.0005 -0.3543 0.0009
# 6 -0.0010 -0.0021 0.0003 -0.0005 0.0009 24.1567
#
#
#
# Elastic Compliance Matrix: (Units=1/GPa)
#
#
# Indices 1 2 3 4 5 6 
#
# 1 0.008572 -0.001705 -0.003908 0.000000 -0.000012 0.000000
# 2 -0.001705 0.010731 -0.001379 0.000000 -0.000027 0.000001
# 3 -0.003908 -0.001379 0.011339 0.000000 0.000014 0.000000
# 4 0.000000 0.000000 0.000000 0.014844 0.000019 0.000000
# 5 -0.000012 -0.000027 0.000014 0.000019 -2.822170 0.000104
# 6 0.000000 0.000001 0.000000 0.000000 0.000104 0.041396
#
#
# Mechanical properties :
#
#
# Convention : Reuss Voigt Hill
#
# Bulk Modulus (GPa) = 60.02873 63.77026 61.89950
# Shear Modulus (GPa) = -1.84111 34.93441 16.54665
#
# Velocity S-wave (km/s) = -0.90540 3.94392 2.71429
# Velocity P-wave (km/s) = 5.06307 7.00949 6.11423
#
# Compressibility (1/GPa) = 0.01665869
#
# Stress axis : x y z
#
# Youngs Moduli (GPa) = 116.65633 93.18523 88.19142
#
# Poissons Ratio (x) = 0.15884 0.34466
# Poissons Ratio (y) = 0.19884 0.12164
# Poissons Ratio (z) = 0.45590 0.12853
#
# Static dielectric constant tensor:
#      x y z
#    x 4.485580 -0.000010 0.000000 
#    y -0.000010 1.795120 0.000010 
#    z 0.000000 0.000010 4.395490 
# 
# 
# High freq. dielectric constant tensor:
#      x y z
#    x 1.909350 0.000000 0.000000 
#    y 0.000000 1.859530 0.000000 
#    z 0.000000 0.000000 1.899880 
# 
# From -- ./inp_files/26557.got.cif
#   From: 2010.06.25/outbox.cif.g09.slc.cpg/sg43_14_cif.got.tgz:26557.got - 2010.06.26 16:48:59.
