data_PCOD8187532
_publ_section_title
;
Structure prediction by ZEFSAII (Michael W. Deem and Ramdas Pophale) SiO2 
 PCOD8187532
Probable space group: F D D 2
;
_chemical_formula_sum "Si O2"
_cell_formula_units_Z 80
_cell_length_a 25.643236
_cell_length_b 11.923833
_cell_length_c 13.088323
_cell_angle_alpha 90.000000
_cell_angle_beta 90.000000
_cell_angle_gamma 90.000000
_cell_volume 4001.959768
_symmetry_space_group_name_H-M "F D D 2"
_symmetry_group_IT_number 43
_symmetry_cell_setting 'orthorhombic'
loop_
_space_group_symop_operation_xyz
x,y,z
-x,-y,z
1/4-x,1/4+y,1/4+z
1/4+x,1/4-y,1/4+z
x,1/2+y,1/2+z
-x,1/2-y,1/2+z
1/4-x,3/4+y,3/4+z
1/4+x,3/4-y,3/4+z
1/2+x,y,1/2+z
1/2-x,-y,1/2+z
3/4-x,1/4+y,3/4+z
3/4+x,1/4-y,3/4+z
1/2+x,1/2+y,z
1/2-x,1/2-y,z
3/4-x,3/4+y,1/4+z
3/4+x,3/4-y,1/4+z
loop_
_atom_site_type_symbol
_atom_site_label
_atom_site_fract_x
_atom_site_fract_y
_atom_site_fract_z
Si Si1 0.674831 0.431163 0.791600
Si Si2 0.647928 0.686851 0.227602
Si Si3 0.023939 0.250137 0.449732
Si Si4 0.851880 0.686799 0.671755
Si Si5 0.324869 0.431279 0.607400
O O1 0.674101 0.299551 0.767563
O O2 0.647820 0.462683 0.897527
O O3 0.735904 0.470253 0.796009
O O4 0.646694 0.498733 0.698576
O O5 0.690639 0.607785 0.172463
O O6 0.624173 0.623802 0.323366
O O7 0.059584 0.142931 0.477345
O O8 0.986235 0.220185 0.353025
O O9 0.898617 0.709934 0.750345
O O10 0.825520 0.800586 0.635170
#
# Coordination Sequence:
#
# PCOD8187532 Si02
#       5
#    16  16  16  16  16
#     4  10  24  41  67  94 133 175 222 275 339 402
#     4  12  21  45  67  96 134 175 225 283 329 403
#     4  10  24  40  68  95 135 168 228 266 344 398
#     4  12  21  45  67  96 134 175 225 283 329 403
#     4  10  24  41  67  94 133 175 222 275 339 402
#
# _framework density 19.990206000000001
#
# number of rings (size 3 to 8) (size 9 to 14) (size 15 to 20)
#    1.200    0.000    4.000    2.400    0.000    1.600 
#    0.000    4.000    0.000    0.000    0.000    0.000 
#    0.000    0.000    0.000    0.000    0.000    0.000 
#
# Total GULP energy -247878.640068 kJ/mol
# GULP energy per Si atom -12393.932003 kJ/mol
# Density = 1.994471 g / cm^3
# Si number density = 19.990206 Si / 1000 Ang^3
#
#
#
# Elastic Constant Matrix: (Units=GPa)
#
#
# Indices 1 2 3 4 5 6 
#
# 1 120.1627 53.5736 72.2927 0.0000 0.0000 0.0000
# 2 53.5736 212.6777 144.5495 0.0000 0.0000 0.0000
# 3 72.2927 144.5495 253.2544 0.0000 0.0000 0.0000
# 4 0.0000 0.0000 0.0000 37.2920 0.0000 0.0000
# 5 0.0000 0.0000 0.0000 0.0000 25.3246 0.0000
# 6 0.0000 0.0000 0.0000 0.0000 0.0000 48.4735
#
#
#
# Elastic Compliance Matrix: (Units=1/GPa)
#
#
# Indices 1 2 3 4 5 6 
#
# 1 0.010167 -0.000962 -0.002353 0.000000 0.000000 0.000000
# 2 -0.000962 0.007773 -0.004162 0.000000 0.000000 0.000000
# 3 -0.002353 -0.004162 0.006996 0.000000 0.000000 0.000000
# 4 0.000000 0.000000 0.000000 0.026815 0.000000 0.000000
# 5 0.000000 0.000000 0.000000 0.000000 0.039487 0.000000
# 6 0.000000 0.000000 0.000000 0.000000 0.000000 0.020630
#
#
# Mechanical properties :
#
#
# Convention : Reuss Voigt Hill
#
# Bulk Modulus (GPa) = 100.18367 125.21406 112.69887
# Shear Modulus (GPa) = 38.41753 43.26330 40.84041
#
# Velocity S-wave (km/s) = 4.38861 4.65717 4.52488
# Velocity P-wave (km/s) = 8.71235 9.57563 9.15417
#
# Compressibility (1/GPa) = 0.00998167
#
# Stress axis : x y z
#
# Youngs Moduli (GPa) = 98.36200 128.65058 142.93972
#
# Poissons Ratio (x) = 0.12370 0.33638
# Poissons Ratio (y) = 0.09458 0.59493
# Poissons Ratio (z) = 0.23147 0.53546
#
# Static dielectric constant tensor:
#      x y z
#    x 3.668700 0.000000 0.000000 
#    y 0.000000 4.029900 0.000000 
#    z 0.000000 0.000000 -0.578150 
# 
# 
# High freq. dielectric constant tensor:
#      x y z
#    x 1.778350 0.000000 0.000000 
#    y 0.000000 1.799460 0.000000 
#    z 0.000000 0.000000 1.756430 
# 
# From -- ./inp_files/5707.got.cif
#   From: 2010.06.25/outbox.cif.g09.slc.cpg/sg43_3_cif.got.tgz:5707.got - 2010.06.26 16:48:59.
