data_PCOD8187365
_publ_section_title
;
Structure prediction by ZEFSAII (Michael W. Deem and Ramdas Pophale) SiO2 
 PCOD8187365
Probable space group: F D D 2
;
_chemical_formula_sum "Si O2"
_cell_formula_units_Z 104
_cell_length_a 18.437643
_cell_length_b 13.952414
_cell_length_c 19.109374
_cell_angle_alpha 90.000000
_cell_angle_beta 90.000000
_cell_angle_gamma 90.000000
_cell_volume 4915.879359
_symmetry_space_group_name_H-M "F D D 2"
_symmetry_group_IT_number 43
_symmetry_cell_setting 'orthorhombic'
loop_
_space_group_symop_operation_xyz
x,y,z
-x,-y,z
1/4-x,1/4+y,1/4+z
1/4+x,1/4-y,1/4+z
x,1/2+y,1/2+z
-x,1/2-y,1/2+z
1/4-x,3/4+y,3/4+z
1/4+x,3/4-y,3/4+z
1/2+x,y,1/2+z
1/2-x,-y,1/2+z
3/4-x,1/4+y,3/4+z
3/4+x,1/4-y,3/4+z
1/2+x,1/2+y,z
1/2-x,1/2-y,z
3/4-x,3/4+y,1/4+z
3/4+x,3/4-y,1/4+z
loop_
_atom_site_type_symbol
_atom_site_label
_atom_site_fract_x
_atom_site_fract_y
_atom_site_fract_z
Si Si1 0.218343 0.143579 0.898170
Si Si2 0.500000 0.000000 0.438760
Si Si3 0.098654 0.437031 0.549847
Si Si4 0.252492 0.485755 0.505047
Si Si5 0.430267 0.557972 0.203668
Si Si6 0.281873 0.013385 0.774539
Si Si7 0.698020 0.439878 0.646426
O O1 0.250000 0.250000 0.897276
O O2 0.245601 0.083255 0.831245
O O3 0.132703 0.151545 0.902033
O O4 0.240932 0.087899 0.968483
O O5 0.569011 0.008351 0.490422
O O6 0.500654 0.904015 0.391954
O O7 0.181675 0.424545 0.527713
O O8 0.091898 0.482542 0.627169
O O9 0.048992 0.342326 0.552972
O O10 0.298689 0.420110 0.452303
O O11 0.297098 0.500578 0.575758
O O12 0.500000 0.500000 0.232795
O O13 0.360173 0.552951 0.252549
O O14 0.223933 0.006610 0.710934
#
# Coordination Sequence:
#
# PCOD8187365 Si02
#       7
#    16   8  16  16  16  16  16
#     4  12  28  48  69 103 147 193 234 288 362 439
#     4  10  22  40  68 102 134 168 232 296 350 414
#     4  11  21  42  67 104 132 178 229 304 353 415
#     4  12  25  44  71 100 142 184 237 287 363 425
#     4  12  23  42  72 103 138 181 238 300 357 418
#     4  11  25  46  71 101 141 181 241 297 354 430
#     4  11  26  44  71 101 137 185 234 289 360 426
#
# _framework density 21.155929
#
# number of rings (size 3 to 8) (size 9 to 14) (size 15 to 20)
#    0.000    0.615    6.923    0.923    3.231    0.000 
#    0.000    0.769    0.000    0.000    0.000    0.000 
#    0.000    0.000    0.000    0.000    0.000    0.000 
#
# Total GULP energy -322282.601994 kJ/mol
# GULP energy per Si atom -12395.484692 kJ/mol
# Density = 2.110778 g / cm^3
# Si number density = 21.155929 Si / 1000 Ang^3
#
#
#
# Elastic Constant Matrix: (Units=GPa)
#
#
# Indices 1 2 3 4 5 6 
#
# 1 109.0488 28.9419 38.1440 0.0000 0.0000 0.0000
# 2 28.9419 97.4407 35.1641 0.0000 0.0000 0.0000
# 3 38.1440 35.1641 102.4274 0.0000 0.0000 0.0000
# 4 0.0000 0.0000 0.0000 -10.8048 0.0000 0.0000
# 5 0.0000 0.0000 0.0000 0.0000 42.9718 0.0000
# 6 0.0000 0.0000 0.0000 0.0000 0.0000 29.5677
#
#
#
# Elastic Compliance Matrix: (Units=1/GPa)
#
#
# Indices 1 2 3 4 5 6 
#
# 1 0.010881 -0.002020 -0.003359 0.000000 0.000000 0.000000
# 2 -0.002020 0.012089 -0.003398 0.000000 0.000000 0.000000
# 3 -0.003359 -0.003398 0.012180 0.000000 0.000000 0.000000
# 4 0.000000 0.000000 0.000000 -0.092552 0.000000 0.000000
# 5 0.000000 0.000000 0.000000 0.000000 0.023271 0.000000
# 6 0.000000 0.000000 0.000000 0.000000 0.000000 0.033821
#
#
# Mechanical properties :
#
#
# Convention : Reuss Voigt Hill
#
# Bulk Modulus (GPa) = 56.82716 57.04634 56.93675
# Shear Modulus (GPa) = 216.36269 26.12472 121.24371
#
# Velocity S-wave (km/s) = 10.12386 3.51788 7.57852
# Velocity P-wave (km/s) = 12.78969 6.59726 10.17595
#
# Compressibility (1/GPa) = 0.01759722
#
# Stress axis : x y z
#
# Youngs Moduli (GPa) = 91.90234 82.72092 82.09937
#
# Poissons Ratio (x) = 0.16708 0.27575
# Poissons Ratio (y) = 0.18563 0.27897
# Poissons Ratio (z) = 0.30867 0.28109
#
# Static dielectric constant tensor:
#      x y z
#    x 3.688520 0.000000 0.000000 
#    y 0.000000 3.801920 0.000000 
#    z 0.000000 0.000000 3.747550 
# 
# 
# High freq. dielectric constant tensor:
#      x y z
#    x 1.837600 0.000000 0.000000 
#    y 0.000000 1.826830 0.000000 
#    z 0.000000 0.000000 1.831210 
# 
# From -- ./inp_files/13904.got.cif
#   From: 2010.06.25/outbox.cif.g09.slc.cpg/sg43_7_cif.got.tgz:13904.got - 2010.06.26 16:48:59.
