data_PCOD8187671
_publ_section_title
;
Structure prediction by ZEFSAII (Michael W. Deem and Ramdas Pophale) SiO2 
 PCOD8187671
Probable space group: F D D 2
;
_chemical_formula_sum "Si O2"
_cell_formula_units_Z 120
_cell_length_a 11.730260
_cell_length_b 28.717767
_cell_length_c 15.829137
_cell_angle_alpha 90.000000
_cell_angle_beta 90.000000
_cell_angle_gamma 90.000000
_cell_volume 5332.311892
_symmetry_space_group_name_H-M "F D D 2"
_symmetry_group_IT_number 43
_symmetry_cell_setting 'orthorhombic'
loop_
_space_group_symop_operation_xyz
x,y,z
-x,-y,z
1/4-x,1/4+y,1/4+z
1/4+x,1/4-y,1/4+z
x,1/2+y,1/2+z
-x,1/2-y,1/2+z
1/4-x,3/4+y,3/4+z
1/4+x,3/4-y,3/4+z
1/2+x,y,1/2+z
1/2-x,-y,1/2+z
3/4-x,1/4+y,3/4+z
3/4+x,1/4-y,3/4+z
1/2+x,1/2+y,z
1/2-x,1/2-y,z
3/4-x,3/4+y,1/4+z
3/4+x,3/4-y,1/4+z
loop_
_atom_site_type_symbol
_atom_site_label
_atom_site_fract_x
_atom_site_fract_y
_atom_site_fract_z
Si Si1 0.500000 0.000000 0.937620
Si Si2 0.896974 0.029864 0.922767
Si Si3 0.532019 0.209978 0.110259
Si Si4 0.668956 0.325213 0.305697
Si Si5 0.529333 0.663896 0.442247
Si Si6 0.339436 0.373908 0.081571
Si Si7 0.736396 0.700820 0.357430
Si Si8 0.097281 0.882685 0.646646
O O1 0.582594 0.967268 0.880577
O O2 0.414067 0.970305 0.997710
O O3 0.877548 0.082542 0.893704
O O4 0.780722 0.003592 0.902340
O O5 0.925087 0.034230 0.020798
O O6 0.000000 0.000000 0.878983
O O7 0.483981 0.162902 0.152149
O O8 0.509097 0.206532 0.008700
O O9 0.555587 0.334812 0.361193
O O10 0.716194 0.367082 0.246590
O O11 0.772986 0.321894 0.372534
O O12 0.655926 0.666035 0.406772
O O13 0.393164 0.424098 0.103250
O O14 0.202375 0.377733 0.082191
O O15 0.391015 0.359152 0.991252
O O16 0.750000 0.750000 0.407002
#
# Coordination Sequence:
#
# PCOD8187671 Si02
#       8
#     8  16  16  16  16  16  16  16
#     4  12  26  44  74 108 144 202 240 306 376 438
#     4  11  23  45  71 103 144 185 243 303 365 431
#     4  11  24  46  72  98 144 191 242 308 364 443
#     4  11  25  44  72 102 142 188 236 296 362 434
#     4  11  26  47  69 101 143 189 240 298 358 441
#     4  12  23  41  72 103 139 192 231 302 368 434
#     4  11  26  45  69 104 145 186 238 301 359 442
#     4  11  22  44  68 100 139 182 245 291 364 437
#
# _framework density 22.504311000000001
#
# number of rings (size 3 to 8) (size 9 to 14) (size 15 to 20)
#    0.000    0.800    2.667    5.600    4.667    3.200 
#    0.000    0.000    0.000    0.000    0.000    0.000 
#    0.000    0.000    0.000    0.000    0.000    0.000 
#
# Total GULP energy -371689.268251 kJ/mol
# GULP energy per Si atom -12389.642275 kJ/mol
# Density = 2.245309 g / cm^3
# Si number density = 22.504311 Si / 1000 Ang^3
#
#
#
# Elastic Constant Matrix: (Units=GPa)
#
#
# Indices 1 2 3 4 5 6 
#
# 1 111.0993 30.6577 31.9044 0.0000 0.0000 0.0000
# 2 30.6577 82.2457 17.6390 0.0000 0.0000 0.0000
# 3 31.9044 17.6390 64.7298 0.0000 0.0000 0.0000
# 4 0.0000 0.0000 0.0000 26.7702 0.0000 0.0000
# 5 0.0000 0.0000 0.0000 0.0000 35.6904 0.0000
# 6 0.0000 0.0000 0.0000 0.0000 0.0000 40.4912
#
#
#
# Elastic Compliance Matrix: (Units=1/GPa)
#
#
# Indices 1 2 3 4 5 6 
#
# 1 0.011218 -0.003182 -0.004662 0.000000 0.000000 0.000000
# 2 -0.003182 0.013816 -0.002197 0.000000 0.000000 0.000000
# 3 -0.004662 -0.002197 0.018345 0.000000 0.000000 0.000000
# 4 0.000000 0.000000 0.000000 0.037355 0.000000 0.000000
# 5 0.000000 0.000000 0.000000 0.000000 0.028019 0.000000
# 6 0.000000 0.000000 0.000000 0.000000 0.000000 0.024697
#
#
# Mechanical properties :
#
#
# Convention : Reuss Voigt Hill
#
# Bulk Modulus (GPa) = 42.92191 46.49744 44.70967
# Shear Modulus (GPa) = 30.99892 32.44861 31.72377
#
# Velocity S-wave (km/s) = 3.71545 3.80133 3.75864
# Velocity P-wave (km/s) = 6.12538 6.32244 6.22469
#
# Compressibility (1/GPa) = 0.02329813
#
# Stress axis : x y z
#
# Youngs Moduli (GPa) = 89.14464 72.38106 54.50996
#
# Poissons Ratio (x) = 0.23029 0.25413
# Poissons Ratio (y) = 0.28363 0.11974
# Poissons Ratio (z) = 0.41560 0.15899
#
# Static dielectric constant tensor:
#      x y z
#    x 4.470950 0.000000 0.000000 
#    y 0.000000 4.140560 0.000000 
#    z 0.000000 0.000000 4.218130 
# 
# 
# High freq. dielectric constant tensor:
#      x y z
#    x 1.891140 0.000000 0.000000 
#    y 0.000000 1.880350 0.000000 
#    z 0.000000 0.000000 1.888190 
# 
# From -- ./inp_files/13542.got.cif
#   From: 2010.06.25/outbox.cif.g09.slc.cpg/sg43_7_cif.got.tgz:13542.got - 2010.06.26 16:48:59.
