data_PCOD8187285
_publ_section_title
;
Structure prediction by ZEFSAII (Michael W. Deem and Ramdas Pophale) SiO2 
 PCOD8187285
Probable space group: F D D 2
;
_chemical_formula_sum "Si O2"
_cell_formula_units_Z 96
_cell_length_a 10.690567
_cell_length_b 16.709399
_cell_length_c 25.924994
_cell_angle_alpha 90.000000
_cell_angle_beta 90.000000
_cell_angle_gamma 90.000000
_cell_volume 4631.058145
_symmetry_space_group_name_H-M "F D D 2"
_symmetry_group_IT_number 43
_symmetry_cell_setting 'orthorhombic'
loop_
_space_group_symop_operation_xyz
x,y,z
-x,-y,z
1/4-x,1/4+y,1/4+z
1/4+x,1/4-y,1/4+z
x,1/2+y,1/2+z
-x,1/2-y,1/2+z
1/4-x,3/4+y,3/4+z
1/4+x,3/4-y,3/4+z
1/2+x,y,1/2+z
1/2-x,-y,1/2+z
3/4-x,1/4+y,3/4+z
3/4+x,1/4-y,3/4+z
1/2+x,1/2+y,z
1/2-x,1/2-y,z
3/4-x,3/4+y,1/4+z
3/4+x,3/4-y,1/4+z
loop_
_atom_site_type_symbol
_atom_site_label
_atom_site_fract_x
_atom_site_fract_y
_atom_site_fract_z
Si Si1 0.999909 0.771467 0.462740
Si Si2 0.653467 0.886647 0.448321
Si Si3 0.569336 0.863206 0.338621
Si Si4 0.750000 0.750000 0.272846
Si Si5 0.750000 0.750000 0.015888
Si Si6 0.905196 0.426168 0.001252
Si Si7 0.359162 0.981175 0.111869
O O1 0.128465 0.732057 0.481427
O O2 0.032267 0.814012 0.407322
O O3 0.886775 0.706277 0.459878
O O4 0.976755 0.842092 0.503546
O O5 0.637431 0.905680 0.387398
O O6 0.575331 0.942630 0.485432
O O7 0.798056 0.909258 0.458901
O O8 0.662588 0.803403 0.309222
O O9 0.452685 0.817569 0.362086
O O10 0.496977 0.922914 0.301617
O O11 0.000000 0.500000 0.987943
O O12 0.843288 0.436994 0.057360
O O13 0.500000 0.000000 0.127138
#
# Coordination Sequence:
#
# PCOD8187285 Si02
#       7
#    16  16  16   8   8  16  16
#     4  11  24  41  68  96 132 173 224 279 334 410
#     4  11  25  44  69  97 134 180 224 277 345 417
#     4  11  25  41  69  94 135 177 224 277 342 405
#     4  12  23  46  68 100 136 176 223 284 346 414
#     4  12  21  44  62 102 126 166 229 280 324 398
#     4  11  24  44  66  97 133 177 223 283 339 406
#     4  10  21  43  66  92 129 177 216 267 340 404
#
# _framework density 20.729603999999998
#
# number of rings (size 3 to 8) (size 9 to 14) (size 15 to 20)
#    0.000    1.000    4.167    3.000    4.667    0.000 
#    6.000    0.000    0.000    0.000    0.000    0.000 
#    0.000    0.000    0.000    0.000    0.000    0.000 
#
# Total GULP energy -297322.689553 kJ/mol
# GULP energy per Si atom -12388.445398 kJ/mol
# Density = 2.068242 g / cm^3
# Si number density = 20.729604 Si / 1000 Ang^3
#
#
#
# Elastic Constant Matrix: (Units=GPa)
#
#
# Indices 1 2 3 4 5 6 
#
# 1 109.5534 33.3377 41.5765 0.0000 0.0000 0.0000
# 2 33.3377 68.3244 32.7624 0.0000 0.0000 0.0000
# 3 41.5765 32.7624 127.1732 0.0000 0.0000 0.0000
# 4 0.0000 0.0000 0.0000 56.0030 0.0000 0.0000
# 5 0.0000 0.0000 0.0000 0.0000 31.4414 0.0000
# 6 0.0000 0.0000 0.0000 0.0000 0.0000 35.8104
#
#
#
# Elastic Compliance Matrix: (Units=1/GPa)
#
#
# Indices 1 2 3 4 5 6 
#
# 1 0.011440 -0.004323 -0.002627 0.000000 0.000000 0.000000
# 2 -0.004323 0.018332 -0.003310 0.000000 0.000000 0.000000
# 3 -0.002627 -0.003310 0.009575 0.000000 0.000000 0.000000
# 4 0.000000 0.000000 0.000000 0.017856 0.000000 0.000000
# 5 0.000000 0.000000 0.000000 0.000000 0.031805 0.000000
# 6 0.000000 0.000000 0.000000 0.000000 0.000000 0.027925
#
#
# Mechanical properties :
#
#
# Convention : Reuss Voigt Hill
#
# Bulk Modulus (GPa) = 53.10795 57.82268 55.46532
# Shear Modulus (GPa) = 34.78818 37.80924 36.29871
#
# Velocity S-wave (km/s) = 4.10101 4.27538 4.18910
# Velocity P-wave (km/s) = 6.93537 7.23368 7.08610
#
# Compressibility (1/GPa) = 0.01882957
#
# Stress axis : x y z
#
# Youngs Moduli (GPa) = 87.41156 54.54895 104.44310
#
# Poissons Ratio (x) = 0.23579 0.27432
# Poissons Ratio (y) = 0.37784 0.34566
# Poissons Ratio (z) = 0.22959 0.18053
#
# Static dielectric constant tensor:
#      x y z
#    x 4.147050 0.000000 0.000000 
#    y 0.000000 3.702850 0.000000 
#    z 0.000000 0.000000 4.059470 
# 
# 
# High freq. dielectric constant tensor:
#      x y z
#    x 1.826070 0.000000 0.000000 
#    y 0.000000 1.796470 0.000000 
#    z 0.000000 0.000000 1.826310 
# 
# From -- ./inp_files/21095.got.cif
#   From: 2010.06.25/outbox.cif.g09.slc.cpg/sg43_11_cif.got.tgz:21095.got - 2010.06.26 16:48:59.
