data_PCOD8187186
_publ_section_title
;
Structure prediction by ZEFSAII (Michael W. Deem and Ramdas Pophale) SiO2 
 PCOD8187186
Probable space group: F D D 2
;
_chemical_formula_sum "Si O2"
_cell_formula_units_Z 112
_cell_length_a 22.072134
_cell_length_b 15.178363
_cell_length_c 16.992503
_cell_angle_alpha 90.000000
_cell_angle_beta 90.000000
_cell_angle_gamma 90.000000
_cell_volume 5692.809018
_symmetry_space_group_name_H-M "F D D 2"
_symmetry_group_IT_number 43
_symmetry_cell_setting 'orthorhombic'
loop_
_space_group_symop_operation_xyz
x,y,z
-x,-y,z
1/4-x,1/4+y,1/4+z
1/4+x,1/4-y,1/4+z
x,1/2+y,1/2+z
-x,1/2-y,1/2+z
1/4-x,3/4+y,3/4+z
1/4+x,3/4-y,3/4+z
1/2+x,y,1/2+z
1/2-x,-y,1/2+z
3/4-x,1/4+y,3/4+z
3/4+x,1/4-y,3/4+z
1/2+x,1/2+y,z
1/2-x,1/2-y,z
3/4-x,3/4+y,1/4+z
3/4+x,3/4-y,1/4+z
loop_
_atom_site_type_symbol
_atom_site_label
_atom_site_fract_x
_atom_site_fract_y
_atom_site_fract_z
Si Si1 0.417133 0.177752 0.016700
Si Si2 0.703577 0.998653 0.809885
Si Si3 0.442331 0.045792 0.546612
Si Si4 0.582867 0.677752 0.406060
Si Si5 0.453577 0.748653 0.362875
Si Si6 0.442331 0.454209 0.876148
Si Si7 0.617582 0.250000 0.211380
O O1 0.482916 0.197952 0.051607
O O2 0.367884 0.218796 0.075565
O O3 0.407475 0.220923 0.931623
O O4 0.409259 0.073409 0.002691
O O5 0.711285 0.102364 0.796493
O O6 0.657475 0.970923 0.741137
O O7 0.676749 0.965782 0.892583
O O8 0.382116 0.031204 0.597195
O O9 0.500000 0.000000 0.588251
O O10 0.432421 0.000000 0.461380
O O11 0.517085 0.697952 0.371153
O O12 0.590741 0.573409 0.420069
O O13 0.461285 0.852364 0.376267
O O14 0.426750 0.715783 0.280177
O O15 0.500000 0.500000 0.834509
#
# Coordination Sequence:
#
# PCOD8187186 Si02
#       7
#    16  16  16  16  16  16  16
#     4  10  21  39  60  86 118 160 192 248 299 349
#     4  10  22  38  60  86 119 157 198 246 298 354
#     4  10  21  37  58  90 120 153 200 246 295 355
#     4  10  21  39  60  86 118 160 192 248 299 349
#     4  10  22  38  60  86 119 157 198 246 298 354
#     4  10  21  37  58  90 120 153 200 246 295 355
#     4  10  22  41  58  88 123 150 204 246 292 364
#
# _framework density 19.673943000000001
#
# number of rings (size 3 to 8) (size 9 to 14) (size 15 to 20)
#    0.000    2.000    0.000    4.286    2.000    6.857 
#   15.429    0.000    0.000    0.000    0.000    0.000 
#    0.000    0.000    0.000    0.000    0.000    0.000 
#
# Total GULP energy -347001.396515 kJ/mol
# GULP energy per Si atom -12392.907018 kJ/mol
# Density = 1.962916 g / cm^3
# Si number density = 19.673943 Si / 1000 Ang^3
#
#
#
# Elastic Constant Matrix: (Units=GPa)
#
#
# Indices 1 2 3 4 5 6 
#
# 1 139.8340 62.7091 81.9778 0.0000 0.0000 0.0000
# 2 62.7091 95.8405 37.8560 0.0000 0.0000 0.0000
# 3 81.9778 37.8560 125.2096 0.0000 0.0000 0.0000
# 4 0.0000 0.0000 0.0000 25.8631 0.0000 0.0000
# 5 0.0000 0.0000 0.0000 0.0000 17.7861 0.0000
# 6 0.0000 0.0000 0.0000 0.0000 0.0000 21.9674
#
#
#
# Elastic Compliance Matrix: (Units=1/GPa)
#
#
# Indices 1 2 3 4 5 6 
#
# 1 0.014468 -0.006501 -0.007507 0.000000 0.000000 0.000000
# 2 -0.006501 0.014770 -0.000209 0.000000 0.000000 0.000000
# 3 -0.007507 -0.000209 0.012965 0.000000 0.000000 0.000000
# 4 0.000000 0.000000 0.000000 0.038665 0.000000 0.000000
# 5 0.000000 0.000000 0.000000 0.000000 0.056224 0.000000
# 6 0.000000 0.000000 0.000000 0.000000 0.000000 0.045522
#
#
# Mechanical properties :
#
#
# Convention : Reuss Voigt Hill
#
# Bulk Modulus (GPa) = 72.62969 80.66332 76.64650
# Shear Modulus (GPa) = 23.18708 25.01274 24.09991
#
# Velocity S-wave (km/s) = 3.43675 3.56949 3.50375
# Velocity P-wave (km/s) = 7.26259 7.62085 7.44388
#
# Compressibility (1/GPa) = 0.01376847
#
# Stress axis : x y z
#
# Youngs Moduli (GPa) = 69.11968 67.70285 77.13244
#
# Poissons Ratio (x) = 0.44015 0.57901
# Poissons Ratio (y) = 0.44936 0.01614
# Poissons Ratio (z) = 0.51886 0.01416
#
# Static dielectric constant tensor:
#      x y z
#    x 3.637010 0.000000 0.000000 
#    y 0.000000 3.603780 0.000000 
#    z 0.000000 0.000000 3.843990 
# 
# 
# High freq. dielectric constant tensor:
#      x y z
#    x 1.767850 0.000000 0.000000 
#    y 0.000000 1.772890 0.000000 
#    z 0.000000 0.000000 1.774760 
# 
# From -- ./inp_files/14641.got.cif
#   From: 2010.06.25/outbox.cif.g09.slc.cpg/sg43_8_cif.got.tgz:14641.got - 2010.06.26 16:48:59.
