data_PCOD8187062
_publ_section_title
;
Structure prediction by ZEFSAII (Michael W. Deem and Ramdas Pophale) SiO2 
 PCOD8187062
Probable space group: F D D 2
;
_chemical_formula_sum "Si O2"
_cell_formula_units_Z 96
_cell_length_a 21.260682
_cell_length_b 13.351708
_cell_length_c 16.428583
_cell_angle_alpha 90.000000
_cell_angle_beta 90.000000
_cell_angle_gamma 90.000000
_cell_volume 4663.523008
_symmetry_space_group_name_H-M "F D D 2"
_symmetry_group_IT_number 43
_symmetry_cell_setting 'orthorhombic'
loop_
_space_group_symop_operation_xyz
x,y,z
-x,-y,z
1/4-x,1/4+y,1/4+z
1/4+x,1/4-y,1/4+z
x,1/2+y,1/2+z
-x,1/2-y,1/2+z
1/4-x,3/4+y,3/4+z
1/4+x,3/4-y,3/4+z
1/2+x,y,1/2+z
1/2-x,-y,1/2+z
3/4-x,1/4+y,3/4+z
3/4+x,1/4-y,3/4+z
1/2+x,1/2+y,z
1/2-x,1/2-y,z
3/4-x,3/4+y,1/4+z
3/4+x,3/4-y,1/4+z
loop_
_atom_site_type_symbol
_atom_site_label
_atom_site_fract_x
_atom_site_fract_y
_atom_site_fract_z
Si Si1 0.750000 0.250000 0.313500
Si Si2 0.662476 0.230007 0.697176
Si Si3 0.500000 0.000000 0.590767
Si Si4 0.280890 0.039238 0.384092
Si Si5 0.190396 0.375380 0.939542
Si Si6 0.197065 0.067124 0.723454
Si Si7 0.739000 0.397560 0.616250
O O1 0.804336 0.220149 0.378677
O O2 0.758965 0.344738 0.255924
O O3 0.688738 0.219683 0.788198
O O4 0.586784 0.231901 0.698568
O O5 0.685580 0.335193 0.662224
O O6 0.691260 0.137959 0.643628
O O7 0.485643 0.905126 0.646906
O O8 0.217552 0.974910 0.396243
O O9 0.308990 0.017236 0.293919
O O10 0.117080 0.378135 0.958604
O O11 0.232079 0.372801 0.021351
O O12 0.226047 0.013935 0.642515
#
# Coordination Sequence:
#
# PCOD8187062 Si02
#       7
#     8  16   8  16  16  16  16
#     4  10  24  39  63  92 124 168 204 256 330 365
#     4  10  20  36  63  87 116 157 202 259 305 364
#     4  10  22  43  57  94 124 156 214 258 312 387
#     4  11  23  39  63  92 124 167 205 262 323 369
#     4  11  23  36  61  96 122 156 209 263 312 370
#     4  11  21  41  62  90 129 163 206 265 311 387
#     4  10  20  36  62  92 117 156 207 261 310 364
#
# _framework density 20.585296
#
# number of rings (size 3 to 8) (size 9 to 14) (size 15 to 20)
#    0.000    1.667    5.000    2.000    4.667    0.000 
#    3.000    2.500    0.000    0.000    0.000    0.000 
#    0.000    0.000    0.000    0.000    0.000    0.000 
#
# Total GULP energy -297367.701691 kJ/mol
# GULP energy per Si atom -12390.320904 kJ/mol
# Density = 2.053844 g / cm^3
# Si number density = 20.585296 Si / 1000 Ang^3
#
#
#
# Elastic Constant Matrix: (Units=GPa)
#
#
# Indices 1 2 3 4 5 6 
#
# 1 69.8082 33.4177 7.9156 0.0000 0.0000 0.0000
# 2 33.4177 113.1630 27.4199 0.0000 0.0000 0.0000
# 3 7.9156 27.4199 52.7302 0.0000 0.0000 0.0000
# 4 0.0000 0.0000 0.0000 30.1738 0.0000 0.0000
# 5 0.0000 0.0000 0.0000 0.0000 18.7651 0.0000
# 6 0.0000 0.0000 0.0000 0.0000 0.0000 21.5173
#
#
#
# Elastic Compliance Matrix: (Units=1/GPa)
#
#
# Indices 1 2 3 4 5 6 
#
# 1 0.016684 -0.004943 0.000066 0.000000 0.000000 0.000000
# 2 -0.004943 0.011575 -0.005277 0.000000 0.000000 0.000000
# 3 0.000066 -0.005277 0.021699 0.000000 0.000000 0.000000
# 4 0.000000 0.000000 0.000000 0.033141 0.000000 0.000000
# 5 0.000000 0.000000 0.000000 0.000000 0.053291 0.000000
# 6 0.000000 0.000000 0.000000 0.000000 0.000000 0.046474
#
#
# Mechanical properties :
#
#
# Convention : Reuss Voigt Hill
#
# Bulk Modulus (GPa) = 33.72758 41.46751 37.59754
# Shear Modulus (GPa) = 23.46814 25.22111 24.34462
#
# Velocity S-wave (km/s) = 3.38012 3.50408 3.44266
# Velocity P-wave (km/s) = 5.62614 6.04644 5.84007
#
# Compressibility (1/GPa) = 0.02964933
#
# Stress axis : x y z
#
# Youngs Moduli (GPa) = 59.93909 86.39243 46.08565
#
# Poissons Ratio (x) = 0.42701 -0.00303
# Poissons Ratio (y) = 0.29626 0.24320
# Poissons Ratio (z) = -0.00394 0.45590
#
# Static dielectric constant tensor:
#      x y z
#    x 3.457120 0.000000 0.000000 
#    y 0.000000 3.700110 0.000000 
#    z 0.000000 0.000000 3.706980 
# 
# 
# High freq. dielectric constant tensor:
#      x y z
#    x 1.784780 0.000000 0.000000 
#    y 0.000000 1.801670 0.000000 
#    z 0.000000 0.000000 1.789390 
# 
# From -- ./inp_files/10935.got.cif
#   From: 2010.06.25/outbox.cif.g09.slc.cpg/sg43_6_cif.got.tgz:10935.got - 2010.06.26 16:48:59.
