data_PCOD8187320
_publ_section_title
;
Structure prediction by ZEFSAII (Michael W. Deem and Ramdas Pophale) SiO2 
 PCOD8187320
Probable space group: F D D 2
;
_chemical_formula_sum "Si O2"
_cell_formula_units_Z 88
_cell_length_a 26.606975
_cell_length_b 5.872881
_cell_length_c 25.578760
_cell_angle_alpha 90.000000
_cell_angle_beta 90.000000
_cell_angle_gamma 90.000000
_cell_volume 3996.926754
_symmetry_space_group_name_H-M "F D D 2"
_symmetry_group_IT_number 43
_symmetry_cell_setting 'orthorhombic'
loop_
_space_group_symop_operation_xyz
x,y,z
-x,-y,z
1/4-x,1/4+y,1/4+z
1/4+x,1/4-y,1/4+z
x,1/2+y,1/2+z
-x,1/2-y,1/2+z
1/4-x,3/4+y,3/4+z
1/4+x,3/4-y,3/4+z
1/2+x,y,1/2+z
1/2-x,-y,1/2+z
3/4-x,1/4+y,3/4+z
3/4+x,1/4-y,3/4+z
1/2+x,1/2+y,z
1/2-x,1/2-y,z
3/4-x,3/4+y,1/4+z
3/4+x,3/4-y,1/4+z
loop_
_atom_site_type_symbol
_atom_site_label
_atom_site_fract_x
_atom_site_fract_y
_atom_site_fract_z
Si Si1 0.713299 0.927215 0.335880
Si Si2 0.554299 0.402734 0.843373
Si Si3 0.114696 0.019402 0.616051
Si Si4 0.871077 0.862784 0.281516
Si Si5 0.500000 0.500000 0.506484
Si Si6 0.911678 0.376044 0.937120
O O1 0.750000 0.750000 0.367586
O O2 0.669423 0.811634 0.303293
O O3 0.687088 0.120977 0.372319
O O4 0.752054 0.029265 0.293448
O O5 0.500000 0.500000 0.828803
O O6 0.587254 0.609641 0.864520
O O7 0.575914 0.265617 0.792901
O O8 0.553726 0.225519 0.891272
O O9 0.114318 0.147956 0.560891
O O10 0.119631 0.201890 0.663501
O O11 0.866067 0.923316 0.219830
O O12 0.449377 0.515859 0.473322
#
# Coordination Sequence:
#
# PCOD8187320 Si02
#       6
#    16  16  16  16   8  16
#     4  11  20  36  60  95 130 174 213 267 340 395
#     4  10  23  39  62  98 132 168 227 278 331 394
#     4  10  22  39  58  95 131 170 211 281 330 390
#     4  10  22  38  59  97 128 177 209 271 336 392
#     4  12  22  34  68  98 134 158 214 278 340 394
#     4  11  22  35  61 100 129 171 224 273 333 399
#
# _framework density 22.016915000000001
#
# number of rings (size 3 to 8) (size 9 to 14) (size 15 to 20)
#    0.000    1.455    3.636    1.091    5.091    2.182 
#    0.000    0.000    0.000    0.000  137.091    0.000 
#    0.000    0.000    0.000    0.000    0.000    0.000 
#
# Total GULP energy -272648.466305 kJ/mol
# GULP energy per Si atom -12393.112105 kJ/mol
# Density = 2.196680 g / cm^3
# Si number density = 22.016915 Si / 1000 Ang^3
#
#
#
# Elastic Constant Matrix: (Units=GPa)
#
#
# Indices 1 2 3 4 5 6 
#
# 1 128.6922 51.7915 44.4918 0.0063 -0.0028 -0.0171
# 2 51.7915 101.7195 24.3626 0.0096 -0.0056 -0.0193
# 3 44.4918 24.3626 67.7822 -0.0005 0.0004 0.0067
# 4 0.0063 0.0096 -0.0005 11.1931 -0.0032 -0.0119
# 5 -0.0028 -0.0056 0.0004 -0.0032 26.2768 0.0005
# 6 -0.0171 -0.0193 0.0067 -0.0119 0.0005 47.5829
#
#
#
# Elastic Compliance Matrix: (Units=1/GPa)
#
#
# Indices 1 2 3 4 5 6 
#
# 1 0.011668 -0.004493 -0.006044 -0.000003 0.000000 0.000003
# 2 -0.004493 0.012487 -0.001539 -0.000008 0.000002 0.000004
# 3 -0.006044 -0.001539 0.019273 0.000006 -0.000001 -0.000006
# 4 -0.000003 -0.000008 0.000006 0.089341 0.000011 0.000022
# 5 0.000000 0.000002 -0.000001 0.000011 0.038056 0.000000
# 6 0.000003 0.000004 -0.000006 0.000022 0.000000 0.021016
#
#
# Mechanical properties :
#
#
# Convention : Reuss Voigt Hill
#
# Bulk Modulus (GPa) = 51.87606 59.94287 55.90947
# Shear Modulus (GPa) = 22.47995 28.84709 25.66352
#
# Velocity S-wave (km/s) = 3.19882 3.62363 3.41783
# Velocity P-wave (km/s) = 6.10380 6.69272 6.40503
#
# Compressibility (1/GPa) = 0.01927671
#
# Stress axis : x y z
#
# Youngs Moduli (GPa) = 85.70151 80.08066 51.88487
#
# Poissons Ratio (x) = 0.35984 0.31359
# Poissons Ratio (y) = 0.38510 0.07984
# Poissons Ratio (z) = 0.51798 0.12323
#
# Static dielectric constant tensor:
#      x y z
#    x 3.982200 0.000010 0.000000 
#    y 0.000010 4.478650 -0.000010 
#    z 0.000000 -0.000010 3.776380 
# 
# 
# High freq. dielectric constant tensor:
#      x y z
#    x 1.859550 0.000000 0.000000 
#    y 0.000000 1.891240 0.000000 
#    z 0.000000 0.000000 1.829880 
# 
# From -- ./inp_files/19549.got.cif
#   From: 2010.06.25/outbox.cif.g09.slc.cpg/sg43_10_cif.got.tgz:19549.got - 2010.06.26 16:48:59.
