data_PCOD8187774
_publ_section_title
;
Structure prediction by ZEFSAII (Michael W. Deem and Ramdas Pophale) SiO2 
 PCOD8187774
Probable space group: F D D 2
;
_chemical_formula_sum "Si O2"
_cell_formula_units_Z 64
_cell_length_a 4.852185
_cell_length_b 25.433279
_cell_length_c 20.257868
_cell_angle_alpha 90.000000
_cell_angle_beta 90.000000
_cell_angle_gamma 90.000000
_cell_volume 2499.962207
_symmetry_space_group_name_H-M "F D D 2"
_symmetry_group_IT_number 43
_symmetry_cell_setting 'orthorhombic'
loop_
_space_group_symop_operation_xyz
x,y,z
-x,-y,z
1/4-x,1/4+y,1/4+z
1/4+x,1/4-y,1/4+z
x,1/2+y,1/2+z
-x,1/2-y,1/2+z
1/4-x,3/4+y,3/4+z
1/4+x,3/4-y,3/4+z
1/2+x,y,1/2+z
1/2-x,-y,1/2+z
3/4-x,1/4+y,3/4+z
3/4+x,1/4-y,3/4+z
1/2+x,1/2+y,z
1/2-x,1/2-y,z
3/4-x,3/4+y,1/4+z
3/4+x,3/4-y,1/4+z
loop_
_atom_site_type_symbol
_atom_site_label
_atom_site_fract_x
_atom_site_fract_y
_atom_site_fract_z
Si Si1 0.446684 0.941794 0.802590
Si Si2 0.750000 0.750000 0.293132
Si Si3 0.612747 0.804737 0.699816
Si Si4 0.064669 0.593824 0.233484
Si Si5 0.250000 0.750000 0.385336
O O1 0.289692 0.943360 0.872442
O O2 0.749190 0.916006 0.799265
O O3 0.256703 0.908485 0.752259
O O4 0.500000 0.000000 0.775041
O O5 0.657604 0.698866 0.247433
O O6 0.500379 0.770145 0.339270
O O7 0.750000 0.750000 0.718312
O O8 0.838724 0.849906 0.708307
O O9 0.113260 0.549052 0.178084
#
# Coordination Sequence:
#
# PCOD8187774 Si02
#       5
#    16   8  16  16   8
#     4  11  25  49  80 112 153 201 270 326 385 471
#     4  12  28  51  72 117 166 206 260 322 402 480
#     4  11  30  49  77 112 160 210 258 322 395 474
#     4  12  27  49  79 116 151 205 262 328 398 459
#     4  12  26  49  82 111 164 202 262 336 394 478
#
# _framework density 25.600387000000001
#
# number of rings (size 3 to 8) (size 9 to 14) (size 15 to 20)
#    0.000    0.500    3.750    1.500   14.000    0.000 
#    0.000    0.000    0.000    0.000    0.000    0.000 
#    0.000    0.000    0.000    0.000    0.000    0.000 
#
# Total GULP energy -198244.903921 kJ/mol
# GULP energy per Si atom -12390.306495 kJ/mol
# Density = 2.554212 g / cm^3
# Si number density = 25.600387 Si / 1000 Ang^3
#
#
#
# Elastic Constant Matrix: (Units=GPa)
#
#
# Indices 1 2 3 4 5 6 
#
# 1 144.0481 45.3364 53.1572 0.0000 0.0000 0.0000
# 2 45.3364 174.6362 38.5906 0.0000 0.0000 0.0000
# 3 53.1572 38.5906 127.4430 0.0000 0.0000 0.0000
# 4 0.0000 0.0000 0.0000 8.3051 0.0000 0.0000
# 5 0.0000 0.0000 0.0000 0.0000 46.5817 0.0000
# 6 0.0000 0.0000 0.0000 0.0000 0.0000 34.9622
#
#
#
# Elastic Compliance Matrix: (Units=1/GPa)
#
#
# Indices 1 2 3 4 5 6 
#
# 1 0.008574 -0.001539 -0.003110 0.000000 0.000000 0.000000
# 2 -0.001539 0.006413 -0.001300 0.000000 0.000000 0.000000
# 3 -0.003110 -0.001300 0.009538 0.000000 0.000000 0.000000
# 4 0.000000 0.000000 0.000000 0.120408 0.000000 0.000000
# 5 0.000000 0.000000 0.000000 0.000000 0.021468 0.000000
# 6 0.000000 0.000000 0.000000 0.000000 0.000000 0.028602
#
#
# Mechanical properties :
#
#
# Convention : Reuss Voigt Hill
#
# Bulk Modulus (GPa) = 79.19834 80.03284 79.61559
# Shear Modulus (GPa) = 23.68429 38.57266 31.12848
#
# Velocity S-wave (km/s) = 3.04493 3.88586 3.49081
# Velocity P-wave (km/s) = 6.58526 7.17380 6.88582
#
# Compressibility (1/GPa) = 0.01262653
#
# Stress axis : x y z
#
# Youngs Moduli (GPa) = 116.62908 155.93556 104.84682
#
# Poissons Ratio (x) = 0.23992 0.32612
# Poissons Ratio (y) = 0.17944 0.13631
# Poissons Ratio (z) = 0.36277 0.20274
#
# Static dielectric constant tensor:
#      x y z
#    x 5.699970 0.000000 0.000000 
#    y 0.000000 4.753670 0.000000 
#    z 0.000000 0.000000 4.754110 
# 
# 
# High freq. dielectric constant tensor:
#      x y z
#    x 2.032650 0.000000 0.000000 
#    y 0.000000 2.018300 0.000000 
#    z 0.000000 0.000000 2.024660 
# 
# From -- ./inp_files/15587.got.cif
#   From: 2010.06.25/outbox.cif.g09.slc.cpg/sg43_8_cif.got.tgz:15587.got - 2010.06.26 16:48:59.
