data_PCOD8187022
_publ_section_title
;
Structure prediction by ZEFSAII (Michael W. Deem and Ramdas Pophale) SiO2 
 PCOD8187022
Probable space group: F D D 2
;
_chemical_formula_sum "Si O2"
_cell_formula_units_Z 96
_cell_length_a 26.994901
_cell_length_b 17.721074
_cell_length_c 9.772379
_cell_angle_alpha 90.000000
_cell_angle_beta 90.000000
_cell_angle_gamma 90.000000
_cell_volume 4674.897358
_symmetry_space_group_name_H-M "F D D 2"
_symmetry_group_IT_number 43
_symmetry_cell_setting 'orthorhombic'
loop_
_space_group_symop_operation_xyz
x,y,z
-x,-y,z
1/4-x,1/4+y,1/4+z
1/4+x,1/4-y,1/4+z
x,1/2+y,1/2+z
-x,1/2-y,1/2+z
1/4-x,3/4+y,3/4+z
1/4+x,3/4-y,3/4+z
1/2+x,y,1/2+z
1/2-x,-y,1/2+z
3/4-x,1/4+y,3/4+z
3/4+x,1/4-y,3/4+z
1/2+x,1/2+y,z
1/2-x,1/2-y,z
3/4-x,3/4+y,1/4+z
3/4+x,3/4-y,1/4+z
loop_
_atom_site_type_symbol
_atom_site_label
_atom_site_fract_x
_atom_site_fract_y
_atom_site_fract_z
Si Si1 0.770705 0.832441 0.987880
Si Si2 0.915129 0.891121 0.363808
Si Si3 0.062314 0.689353 0.119010
Si Si4 0.912822 0.053652 0.489566
Si Si5 0.690899 0.101108 0.766252
Si Si6 0.234130 0.666352 0.018553
O O1 0.750000 0.750000 0.031720
O O2 0.731029 0.880758 0.902168
O O3 0.818509 0.819367 0.892845
O O4 0.786600 0.883154 0.117411
O O5 0.907807 0.827805 0.478983
O O6 0.868889 0.894100 0.259864
O O7 0.965102 0.867994 0.281443
O O8 0.922487 0.967924 0.447492
O O9 0.103526 0.682756 0.238635
O O10 0.041406 0.773492 0.090833
O O11 0.942962 0.107600 0.382534
O O12 0.711569 0.164753 0.867351
O O13 0.250000 0.750000 0.052115
#
# Coordination Sequence:
#
# PCOD8187022 Si02
#       6
#    16  16  16  16  16  16
#     4  12  24  45  68 100 131 172 223 277 326 389
#     4  10  20  41  64  87 124 173 213 254 322 401
#     4  11  23  41  66  94 131 172 216 264 335 395
#     4  10  20  40  69  89 121 177 219 252 319 408
#     4  11  26  39  62  99 132 156 217 281 322 373
#     4  10  19  38  65  87 120 174 208 248 321 398
#
# _framework density 20.535208999999998
#
# number of rings (size 3 to 8) (size 9 to 14) (size 15 to 20)
#    0.000    1.333    5.000    1.000    2.333    1.333 
#    3.000    0.000    0.000    0.000    0.000    0.000 
#    0.000    0.000    0.000    0.000    0.000    0.000 
#
# Total GULP energy -297433.602277 kJ/mol
# GULP energy per Si atom -12393.066762 kJ/mol
# Density = 2.048847 g / cm^3
# Si number density = 20.535209 Si / 1000 Ang^3
#
#
#
# Elastic Constant Matrix: (Units=GPa)
#
#
# Indices 1 2 3 4 5 6 
#
# 1 96.4106 38.5168 42.4761 0.0000 0.0000 0.0000
# 2 38.5168 46.6205 16.6559 0.0000 0.0000 0.0000
# 3 42.4761 16.6559 98.0732 0.0000 0.0000 0.0000
# 4 0.0000 0.0000 0.0000 27.1523 0.0000 0.0000
# 5 0.0000 0.0000 0.0000 0.0000 37.6677 0.0000
# 6 0.0000 0.0000 0.0000 0.0000 0.0000 23.4167
#
#
#
# Elastic Compliance Matrix: (Units=1/GPa)
#
#
# Indices 1 2 3 4 5 6 
#
# 1 0.017973 -0.012848 -0.005602 0.000000 0.000000 0.000000
# 2 -0.012848 0.032019 0.000127 0.000000 0.000000 0.000000
# 3 -0.005602 0.000127 0.012601 0.000000 0.000000 0.000000
# 4 0.000000 0.000000 0.000000 0.036829 0.000000 0.000000
# 5 0.000000 0.000000 0.000000 0.000000 0.026548 0.000000
# 6 0.000000 0.000000 0.000000 0.000000 0.000000 0.042705
#
#
# Mechanical properties :
#
#
# Convention : Reuss Voigt Hill
#
# Bulk Modulus (GPa) = 38.54047 48.48910 43.51479
# Shear Modulus (GPa) = 23.36762 27.21105 25.28934
#
# Velocity S-wave (km/s) = 3.37698 3.64413 3.51310
# Velocity P-wave (km/s) = 5.83216 6.43197 6.13939
#
# Compressibility (1/GPa) = 0.02594675
#
# Stress axis : x y z
#
# Youngs Moduli (GPa) = 55.63808 31.23151 79.35611
#
# Poissons Ratio (x) = 0.40125 0.44459
# Poissons Ratio (y) = 0.71481 -0.01004
# Poissons Ratio (z) = 0.31171 -0.00395
#
# Static dielectric constant tensor:
#      x y z
#    x 4.258420 0.000000 0.000000 
#    y 0.000000 3.645880 0.000000 
#    z 0.000000 0.000000 3.460880 
# 
# 
# High freq. dielectric constant tensor:
#      x y z
#    x 1.814690 0.000000 0.000000 
#    y 0.000000 1.789570 0.000000 
#    z 0.000000 0.000000 1.785420 
# 
# From -- ./inp_files/3285.got.cif
#   From: 2010.06.25/outbox.cif.g09.slc.cpg/sg43_2_cif.got.tgz:3285.got - 2010.06.26 16:48:59.
