data_PCOD8187853
_publ_section_title
;
Structure prediction by ZEFSAII (Michael W. Deem and Ramdas Pophale) SiO2 
 PCOD8187853
Probable space group: F D D 2
;
_chemical_formula_sum "Si O2"
_cell_formula_units_Z 64
_cell_length_a 4.802054
_cell_length_b 25.993914
_cell_length_c 21.372476
_cell_angle_alpha 90.000000
_cell_angle_beta 90.000000
_cell_angle_gamma 90.000000
_cell_volume 2667.801763
_symmetry_space_group_name_H-M "F D D 2"
_symmetry_group_IT_number 43
_symmetry_cell_setting 'orthorhombic'
loop_
_space_group_symop_operation_xyz
x,y,z
-x,-y,z
1/4-x,1/4+y,1/4+z
1/4+x,1/4-y,1/4+z
x,1/2+y,1/2+z
-x,1/2-y,1/2+z
1/4-x,3/4+y,3/4+z
1/4+x,3/4-y,3/4+z
1/2+x,y,1/2+z
1/2-x,-y,1/2+z
3/4-x,1/4+y,3/4+z
3/4+x,1/4-y,3/4+z
1/2+x,1/2+y,z
1/2-x,1/2-y,z
3/4-x,3/4+y,1/4+z
3/4+x,3/4-y,1/4+z
loop_
_atom_site_type_symbol
_atom_site_label
_atom_site_fract_x
_atom_site_fract_y
_atom_site_fract_z
Si Si1 0.500130 0.714827 0.058920
Si Si2 0.750000 0.750000 0.346515
Si Si3 0.778209 0.911087 0.185633
Si Si4 0.980195 0.092879 0.422848
Si Si5 0.000000 0.500000 0.011121
O O1 0.750000 0.750000 0.086543
O O2 0.387370 0.676559 0.111209
O O3 0.250000 0.750000 0.034488
O O4 0.610936 0.684423 0.998191
O O5 0.619732 0.795657 0.386809
O O6 0.502379 0.728589 0.303137
O O7 0.547553 0.874126 0.153848
O O8 0.050568 0.879881 0.207368
O O9 0.890600 0.046249 0.467653
#
# Coordination Sequence:
#
# PCOD8187853 Si02
#       5
#    16   8  16  16   8
#     4  12  26  50  77 105 149 199 252 310 368 442
#     4  12  28  49  76 107 158 196 244 310 382 444
#     4  12  28  48  77 112 146 201 249 308 375 447
#     4  12  28  48  76 109 152 197 252 307 374 445
#     4  12  28  49  72 111 154 200 242 312 372 450
#
# _framework density 23.989789999999999
#
# number of rings (size 3 to 8) (size 9 to 14) (size 15 to 20)
#    0.000    0.000    2.500    6.000   14.000    0.000 
#    0.000    0.000    0.000    0.000    0.000    0.000 
#    0.000    0.000    0.000    0.000    0.000    0.000 
#
# Total GULP energy -198509.922249 kJ/mol
# GULP energy per Si atom -12406.870141 kJ/mol
# Density = 2.393519 g / cm^3
# Si number density = 23.989790 Si / 1000 Ang^3
#
#
#
# Elastic Constant Matrix: (Units=GPa)
#
#
# Indices 1 2 3 4 5 6 
#
# 1 159.4948 67.4509 45.3288 0.0000 0.0000 0.0000
# 2 67.4509 147.0129 58.9198 0.0000 0.0000 0.0000
# 3 45.3288 58.9198 132.4412 0.0000 0.0000 0.0000
# 4 0.0000 0.0000 0.0000 10.8726 0.0000 0.0000
# 5 0.0000 0.0000 0.0000 0.0000 33.3798 0.0000
# 6 0.0000 0.0000 0.0000 0.0000 0.0000 65.9661
#
#
#
# Elastic Compliance Matrix: (Units=1/GPa)
#
#
# Indices 1 2 3 4 5 6 
#
# 1 0.007970 -0.003120 -0.001340 0.000000 0.000000 0.000000
# 2 -0.003120 0.009499 -0.003158 0.000000 0.000000 0.000000
# 3 -0.001340 -0.003158 0.009414 0.000000 0.000000 0.000000
# 4 0.000000 0.000000 0.000000 0.091974 0.000000 0.000000
# 5 0.000000 0.000000 0.000000 0.000000 0.029958 0.000000
# 6 0.000000 0.000000 0.000000 0.000000 0.000000 0.015159
#
#
# Mechanical properties :
#
#
# Convention : Reuss Voigt Hill
#
# Bulk Modulus (GPa) = 85.85414 86.92755 86.39085
# Shear Modulus (GPa) = 27.30852 39.86034 33.58443
#
# Velocity S-wave (km/s) = 3.37759 4.08064 3.74565
# Velocity P-wave (km/s) = 7.14677 7.64958 7.40244
#
# Compressibility (1/GPa) = 0.01164766
#
# Stress axis : x y z
#
# Youngs Moduli (GPa) = 125.47181 105.27182 106.22339
#
# Poissons Ratio (x) = 0.32841 0.14233
# Poissons Ratio (y) = 0.39143 0.33548
# Poissons Ratio (z) = 0.16812 0.33247
#
# Static dielectric constant tensor:
#      x y z
#    x 4.436100 0.000000 0.000000 
#    y 0.000000 4.531160 0.000000 
#    z 0.000000 0.000000 4.129700 
# 
# 
# High freq. dielectric constant tensor:
#      x y z
#    x 1.967280 0.000000 0.000000 
#    y 0.000000 1.964110 0.000000 
#    z 0.000000 0.000000 1.949550 
# 
# From -- ./inp_files/15588.got.cif
#   From: 2010.06.25/outbox.cif.g09.slc.cpg/sg43_8_cif.got.tgz:15588.got - 2010.06.26 16:48:59.
