data_PCOD8187554
_publ_section_title
;
Structure prediction by ZEFSAII (Michael W. Deem and Ramdas Pophale) SiO2 
 PCOD8187554
Probable space group: F D D 2
;
_chemical_formula_sum "Si O2"
_cell_formula_units_Z 88
_cell_length_a 10.116883
_cell_length_b 22.443621
_cell_length_c 16.597227
_cell_angle_alpha 90.000000
_cell_angle_beta 90.000000
_cell_angle_gamma 90.000000
_cell_volume 3768.557861
_symmetry_space_group_name_H-M "F D D 2"
_symmetry_group_IT_number 43
_symmetry_cell_setting 'orthorhombic'
loop_
_space_group_symop_operation_xyz
x,y,z
-x,-y,z
1/4-x,1/4+y,1/4+z
1/4+x,1/4-y,1/4+z
x,1/2+y,1/2+z
-x,1/2-y,1/2+z
1/4-x,3/4+y,3/4+z
1/4+x,3/4-y,3/4+z
1/2+x,y,1/2+z
1/2-x,-y,1/2+z
3/4-x,1/4+y,3/4+z
3/4+x,1/4-y,3/4+z
1/2+x,1/2+y,z
1/2-x,1/2-y,z
3/4-x,3/4+y,1/4+z
3/4+x,3/4-y,1/4+z
loop_
_atom_site_type_symbol
_atom_site_label
_atom_site_fract_x
_atom_site_fract_y
_atom_site_fract_z
Si Si1 0.912226 0.091230 0.346890
Si Si2 0.500000 0.500000 0.079185
Si Si3 0.580686 0.945121 0.425289
Si Si4 0.753821 0.933945 0.150047
Si Si5 0.562057 0.787818 0.569675
Si Si6 0.532532 0.934625 0.020927
O O1 0.842681 0.148587 0.306656
O O2 0.906644 0.100314 0.444163
O O3 0.063054 0.082750 0.317123
O O4 0.838910 0.032100 0.318378
O O5 0.390105 0.469099 0.133883
O O6 0.568460 0.449458 0.022651
O O7 0.517612 0.886236 0.389039
O O8 0.734227 0.947815 0.401762
O O9 0.500000 0.000000 0.385136
O O10 0.718941 0.948602 0.242569
O O11 0.637414 0.951017 0.090075
O O12 0.500000 0.000000 0.984717
#
# Coordination Sequence:
#
# PCOD8187554 Si02
#       6
#    16   8  16  16  16  16
#     4  11  27  50  72 108 153 197 253 309 379 456
#     4  10  24  44  72 102 148 190 246 298 378 446
#     4  10  24  43  74 102 147 192 240 306 368 443
#     4  12  26  44  73 110 145 191 254 306 373 461
#     4  11  24  46  74 105 148 197 240 309 381 442
#     4  12  29  49  76 109 154 200 251 319 384 454
#
# _framework density 23.351109000000001
#
# number of rings (size 3 to 8) (size 9 to 14) (size 15 to 20)
#    0.545    0.364    1.818    4.364   10.182    2.182 
#    0.000    0.000    0.000    0.000    0.000    0.000 
#    0.000    0.000    0.000    0.000    0.000    0.000 
#
# Total GULP energy -272760.702549 kJ/mol
# GULP energy per Si atom -12398.213752 kJ/mol
# Density = 2.329796 g / cm^3
# Si number density = 23.351109 Si / 1000 Ang^3
#
#
#
# Elastic Constant Matrix: (Units=GPa)
#
#
# Indices 1 2 3 4 5 6 
#
# 1 56.7328 33.8252 28.7722 0.0000 0.0000 0.0000
# 2 33.8252 107.5375 12.0810 0.0000 0.0000 0.0000
# 3 28.7722 12.0810 108.4608 0.0000 0.0000 0.0000
# 4 0.0000 0.0000 0.0000 34.7476 0.0000 0.0000
# 5 0.0000 0.0000 0.0000 0.0000 41.8396 0.0000
# 6 0.0000 0.0000 0.0000 0.0000 0.0000 33.4492
#
#
#
# Elastic Compliance Matrix: (Units=1/GPa)
#
#
# Indices 1 2 3 4 5 6 
#
# 1 0.024832 -0.007160 -0.005790 0.000000 0.000000 0.000000
# 2 -0.007160 0.011482 0.000621 0.000000 0.000000 0.000000
# 3 -0.005790 0.000621 0.010687 0.000000 0.000000 0.000000
# 4 0.000000 0.000000 0.000000 0.028779 0.000000 0.000000
# 5 0.000000 0.000000 0.000000 0.000000 0.023901 0.000000
# 6 0.000000 0.000000 0.000000 0.000000 0.000000 0.029896
#
#
# Mechanical properties :
#
#
# Convention : Reuss Voigt Hill
#
# Bulk Modulus (GPa) = 44.76036 46.89866 45.82951
# Shear Modulus (GPa) = 30.92491 35.21079 33.06785
#
# Velocity S-wave (km/s) = 3.64310 3.88736 3.76721
# Velocity P-wave (km/s) = 6.07505 6.34638 6.21220
#
# Compressibility (1/GPa) = 0.02234120
#
# Stress axis : x y z
#
# Youngs Moduli (GPa) = 40.27088 87.09610 93.57436
#
# Poissons Ratio (x) = 0.62363 0.54177
# Poissons Ratio (y) = 0.28835 -0.05807
# Poissons Ratio (z) = 0.23316 -0.05405
#
# Static dielectric constant tensor:
#      x y z
#    x 4.065000 0.000000 0.000000 
#    y 0.000000 4.095310 0.000000 
#    z 0.000000 0.000000 4.139400 
# 
# 
# High freq. dielectric constant tensor:
#      x y z
#    x 1.913680 0.000000 0.000000 
#    y 0.000000 1.929810 0.000000 
#    z 0.000000 0.000000 1.933450 
# 
# From -- ./inp_files/13273.got.cif
#   From: 2010.06.25/outbox.cif.g09.slc.cpg/sg43_7_cif.got.tgz:13273.got - 2010.06.26 16:48:59.
