data_PCOD8187964
_publ_section_title
;
Structure prediction by ZEFSAII (Michael W. Deem and Ramdas Pophale) SiO2 
 PCOD8187964
Probable space group: I M M 2
;
_chemical_formula_sum "Si O2"
_cell_formula_units_Z 44
_cell_length_a 12.141305
_cell_length_b 19.724799
_cell_length_c 10.184723
_cell_angle_alpha 90.000000
_cell_angle_beta 90.000000
_cell_angle_gamma 90.000000
_cell_volume 2439.086358
_symmetry_space_group_name_H-M "I M M 2"
_symmetry_group_IT_number 44
_symmetry_cell_setting 'orthorhombic'
loop_
_space_group_symop_operation_xyz
x,y,z
-x,-y,z
-x,y,z
x,-y,z
1/2+x,1/2+y,1/2+z
1/2-x,1/2-y,1/2+z
1/2-x,1/2+y,1/2+z
1/2+x,1/2-y,1/2+z
loop_
_atom_site_type_symbol
_atom_site_label
_atom_site_fract_x
_atom_site_fract_y
_atom_site_fract_z
Si Si1 0.373581 0.721800 0.849930
Si Si2 0.631077 0.000000 0.948140
Si Si3 0.124981 0.000000 0.443545
Si Si4 0.872321 0.862241 0.591712
Si Si5 0.125010 0.144894 0.098291
Si Si6 0.696132 0.500000 0.664558
Si Si7 0.728994 0.139086 0.850989
O O1 0.500000 0.699940 0.849788
O O2 0.320960 0.684116 0.723094
O O3 0.362798 0.802597 0.839049
O O4 0.324993 0.692462 0.986688
O O5 0.670792 0.066438 0.868946
O O6 0.500000 0.000000 0.962876
O O7 0.683972 0.000000 0.094021
O O8 0.146682 0.935934 0.533098
O O9 0.210287 0.000000 0.321916
O O10 0.000000 0.000000 0.387474
O O11 0.802959 0.859010 0.722948
O O12 0.000000 0.848900 0.626788
O O13 0.126082 0.064653 0.121205
O O14 0.000000 0.168805 0.073145
O O15 0.195813 0.162235 0.971497
#
# Coordination Sequence:
#
# PCOD8187964 Si02
#       7
#     8   4   4   8   8   4   8
#     4  10  20  34  53  75 104 144 180 213 258 311
#     4  10  23  39  55  74 102 144 184 219 255 302
#     4  10  17  31  55  82 110 134 162 211 277 330
#     4  10  20  33  54  84 112 136 168 217 269 316
#     4  10  19  32  53  81 107 134 170 215 265 314
#     4  10  18  32  58  80 100 132 174 212 262 320
#     4  11  21  35  53  78 105 143 177 219 256 310
#
# _framework density 18.039541
#
# number of rings (size 3 to 8) (size 9 to 14) (size 15 to 20)
#    0.000    1.818    1.818    3.545    0.000    0.000 
#    0.000    2.727    0.000    4.364    0.000    0.000 
#    0.000    0.000    0.000    0.000    0.000    0.000 
#
# Total GULP energy -272766.644774 kJ/mol
# GULP energy per Si atom -12398.483853 kJ/mol
# Density = 1.799848 g / cm^3
# Si number density = 18.039541 Si / 1000 Ang^3
#
#
#
# Elastic Constant Matrix: (Units=GPa)
#
#
# Indices 1 2 3 4 5 6 
#
# 1 68.1461 26.3162 49.9701 0.0000 -0.0002 0.0000
# 2 26.3162 125.1370 47.4041 0.0000 -0.0003 -0.0001
# 3 49.9701 47.4041 148.7064 0.0000 -0.0011 -0.0002
# 4 0.0000 0.0000 0.0000 19.6362 -0.0006 -0.0001
# 5 -0.0002 -0.0003 -0.0011 -0.0006 -41.8409 -0.0006
# 6 0.0000 -0.0001 -0.0002 -0.0001 -0.0006 20.0304
#
#
#
# Elastic Compliance Matrix: (Units=1/GPa)
#
#
# Indices 1 2 3 4 5 6 
#
# 1 0.019852 -0.001874 -0.006073 0.000000 0.000000 0.000000
# 2 -0.001874 0.009266 -0.002324 0.000000 0.000000 0.000000
# 3 -0.006073 -0.002324 0.009506 0.000000 0.000000 0.000000
# 4 0.000000 0.000000 0.000000 0.050926 -0.000001 0.000000
# 5 0.000000 0.000000 0.000000 -0.000001 -0.023900 -0.000001
# 6 0.000000 0.000000 0.000000 0.000000 -0.000001 0.049924
#
#
# Mechanical properties :
#
#
# Convention : Reuss Voigt Hill
#
# Bulk Modulus (GPa) = 55.30715 65.48559 60.39637
# Shear Modulus (GPa) = 35.17567 14.11841 24.64704
#
# Velocity S-wave (km/s) = 4.42058 2.80060 3.70033
# Velocity P-wave (km/s) = 7.53530 6.84381 7.19787
#
# Compressibility (1/GPa) = 0.01808084
#
# Stress axis : x y z
#
# Youngs Moduli (GPa) = 50.37397 107.92479 105.19327
#
# Poissons Ratio (x) = 0.20226 0.63887
# Poissons Ratio (y) = 0.09440 0.24446
# Poissons Ratio (z) = 0.30594 0.25081
#
# Static dielectric constant tensor:
#      x y z
#    x 3.295800 0.000000 0.000000 
#    y 0.000000 3.448800 0.000000 
#    z 0.000000 0.000000 3.490490 
# 
# 
# High freq. dielectric constant tensor:
#      x y z
#    x 1.667670 0.000000 0.000000 
#    y 0.000000 1.711850 0.000000 
#    z 0.000000 0.000000 1.710870 
# 
# From -- ./inp_files/7051.got.cif
#   From: 2010.03.12/outbox.cif.g09.slc.cpg/sg44_4_cif.got.tgz:7051.got - 2010.04.14 02:36:11.
