data_PCOD8187828
_publ_section_title
;
Structure prediction by ZEFSAII (Michael W. Deem and Ramdas Pophale) SiO2 
 PCOD8187828
Probable space group: F D D 2
;
_chemical_formula_sum "Si O2"
_cell_formula_units_Z 88
_cell_length_a 29.992069
_cell_length_b 10.556765
_cell_length_c 11.055118
_cell_angle_alpha 90.000000
_cell_angle_beta 90.000000
_cell_angle_gamma 90.000000
_cell_volume 3500.262886
_symmetry_space_group_name_H-M "F D D 2"
_symmetry_group_IT_number 43
_symmetry_cell_setting 'orthorhombic'
loop_
_space_group_symop_operation_xyz
x,y,z
-x,-y,z
1/4-x,1/4+y,1/4+z
1/4+x,1/4-y,1/4+z
x,1/2+y,1/2+z
-x,1/2-y,1/2+z
1/4-x,3/4+y,3/4+z
1/4+x,3/4-y,3/4+z
1/2+x,y,1/2+z
1/2-x,-y,1/2+z
3/4-x,1/4+y,3/4+z
3/4+x,1/4-y,3/4+z
1/2+x,1/2+y,z
1/2-x,1/2-y,z
3/4-x,3/4+y,1/4+z
3/4+x,3/4-y,1/4+z
loop_
_atom_site_type_symbol
_atom_site_label
_atom_site_fract_x
_atom_site_fract_y
_atom_site_fract_z
Si Si1 0.981596 0.217600 0.974880
Si Si2 0.082093 0.058222 0.404746
Si Si3 0.750000 0.250000 0.544992
Si Si4 0.423687 0.282541 0.061928
Si Si5 0.335508 0.289724 0.918107
Si Si6 0.924607 0.563924 0.654550
O O1 0.956351 0.340494 0.927587
O O2 0.978942 0.111254 0.873055
O O3 0.961915 0.159080 0.100533
O O4 0.032457 0.260243 0.989593
O O5 0.127355 0.128379 0.366084
O O6 0.091959 0.981477 0.525756
O O7 0.069130 0.958641 0.298331
O O8 0.707486 0.291365 0.463346
O O9 0.421982 0.192517 0.181176
O O10 0.428614 0.428852 0.090511
O O11 0.379438 0.248736 0.987314
#
# Coordination Sequence:
#
# PCOD8187828 Si02
#       6
#    16  16   8  16  16  16
#     4  12  26  49  80 112 154 206 262 320 388 473
#     4  12  27  49  80 115 159 202 263 331 385 474
#     4  12  24  52  74 108 148 198 260 310 388 466
#     4  12  25  49  75 112 150 202 255 317 393 468
#     4  12  28  49  77 113 155 200 253 327 396 462
#     4  12  24  49  77 114 150 211 262 315 397 463
#
# _framework density 25.140969999999999
#
# number of rings (size 3 to 8) (size 9 to 14) (size 15 to 20)
#    0.000    0.000    3.636    6.545    0.000    0.000 
#   26.182    0.000    0.000    0.000    0.000    0.000 
#    0.000    0.000    0.000    0.000    0.000    0.000 
#
# Total GULP energy -272823.687315 kJ/mol
# GULP energy per Si atom -12401.076696 kJ/mol
# Density = 2.508375 g / cm^3
# Si number density = 25.140970 Si / 1000 Ang^3
#
#
#
# Elastic Constant Matrix: (Units=GPa)
#
#
# Indices 1 2 3 4 5 6 
#
# 1 186.1352 15.6250 30.9608 0.0000 0.0000 0.0000
# 2 15.6250 56.6406 -1.8662 0.0000 0.0000 0.0000
# 3 30.9608 -1.8662 99.7134 0.0000 0.0000 0.0000
# 4 0.0000 0.0000 0.0000 26.2042 0.0000 0.0000
# 5 0.0000 0.0000 0.0000 0.0000 39.1074 0.0000
# 6 0.0000 0.0000 0.0000 0.0000 0.0000 34.9831
#
#
#
# Elastic Compliance Matrix: (Units=1/GPa)
#
#
# Indices 1 2 3 4 5 6 
#
# 1 0.005818 -0.001665 -0.001838 0.000000 0.000000 0.000000
# 2 -0.001665 0.018143 0.000857 0.000000 0.000000 0.000000
# 3 -0.001838 0.000857 0.010615 0.000000 0.000000 0.000000
# 4 0.000000 0.000000 0.000000 0.038162 0.000000 0.000000
# 5 0.000000 0.000000 0.000000 0.000000 0.025571 0.000000
# 6 0.000000 0.000000 0.000000 0.000000 0.000000 0.028585
#
#
# Mechanical properties :
#
#
# Convention : Reuss Voigt Hill
#
# Bulk Modulus (GPa) = 34.14918 47.99202 41.07060
# Shear Modulus (GPa) = 35.22424 39.91025 37.56724
#
# Velocity S-wave (km/s) = 3.74715 3.98861 3.86976
# Velocity P-wave (km/s) = 5.68630 6.35159 6.02813
#
# Compressibility (1/GPa) = 0.02928328
#
# Stress axis : x y z
#
# Youngs Moduli (GPa) = 171.88311 55.11816 94.20318
#
# Poissons Ratio (x) = 0.09180 0.17311
# Poissons Ratio (y) = 0.28627 -0.08070
# Poissons Ratio (z) = 0.31586 -0.04722
#
# Static dielectric constant tensor:
#      x y z
#    x 4.614490 0.000000 0.000000 
#    y 0.000000 4.765340 0.000000 
#    z 0.000000 0.000000 4.627990 
# 
# 
# High freq. dielectric constant tensor:
#      x y z
#    x 2.016470 0.000000 0.000000 
#    y 0.000000 2.015240 0.000000 
#    z 0.000000 0.000000 2.002990 
# 
# From -- ./inp_files/5752.got.cif
#   From: 2010.06.25/outbox.cif.g09.slc.cpg/sg43_3_cif.got.tgz:5752.got - 2010.06.26 16:48:59.
