data_PCOD8187189
_publ_section_title
;
Structure prediction by ZEFSAII (Michael W. Deem and Ramdas Pophale) SiO2 
 PCOD8187189
Probable space group: F D D 2
;
_chemical_formula_sum "Si O2"
_cell_formula_units_Z 128
_cell_length_a 12.270395
_cell_length_b 25.234926
_cell_length_c 20.766261
_cell_angle_alpha 90.000000
_cell_angle_beta 90.000000
_cell_angle_gamma 90.000000
_cell_volume 6430.117176
_symmetry_space_group_name_H-M "F D D 2"
_symmetry_group_IT_number 43
_symmetry_cell_setting 'orthorhombic'
loop_
_space_group_symop_operation_xyz
x,y,z
-x,-y,z
1/4-x,1/4+y,1/4+z
1/4+x,1/4-y,1/4+z
x,1/2+y,1/2+z
-x,1/2-y,1/2+z
1/4-x,3/4+y,3/4+z
1/4+x,3/4-y,3/4+z
1/2+x,y,1/2+z
1/2-x,-y,1/2+z
3/4-x,1/4+y,3/4+z
3/4+x,1/4-y,3/4+z
1/2+x,1/2+y,z
1/2-x,1/2-y,z
3/4-x,3/4+y,1/4+z
3/4+x,3/4-y,1/4+z
loop_
_atom_site_type_symbol
_atom_site_label
_atom_site_fract_x
_atom_site_fract_y
_atom_site_fract_z
Si Si1 0.336491 0.910788 0.449460
Si Si2 0.213681 0.475768 0.430652
Si Si3 0.413509 0.339212 0.809175
Si Si4 0.626034 0.512827 0.183113
Si Si5 0.551111 0.880821 0.417816
Si Si6 0.126034 0.987173 0.325522
Si Si7 0.698889 0.369179 0.340818
Si Si8 0.713681 0.024232 0.077983
O O1 0.250000 0.920051 0.504317
O O2 0.457610 0.891548 0.473157
O O3 0.279027 0.867972 0.402796
O O4 0.352678 0.969768 0.419627
O O5 0.139341 0.426403 0.411376
O O6 0.315166 0.478254 0.380836
O O7 0.250000 0.466704 0.504317
O O8 0.470973 0.382028 0.855839
O O9 0.292390 0.358452 0.785477
O O10 0.397322 0.280232 0.839008
O O11 0.500000 0.500000 0.177779
O O12 0.638226 0.575551 0.173797
O O13 0.672092 0.500000 0.254317
O O14 0.684834 0.478254 0.127798
O O15 0.138226 0.924449 0.334837
O O16 0.000000 0.000000 0.330855
O O17 0.610659 0.323597 0.347259
#
# Coordination Sequence:
#
# PCOD8187189 Si02
#       8
#    16  16  16  16  16  16  16  16
#     4   9  20  38  59  88 119 151 200 251 295 363
#     4  10  22  38  63  92 117 159 203 248 303 365
#     4   9  20  38  59  88 119 151 200 251 295 363
#     4  10  24  42  58  91 128 159 207 257 301 369
#     4  10  21  37  62  87 119 161 195 247 308 358
#     4  10  24  42  58  91 128 159 207 257 301 369
#     4  10  21  37  62  87 119 161 195 247 308 358
#     4  10  22  38  63  92 117 159 203 248 303 365
#
# _framework density 19.906324999999999
#
# number of rings (size 3 to 8) (size 9 to 14) (size 15 to 20)
#    0.000    2.250    0.000    0.750    7.000    7.000 
#    0.000    0.000    0.000    0.000    0.000    0.000 
#    0.000    0.000    0.000    0.000    0.000    0.000 
#
# Total GULP energy -396430.381986 kJ/mol
# GULP energy per Si atom -12388.449437 kJ/mol
# Density = 1.986102 g / cm^3
# Si number density = 19.906325 Si / 1000 Ang^3
#
#
#
# Elastic Constant Matrix: (Units=GPa)
#
#
# Indices 1 2 3 4 5 6 
#
# 1 140.0462 86.0500 49.0300 0.0000 0.0000 0.0000
# 2 86.0500 142.2435 38.4445 0.0000 0.0000 0.0000
# 3 49.0300 38.4445 103.0115 0.0000 0.0000 0.0000
# 4 0.0000 0.0000 0.0000 22.6849 0.0000 0.0000
# 5 0.0000 0.0000 0.0000 0.0000 29.9036 0.0000
# 6 0.0000 0.0000 0.0000 0.0000 0.0000 31.4300
#
#
#
# Elastic Compliance Matrix: (Units=1/GPa)
#
#
# Indices 1 2 3 4 5 6 
#
# 1 0.012373 -0.006555 -0.003443 0.000000 0.000000 0.000000
# 2 -0.006555 0.011291 -0.001094 0.000000 0.000000 0.000000
# 3 -0.003443 -0.001094 0.011755 0.000000 0.000000 0.000000
# 4 0.000000 0.000000 0.000000 0.044082 0.000000 0.000000
# 5 0.000000 0.000000 0.000000 0.000000 0.033441 0.000000
# 6 0.000000 0.000000 0.000000 0.000000 0.000000 0.031817
#
#
# Mechanical properties :
#
#
# Convention : Reuss Voigt Hill
#
# Bulk Modulus (GPa) = 75.55401 81.37224 78.46312
# Shear Modulus (GPa) = 29.17924 30.92213 30.05068
#
# Velocity S-wave (km/s) = 3.83277 3.94557 3.88958
# Velocity P-wave (km/s) = 7.59105 7.85640 7.72486
#
# Compressibility (1/GPa) = 0.01323556
#
# Stress axis : x y z
#
# Youngs Moduli (GPa) = 80.81870 88.56488 85.07193
#
# Poissons Ratio (x) = 0.58052 0.29291
# Poissons Ratio (y) = 0.52974 0.09308
# Poissons Ratio (z) = 0.27826 0.09690
#
# Static dielectric constant tensor:
#      x y z
#    x 3.878160 0.000000 0.000000 
#    y 0.000000 3.996590 0.000000 
#    z 0.000000 0.000000 3.780100 
# 
# 
# High freq. dielectric constant tensor:
#      x y z
#    x 1.788440 0.000000 0.000000 
#    y 0.000000 1.785930 0.000000 
#    z 0.000000 0.000000 1.760830 
# 
# From -- ./inp_files/21343.got.cif
#   From: 2010.06.25/outbox.cif.g09.slc.cpg/sg43_11_cif.got.tgz:21343.got - 2010.06.26 16:48:59.
