data_PCOD8187694
_publ_section_title
;
Structure prediction by ZEFSAII (Michael W. Deem and Ramdas Pophale) SiO2 
 PCOD8187694
Probable space group: F D D 2
;
_chemical_formula_sum "Si O2"
_cell_formula_units_Z 88
_cell_length_a 22.948972
_cell_length_b 26.507181
_cell_length_c 6.887275
_cell_angle_alpha 90.000000
_cell_angle_beta 90.000000
_cell_angle_gamma 90.000000
_cell_volume 4189.615849
_symmetry_space_group_name_H-M "F D D 2"
_symmetry_group_IT_number 43
_symmetry_cell_setting 'orthorhombic'
loop_
_space_group_symop_operation_xyz
x,y,z
-x,-y,z
1/4-x,1/4+y,1/4+z
1/4+x,1/4-y,1/4+z
x,1/2+y,1/2+z
-x,1/2-y,1/2+z
1/4-x,3/4+y,3/4+z
1/4+x,3/4-y,3/4+z
1/2+x,y,1/2+z
1/2-x,-y,1/2+z
3/4-x,1/4+y,3/4+z
3/4+x,1/4-y,3/4+z
1/2+x,1/2+y,z
1/2-x,1/2-y,z
3/4-x,3/4+y,1/4+z
3/4+x,3/4-y,1/4+z
loop_
_atom_site_type_symbol
_atom_site_label
_atom_site_fract_x
_atom_site_fract_y
_atom_site_fract_z
Si Si1 0.604682 0.337889 0.524800
Si Si2 0.515730 0.076503 0.343279
Si Si3 0.311183 0.993002 0.011645
Si Si4 0.750000 0.750000 0.425503
Si Si5 0.713007 0.066519 0.629666
Si Si6 0.072047 0.448212 0.002466
O O1 0.672727 0.329057 0.479734
O O2 0.560987 0.297916 0.430758
O O3 0.592954 0.333219 0.754327
O O4 0.584466 0.391226 0.439283
O O5 0.498456 0.132014 0.420354
O O6 0.470806 0.050942 0.190305
O O7 0.524408 0.043644 0.536373
O O8 0.254091 0.027257 0.016254
O O9 0.367157 0.026878 0.056832
O O10 0.313347 0.961023 0.815060
O O11 0.700615 0.727526 0.564192
#
# Coordination Sequence:
#
# PCOD8187694 Si02
#       6
#    16  16  16   8  16  16
#     4  11  23  42  67  94 134 172 220 279 332 395
#     4  11  24  45  65  97 136 173 220 277 338 395
#     4  12  22  43  65  98 130 175 222 272 332 400
#     4  12  22  42  66  96 126 176 222 260 340 398
#     4  11  24  41  66  98 132 174 226 272 333 402
#     4  11  25  42  66  96 132 172 217 281 331 392
#
# _framework density 21.004313
#
# number of rings (size 3 to 8) (size 9 to 14) (size 15 to 20)
#    0.000    0.727    3.636    4.909    0.000    0.000 
#    0.000    1.818    0.000    0.000    0.000    0.000 
#    0.000    0.000    0.000    0.000    0.000    0.000 
#
# Total GULP energy -272766.202897 kJ/mol
# GULP energy per Si atom -12398.463768 kJ/mol
# Density = 2.095651 g / cm^3
# Si number density = 21.004313 Si / 1000 Ang^3
#
#
#
# Elastic Constant Matrix: (Units=GPa)
#
#
# Indices 1 2 3 4 5 6 
#
# 1 99.3889 28.4302 26.9802 0.3415 -0.0809 0.1335
# 2 28.4302 137.4021 43.6777 0.1733 -0.0535 0.0701
# 3 26.9802 43.6777 80.4198 0.6256 -0.3261 0.1353
# 4 0.3415 0.1733 0.6256 24.7619 -0.3340 0.2649
# 5 -0.0809 -0.0535 -0.3261 -0.3340 31.2232 -0.0224
# 6 0.1335 0.0701 0.1353 0.2649 -0.0224 33.1636
#
#
#
# Elastic Compliance Matrix: (Units=1/GPa)
#
#
# Indices 1 2 3 4 5 6 
#
# 1 0.011278 -0.001367 -0.003041 -0.000069 -0.000006 -0.000030
# 2 -0.001367 0.008962 -0.004410 0.000067 -0.000034 0.000004
# 3 -0.003041 -0.004410 0.015853 -0.000325 0.000147 -0.000040
# 4 -0.000069 0.000067 -0.000325 0.040403 0.000429 -0.000321
# 5 -0.000006 -0.000034 0.000147 0.000429 0.032033 0.000018
# 6 -0.000030 0.000004 -0.000040 -0.000321 0.000018 0.030156
#
#
# Mechanical properties :
#
#
# Convention : Reuss Voigt Hill
#
# Bulk Modulus (GPa) = 54.17448 57.26522 55.71985
# Shear Modulus (GPa) = 30.77414 32.37126 31.57270
#
# Velocity S-wave (km/s) = 3.83186 3.93004 3.88126
# Velocity P-wave (km/s) = 6.73985 6.92216 6.83161
#
# Compressibility (1/GPa) = 0.01845888
#
# Stress axis : x y z
#
# Youngs Moduli (GPa) = 88.66654 111.57699 63.07895
#
# Poissons Ratio (x) = 0.15251 0.19181
# Poissons Ratio (y) = 0.12120 0.27816
# Poissons Ratio (z) = 0.26962 0.49203
#
# Static dielectric constant tensor:
#      x y z
#    x 3.672440 0.000050 0.000090 
#    y 0.000050 4.134990 -0.000370 
#    z 0.000090 -0.000370 3.625680 
# 
# 
# High freq. dielectric constant tensor:
#      x y z
#    x 1.822760 0.000010 0.000020 
#    y 0.000010 1.850690 -0.000010 
#    z 0.000020 -0.000010 1.816110 
# 
# From -- ./inp_files/1007.got.cif
#   From: 2010.06.25/outbox.cif.g09.slc.cpg/sg43_1_cif.got.tgz:1007.got - 2010.06.26 16:48:59.
