data_PCOD8187104
_publ_section_title
;
Structure prediction by ZEFSAII (Michael W. Deem and Ramdas Pophale) SiO2 
 PCOD8187104
Probable space group: F D D 2
;
_chemical_formula_sum "Si O2"
_cell_formula_units_Z 96
_cell_length_a 8.691081
_cell_length_b 17.722004
_cell_length_c 31.965470
_cell_angle_alpha 90.000000
_cell_angle_beta 90.000000
_cell_angle_gamma 90.000000
_cell_volume 4923.429485
_symmetry_space_group_name_H-M "F D D 2"
_symmetry_group_IT_number 43
_symmetry_cell_setting 'orthorhombic'
loop_
_space_group_symop_operation_xyz
x,y,z
-x,-y,z
1/4-x,1/4+y,1/4+z
1/4+x,1/4-y,1/4+z
x,1/2+y,1/2+z
-x,1/2-y,1/2+z
1/4-x,3/4+y,3/4+z
1/4+x,3/4-y,3/4+z
1/2+x,y,1/2+z
1/2-x,-y,1/2+z
3/4-x,1/4+y,3/4+z
3/4+x,1/4-y,3/4+z
1/2+x,1/2+y,z
1/2-x,1/2-y,z
3/4-x,3/4+y,1/4+z
3/4+x,3/4-y,1/4+z
loop_
_atom_site_type_symbol
_atom_site_label
_atom_site_fract_x
_atom_site_fract_y
_atom_site_fract_z
Si Si1 0.923607 0.228237 0.787700
Si Si2 0.573123 0.424838 0.164885
Si Si3 0.950476 0.695655 0.120317
Si Si4 0.824592 0.482814 0.951943
Si Si5 0.106418 0.304935 0.861882
Si Si6 0.128660 0.648308 0.596358
O O1 0.750000 0.250000 0.777335
O O2 0.919555 0.140691 0.802147
O O3 0.026027 0.236223 0.746716
O O4 0.003084 0.279709 0.822915
O O5 0.500000 0.500000 0.185114
O O6 0.551893 0.357509 0.198149
O O7 0.751496 0.440891 0.153515
O O8 0.485794 0.406197 0.121488
O O9 0.946146 0.768809 0.089495
O O10 0.786303 0.654642 0.122433
O O11 0.977090 0.723823 0.167252
O O12 0.080379 0.639258 0.103063
O O13 0.000000 0.500000 0.943260
O O14 0.250000 0.250000 0.870322
#
# Coordination Sequence:
#
# PCOD8187104 Si02
#       6
#    16  16  16  16  16  16
#     4  12  24  41  63  92 127 170 203 261 332 374
#     4  11  20  40  65  93 124 166 216 261 308 388
#     4  10  22  38  67  94 117 165 219 261 306 381
#     4  11  25  40  64  93 130 164 208 270 328 380
#     4  12  20  38  68  92 122 166 217 261 318 380
#     4  10  20  39  64  92 122 165 214 258 308 386
#
# _framework density 19.498604
#
# number of rings (size 3 to 8) (size 9 to 14) (size 15 to 20)
#    0.000    1.000    6.667    0.500    4.667    0.000 
#    0.000    1.667    3.667    0.000    0.000    0.000 
#    0.000    0.000    0.000    0.000    0.000    0.000 
#
# Total GULP energy -297586.076196 kJ/mol
# GULP energy per Si atom -12399.419842 kJ/mol
# Density = 1.945422 g / cm^3
# Si number density = 19.498604 Si / 1000 Ang^3
#
#
#
# Elastic Constant Matrix: (Units=GPa)
#
#
# Indices 1 2 3 4 5 6 
#
# 1 94.7353 34.2247 12.1171 0.0000 0.0000 0.0000
# 2 34.2247 136.2621 37.6782 0.0000 0.0000 0.0000
# 3 12.1171 37.6782 73.9030 0.0000 0.0000 0.0000
# 4 0.0000 0.0000 0.0000 24.2409 0.0000 0.0000
# 5 0.0000 0.0000 0.0000 0.0000 15.0990 0.0000
# 6 0.0000 0.0000 0.0000 0.0000 0.0000 43.7703
#
#
#
# Elastic Compliance Matrix: (Units=1/GPa)
#
#
# Indices 1 2 3 4 5 6 
#
# 1 0.011624 -0.002785 -0.000486 0.000000 0.000000 0.000000
# 2 -0.002785 0.009211 -0.004239 0.000000 0.000000 0.000000
# 3 -0.000486 -0.004239 0.015772 0.000000 0.000000 0.000000
# 4 0.000000 0.000000 0.000000 0.041253 0.000000 0.000000
# 5 0.000000 0.000000 0.000000 0.000000 0.066230 0.000000
# 6 0.000000 0.000000 0.000000 0.000000 0.000000 0.022847
#
#
# Mechanical properties :
#
#
# Convention : Reuss Voigt Hill
#
# Bulk Modulus (GPa) = 46.32581 52.54894 49.43737
# Shear Modulus (GPa) = 26.43381 31.34738 28.89060
#
# Velocity S-wave (km/s) = 3.68595 4.01393 3.85343
# Velocity P-wave (km/s) = 6.47495 6.96353 6.72368
#
# Compressibility (1/GPa) = 0.02158624
#
# Stress axis : x y z
#
# Youngs Moduli (GPa) = 86.02819 108.57117 63.40271
#
# Poissons Ratio (x) = 0.30240 0.03081
# Poissons Ratio (y) = 0.23961 0.26878
# Poissons Ratio (z) = 0.04180 0.46025
#
# Static dielectric constant tensor:
#      x y z
#    x 3.831580 0.000000 0.000000 
#    y 0.000000 3.957940 0.000000 
#    z 0.000000 0.000000 3.122450 
# 
# 
# High freq. dielectric constant tensor:
#      x y z
#    x 1.784030 0.000000 0.000000 
#    y 0.000000 1.776550 0.000000 
#    z 0.000000 0.000000 1.711460 
# 
# From -- ./inp_files/24224.got.cif
#   From: 2010.06.25/outbox.cif.g09.slc.cpg/sg43_13_cif.got.tgz:24224.got - 2010.06.26 16:48:59.
