data_PCOD8187148
_publ_section_title
;
Structure prediction by ZEFSAII (Michael W. Deem and Ramdas Pophale) SiO2 
 PCOD8187148
Probable space group: F D D 2
;
_chemical_formula_sum "Si O2"
_cell_formula_units_Z 120
_cell_length_a 22.220453
_cell_length_b 20.219895
_cell_length_c 12.842127
_cell_angle_alpha 90.000000
_cell_angle_beta 90.000000
_cell_angle_gamma 90.000000
_cell_volume 5769.906359
_symmetry_space_group_name_H-M "F D D 2"
_symmetry_group_IT_number 43
_symmetry_cell_setting 'orthorhombic'
loop_
_space_group_symop_operation_xyz
x,y,z
-x,-y,z
1/4-x,1/4+y,1/4+z
1/4+x,1/4-y,1/4+z
x,1/2+y,1/2+z
-x,1/2-y,1/2+z
1/4-x,3/4+y,3/4+z
1/4+x,3/4-y,3/4+z
1/2+x,y,1/2+z
1/2-x,-y,1/2+z
3/4-x,1/4+y,3/4+z
3/4+x,1/4-y,3/4+z
1/2+x,1/2+y,z
1/2-x,1/2-y,z
3/4-x,3/4+y,1/4+z
3/4+x,3/4-y,1/4+z
loop_
_atom_site_type_symbol
_atom_site_label
_atom_site_fract_x
_atom_site_fract_y
_atom_site_fract_z
Si Si1 0.216167 0.812048 0.670850
Si Si2 0.667207 0.039945 0.454157
Si Si3 0.250000 0.250000 0.966876
Si Si4 0.556431 0.322248 0.929297
Si Si5 0.781121 0.318861 0.087011
Si Si6 0.480490 0.113090 0.063829
Si Si7 0.828496 0.605396 0.507270
Si Si8 0.089549 0.183586 0.490167
O O1 0.250000 0.750000 0.724485
O O2 0.150416 0.816710 0.718148
O O3 0.210244 0.796404 0.545155
O O4 0.252758 0.877253 0.706557
O O5 0.702753 0.061365 0.556742
O O6 0.696254 0.072598 0.353615
O O7 0.672196 0.961299 0.439189
O O8 0.284350 0.300891 0.889725
O O9 0.623254 0.348016 0.952450
O O10 0.551341 0.252269 0.989428
O O11 0.750000 0.250000 0.111348
O O12 0.793664 0.352699 0.197668
O O13 0.738298 0.362359 0.011139
O O14 0.844999 0.305966 0.036174
O O15 0.552080 0.129581 0.056956
O O16 0.850519 0.591751 0.623918
#
# Coordination Sequence:
#
# PCOD8187148 Si02
#       8
#    16  16   8  16  16  16  16  16
#     4  10  21  38  64  95 122 172 212 261 334 377
#     4  11  23  40  65  97 131 166 215 273 323 391
#     4  10  20  42  62  86 130 162 216 264 314 390
#     4  11  21  42  62  93 134 163 217 269 322 394
#     4  11  22  42  67  94 126 177 219 265 332 384
#     4  11  24  42  64  96 130 171 219 266 324 390
#     4  10  22  42  63  94 129 164 222 266 323 391
#     4  10  25  41  64  94 131 170 217 272 315 392
#
# _framework density 20.797564000000001
#
# number of rings (size 3 to 8) (size 9 to 14) (size 15 to 20)
#    0.400    1.067    4.667    0.000    1.867    3.200 
#    0.000    1.333    0.000    0.000    0.000    0.000 
#    0.000    0.000    0.000    0.000    0.000    0.000 
#
# Total GULP energy -371852.512248 kJ/mol
# GULP energy per Si atom -12395.083742 kJ/mol
# Density = 2.075023 g / cm^3
# Si number density = 20.797564 Si / 1000 Ang^3
#
#
#
# Elastic Constant Matrix: (Units=GPa)
#
#
# Indices 1 2 3 4 5 6 
#
# 1 86.0005 28.5325 26.6054 0.0000 0.0000 0.0000
# 2 28.5325 92.2280 36.6780 0.0000 0.0000 0.0000
# 3 26.6054 36.6780 49.3260 0.0000 0.0000 0.0000
# 4 0.0000 0.0000 0.0000 34.0066 0.0000 0.0000
# 5 0.0000 0.0000 0.0000 0.0000 19.0072 0.0000
# 6 0.0000 0.0000 0.0000 0.0000 0.0000 37.7798
#
#
#
# Elastic Compliance Matrix: (Units=1/GPa)
#
#
# Indices 1 2 3 4 5 6 
#
# 1 0.014190 -0.001911 -0.006233 0.000000 0.000000 0.000000
# 2 -0.001911 0.015653 -0.010608 0.000000 0.000000 0.000000
# 3 -0.006233 -0.010608 0.031523 0.000000 0.000000 0.000000
# 4 0.000000 0.000000 0.000000 0.029406 0.000000 0.000000
# 5 0.000000 0.000000 0.000000 0.000000 0.052612 0.000000
# 6 0.000000 0.000000 0.000000 0.000000 0.000000 0.026469
#
#
# Mechanical properties :
#
#
# Convention : Reuss Voigt Hill
#
# Bulk Modulus (GPa) = 41.90817 45.68736 43.79776
# Shear Modulus (GPa) = 23.22223 27.20796 25.21509
#
# Velocity S-wave (km/s) = 3.34516 3.62087 3.48574
# Velocity P-wave (km/s) = 5.92574 6.28460 6.10781
#
# Compressibility (1/GPa) = 0.02386170
#
# Stress axis : x y z
#
# Youngs Moduli (GPa) = 70.47163 63.88651 31.72278
#
# Poissons Ratio (x) = 0.12211 0.19771
# Poissons Ratio (y) = 0.13470 0.33652
# Poissons Ratio (z) = 0.43922 0.67772
#
# Static dielectric constant tensor:
#      x y z
#    x 3.496890 0.000000 0.000000 
#    y 0.000000 3.971270 0.000000 
#    z 0.000000 0.000000 3.658700 
# 
# 
# High freq. dielectric constant tensor:
#      x y z
#    x 1.794430 0.000000 0.000000 
#    y 0.000000 1.828210 0.000000 
#    z 0.000000 0.000000 1.810620 
# 
# From -- ./inp_files/11015.got.cif
#   From: 2010.06.25/outbox.cif.g09.slc.cpg/sg43_6_cif.got.tgz:11015.got - 2010.06.26 16:48:59.
