data_PCOD8187552
_publ_section_title
;
Structure prediction by ZEFSAII (Michael W. Deem and Ramdas Pophale) SiO2 
 PCOD8187552
Probable space group: F D D 2
;
_chemical_formula_sum "Si O2"
_cell_formula_units_Z 120
_cell_length_a 11.823645
_cell_length_b 28.979866
_cell_length_c 14.490551
_cell_angle_alpha 90.000000
_cell_angle_beta 90.000000
_cell_angle_gamma 90.000000
_cell_volume 4965.153214
_symmetry_space_group_name_H-M "F D D 2"
_symmetry_group_IT_number 43
_symmetry_cell_setting 'orthorhombic'
loop_
_space_group_symop_operation_xyz
x,y,z
-x,-y,z
1/4-x,1/4+y,1/4+z
1/4+x,1/4-y,1/4+z
x,1/2+y,1/2+z
-x,1/2-y,1/2+z
1/4-x,3/4+y,3/4+z
1/4+x,3/4-y,3/4+z
1/2+x,y,1/2+z
1/2-x,-y,1/2+z
3/4-x,1/4+y,3/4+z
3/4+x,1/4-y,3/4+z
1/2+x,1/2+y,z
1/2-x,1/2-y,z
3/4-x,3/4+y,1/4+z
3/4+x,3/4-y,1/4+z
loop_
_atom_site_type_symbol
_atom_site_label
_atom_site_fract_x
_atom_site_fract_y
_atom_site_fract_z
Si Si1 0.481922 0.253883 0.756250
Si Si2 0.432589 0.319150 0.114427
Si Si3 0.117363 0.870801 0.032247
Si Si4 0.972882 0.927588 0.751870
Si Si5 0.500000 0.000000 0.099772
Si Si6 0.701233 0.702651 0.583735
Si Si7 0.907252 0.034928 0.126812
Si Si8 0.966914 0.665384 0.154457
O O1 0.494240 0.218683 0.669363
O O2 0.352128 0.266629 0.782965
O O3 0.532669 0.230163 0.846410
O O4 0.565617 0.297122 0.732468
O O5 0.400402 0.362027 0.181174
O O6 0.508477 0.337224 0.028975
O O7 0.316830 0.299500 0.070013
O O8 0.215733 0.841232 0.080964
O O9 0.076258 0.912658 0.095982
O O10 0.861704 0.915545 0.812922
O O11 0.947163 0.960679 0.665988
O O12 0.029017 0.883429 0.703545
O O13 0.750000 0.750000 0.630735
O O14 0.659339 0.718875 0.485038
O O15 0.592631 0.684827 0.636927
O O16 0.000000 0.000000 0.083158
#
# Coordination Sequence:
#
# PCOD8187552 Si02
#       8
#    16  16  16  16   8  16  16  16
#     4  11  27  45  75  99 148 192 247 303 373 439
#     4  11  25  44  74 105 146 194 246 300 369 441
#     4  11  23  42  73 104 146 190 243 304 368 443
#     4  12  28  48  76 109 152 196 246 308 375 445
#     4  12  28  50  72 110 148 194 246 306 374 440
#     4  11  25  44  73 110 146 191 247 310 373 452
#     4  10  24  43  72 105 142 192 248 309 366 443
#     4  12  28  46  75 106 151 194 251 303 377 450
#
# _framework density 24.168438999999999
#
# number of rings (size 3 to 8) (size 9 to 14) (size 15 to 20)
#    0.000    0.800    1.333    4.000   14.000    2.133 
#    0.000    0.000    0.000    0.000    0.000    0.000 
#    0.000    0.000    0.000    0.000    0.000    0.000 
#
# Total GULP energy -371746.703911 kJ/mol
# GULP energy per Si atom -12391.556797 kJ/mol
# Density = 2.411343 g / cm^3
# Si number density = 24.168439 Si / 1000 Ang^3
#
#
#
# Elastic Constant Matrix: (Units=GPa)
#
#
# Indices 1 2 3 4 5 6 
#
# 1 95.5212 14.9626 35.6396 0.0000 0.0000 0.0000
# 2 14.9626 104.6504 33.2376 0.0000 0.0000 0.0000
# 3 35.6396 33.2376 83.5627 0.0000 0.0000 0.0000
# 4 0.0000 0.0000 0.0000 32.8632 0.0000 0.0000
# 5 0.0000 0.0000 0.0000 0.0000 38.3735 0.0000
# 6 0.0000 0.0000 0.0000 0.0000 0.0000 42.4802
#
#
#
# Elastic Compliance Matrix: (Units=1/GPa)
#
#
# Indices 1 2 3 4 5 6 
#
# 1 0.012451 -0.000107 -0.005268 0.000000 0.000000 0.000000
# 2 -0.000107 0.010938 -0.004305 0.000000 0.000000 0.000000
# 3 -0.005268 -0.004305 0.015926 0.000000 0.000000 0.000000
# 4 0.000000 0.000000 0.000000 0.030429 0.000000 0.000000
# 5 0.000000 0.000000 0.000000 0.000000 0.026060 0.000000
# 6 0.000000 0.000000 0.000000 0.000000 0.000000 0.023540
#
#
# Mechanical properties :
#
#
# Convention : Reuss Voigt Hill
#
# Bulk Modulus (GPa) = 50.11145 50.15709 50.13427
# Shear Modulus (GPa) = 34.39817 36.06968 35.23392
#
# Velocity S-wave (km/s) = 3.77672 3.86739 3.82232
# Velocity P-wave (km/s) = 6.30852 6.38282 6.34578
#
# Compressibility (1/GPa) = 0.01995552
#
# Stress axis : x y z
#
# Youngs Moduli (GPa) = 80.31412 91.42225 62.78982
#
# Poissons Ratio (x) = 0.00979 0.33076
# Poissons Ratio (y) = 0.00860 0.27031
# Poissons Ratio (z) = 0.42308 0.39358
#
# Static dielectric constant tensor:
#      x y z
#    x 4.444770 0.000000 0.000000 
#    y 0.000000 4.925490 0.000000 
#    z 0.000000 0.000000 4.297230 
# 
# 
# High freq. dielectric constant tensor:
#      x y z
#    x 1.967830 0.000000 0.000000 
#    y 0.000000 1.967030 0.000000 
#    z 0.000000 0.000000 1.963950 
# 
# From -- ./inp_files/13486.got.cif
#   From: 2010.06.25/outbox.cif.g09.slc.cpg/sg43_7_cif.got.tgz:13486.got - 2010.06.26 16:48:59.
