data_PCOD8187637
_publ_section_title
;
Structure prediction by ZEFSAII (Michael W. Deem and Ramdas Pophale) SiO2 
 PCOD8187637
Probable space group: F D D 2
;
_chemical_formula_sum "Si O2"
_cell_formula_units_Z 96
_cell_length_a 13.738642
_cell_length_b 18.982780
_cell_length_c 16.071140
_cell_angle_alpha 90.000000
_cell_angle_beta 90.000000
_cell_angle_gamma 90.000000
_cell_volume 4191.315040
_symmetry_space_group_name_H-M "F D D 2"
_symmetry_group_IT_number 43
_symmetry_cell_setting 'orthorhombic'
loop_
_space_group_symop_operation_xyz
x,y,z
-x,-y,z
1/4-x,1/4+y,1/4+z
1/4+x,1/4-y,1/4+z
x,1/2+y,1/2+z
-x,1/2-y,1/2+z
1/4-x,3/4+y,3/4+z
1/4+x,3/4-y,3/4+z
1/2+x,y,1/2+z
1/2-x,-y,1/2+z
3/4-x,1/4+y,3/4+z
3/4+x,1/4-y,3/4+z
1/2+x,1/2+y,z
1/2-x,1/2-y,z
3/4-x,3/4+y,1/4+z
3/4+x,3/4-y,1/4+z
loop_
_atom_site_type_symbol
_atom_site_label
_atom_site_fract_x
_atom_site_fract_y
_atom_site_fract_z
Si Si1 0.479579 0.755185 0.898060
Si Si2 0.743083 0.636489 0.235307
Si Si3 0.675911 0.808843 0.963000
Si Si4 0.791300 0.827676 0.420360
Si Si5 0.196357 0.961845 0.968502
Si Si6 0.071346 0.340802 0.128317
O O1 0.449820 0.687487 0.952362
O O2 0.592251 0.771416 0.910719
O O3 0.408700 0.820530 0.923468
O O4 0.463258 0.740363 0.800485
O O5 0.749903 0.640211 0.334629
O O6 0.667960 0.696345 0.206910
O O7 0.849993 0.648832 0.200536
O O8 0.750000 0.750000 0.999318
O O9 0.732001 0.856876 0.895657
O O10 0.623951 0.851236 0.039003
O O11 0.750000 0.750000 0.440047
O O12 0.758171 0.889657 0.482900
O O13 0.222598 0.011218 0.888840
#
# Coordination Sequence:
#
# PCOD8187637 Si02
#       6
#    16  16  16  16  16  16
#     4  11  24  44  66 103 143 189 240 302 374 451
#     4  11  21  41  71  99 136 174 248 308 362 432
#     4  12  27  47  73 105 152 197 248 305 373 457
#     4  11  23  42  70 101 140 187 244 308 371 444
#     4  11  24  41  70 102 140 188 240 309 371 440
#     4  12  26  43  72 108 142 189 246 310 372 446
#
# _framework density 22.904506000000001
#
# number of rings (size 3 to 8) (size 9 to 14) (size 15 to 20)
#    0.000    0.667    3.333    5.500    4.667    0.000 
#    0.000    0.833    0.000    0.000    0.000    0.000 
#    0.000    0.000    0.000    0.000    0.000    0.000 
#
# Total GULP energy -297492.677258 kJ/mol
# GULP energy per Si atom -12395.528219 kJ/mol
# Density = 2.285237 g / cm^3
# Si number density = 22.904506 Si / 1000 Ang^3
#
#
#
# Elastic Constant Matrix: (Units=GPa)
#
#
# Indices 1 2 3 4 5 6 
#
# 1 106.7826 19.8365 30.0776 0.0000 0.0000 0.0000
# 2 19.8365 91.1695 26.3916 0.0000 0.0000 0.0000
# 3 30.0776 26.3916 62.7244 0.0000 0.0000 0.0000
# 4 0.0000 0.0000 0.0000 30.7331 0.0000 0.0000
# 5 0.0000 0.0000 0.0000 0.0000 29.8538 0.0000
# 6 0.0000 0.0000 0.0000 0.0000 0.0000 40.5067
#
#
#
# Elastic Compliance Matrix: (Units=1/GPa)
#
#
# Indices 1 2 3 4 5 6 
#
# 1 0.010903 -0.000978 -0.004817 0.000000 0.000000 0.000000
# 2 -0.000978 0.012578 -0.004823 0.000000 0.000000 0.000000
# 3 -0.004817 -0.004823 0.020282 0.000000 0.000000 0.000000
# 4 0.000000 0.000000 0.000000 0.032538 0.000000 0.000000
# 5 0.000000 0.000000 0.000000 0.000000 0.033497 0.000000
# 6 0.000000 0.000000 0.000000 0.000000 0.000000 0.024687
#
#
# Mechanical properties :
#
#
# Convention : Reuss Voigt Hill
#
# Bulk Modulus (GPa) = 44.39146 45.92088 45.15617
# Shear Modulus (GPa) = 30.63172 32.51011 31.57092
#
# Velocity S-wave (km/s) = 3.66097 3.77155 3.71667
# Velocity P-wave (km/s) = 6.10684 6.24968 6.17867
#
# Compressibility (1/GPa) = 0.02252686
#
# Stress axis : x y z
#
# Youngs Moduli (GPa) = 91.71565 79.50678 49.30511
#
# Poissons Ratio (x) = 0.07775 0.23750
# Poissons Ratio (y) = 0.08969 0.23780
# Poissons Ratio (z) = 0.44178 0.38347
#
# Static dielectric constant tensor:
#      x y z
#    x 4.194570 0.000000 0.000000 
#    y 0.000000 4.372450 0.000000 
#    z 0.000000 0.000000 3.887220 
# 
# 
# High freq. dielectric constant tensor:
#      x y z
#    x 1.911680 0.000000 0.000000 
#    y 0.000000 1.910240 0.000000 
#    z 0.000000 0.000000 1.884130 
# 
# From -- ./inp_files/10097.got.cif
#   From: 2010.06.25/outbox.cif.g09.slc.cpg/sg43_6_cif.got.tgz:10097.got - 2010.06.26 16:48:59.
