data_PCOD8187200
_publ_section_title
;
Structure prediction by ZEFSAII (Michael W. Deem and Ramdas Pophale) SiO2 
 PCOD8187200
Probable space group: F D D 2
;
_chemical_formula_sum "Si O2"
_cell_formula_units_Z 80
_cell_length_a 14.948077
_cell_length_b 10.842036
_cell_length_c 23.804488
_cell_angle_alpha 90.000000
_cell_angle_beta 90.000000
_cell_angle_gamma 90.000000
_cell_volume 3857.935977
_symmetry_space_group_name_H-M "F D D 2"
_symmetry_group_IT_number 43
_symmetry_cell_setting 'orthorhombic'
loop_
_space_group_symop_operation_xyz
x,y,z
-x,-y,z
1/4-x,1/4+y,1/4+z
1/4+x,1/4-y,1/4+z
x,1/2+y,1/2+z
-x,1/2-y,1/2+z
1/4-x,3/4+y,3/4+z
1/4+x,3/4-y,3/4+z
1/2+x,y,1/2+z
1/2-x,-y,1/2+z
3/4-x,1/4+y,3/4+z
3/4+x,1/4-y,3/4+z
1/2+x,1/2+y,z
1/2-x,1/2-y,z
3/4-x,3/4+y,1/4+z
3/4+x,3/4-y,1/4+z
loop_
_atom_site_type_symbol
_atom_site_label
_atom_site_fract_x
_atom_site_fract_y
_atom_site_fract_z
Si Si1 0.250941 0.104294 0.868670
Si Si2 0.662706 0.162192 0.470772
Si Si3 0.021754 0.231471 0.494887
Si Si4 0.838922 0.687214 0.650069
Si Si5 0.348778 0.293065 0.297233
O O1 0.250000 0.250000 0.861738
O O2 0.171311 0.080554 0.913489
O O3 0.237349 0.050211 0.807420
O O4 0.336901 0.044278 0.899695
O O5 0.750000 0.250000 0.478745
O O6 0.569970 0.236643 0.462739
O O7 0.657866 0.067853 0.522642
O O8 0.073627 0.121625 0.462433
O O9 0.091449 0.344758 0.501990
O O10 0.750000 0.750000 0.627762
O O11 0.858386 0.578667 0.606371
O O12 0.250000 0.250000 0.311875
#
# Coordination Sequence:
#
# PCOD8187200 Si02
#       5
#    16  16  16  16  16
#     4  10  22  38  58  87 120 153 195 246 295 348
#     4  10  21  38  61  88 119 157 199 241 295 353
#     4  10  22  40  60  85 121 158 196 246 295 352
#     4  11  22  37  60  87 118 158 202 244 294 351
#     4   9  22  41  59  87 122 156 197 243 297 356
#
# _framework density 20.736477000000001
#
# number of rings (size 3 to 8) (size 9 to 14) (size 15 to 20)
#    0.000    2.000    0.000    3.000    0.000   11.200 
#    0.000    3.000    0.000    0.000    0.000    0.000 
#    0.000    0.000    0.000    0.000    0.000    0.000 
#
# Total GULP energy -247771.322441 kJ/mol
# GULP energy per Si atom -12388.566122 kJ/mol
# Density = 2.068928 g / cm^3
# Si number density = 20.736477 Si / 1000 Ang^3
#
#
#
# Elastic Constant Matrix: (Units=GPa)
#
#
# Indices 1 2 3 4 5 6 
#
# 1 89.5590 40.4694 58.5975 0.0000 0.0000 0.0000
# 2 40.4694 104.7478 45.8680 0.0000 0.0000 0.0000
# 3 58.5975 45.8680 126.9157 0.0000 0.0000 0.0000
# 4 0.0000 0.0000 0.0000 42.7062 0.0000 0.0000
# 5 0.0000 0.0000 0.0000 0.0000 27.5560 0.0000
# 6 0.0000 0.0000 0.0000 0.0000 0.0000 34.2490
#
#
#
# Elastic Compliance Matrix: (Units=1/GPa)
#
#
# Indices 1 2 3 4 5 6 
#
# 1 0.017158 -0.003754 -0.006565 0.000000 0.000000 0.000000
# 2 -0.003754 0.012163 -0.002662 0.000000 0.000000 0.000000
# 3 -0.006565 -0.002662 0.011873 0.000000 0.000000 0.000000
# 4 0.000000 0.000000 0.000000 0.023416 0.000000 0.000000
# 5 0.000000 0.000000 0.000000 0.000000 0.036290 0.000000
# 6 0.000000 0.000000 0.000000 0.000000 0.000000 0.029198
#
#
# Mechanical properties :
#
#
# Convention : Reuss Voigt Hill
#
# Bulk Modulus (GPa) = 65.65980 67.89915 66.77947
# Shear Modulus (GPa) = 31.02957 32.65473 31.84215
#
# Velocity S-wave (km/s) = 3.87250 3.97261 3.92288
# Velocity P-wave (km/s) = 7.19219 7.33874 7.26584
#
# Compressibility (1/GPa) = 0.01523002
#
# Stress axis : x y z
#
# Youngs Moduli (GPa) = 58.28309 82.21639 84.22776
#
# Poissons Ratio (x) = 0.30865 0.55296
# Poissons Ratio (y) = 0.21880 0.22425
# Poissons Ratio (z) = 0.38263 0.21890
#
# Static dielectric constant tensor:
#      x y z
#    x 3.698770 0.000000 0.000000 
#    y 0.000000 4.279850 0.000000 
#    z 0.000000 0.000000 4.035090 
# 
# 
# High freq. dielectric constant tensor:
#      x y z
#    x 1.800920 0.000000 0.000000 
#    y 0.000000 1.826520 0.000000 
#    z 0.000000 0.000000 1.814160 
# 
# From -- ./inp_files/20915.got.cif
#   From: 2010.06.25/outbox.cif.g09.slc.cpg/sg43_11_cif.got.tgz:20915.got - 2010.06.26 16:48:59.
