data_PCOD8187700
_publ_section_title
;
Structure prediction by ZEFSAII (Michael W. Deem and Ramdas Pophale) SiO2 
 PCOD8187700
Probable space group: F D D 2
;
_chemical_formula_sum "Si O2"
_cell_formula_units_Z 96
_cell_length_a 26.348508
_cell_length_b 11.008168
_cell_length_c 15.409368
_cell_angle_alpha 90.000000
_cell_angle_beta 90.000000
_cell_angle_gamma 90.000000
_cell_volume 4469.468737
_symmetry_space_group_name_H-M "F D D 2"
_symmetry_group_IT_number 43
_symmetry_cell_setting 'orthorhombic'
loop_
_space_group_symop_operation_xyz
x,y,z
-x,-y,z
1/4-x,1/4+y,1/4+z
1/4+x,1/4-y,1/4+z
x,1/2+y,1/2+z
-x,1/2-y,1/2+z
1/4-x,3/4+y,3/4+z
1/4+x,3/4-y,3/4+z
1/2+x,y,1/2+z
1/2-x,-y,1/2+z
3/4-x,1/4+y,3/4+z
3/4+x,1/4-y,3/4+z
1/2+x,1/2+y,z
1/2-x,1/2-y,z
3/4-x,3/4+y,1/4+z
3/4+x,3/4-y,1/4+z
loop_
_atom_site_type_symbol
_atom_site_label
_atom_site_fract_x
_atom_site_fract_y
_atom_site_fract_z
Si Si1 0.309760 0.057604 0.000000
Si Si2 0.986673 0.789369 0.921905
Si Si3 0.000000 0.500000 0.548268
Si Si4 0.827654 0.291666 0.941740
Si Si5 0.500000 0.500000 0.641933
Si Si6 0.180289 0.364399 0.611498
Si Si7 0.928473 0.580531 0.996767
O O1 0.268254 0.134353 0.946857
O O2 0.368140 0.093085 0.984679
O O3 0.301055 0.914242 0.978907
O O4 0.301427 0.092789 0.100396
O O5 0.953933 0.710208 0.987672
O O6 0.027795 0.719116 0.863019
O O7 0.011597 0.888050 0.984584
O O8 0.048183 0.516129 0.610608
O O9 0.882427 0.325094 0.907435
O O10 0.830792 0.187683 0.015608
O O11 0.448876 0.528474 0.587637
O O12 0.199896 0.254339 0.670440
#
# Coordination Sequence:
#
# PCOD8187700 Si02
#       7
#    16  16   8  16   8  16  16
#     4  11  25  42  70 100 140 184 239 295 353 436
#     4  12  23  47  66  99 144 181 231 285 353 422
#     4  12  27  43  66 104 146 186 226 293 349 426
#     4  11  24  44  71 106 135 183 239 292 352 422
#     4  12  23  41  66 106 136 190 236 293 365 424
#     4  11  23  43  76 102 133 184 235 292 349 424
#     4  11  23  42  73 100 132 180 241 294 353 426
#
# _framework density 21.479063
#
# number of rings (size 3 to 8) (size 9 to 14) (size 15 to 20)
#    0.000    0.667    3.333    4.500    7.000    0.000 
#   12.000    0.000    0.000    0.000    0.000    0.000 
#    0.000    0.000    0.000    0.000    0.000    0.000 
#
# Total GULP energy -297518.674326 kJ/mol
# GULP energy per Si atom -12396.611430 kJ/mol
# Density = 2.143018 g / cm^3
# Si number density = 21.479063 Si / 1000 Ang^3
#
#
#
# Elastic Constant Matrix: (Units=GPa)
#
#
# Indices 1 2 3 4 5 6 
#
# 1 80.9223 38.8377 29.7596 0.0000 0.0000 0.0000
# 2 38.8377 96.0857 61.6006 0.0000 0.0000 0.0000
# 3 29.7596 61.6006 123.6577 0.0000 0.0000 0.0000
# 4 0.0000 0.0000 0.0000 63.9454 0.0000 0.0000
# 5 0.0000 0.0000 0.0000 0.0000 34.9406 0.0000
# 6 0.0000 0.0000 0.0000 0.0000 0.0000 20.0304
#
#
#
# Elastic Compliance Matrix: (Units=1/GPa)
#
#
# Indices 1 2 3 4 5 6 
#
# 1 0.015398 -0.005654 -0.000889 0.000000 0.000000 0.000000
# 2 -0.005654 0.017367 -0.007291 0.000000 0.000000 0.000000
# 3 -0.000889 -0.007291 0.011933 0.000000 0.000000 0.000000
# 4 0.000000 0.000000 0.000000 0.015638 0.000000 0.000000
# 5 0.000000 0.000000 0.000000 0.000000 0.028620 0.000000
# 6 0.000000 0.000000 0.000000 0.000000 0.000000 0.049924
#
#
# Mechanical properties :
#
#
# Convention : Reuss Voigt Hill
#
# Bulk Modulus (GPa) = 58.71962 62.34017 60.52990
# Shear Modulus (GPa) = 29.03199 35.14778 32.08989
#
# Velocity S-wave (km/s) = 3.68046 4.04960 3.86943
# Velocity P-wave (km/s) = 6.74229 7.13809 6.94301
#
# Compressibility (1/GPa) = 0.01703008
#
# Stress axis : x y z
#
# Youngs Moduli (GPa) = 64.94339 57.58171 83.80331
#
# Poissons Ratio (x) = 0.32555 0.07452
# Poissons Ratio (y) = 0.36717 0.61098
# Poissons Ratio (z) = 0.05775 0.41981
#
# Static dielectric constant tensor:
#      x y z
#    x 3.881380 0.000000 0.000000 
#    y 0.000000 3.861500 0.000000 
#    z 0.000000 0.000000 3.979080 
# 
# 
# High freq. dielectric constant tensor:
#      x y z
#    x 1.851030 0.000000 0.000000 
#    y 0.000000 1.834620 0.000000 
#    z 0.000000 0.000000 1.854620 
# 
# From -- ./inp_files/9751.got.cif
#   From: 2010.06.25/outbox.cif.g09.slc.cpg/sg43_5_cif.got.tgz:9751.got - 2010.06.26 16:48:59.
