data_PCOD8187535
_publ_section_title
;
Structure prediction by ZEFSAII (Michael W. Deem and Ramdas Pophale) SiO2 
 PCOD8187535
Probable space group: F D D 2
;
_chemical_formula_sum "Si O2"
_cell_formula_units_Z 80
_cell_length_a 16.006748
_cell_length_b 20.293026
_cell_length_c 12.003656
_cell_angle_alpha 90.000000
_cell_angle_beta 90.000000
_cell_angle_gamma 90.000000
_cell_volume 3899.091802
_symmetry_space_group_name_H-M "F D D 2"
_symmetry_group_IT_number 43
_symmetry_cell_setting 'orthorhombic'
loop_
_space_group_symop_operation_xyz
x,y,z
-x,-y,z
1/4-x,1/4+y,1/4+z
1/4+x,1/4-y,1/4+z
x,1/2+y,1/2+z
-x,1/2-y,1/2+z
1/4-x,3/4+y,3/4+z
1/4+x,3/4-y,3/4+z
1/2+x,y,1/2+z
1/2-x,-y,1/2+z
3/4-x,1/4+y,3/4+z
3/4+x,1/4-y,3/4+z
1/2+x,1/2+y,z
1/2-x,1/2-y,z
3/4-x,3/4+y,1/4+z
3/4+x,3/4-y,1/4+z
loop_
_atom_site_type_symbol
_atom_site_label
_atom_site_fract_x
_atom_site_fract_y
_atom_site_fract_z
Si Si1 0.937661 0.177749 0.808720
Si Si2 0.578145 0.651207 0.643493
Si Si3 0.391273 0.314388 0.405768
Si Si4 0.750317 0.174681 0.217540
Si Si5 0.746724 0.824048 0.237013
O O1 0.936506 0.250067 0.860029
O O2 0.847124 0.154906 0.766369
O O3 0.968125 0.123515 0.895851
O O4 0.001813 0.185211 0.706787
O O5 0.613257 0.695524 0.540020
O O6 0.656859 0.643642 0.725858
O O7 0.543494 0.582435 0.590258
O O8 0.447838 0.379491 0.379573
O O9 0.300895 0.325399 0.350787
O O10 0.750000 0.250000 0.179457
O O11 0.750000 0.750000 0.186757
#
# Coordination Sequence:
#
# PCOD8187535 Si02
#       5
#    16  16  16  16  16
#     4  11  23  44  68  97 134 175 219 283 331 402
#     4  10  24  41  66  97 128 175 223 266 340 391
#     4   9  25  40  67  96 133 172 224 265 340 399
#     4  10  24  41  68  95 133 171 223 275 329 400
#     4  10  24  42  65  98 132 173 222 275 337 398
#
# _framework density 20.517598
#
# number of rings (size 3 to 8) (size 9 to 14) (size 15 to 20)
#    1.200    0.800    0.000    1.200    8.400    4.800 
#    0.000    0.000    0.000    0.000    0.000    0.000 
#    0.000    0.000    0.000    0.000    0.000    0.000 
#
# Total GULP energy -247805.546322 kJ/mol
# GULP energy per Si atom -12390.277316 kJ/mol
# Density = 2.047090 g / cm^3
# Si number density = 20.517598 Si / 1000 Ang^3
#
#
#
# Elastic Constant Matrix: (Units=GPa)
#
#
# Indices 1 2 3 4 5 6 
#
# 1 168.8180 51.6164 47.4933 0.0000 0.0000 0.0000
# 2 51.6164 122.3440 30.0181 0.0000 0.0000 0.0000
# 3 47.4933 30.0181 86.2363 0.0000 0.0000 0.0000
# 4 0.0000 0.0000 0.0000 22.9270 0.0000 0.0000
# 5 0.0000 0.0000 0.0000 0.0000 35.7985 0.0000
# 6 0.0000 0.0000 0.0000 0.0000 0.0000 29.0260
#
#
#
# Elastic Compliance Matrix: (Units=1/GPa)
#
#
# Indices 1 2 3 4 5 6 
#
# 1 0.007595 -0.002381 -0.003354 0.000000 0.000000 0.000000
# 2 -0.002381 0.009684 -0.002059 0.000000 0.000000 0.000000
# 3 -0.003354 -0.002059 0.014160 0.000000 0.000000 0.000000
# 4 0.000000 0.000000 0.000000 0.043617 0.000000 0.000000
# 5 0.000000 0.000000 0.000000 0.000000 0.027934 0.000000
# 6 0.000000 0.000000 0.000000 0.000000 0.000000 0.034452
#
#
# Mechanical properties :
#
#
# Convention : Reuss Voigt Hill
#
# Bulk Modulus (GPa) = 63.09345 70.62820 66.86083
# Shear Modulus (GPa) = 31.58276 34.10167 32.84222
#
# Velocity S-wave (km/s) = 3.92765 4.08127 4.00520
# Velocity P-wave (km/s) = 7.16842 7.53040 7.35164
#
# Compressibility (1/GPa) = 0.01584951
#
# Stress axis : x y z
#
# Youngs Moduli (GPa) = 131.66122 103.26675 70.62148
#
# Poissons Ratio (x) = 0.24593 0.23686
# Poissons Ratio (y) = 0.31355 0.14543
# Poissons Ratio (z) = 0.44159 0.21265
#
# Static dielectric constant tensor:
#      x y z
#    x 3.923040 0.000000 0.000000 
#    y 0.000000 3.535460 0.000000 
#    z 0.000000 0.000000 3.572230 
# 
# 
# High freq. dielectric constant tensor:
#      x y z
#    x 1.821750 0.000000 0.000000 
#    y 0.000000 1.790540 0.000000 
#    z 0.000000 0.000000 1.790560 
# 
# From -- ./inp_files/10009.got.cif
#   From: 2010.06.25/outbox.cif.g09.slc.cpg/sg43_6_cif.got.tgz:10009.got - 2010.06.26 16:48:59.
