data_PCOD8187995
_publ_section_title
;
Structure prediction by ZEFSAII (Michael W. Deem and Ramdas Pophale) SiO2 
 PCOD8187995
Probable space group: I M M 2
;
_chemical_formula_sum "Si O2"
_cell_formula_units_Z 64
_cell_length_a 9.039453
_cell_length_b 18.694902
_cell_length_c 26.287137
_cell_angle_alpha 90.000000
_cell_angle_beta 90.000000
_cell_angle_gamma 90.000000
_cell_volume 4442.307653
_symmetry_space_group_name_H-M "I M M 2"
_symmetry_group_IT_number 44
_symmetry_cell_setting 'orthorhombic'
loop_
_space_group_symop_operation_xyz
x,y,z
-x,-y,z
-x,y,z
x,-y,z
1/2+x,1/2+y,1/2+z
1/2-x,1/2-y,1/2+z
1/2-x,1/2+y,1/2+z
1/2+x,1/2-y,1/2+z
loop_
_atom_site_type_symbol
_atom_site_label
_atom_site_fract_x
_atom_site_fract_y
_atom_site_fract_z
Si Si1 0.323238 0.919322 0.873840
Si Si2 0.177327 0.155412 0.263697
Si Si3 0.670144 0.418261 0.567656
Si Si4 0.673073 0.917565 0.170247
Si Si5 0.663596 0.286531 0.921889
Si Si6 0.176300 0.079474 0.365123
Si Si7 0.826915 0.840763 0.964590
Si Si8 0.338132 0.208279 0.814710
O O1 0.500000 0.911118 0.878608
O O2 0.253962 0.895537 0.927041
O O3 0.261040 0.868349 0.827586
O O4 0.275331 0.000000 0.861366
O O5 0.245159 0.131054 0.211040
O O6 0.232025 0.103551 0.309181
O O7 0.239001 0.236593 0.275293
O O8 0.000000 0.155542 0.260418
O O9 0.500000 0.409825 0.584086
O O10 0.703690 0.500000 0.551439
O O11 0.771444 0.394514 0.614694
O O12 0.710025 0.366256 0.521319
O O13 0.500000 0.903587 0.173811
O O14 0.714121 0.000000 0.180691
O O15 0.500000 0.291674 0.947053
O O16 0.729944 0.365952 0.909775
O O17 0.770288 0.240968 0.958650
O O18 0.648204 0.248266 0.868129
O O19 0.000000 0.080410 0.364788
O O20 0.238461 0.000000 0.376543
O O21 0.000000 0.843440 0.952816
O O22 0.500000 0.191584 0.792496
#
# Coordination Sequence:
#
# PCOD8187995 Si02
#       8
#     8   8   8   8   8   8   8   8
#     4   9  16  26  41  59  79 104 132 160 190 225
#     4   9  15  25  42  57  73 102 134 159 185 220
#     4   9  18  31  43  54  71  98 131 162 190 224
#     4  10  20  30  39  55  78  99 123 160 198 227
#     4   8  14  25  39  55  77 103 131 161 190 224
#     4   8  13  22  39  61  80 102 135 167 189 217
#     4  10  18  27  40  57  78 103 131 162 194 228
#     4   7  12  23  37  55  76  98 127 157 182 215
#
# _framework density 14.406927
#
# number of rings (size 3 to 8) (size 9 to 14) (size 15 to 20)
#    0.000    3.250    0.000    3.750    0.000    3.000 
#    0.000    6.875    0.000    1.125    0.000    0.000 
#    0.000    1.000    0.000    4.250    0.000    2.625 
#
# Total GULP energy -396432.891621 kJ/mol
# GULP energy per Si atom -12388.527863 kJ/mol
# Density = 1.437414 g / cm^3
# Si number density = 14.406927 Si / 1000 Ang^3
#
#
#
# Elastic Constant Matrix: (Units=GPa)
#
#
# Indices 1 2 3 4 5 6 
#
# 1 35.4743 29.2599 28.5310 0.0000 0.0000 0.0000
# 2 29.2599 127.6995 57.6861 0.0000 0.0000 0.0000
# 3 28.5310 57.6861 74.0698 0.0000 0.0000 0.0000
# 4 0.0000 0.0000 0.0000 24.7800 0.0000 0.0000
# 5 0.0000 0.0000 0.0000 0.0000 18.4387 0.0000
# 6 0.0000 0.0000 0.0000 0.0000 0.0000 15.0586
#
#
#
# Elastic Compliance Matrix: (Units=1/GPa)
#
#
# Indices 1 2 3 4 5 6 
#
# 1 0.041866 -0.003561 -0.013353 0.000000 0.000000 0.000000
# 2 -0.003561 0.012384 -0.008273 0.000000 0.000000 0.000000
# 3 -0.013353 -0.008273 0.025088 0.000000 0.000000 0.000000
# 4 0.000000 0.000000 0.000000 0.040355 0.000000 0.000000
# 5 0.000000 0.000000 0.000000 0.000000 0.054234 0.000000
# 6 0.000000 0.000000 0.000000 0.000000 0.000000 0.066407
#
#
# Mechanical properties :
#
#
# Convention : Reuss Voigt Hill
#
# Bulk Modulus (GPa) = 34.52658 52.02195 43.27427
# Shear Modulus (GPa) = 16.64656 19.77325 18.20990
#
# Velocity S-wave (km/s) = 3.40289 3.70872 3.55909
# Velocity P-wave (km/s) = 6.28147 7.38423 6.85506
#
# Compressibility (1/GPa) = 0.02896319
#
# Stress axis : x y z
#
# Youngs Moduli (GPa) = 23.88576 80.74905 39.86030
#
# Poissons Ratio (x) = 0.28752 0.53227
# Poissons Ratio (y) = 0.08505 0.32977
# Poissons Ratio (z) = 0.31895 0.66806
#
# Static dielectric constant tensor:
#      x y z
#    x 2.631260 0.000000 0.000000 
#    y 0.000000 3.284500 0.000000 
#    z 0.000000 0.000000 2.604040 
# 
# 
# High freq. dielectric constant tensor:
#      x y z
#    x 1.531130 0.000000 0.000000 
#    y 0.000000 1.549430 0.000000 
#    z 0.000000 0.000000 1.515920 
# 
# From -- ./inp_files/25264.got.cif
#   From: 2010.03.12/outbox.cif.g09.slc.cpg/sg44_13_cif.got.tgz:25264.got - 2010.04.14 02:36:11.
