data_PCOD8187834
_publ_section_title
;
Structure prediction by ZEFSAII (Michael W. Deem and Ramdas Pophale) SiO2 
 PCOD8187834
Probable space group: F D D 2
;
_chemical_formula_sum "Si O2"
_cell_formula_units_Z 112
_cell_length_a 13.917031
_cell_length_b 24.289074
_cell_length_c 14.847622
_cell_angle_alpha 90.000000
_cell_angle_beta 90.000000
_cell_angle_gamma 90.000000
_cell_volume 5018.968328
_symmetry_space_group_name_H-M "F D D 2"
_symmetry_group_IT_number 43
_symmetry_cell_setting 'orthorhombic'
loop_
_space_group_symop_operation_xyz
x,y,z
-x,-y,z
1/4-x,1/4+y,1/4+z
1/4+x,1/4-y,1/4+z
x,1/2+y,1/2+z
-x,1/2-y,1/2+z
1/4-x,3/4+y,3/4+z
1/4+x,3/4-y,3/4+z
1/2+x,y,1/2+z
1/2-x,-y,1/2+z
3/4-x,1/4+y,3/4+z
3/4+x,1/4-y,3/4+z
1/2+x,1/2+y,z
1/2-x,1/2-y,z
3/4-x,3/4+y,1/4+z
3/4+x,3/4-y,1/4+z
loop_
_atom_site_type_symbol
_atom_site_label
_atom_site_fract_x
_atom_site_fract_y
_atom_site_fract_z
Si Si1 0.713115 0.811713 0.591100
Si Si2 0.703131 0.524175 0.454915
Si Si3 0.664127 0.609468 0.709873
Si Si4 0.884820 0.505449 0.140837
Si Si5 0.518609 0.337363 0.650320
Si Si6 0.409367 0.365399 0.185500
Si Si7 0.694302 0.382958 0.728557
O O1 0.750000 0.750000 0.589192
O O2 0.618055 0.814995 0.651929
O O3 0.790573 0.853246 0.632073
O O4 0.691936 0.830160 0.489226
O O5 0.648482 0.494613 0.537179
O O6 0.735240 0.475447 0.387481
O O7 0.795329 0.561021 0.484006
O O8 0.668832 0.545135 0.688282
O O9 0.552883 0.627345 0.713163
O O10 0.718753 0.618582 0.804380
O O11 0.846017 0.559725 0.189523
O O12 0.000000 0.500000 0.146851
O O13 0.620271 0.335124 0.701275
O O14 0.294439 0.364381 0.184715
O O15 0.452721 0.365536 0.085729
#
# Coordination Sequence:
#
# PCOD8187834 Si02
#       7
#    16  16  16  16  16  16  16
#     4  12  26  47  80 107 146 188 252 323 380 449
#     4  12  25  49  74 112 148 196 254 315 381 450
#     4  12  25  45  76 113 142 186 250 318 397 438
#     4  12  25  45  80 111 147 193 254 326 381 440
#     4  12  26  46  74 110 147 193 249 313 382 454
#     4  12  27  51  69 104 156 202 249 303 380 468
#     4  12  27  49  71 107 156 203 249 309 380 460
#
# _framework density 22.315342999999999
#
# number of rings (size 3 to 8) (size 9 to 14) (size 15 to 20)
#    0.000    0.000    5.714    4.714    0.000    0.571 
#    5.143    0.000    0.000    0.000    0.000    0.000 
#    0.000    0.000    0.000    0.000    0.000    0.000 
#
# Total GULP energy -347291.211357 kJ/mol
# GULP energy per Si atom -12403.257548 kJ/mol
# Density = 2.226455 g / cm^3
# Si number density = 22.315343 Si / 1000 Ang^3
#
#
#
# Elastic Constant Matrix: (Units=GPa)
#
#
# Indices 1 2 3 4 5 6 
#
# 1 130.1370 49.0162 29.7265 0.0000 0.0000 0.0000
# 2 49.0162 96.0866 35.0286 0.0000 0.0000 0.0000
# 3 29.7265 35.0286 115.3328 0.0000 0.0000 0.0000
# 4 0.0000 0.0000 0.0000 43.7410 0.0000 0.0000
# 5 0.0000 0.0000 0.0000 0.0000 35.5675 0.0000
# 6 0.0000 0.0000 0.0000 0.0000 0.0000 40.5958
#
#
#
# Elastic Compliance Matrix: (Units=1/GPa)
#
#
# Indices 1 2 3 4 5 6 
#
# 1 0.009637 -0.004510 -0.001114 0.000000 0.000000 0.000000
# 2 -0.004510 0.013814 -0.003033 0.000000 0.000000 0.000000
# 3 -0.001114 -0.003033 0.009879 0.000000 0.000000 0.000000
# 4 0.000000 0.000000 0.000000 0.022862 0.000000 0.000000
# 5 0.000000 0.000000 0.000000 0.000000 0.028116 0.000000
# 6 0.000000 0.000000 0.000000 0.000000 0.000000 0.024633
#
#
# Mechanical properties :
#
#
# Convention : Reuss Voigt Hill
#
# Bulk Modulus (GPa) = 62.43985 63.23322 62.83654
# Shear Modulus (GPa) = 37.99573 39.16652 38.58113
#
# Velocity S-wave (km/s) = 4.13082 4.19398 4.16252
# Velocity P-wave (km/s) = 7.12692 7.20072 7.16392
#
# Compressibility (1/GPa) = 0.01601541
#
# Stress axis : x y z
#
# Youngs Moduli (GPa) = 103.76170 72.39195 101.22568
#
# Poissons Ratio (x) = 0.32650 0.11279
# Poissons Ratio (y) = 0.46798 0.30702
# Poissons Ratio (z) = 0.11561 0.21956
#
# Static dielectric constant tensor:
#      x y z
#    x 4.292930 0.000000 0.000000 
#    y 0.000000 4.096500 0.000000 
#    z 0.000000 0.000000 3.978700 
# 
# 
# High freq. dielectric constant tensor:
#      x y z
#    x 1.893710 0.000000 0.000000 
#    y 0.000000 1.884800 0.000000 
#    z 0.000000 0.000000 1.877140 
# 
# From -- ./inp_files/10185.got.cif
#   From: 2010.06.25/outbox.cif.g09.slc.cpg/sg43_6_cif.got.tgz:10185.got - 2010.06.26 16:48:59.
