data_PCOD8187966
_publ_section_title
;
Structure prediction by ZEFSAII (Michael W. Deem and Ramdas Pophale) SiO2 
 PCOD8187966
Probable space group: I M M 2
;
_chemical_formula_sum "Si O2"
_cell_formula_units_Z 64
_cell_length_a 8.854030
_cell_length_b 15.486280
_cell_length_c 24.007972
_cell_angle_alpha 90.000000
_cell_angle_beta 90.000000
_cell_angle_gamma 90.000000
_cell_volume 3291.876794
_symmetry_space_group_name_H-M "I M M 2"
_symmetry_group_IT_number 44
_symmetry_cell_setting 'orthorhombic'
loop_
_space_group_symop_operation_xyz
x,y,z
-x,-y,z
-x,y,z
x,-y,z
1/2+x,1/2+y,1/2+z
1/2-x,1/2-y,1/2+z
1/2-x,1/2+y,1/2+z
1/2+x,1/2-y,1/2+z
loop_
_atom_site_type_symbol
_atom_site_label
_atom_site_fract_x
_atom_site_fract_y
_atom_site_fract_z
Si Si1 0.826490 0.097738 0.334810
Si Si2 0.827370 0.163782 0.455012
Si Si3 0.321119 0.249159 0.643356
Si Si4 0.320392 0.594980 0.568521
Si Si5 0.674785 0.402076 0.075582
Si Si6 0.821441 0.255463 0.763549
Si Si7 0.679552 0.595117 0.334412
Si Si8 0.178009 0.156069 0.951525
O O1 0.797722 0.105171 0.400938
O O2 0.720713 0.161780 0.300359
O O3 0.000000 0.119563 0.320482
O O4 0.786977 0.000000 0.317026
O O5 0.788934 0.109489 0.510241
O O6 0.715576 0.243635 0.452279
O O7 0.000000 0.196765 0.456458
O O8 0.500000 0.250993 0.646867
O O9 0.256401 0.330954 0.608877
O O10 0.272527 0.160783 0.613931
O O11 0.255017 0.259258 0.704174
O O12 0.500000 0.600926 0.567195
O O13 0.267939 0.500000 0.589236
O O14 0.254888 0.610201 0.506422
O O15 0.500000 0.382825 0.087923
O O16 0.716513 0.500000 0.092021
O O17 0.759064 0.168413 0.792945
O O18 0.000000 0.252889 0.756214
O O19 0.500000 0.600550 0.336568
O O20 0.732520 0.500000 0.314127
O O21 0.746325 0.611913 0.396205
O O22 0.000000 0.145425 0.951086
#
# Coordination Sequence:
#
# PCOD8187966 Si02
#       8
#     8   8   8   8   8   8   8   8
#     4  10  21  38  60  85 115 153 193 233 284 346
#     4  10  19  33  57  86 118 150 183 229 287 346
#     4  11  23  39  59  83 113 149 194 242 288 337
#     4   9  18  33  56  84 111 142 181 226 277 336
#     4  10  21  38  60  85 115 153 193 233 284 346
#     4  11  23  39  59  83 113 149 194 242 288 337
#     4   9  18  33  56  84 111 142 181 226 277 336
#     4  10  17  31  57  86 112 140 179 227 281 342
#
# _framework density 19.441797999999999
#
# number of rings (size 3 to 8) (size 9 to 14) (size 15 to 20)
#    0.000    2.000    2.500    1.500    0.000    4.500 
#    0.000    2.500    0.000    9.000    0.000    0.000 
#    0.000    0.000    0.000    0.000    0.000    0.000 
#
# Total GULP energy -396774.668184 kJ/mol
# GULP energy per Si atom -12399.208381 kJ/mol
# Density = 1.939755 g / cm^3
# Si number density = 19.441798 Si / 1000 Ang^3
#
#
#
# Elastic Constant Matrix: (Units=GPa)
#
#
# Indices 1 2 3 4 5 6 
#
# 1 29.2357 14.5565 11.8460 0.0000 0.0000 0.0000
# 2 14.5565 129.9905 26.0577 0.0000 0.0000 0.0000
# 3 11.8460 26.0577 76.6006 0.0000 0.0000 0.0000
# 4 0.0000 0.0000 0.0000 14.6132 0.0000 0.0000
# 5 0.0000 0.0000 0.0000 0.0000 28.2288 0.0000
# 6 0.0000 0.0000 0.0000 0.0000 0.0000 26.6148
#
#
#
# Elastic Compliance Matrix: (Units=1/GPa)
#
#
# Indices 1 2 3 4 5 6 
#
# 1 0.037752 -0.003281 -0.004722 0.000000 0.000000 0.000000
# 2 -0.003281 0.008541 -0.002398 0.000000 0.000000 0.000000
# 3 -0.004722 -0.002398 0.014601 0.000000 0.000000 0.000000
# 4 0.000000 0.000000 0.000000 0.068431 0.000000 0.000000
# 5 0.000000 0.000000 0.000000 0.000000 0.035425 0.000000
# 6 0.000000 0.000000 0.000000 0.000000 0.000000 0.037573
#
#
# Mechanical properties :
#
#
# Convention : Reuss Voigt Hill
#
# Bulk Modulus (GPa) = 24.94305 37.86081 31.40193
# Shear Modulus (GPa) = 21.14269 26.11580 23.62925
#
# Velocity S-wave (km/s) = 3.30128 3.66906 3.49002
# Velocity P-wave (km/s) = 5.23343 6.12091 5.69448
#
# Compressibility (1/GPa) = 0.04009133
#
# Stress axis : x y z
#
# Youngs Moduli (GPa) = 26.48889 117.08256 68.48972
#
# Poissons Ratio (x) = 0.38414 0.32341
# Poissons Ratio (y) = 0.08691 0.16424
# Poissons Ratio (z) = 0.12508 0.28077
#
# Static dielectric constant tensor:
#      x y z
#    x 3.253780 0.000000 0.000000 
#    y 0.000000 3.772080 0.000000 
#    z 0.000000 0.000000 3.717150 
# 
# 
# High freq. dielectric constant tensor:
#      x y z
#    x 1.723250 0.000000 0.000000 
#    y 0.000000 1.768560 0.000000 
#    z 0.000000 0.000000 1.762630 
# 
# From -- ./inp_files/25125.got.cif
#   From: 2010.03.12/outbox.cif.g09.slc.cpg/sg44_13_cif.got.tgz:25125.got - 2010.04.14 02:36:11.
