data_PCOD8187216
_publ_section_title
;
Structure prediction by ZEFSAII (Michael W. Deem and Ramdas Pophale) SiO2 
 PCOD8187216
Probable space group: F D D 2
;
_chemical_formula_sum "Si O2"
_cell_formula_units_Z 112
_cell_length_a 25.236389
_cell_length_b 14.161313
_cell_length_c 14.374096
_cell_angle_alpha 90.000000
_cell_angle_beta 90.000000
_cell_angle_gamma 90.000000
_cell_volume 5137.020230
_symmetry_space_group_name_H-M "F D D 2"
_symmetry_group_IT_number 43
_symmetry_cell_setting 'orthorhombic'
loop_
_space_group_symop_operation_xyz
x,y,z
-x,-y,z
1/4-x,1/4+y,1/4+z
1/4+x,1/4-y,1/4+z
x,1/2+y,1/2+z
-x,1/2-y,1/2+z
1/4-x,3/4+y,3/4+z
1/4+x,3/4-y,3/4+z
1/2+x,y,1/2+z
1/2-x,-y,1/2+z
3/4-x,1/4+y,3/4+z
3/4+x,1/4-y,3/4+z
1/2+x,1/2+y,z
1/2-x,1/2-y,z
3/4-x,3/4+y,1/4+z
3/4+x,3/4-y,1/4+z
loop_
_atom_site_type_symbol
_atom_site_label
_atom_site_fract_x
_atom_site_fract_y
_atom_site_fract_z
Si Si1 0.983158 0.371784 0.225400
Si Si2 0.501866 0.331361 0.270292
Si Si3 0.250000 0.750000 0.735051
Si Si4 0.319702 0.129956 0.359970
Si Si5 0.250000 0.750000 0.306744
Si Si6 0.570846 0.580726 0.415650
Si Si7 0.824019 0.786991 0.071895
Si Si8 0.152869 0.216472 0.492645
O O1 0.965377 0.265556 0.251883
O O2 0.993994 0.403890 0.118339
O O3 0.040319 0.381030 0.273680
O O4 0.937727 0.438713 0.268752
O O5 0.454509 0.324455 0.196452
O O6 0.475482 0.351794 0.371430
O O7 0.539638 0.419136 0.249529
O O8 0.271251 0.659854 0.792834
O O9 0.198294 0.718313 0.676807
O O10 0.363772 0.061440 0.313859
O O11 0.349137 0.223092 0.397988
O O12 0.200644 0.749375 0.235100
O O13 0.605190 0.530823 0.334535
O O14 0.606426 0.642038 0.484968
#
# Coordination Sequence:
#
# PCOD8187216 Si02
#       8
#    16  16   8  16   8  16  16  16
#     4   9  22  45  65  92 141 176 224 278 339 419
#     4  11  22  43  64  97 138 171 223 287 339 408
#     4  10  21  39  62 104 128 162 240 275 329 406
#     4  11  21  39  69  97 131 175 222 286 343 396
#     4  10  21  47  66  88 134 184 222 267 347 408
#     4  11  23  44  69  97 134 180 224 285 342 418
#     4   9  22  42  65  94 132 180 218 280 334 412
#     4  11  24  39  66 101 136 170 230 280 349 407
#
# _framework density 21.802522
#
# number of rings (size 3 to 8) (size 9 to 14) (size 15 to 20)
#    0.000    2.000    2.857    1.714    8.000    0.000 
#    7.714    1.429    0.000    0.000    0.000    0.000 
#    0.000    0.000    0.000    0.000    0.000    0.000 
#
# Total GULP energy -346916.592481 kJ/mol
# GULP energy per Si atom -12389.878303 kJ/mol
# Density = 2.175290 g / cm^3
# Si number density = 21.802522 Si / 1000 Ang^3
#
#
#
# Elastic Constant Matrix: (Units=GPa)
#
#
# Indices 1 2 3 4 5 6 
#
# 1 91.5948 38.0862 30.1487 0.0000 0.0000 0.0000
# 2 38.0862 100.4947 38.0162 0.0000 0.0000 0.0000
# 3 30.1487 38.0162 115.0886 0.0000 0.0000 0.0000
# 4 0.0000 0.0000 0.0000 18.0648 0.0000 0.0000
# 5 0.0000 0.0000 0.0000 0.0000 26.1286 0.0000
# 6 0.0000 0.0000 0.0000 0.0000 0.0000 39.8636
#
#
#
# Elastic Compliance Matrix: (Units=1/GPa)
#
#
# Indices 1 2 3 4 5 6 
#
# 1 0.013387 -0.004282 -0.002092 0.000000 0.000000 0.000000
# 2 -0.004282 0.012741 -0.003087 0.000000 0.000000 0.000000
# 3 -0.002092 -0.003087 0.010257 0.000000 0.000000 0.000000
# 4 0.000000 0.000000 0.000000 0.055356 0.000000 0.000000
# 5 0.000000 0.000000 0.000000 0.000000 0.038272 0.000000
# 6 0.000000 0.000000 0.000000 0.000000 0.000000 0.025086
#
#
# Mechanical properties :
#
#
# Convention : Reuss Voigt Hill
#
# Bulk Modulus (GPa) = 57.26633 57.74223 57.50428
# Shear Modulus (GPa) = 27.80211 30.20653 29.00432
#
# Velocity S-wave (km/s) = 3.57484 3.72622 3.65131
# Velocity P-wave (km/s) = 6.58500 6.71227 6.64894
#
# Compressibility (1/GPa) = 0.01746227
#
# Stress axis : x y z
#
# Youngs Moduli (GPa) = 74.70019 78.48453 97.49620
#
# Poissons Ratio (x) = 0.33606 0.20400
# Poissons Ratio (y) = 0.31986 0.30098
# Poissons Ratio (z) = 0.15630 0.24229
#
# Static dielectric constant tensor:
#      x y z
#    x 3.676580 0.000000 0.000000 
#    y 0.000000 3.903320 0.000000 
#    z 0.000000 0.000000 4.077050 
# 
# 
# High freq. dielectric constant tensor:
#      x y z
#    x 1.841650 0.000000 0.000000 
#    y 0.000000 1.846400 0.000000 
#    z 0.000000 0.000000 1.861850 
# 
# From -- ./inp_files/11291.got.cif
#   From: 2010.06.25/outbox.cif.g09.slc.cpg/sg43_6_cif.got.tgz:11291.got - 2010.06.26 16:48:59.
