data_PCOD8187594
_publ_section_title
;
Structure prediction by ZEFSAII (Michael W. Deem and Ramdas Pophale) SiO2 
 PCOD8187594
Probable space group: F D D 2
;
_chemical_formula_sum "Si O2"
_cell_formula_units_Z 112
_cell_length_a 13.294447
_cell_length_b 13.025346
_cell_length_c 28.532213
_cell_angle_alpha 90.000000
_cell_angle_beta 90.000000
_cell_angle_gamma 90.000000
_cell_volume 4940.774160
_symmetry_space_group_name_H-M "F D D 2"
_symmetry_group_IT_number 43
_symmetry_cell_setting 'orthorhombic'
loop_
_space_group_symop_operation_xyz
x,y,z
-x,-y,z
1/4-x,1/4+y,1/4+z
1/4+x,1/4-y,1/4+z
x,1/2+y,1/2+z
-x,1/2-y,1/2+z
1/4-x,3/4+y,3/4+z
1/4+x,3/4-y,3/4+z
1/2+x,y,1/2+z
1/2-x,-y,1/2+z
3/4-x,1/4+y,3/4+z
3/4+x,1/4-y,3/4+z
1/2+x,1/2+y,z
1/2-x,1/2-y,z
3/4-x,3/4+y,1/4+z
3/4+x,3/4-y,1/4+z
loop_
_atom_site_type_symbol
_atom_site_label
_atom_site_fract_x
_atom_site_fract_y
_atom_site_fract_z
Si Si1 0.452741 0.609932 0.206710
Si Si2 0.969967 0.764076 0.292599
Si Si3 0.166276 0.167195 0.819405
Si Si4 0.641525 0.287815 0.069368
Si Si5 0.679420 0.663996 0.978154
Si Si6 0.247104 0.462685 0.893423
Si Si7 0.247553 0.953823 0.239008
O O1 0.500000 0.500000 0.203257
O O2 0.471937 0.663786 0.256035
O O3 0.509239 0.675183 0.166256
O O4 0.330150 0.598976 0.202148
O O5 0.055726 0.714018 0.325079
O O6 0.896878 0.836708 0.324135
O O7 0.907078 0.675802 0.265702
O O8 0.250000 0.250000 0.835782
O O9 0.171012 0.067564 0.853858
O O10 0.186509 0.133250 0.765595
O O11 0.750000 0.250000 0.054280
O O12 0.609722 0.224914 0.116146
O O13 0.566613 0.266162 0.026931
O O14 0.750000 0.750000 0.002408
O O15 0.744633 0.623496 0.933739
O O16 0.572743 0.715348 0.963420
#
# Coordination Sequence:
#
# PCOD8187594 Si02
#       7
#    16  16  16  16  16  16  16
#     4  11  21  44  67 100 131 178 234 287 333 413
#     4  11  20  39  71  93 129 175 236 279 331 404
#     4  11  20  39  67 100 131 174 224 290 330 405
#     4  11  21  44  70 104 125 176 241 289 335 407
#     4  11  24  41  60 103 139 175 222 283 342 412
#     4  10  26  40  62  99 148 171 217 286 357 395
#     4  11  21  39  71  94 132 179 233 275 336 402
#
# _framework density 22.668513000000001
#
# number of rings (size 3 to 8) (size 9 to 14) (size 15 to 20)
#    0.000    1.143    5.714    1.286    0.000    2.857 
#    5.143    0.000    6.286    0.000    0.000    0.000 
#    0.000    0.000    0.000    0.000    0.000    0.000 
#
# Total GULP energy -346880.896413 kJ/mol
# GULP energy per Si atom -12388.603443 kJ/mol
# Density = 2.261692 g / cm^3
# Si number density = 22.668513 Si / 1000 Ang^3
#
#
#
# Elastic Constant Matrix: (Units=GPa)
#
#
# Indices 1 2 3 4 5 6 
#
# 1 76.9811 43.0392 25.3466 0.0000 0.0000 0.0000
# 2 43.0392 131.6426 43.0973 0.0000 0.0000 0.0000
# 3 25.3466 43.0973 72.2403 0.0000 0.0000 0.0000
# 4 0.0000 0.0000 0.0000 15.6165 0.0000 0.0000
# 5 0.0000 0.0000 0.0000 0.0000 15.9366 0.0000
# 6 0.0000 0.0000 0.0000 0.0000 0.0000 48.8510
#
#
#
# Elastic Compliance Matrix: (Units=1/GPa)
#
#
# Indices 1 2 3 4 5 6 
#
# 1 0.016466 -0.004340 -0.003188 0.000000 0.000000 0.000000
# 2 -0.004340 0.010584 -0.004791 0.000000 0.000000 0.000000
# 3 -0.003188 -0.004791 0.017820 0.000000 0.000000 0.000000
# 4 0.000000 0.000000 0.000000 0.064035 0.000000 0.000000
# 5 0.000000 0.000000 0.000000 0.000000 0.062748 0.000000
# 6 0.000000 0.000000 0.000000 0.000000 0.000000 0.020470
#
#
# Mechanical properties :
#
#
# Convention : Reuss Voigt Hill
#
# Bulk Modulus (GPa) = 49.42962 55.98114 52.70538
# Shear Modulus (GPa) = 22.37073 27.37289 24.87181
#
# Velocity S-wave (km/s) = 3.14485 3.47872 3.31599
# Velocity P-wave (km/s) = 5.91942 6.39410 6.16133
#
# Compressibility (1/GPa) = 0.02023078
#
# Stress axis : x y z
#
# Youngs Moduli (GPa) = 60.73024 94.48439 56.11696
#
# Poissons Ratio (x) = 0.41003 0.17893
# Poissons Ratio (y) = 0.26355 0.26888
# Poissons Ratio (z) = 0.19364 0.45272
#
# Static dielectric constant tensor:
#      x y z
#    x 4.115150 0.000000 0.000000 
#    y 0.000000 4.623570 0.000000 
#    z 0.000000 0.000000 3.984770 
# 
# 
# High freq. dielectric constant tensor:
#      x y z
#    x 1.873430 0.000000 0.000000 
#    y 0.000000 1.912620 0.000000 
#    z 0.000000 0.000000 1.866380 
# 
# From -- ./inp_files/29080.got.cif
#   From: 2010.06.25/outbox.cif.g09.slc.cpg/sg43_15_cif.got.tgz:29080.got - 2010.06.26 16:48:59.
