data_PCOD8187692
_publ_section_title
;
Structure prediction by ZEFSAII (Michael W. Deem and Ramdas Pophale) SiO2 
 PCOD8187692
Probable space group: F D D 2
;
_chemical_formula_sum "Si O2"
_cell_formula_units_Z 120
_cell_length_a 12.955030
_cell_length_b 17.386545
_cell_length_c 24.156515
_cell_angle_alpha 90.000000
_cell_angle_beta 90.000000
_cell_angle_gamma 90.000000
_cell_volume 5441.091031
_symmetry_space_group_name_H-M "F D D 2"
_symmetry_group_IT_number 43
_symmetry_cell_setting 'orthorhombic'
loop_
_space_group_symop_operation_xyz
x,y,z
-x,-y,z
1/4-x,1/4+y,1/4+z
1/4+x,1/4-y,1/4+z
x,1/2+y,1/2+z
-x,1/2-y,1/2+z
1/4-x,3/4+y,3/4+z
1/4+x,3/4-y,3/4+z
1/2+x,y,1/2+z
1/2-x,-y,1/2+z
3/4-x,1/4+y,3/4+z
3/4+x,1/4-y,3/4+z
1/2+x,1/2+y,z
1/2-x,1/2-y,z
3/4-x,3/4+y,1/4+z
3/4+x,3/4-y,1/4+z
loop_
_atom_site_type_symbol
_atom_site_label
_atom_site_fract_x
_atom_site_fract_y
_atom_site_fract_z
Si Si1 0.558550 0.577112 0.074290
Si Si2 0.381907 0.523315 0.213954
Si Si3 0.295669 0.375129 0.170824
Si Si4 0.882539 0.713187 0.203947
Si Si5 0.146243 0.119100 0.565090
Si Si6 0.359443 0.636412 0.112216
Si Si7 0.135003 0.456074 0.920161
Si Si8 0.000000 0.500000 0.012040
O O1 0.500000 0.500000 0.094917
O O2 0.653806 0.601515 0.112811
O O3 0.468336 0.640600 0.079607
O O4 0.605701 0.569254 0.014200
O O5 0.500000 0.500000 0.208253
O O6 0.308652 0.447867 0.211813
O O7 0.362931 0.564104 0.272763
O O8 0.354923 0.578815 0.163566
O O9 0.176103 0.347386 0.162539
O O10 0.347053 0.300959 0.199322
O O11 0.002329 0.717301 0.194014
O O12 0.271336 0.111744 0.567317
O O13 0.112290 0.135559 0.627986
O O14 0.087741 0.041090 0.548623
O O15 0.340075 0.720198 0.137433
O O16 0.060545 0.439209 0.972533
#
# Coordination Sequence:
#
# PCOD8187692 Si02
#       8
#    16  16  16  16  16  16  16   8
#     4  12  23  40  69 107 135 193 237 300 375 425
#     4  12  22  39  70 110 139 186 248 316 362 438
#     4  11  23  42  63 108 145 183 243 295 371 448
#     4  11  27  41  71 100 153 191 230 307 377 437
#     4  12  28  42  75 101 141 201 244 312 381 425
#     4  12  23  44  71 106 145 184 253 313 363 451
#     4  12  24  50  69 105 142 189 250 307 365 453
#     4  12  28  50  74 106 148 188 250 312 372 452
#
# _framework density 22.054400999999999
#
# number of rings (size 3 to 8) (size 9 to 14) (size 15 to 20)
#    0.000    0.267    8.000    0.800    5.600    2.133 
#    0.000    0.000    0.000    0.000    0.000    0.000 
#    0.000    0.000    0.000    0.000    0.000    0.000 
#
# Total GULP energy -371830.410284 kJ/mol
# GULP energy per Si atom -12394.347009 kJ/mol
# Density = 2.200420 g / cm^3
# Si number density = 22.054401 Si / 1000 Ang^3
#
#
#
# Elastic Constant Matrix: (Units=GPa)
#
#
# Indices 1 2 3 4 5 6 
#
# 1 106.7511 27.2732 42.0233 0.0000 0.0000 0.0000
# 2 27.2732 64.4746 42.3637 0.0000 0.0000 0.0000
# 3 42.0233 42.3637 126.0619 0.0000 0.0000 0.0000
# 4 0.0000 0.0000 0.0000 16.8766 0.0000 0.0000
# 5 0.0000 0.0000 0.0000 0.0000 44.5185 0.0000
# 6 0.0000 0.0000 0.0000 0.0000 0.0000 36.4481
#
#
#
# Elastic Compliance Matrix: (Units=1/GPa)
#
#
# Indices 1 2 3 4 5 6 
#
# 1 0.011198 -0.002931 -0.002748 0.000000 0.000000 0.000000
# 2 -0.002931 0.020673 -0.005970 0.000000 0.000000 0.000000
# 3 -0.002748 -0.005970 0.010855 0.000000 0.000000 0.000000
# 4 0.000000 0.000000 0.000000 0.059254 0.000000 0.000000
# 5 0.000000 0.000000 0.000000 0.000000 0.022463 0.000000
# 6 0.000000 0.000000 0.000000 0.000000 0.000000 0.027436
#
#
# Mechanical properties :
#
#
# Convention : Reuss Voigt Hill
#
# Bulk Modulus (GPa) = 51.47405 57.84533 54.65969
# Shear Modulus (GPa) = 27.52513 31.94381 29.73447
#
# Velocity S-wave (km/s) = 3.53662 3.80993 3.67581
# Velocity P-wave (km/s) = 6.32986 6.75570 6.54624
#
# Compressibility (1/GPa) = 0.01942727
#
# Stress axis : x y z
#
# Youngs Moduli (GPa) = 89.29981 48.37325 92.12479
#
# Poissons Ratio (x) = 0.14180 0.25315
# Poissons Ratio (y) = 0.26177 0.54998
# Poissons Ratio (z) = 0.24538 0.28878
#
# Static dielectric constant tensor:
#      x y z
#    x 4.450590 0.000000 0.000000 
#    y 0.000000 4.249990 0.000000 
#    z 0.000000 0.000000 4.068460 
# 
# 
# High freq. dielectric constant tensor:
#      x y z
#    x 1.873040 0.000000 0.000000 
#    y 0.000000 1.855490 0.000000 
#    z 0.000000 0.000000 1.873700 
# 
# From -- ./inp_files/21835.got.cif
#   From: 2010.06.25/outbox.cif.g09.slc.cpg/sg43_11_cif.got.tgz:21835.got - 2010.06.26 16:48:59.
