data_PCOD8187735
_publ_section_title
;
Structure prediction by ZEFSAII (Michael W. Deem and Ramdas Pophale) SiO2 
 PCOD8187735
Probable space group: F D D 2
;
_chemical_formula_sum "Si O2"
_cell_formula_units_Z 96
_cell_length_a 9.544779
_cell_length_b 17.993909
_cell_length_c 24.379130
_cell_angle_alpha 90.000000
_cell_angle_beta 90.000000
_cell_angle_gamma 90.000000
_cell_volume 4187.064010
_symmetry_space_group_name_H-M "F D D 2"
_symmetry_group_IT_number 43
_symmetry_cell_setting 'orthorhombic'
loop_
_space_group_symop_operation_xyz
x,y,z
-x,-y,z
1/4-x,1/4+y,1/4+z
1/4+x,1/4-y,1/4+z
x,1/2+y,1/2+z
-x,1/2-y,1/2+z
1/4-x,3/4+y,3/4+z
1/4+x,3/4-y,3/4+z
1/2+x,y,1/2+z
1/2-x,-y,1/2+z
3/4-x,1/4+y,3/4+z
3/4+x,1/4-y,3/4+z
1/2+x,1/2+y,z
1/2-x,1/2-y,z
3/4-x,3/4+y,1/4+z
3/4+x,3/4-y,1/4+z
loop_
_atom_site_type_symbol
_atom_site_label
_atom_site_fract_x
_atom_site_fract_y
_atom_site_fract_z
Si Si1 0.670684 0.128033 0.379120
Si Si2 0.500000 0.000000 0.708585
Si Si3 0.250000 0.750000 0.465312
Si Si4 0.875022 0.408623 0.613845
Si Si5 0.196073 0.980551 0.926771
Si Si6 0.000000 0.000000 0.464618
Si Si7 0.750000 0.250000 0.770386
Si Si8 0.992570 0.337850 0.016387
O O1 0.733107 0.181294 0.424579
O O2 0.538568 0.165561 0.349046
O O3 0.776202 0.098320 0.332082
O O4 0.615503 0.056639 0.412267
O O5 0.396099 0.955817 0.668966
O O6 0.594826 0.943846 0.744253
O O7 0.118393 0.778318 0.502454
O O8 0.922408 0.325984 0.627418
O O9 0.954396 0.432802 0.559488
O O10 0.362336 0.992105 0.927996
O O11 0.127188 0.962333 0.985991
O O12 0.018879 0.922635 0.497332
#
# Coordination Sequence:
#
# PCOD8187735 Si02
#       8
#    16   8   8  16  16   8   8  16
#     4  12  26  45  75 110 144 194 248 305 376 444
#     4  11  24  49  72 108 146 194 247 315 368 452
#     4  12  27  49  76 106 148 193 248 309 366 450
#     4  11  24  45  75 106 143 192 254 298 374 448
#     4  12  25  46  73 106 148 190 247 307 368 450
#     4  12  25  49  72 107 149 190 235 315 374 426
#     4  11  26  45  78 103 141 205 244 305 372 450
#     4  12  27  48  77 107 152 198 247 309 378 441
#
# _framework density 22.927758999999998
#
# number of rings (size 3 to 8) (size 9 to 14) (size 15 to 20)
#    0.000    0.333    6.667    1.500    2.333    2.000 
#    3.000    0.000    0.000    0.000    0.000    0.000 
#    0.000    0.000    0.000    0.000    0.000    0.000 
#
# Total GULP energy -297401.422190 kJ/mol
# GULP energy per Si atom -12391.725925 kJ/mol
# Density = 2.287557 g / cm^3
# Si number density = 22.927759 Si / 1000 Ang^3
#
#
#
# Elastic Constant Matrix: (Units=GPa)
#
#
# Indices 1 2 3 4 5 6 
#
# 1 101.7210 8.3035 28.9831 0.0000 0.0000 0.0000
# 2 8.3035 114.3729 34.0354 0.0000 0.0000 0.0000
# 3 28.9831 34.0354 106.6692 0.0000 0.0000 0.0000
# 4 0.0000 0.0000 0.0000 21.0076 0.0000 0.0000
# 5 0.0000 0.0000 0.0000 0.0000 -15.7816 0.0000
# 6 0.0000 0.0000 0.0000 0.0000 0.0000 36.4200
#
#
#
# Elastic Compliance Matrix: (Units=1/GPa)
#
#
# Indices 1 2 3 4 5 6 
#
# 1 0.010657 0.000097 -0.002927 0.000000 0.000000 0.000000
# 2 0.000097 0.009662 -0.003109 0.000000 0.000000 0.000000
# 3 -0.002927 -0.003109 0.011162 0.000000 0.000000 0.000000
# 4 0.000000 0.000000 0.000000 0.047602 0.000000 0.000000
# 5 0.000000 0.000000 0.000000 0.000000 -0.063365 0.000000
# 6 0.000000 0.000000 0.000000 0.000000 0.000000 0.027457
#
#
# Mechanical properties :
#
#
# Convention : Reuss Voigt Hill
#
# Bulk Modulus (GPa) = 51.01197 51.71189 51.36193
# Shear Modulus (GPa) = 81.18731 25.09194 53.13962
#
# Velocity S-wave (km/s) = 5.95709 3.31175 4.81947
# Velocity P-wave (km/s) = 8.34345 6.10138 7.30890
#
# Compressibility (1/GPa) = 0.01960324
#
# Stress axis : x y z
#
# Youngs Moduli (GPa) = 93.83734 103.50356 89.58968
#
# Poissons Ratio (x) = -0.01006 0.26219
# Poissons Ratio (y) = -0.00912 0.27855
# Poissons Ratio (z) = 0.27462 0.32181
#
# Static dielectric constant tensor:
#      x y z
#    x 4.134860 0.000000 0.000000 
#    y 0.000000 4.544470 0.000000 
#    z 0.000000 0.000000 4.035790 
# 
# 
# High freq. dielectric constant tensor:
#      x y z
#    x 1.907700 0.000000 0.000000 
#    y 0.000000 1.922040 0.000000 
#    z 0.000000 0.000000 1.907510 
# 
# From -- ./inp_files/21124.got.cif
#   From: 2010.06.25/outbox.cif.g09.slc.cpg/sg43_11_cif.got.tgz:21124.got - 2010.06.26 16:48:59.
