data_PCOD8187651
_publ_section_title
;
Structure prediction by ZEFSAII (Michael W. Deem and Ramdas Pophale) SiO2 
 PCOD8187651
Probable space group: F D D 2
;
_chemical_formula_sum "Si O2"
_cell_formula_units_Z 112
_cell_length_a 11.112582
_cell_length_b 28.522567
_cell_length_c 14.679421
_cell_angle_alpha 90.000000
_cell_angle_beta 90.000000
_cell_angle_gamma 90.000000
_cell_volume 4652.779953
_symmetry_space_group_name_H-M "F D D 2"
_symmetry_group_IT_number 43
_symmetry_cell_setting 'orthorhombic'
loop_
_space_group_symop_operation_xyz
x,y,z
-x,-y,z
1/4-x,1/4+y,1/4+z
1/4+x,1/4-y,1/4+z
x,1/2+y,1/2+z
-x,1/2-y,1/2+z
1/4-x,3/4+y,3/4+z
1/4+x,3/4-y,3/4+z
1/2+x,y,1/2+z
1/2-x,-y,1/2+z
3/4-x,1/4+y,3/4+z
3/4+x,1/4-y,3/4+z
1/2+x,1/2+y,z
1/2-x,1/2-y,z
3/4-x,3/4+y,1/4+z
3/4+x,3/4-y,1/4+z
loop_
_atom_site_type_symbol
_atom_site_label
_atom_site_fract_x
_atom_site_fract_y
_atom_site_fract_z
Si Si1 0.484051 0.416097 0.473480
Si Si2 0.634739 0.777952 0.118697
Si Si3 0.660064 0.858851 0.254667
Si Si4 0.689193 0.923234 0.100478
Si Si5 0.767927 0.979212 0.514760
Si Si6 0.689819 0.701917 0.370220
Si Si7 0.348334 0.572729 0.295266
O O1 0.553451 0.414646 0.569450
O O2 0.395072 0.460615 0.477451
O O3 0.580809 0.420885 0.390827
O O4 0.407151 0.368806 0.479561
O O5 0.750000 0.750000 0.073352
O O6 0.689372 0.819204 0.179929
O O7 0.557260 0.741210 0.175640
O O8 0.537089 0.801872 0.051379
O O9 0.697297 0.908491 0.207846
O O10 0.521405 0.859750 0.285435
O O11 0.733602 0.844602 0.345161
O O12 0.720660 0.977272 0.085066
O O13 0.690731 0.942517 0.573679
O O14 0.750000 0.750000 0.330519
O O15 0.679238 0.709483 0.479122
#
# Coordination Sequence:
#
# PCOD8187651 Si02
#       7
#    16  16  16  16  16  16  16
#     4  12  24  46  72 109 154 196 250 313 385 455
#     4  11  21  47  75 103 142 194 247 314 377 445
#     4  11  22  45  74  96 144 192 237 310 372 449
#     4  11  22  42  75 105 138 191 245 302 381 449
#     4  11  23  44  74 106 147 193 247 315 377 445
#     4  12  25  49  70 104 151 193 253 319 378 466
#     4  12  28  45  75 109 152 202 251 317 386 460
#
# _framework density 24.071631
#
# number of rings (size 3 to 8) (size 9 to 14) (size 15 to 20)
#    0.000    0.571    8.571    1.286    2.000    2.286 
#    2.571    0.000    0.000    0.000    0.000    0.000 
#    0.000    0.000    0.000    0.000    0.000    0.000 
#
# Total GULP energy -346914.310083 kJ/mol
# GULP energy per Si atom -12389.796789 kJ/mol
# Density = 2.401684 g / cm^3
# Si number density = 24.071631 Si / 1000 Ang^3
#
#
#
# Elastic Constant Matrix: (Units=GPa)
#
#
# Indices 1 2 3 4 5 6 
#
# 1 139.8316 55.0921 50.7263 0.0000 0.0000 0.0000
# 2 55.0921 72.7450 34.3361 0.0000 0.0000 0.0000
# 3 50.7263 34.3361 96.2160 0.0000 0.0000 0.0000
# 4 0.0000 0.0000 0.0000 31.1257 0.0000 0.0000
# 5 0.0000 0.0000 0.0000 0.0000 35.0282 0.0000
# 6 0.0000 0.0000 0.0000 0.0000 0.0000 35.8223
#
#
#
# Elastic Compliance Matrix: (Units=1/GPa)
#
#
# Indices 1 2 3 4 5 6 
#
# 1 0.011053 -0.006759 -0.003415 0.000000 0.000000 0.000000
# 2 -0.006759 0.020664 -0.003811 0.000000 0.000000 0.000000
# 3 -0.003415 -0.003811 0.013554 0.000000 0.000000 0.000000
# 4 0.000000 0.000000 0.000000 0.032128 0.000000 0.000000
# 5 0.000000 0.000000 0.000000 0.000000 0.028548 0.000000
# 6 0.000000 0.000000 0.000000 0.000000 0.000000 0.027916
#
#
# Mechanical properties :
#
#
# Convention : Reuss Voigt Hill
#
# Bulk Modulus (GPa) = 57.80057 65.45572 61.62815
# Shear Modulus (GPa) = 29.83273 31.63777 30.73525
#
# Velocity S-wave (km/s) = 3.52423 3.62929 3.57714
# Velocity P-wave (km/s) = 6.37372 6.69428 6.53597
#
# Compressibility (1/GPa) = 0.01730087
#
# Stress axis : x y z
#
# Youngs Moduli (GPa) = 90.46946 48.39277 73.77927
#
# Poissons Ratio (x) = 0.32709 0.25199
# Poissons Ratio (y) = 0.61148 0.28117
# Poissons Ratio (z) = 0.30900 0.18442
#
# Static dielectric constant tensor:
#      x y z
#    x 4.479890 0.000000 0.000000 
#    y 0.000000 4.242910 0.000000 
#    z 0.000000 0.000000 4.075680 
# 
# 
# High freq. dielectric constant tensor:
#      x y z
#    x 1.969030 0.000000 0.000000 
#    y 0.000000 1.942110 0.000000 
#    z 0.000000 0.000000 1.936460 
# 
# From -- ./inp_files/9792.got.cif
#   From: 2010.06.25/outbox.cif.g09.slc.cpg/sg43_5_cif.got.tgz:9792.got - 2010.06.26 16:48:59.
