data_PCOD8187204
_publ_section_title
;
Structure prediction by ZEFSAII (Michael W. Deem and Ramdas Pophale) SiO2 
 PCOD8187204
Probable space group: F D D 2
;
_chemical_formula_sum "Si O2"
_cell_formula_units_Z 96
_cell_length_a 14.320749
_cell_length_b 22.017400
_cell_length_c 13.154074
_cell_angle_alpha 90.000000
_cell_angle_beta 90.000000
_cell_angle_gamma 90.000000
_cell_volume 4147.553972
_symmetry_space_group_name_H-M "F D D 2"
_symmetry_group_IT_number 43
_symmetry_cell_setting 'orthorhombic'
loop_
_space_group_symop_operation_xyz
x,y,z
-x,-y,z
1/4-x,1/4+y,1/4+z
1/4+x,1/4-y,1/4+z
x,1/2+y,1/2+z
-x,1/2-y,1/2+z
1/4-x,3/4+y,3/4+z
1/4+x,3/4-y,3/4+z
1/2+x,y,1/2+z
1/2-x,-y,1/2+z
3/4-x,1/4+y,3/4+z
3/4+x,1/4-y,3/4+z
1/2+x,1/2+y,z
1/2-x,1/2-y,z
3/4-x,3/4+y,1/4+z
3/4+x,3/4-y,1/4+z
loop_
_atom_site_type_symbol
_atom_site_label
_atom_site_fract_x
_atom_site_fract_y
_atom_site_fract_z
Si Si1 0.853724 0.752194 0.641680
Si Si2 0.475410 0.429589 0.009186
Si Si3 0.114306 0.119009 0.655275
Si Si4 0.845157 0.856037 0.880794
Si Si5 0.888207 0.676372 0.444469
Si Si6 0.543920 0.752060 0.848212
O O1 0.750000 0.750000 0.690703
O O2 0.863517 0.819423 0.593478
O O3 0.865230 0.702393 0.554840
O O4 0.932572 0.744430 0.728057
O O5 0.500000 0.500000 0.987091
O O6 0.457537 0.416332 0.129767
O O7 0.376976 0.410124 0.955869
O O8 0.556827 0.386914 0.962178
O O9 0.105177 0.131954 0.773939
O O10 0.196141 0.070568 0.637926
O O11 0.014299 0.096594 0.617179
O O12 0.885644 0.790421 0.914154
O O13 0.941402 0.726574 0.374226
#
# Coordination Sequence:
#
# PCOD8187204 Si02
#       6
#    16  16  16  16  16  16
#     4  11  24  41  60  92 128 164 214 268 323 395
#     4  11  25  44  67  96 134 178 225 283 351 422
#     4  11  21  38  64  92 127 170 213 267 328 393
#     4  10  21  38  61  95 126 159 213 269 327 394
#     4  11  26  45  66  97 135 178 227 279 348 420
#     4  10  22  40  64  92 125 165 214 270 327 394
#
# _framework density 23.146173999999998
#
# number of rings (size 3 to 8) (size 9 to 14) (size 15 to 20)
#    0.000    1.333    0.000    7.000    0.000   10.667 
#    0.000    0.000    0.000    0.000    0.000    0.000 
#    0.000    0.000    0.000    0.000    0.000    0.000 
#
# Total GULP energy -297466.226909 kJ/mol
# GULP energy per Si atom -12394.426121 kJ/mol
# Density = 2.309349 g / cm^3
# Si number density = 23.146174 Si / 1000 Ang^3
#
#
#
# Elastic Constant Matrix: (Units=GPa)
#
#
# Indices 1 2 3 4 5 6 
#
# 1 47.5528 0.6413 8.9006 0.0000 0.0000 0.0000
# 2 0.6413 132.0611 20.4117 0.0000 0.0000 0.0000
# 3 8.9006 20.4117 90.4527 0.0000 0.0000 0.0000
# 4 0.0000 0.0000 0.0000 36.2904 0.0000 0.0000
# 5 0.0000 0.0000 0.0000 0.0000 37.4841 0.0000
# 6 0.0000 0.0000 0.0000 0.0000 0.0000 29.4152
#
#
#
# Elastic Compliance Matrix: (Units=1/GPa)
#
#
# Indices 1 2 3 4 5 6 
#
# 1 0.021431 0.000230 -0.002161 0.000000 0.000000 0.000000
# 2 0.000230 0.007848 -0.001794 0.000000 0.000000 0.000000
# 3 -0.002161 -0.001794 0.011673 0.000000 0.000000 0.000000
# 4 0.000000 0.000000 0.000000 0.027555 0.000000 0.000000
# 5 0.000000 0.000000 0.000000 0.000000 0.026678 0.000000
# 6 0.000000 0.000000 0.000000 0.000000 0.000000 0.033996
#
#
# Mechanical properties :
#
#
# Convention : Reuss Voigt Hill
#
# Bulk Modulus (GPa) = 29.84819 36.66376 33.25597
# Shear Modulus (GPa) = 33.83001 36.64550 35.23776
#
# Velocity S-wave (km/s) = 3.82721 3.98329 3.90603
# Velocity P-wave (km/s) = 5.69680 6.08522 5.89421
#
# Compressibility (1/GPa) = 0.03350287
#
# Stress axis : x y z
#
# Youngs Moduli (GPa) = 46.66235 127.41496 85.66866
#
# Poissons Ratio (x) = -0.02929 0.18510
# Poissons Ratio (y) = -0.01073 0.15366
# Poissons Ratio (z) = 0.10082 0.22854
#
# Static dielectric constant tensor:
#      x y z
#    x 4.007530 0.000000 0.000000 
#    y 0.000000 4.542720 0.000000 
#    z 0.000000 0.000000 3.944770 
# 
# 
# High freq. dielectric constant tensor:
#      x y z
#    x 1.906590 0.000000 0.000000 
#    y 0.000000 1.927310 0.000000 
#    z 0.000000 0.000000 1.905650 
# 
# From -- ./inp_files/6684.got.cif
#   From: 2010.06.25/outbox.cif.g09.slc.cpg/sg43_4_cif.got.tgz:6684.got - 2010.06.26 16:48:59.
