data_PCOD8187978
_publ_section_title
;
Structure prediction by ZEFSAII (Michael W. Deem and Ramdas Pophale) SiO2 
 PCOD8187978
Probable space group: I M M 2
;
_chemical_formula_sum "Si O2"
_cell_formula_units_Z 56
_cell_length_a 8.981913
_cell_length_b 15.426626
_cell_length_c 29.186777
_cell_angle_alpha 90.000000
_cell_angle_beta 90.000000
_cell_angle_gamma 90.000000
_cell_volume 4044.137701
_symmetry_space_group_name_H-M "I M M 2"
_symmetry_group_IT_number 44
_symmetry_cell_setting 'orthorhombic'
loop_
_space_group_symop_operation_xyz
x,y,z
-x,-y,z
-x,y,z
x,-y,z
1/2+x,1/2+y,1/2+z
1/2-x,1/2-y,1/2+z
1/2-x,1/2+y,1/2+z
1/2+x,1/2-y,1/2+z
loop_
_atom_site_type_symbol
_atom_site_label
_atom_site_fract_x
_atom_site_fract_y
_atom_site_fract_z
Si Si1 0.174446 0.898741 0.945760
Si Si2 0.831656 0.240110 0.617257
Si Si3 0.167596 0.396975 0.353395
Si Si4 0.826784 0.905815 0.117039
Si Si5 0.167804 0.896849 0.763871
Si Si6 0.829732 0.652299 0.534037
Si Si7 0.174819 0.400319 0.171590
O O1 0.240095 0.866466 0.897540
O O2 0.000000 0.880423 0.945770
O O3 0.210518 0.000000 0.954012
O O4 0.253133 0.840759 0.984614
O O5 0.761705 0.326850 0.641899
O O6 0.825723 0.255373 0.561891
O O7 0.737157 0.155251 0.629293
O O8 0.000000 0.228316 0.634767
O O9 0.165160 0.500000 0.350658
O O10 0.246896 0.358893 0.308092
O O11 0.000000 0.360182 0.356186
O O12 0.764584 0.915220 0.064924
O O13 0.000000 0.881807 0.115744
O O14 0.801457 0.000000 0.141078
O O15 0.251330 0.865241 0.718229
O O16 0.000000 0.860533 0.763540
O O17 0.167895 0.000000 0.765898
O O18 0.000000 0.620449 0.528399
O O19 0.217327 0.500000 0.162234
O O20 0.000000 0.387706 0.176058
#
# Coordination Sequence:
#
# PCOD8187978 Si02
#       7
#     8   8   8   8   8   8   8
#     4  10  18  25  35  52  74 103 137 167 197 234
#     4   9  19  30  41  58  79 104 135 171 207 243
#     4   9  16  25  36  51  73  99 129 165 199 232
#     4   9  16  26  40  56  76 103 133 165 199 235
#     4   9  16  26  40  56  75  99 128 163 201 241
#     4   9  18  27  37  53  75 102 134 167 199 233
#     4  10  19  30  45  62  79 103 136 172 210 250
#
# _framework density 13.847203
#
# number of rings (size 3 to 8) (size 9 to 14) (size 15 to 20)
#    0.857    1.857    0.000    3.000    0.000    8.000 
#    0.000    0.000    0.000    0.000    0.000    0.000 
#    0.000    0.000    0.000    1.286    0.000   20.857 
#
# Total GULP energy -346922.681098 kJ/mol
# GULP energy per Si atom -12390.095753 kJ/mol
# Density = 1.381569 g / cm^3
# Si number density = 13.847203 Si / 1000 Ang^3
#
#
#
# Elastic Constant Matrix: (Units=GPa)
#
#
# Indices 1 2 3 4 5 6 
#
# 1 105.6651 30.6758 38.7371 0.0000 0.0000 0.0000
# 2 30.6758 44.6997 27.9847 0.0000 0.0000 0.0000
# 3 38.7371 27.9847 70.3425 0.0000 0.0000 0.0000
# 4 0.0000 0.0000 0.0000 12.9727 0.0000 0.0000
# 5 0.0000 0.0000 0.0000 0.0000 28.0070 0.0000
# 6 0.0000 0.0000 0.0000 0.0000 0.0000 16.2820
#
#
#
# Elastic Compliance Matrix: (Units=1/GPa)
#
#
# Indices 1 2 3 4 5 6 
#
# 1 0.012921 -0.005876 -0.004778 0.000000 0.000000 0.000000
# 2 -0.005876 0.032464 -0.009679 0.000000 0.000000 0.000000
# 3 -0.004778 -0.009679 0.020698 0.000000 0.000000 0.000000
# 4 0.000000 0.000000 0.000000 0.077085 0.000000 0.000000
# 5 0.000000 0.000000 0.000000 0.000000 0.035705 0.000000
# 6 0.000000 0.000000 0.000000 0.000000 0.000000 0.061418
#
#
# Mechanical properties :
#
#
# Convention : Reuss Voigt Hill
#
# Bulk Modulus (GPa) = 39.34450 46.16695 42.75573
# Shear Modulus (GPa) = 17.27532 19.67299 18.47415
#
# Velocity S-wave (km/s) = 3.53592 3.77333 3.65656
# Velocity P-wave (km/s) = 6.71903 7.23856 6.98363
#
# Compressibility (1/GPa) = 0.02541651
#
# Stress axis : x y z
#
# Youngs Moduli (GPa) = 77.39097 30.80337 48.31358
#
# Poissons Ratio (x) = 0.18101 0.23084
# Poissons Ratio (y) = 0.45477 0.46764
# Poissons Ratio (z) = 0.36977 0.29816
#
# Static dielectric constant tensor:
#      x y z
#    x 2.902840 0.000000 0.000000 
#    y 0.000000 2.319350 0.000000 
#    z 0.000000 0.000000 2.648360 
# 
# 
# High freq. dielectric constant tensor:
#      x y z
#    x 1.553620 0.000000 0.000000 
#    y 0.000000 1.468500 0.000000 
#    z 0.000000 0.000000 1.510530 
# 
# From -- ./inp_files/27230.got.cif
#   From: 2010.03.12/outbox.cif.g09.slc.cpg/sg44_14_cif.got.tgz:27230.got - 2010.04.14 02:36:11.
