data_PCOD8187645
_publ_section_title
;
Structure prediction by ZEFSAII (Michael W. Deem and Ramdas Pophale) SiO2 
 PCOD8187645
Probable space group: F D D 2
;
_chemical_formula_sum "Si O2"
_cell_formula_units_Z 104
_cell_length_a 9.195508
_cell_length_b 24.391660
_cell_length_c 21.563004
_cell_angle_alpha 90.000000
_cell_angle_beta 90.000000
_cell_angle_gamma 90.000000
_cell_volume 4836.446051
_symmetry_space_group_name_H-M "F D D 2"
_symmetry_group_IT_number 43
_symmetry_cell_setting 'orthorhombic'
loop_
_space_group_symop_operation_xyz
x,y,z
-x,-y,z
1/4-x,1/4+y,1/4+z
1/4+x,1/4-y,1/4+z
x,1/2+y,1/2+z
-x,1/2-y,1/2+z
1/4-x,3/4+y,3/4+z
1/4+x,3/4-y,3/4+z
1/2+x,y,1/2+z
1/2-x,-y,1/2+z
3/4-x,1/4+y,3/4+z
3/4+x,1/4-y,3/4+z
1/2+x,1/2+y,z
1/2-x,1/2-y,z
3/4-x,3/4+y,1/4+z
3/4+x,3/4-y,1/4+z
loop_
_atom_site_type_symbol
_atom_site_label
_atom_site_fract_x
_atom_site_fract_y
_atom_site_fract_z
Si Si1 0.263134 0.918659 0.066410
Si Si2 0.207478 0.417829 0.198385
Si Si3 0.432987 0.057364 0.452221
Si Si4 0.750000 0.750000 0.873004
Si Si5 0.149443 0.977608 0.819048
Si Si6 0.104558 0.451453 0.797986
Si Si7 0.225889 0.691968 0.909056
O O1 0.333857 0.859415 0.072437
O O2 0.131028 0.910105 0.114009
O O3 0.380326 0.966729 0.082632
O O4 0.201204 0.927732 0.997405
O O5 0.182858 0.351982 0.203058
O O6 0.227341 0.438796 0.268596
O O7 0.366273 0.415190 0.166195
O O8 0.086411 0.453816 0.163030
O O9 0.367170 0.053982 0.383372
O O10 0.500000 0.000000 0.473917
O O11 0.240651 0.033048 0.826758
O O12 0.000000 0.000000 0.791251
O O13 0.108119 0.451978 0.723467
O O14 0.000000 0.500000 0.823121
O O15 0.250000 0.750000 0.875709
#
# Coordination Sequence:
#
# PCOD8187645 Si02
#       7
#    16  16  16   8  16  16  16
#     4  12  26  46  69 104 145 180 235 295 360 429
#     4  12  24  46  74 101 136 187 242 293 344 435
#     4  11  28  45  68 103 143 192 228 291 371 419
#     4  12  28  44  70 112 138 184 240 302 358 414
#     4  11  24  46  69 103 137 179 243 286 354 425
#     4  11  23  43  69 102 128 183 241 283 342 420
#     4  11  21  44  72  96 129 184 239 274 340 433
#
# _framework density 21.503392000000002
#
# number of rings (size 3 to 8) (size 9 to 14) (size 15 to 20)
#    0.000    0.615    6.923    0.462    8.615    0.000 
#    4.154    0.000    0.000    0.000    0.000    0.000 
#    0.000    0.000    0.000    0.000    0.000    0.000 
#
# Total GULP energy -322167.953205 kJ/mol
# GULP energy per Si atom -12391.075123 kJ/mol
# Density = 2.145445 g / cm^3
# Si number density = 21.503392 Si / 1000 Ang^3
#
#
#
# Elastic Constant Matrix: (Units=GPa)
#
#
# Indices 1 2 3 4 5 6 
#
# 1 126.4080 61.4925 44.8531 0.0000 0.0000 0.0000
# 2 61.4925 183.9464 43.8882 0.0000 0.0000 0.0000
# 3 44.8531 43.8882 86.1683 0.0000 0.0000 0.0000
# 4 0.0000 0.0000 0.0000 18.5991 0.0000 0.0000
# 5 0.0000 0.0000 0.0000 0.0000 30.9742 0.0000
# 6 0.0000 0.0000 0.0000 0.0000 0.0000 40.9216
#
#
#
# Elastic Compliance Matrix: (Units=1/GPa)
#
#
# Indices 1 2 3 4 5 6 
#
# 1 0.010659 -0.002549 -0.004250 0.000000 0.000000 0.000000
# 2 -0.002549 0.006798 -0.002136 0.000000 0.000000 0.000000
# 3 -0.004250 -0.002136 0.014905 0.000000 0.000000 0.000000
# 4 0.000000 0.000000 0.000000 0.053766 0.000000 0.000000
# 5 0.000000 0.000000 0.000000 0.000000 0.032285 0.000000
# 6 0.000000 0.000000 0.000000 0.000000 0.000000 0.024437
#
#
# Mechanical properties :
#
#
# Convention : Reuss Voigt Hill
#
# Bulk Modulus (GPa) = 68.99971 77.44336 73.22153
# Shear Modulus (GPa) = 30.20225 34.51822 32.36024
#
# Velocity S-wave (km/s) = 3.75178 4.01090 3.88350
# Velocity P-wave (km/s) = 7.13619 7.58567 7.36436
#
# Compressibility (1/GPa) = 0.01449281
#
# Stress axis : x y z
#
# Youngs Moduli (GPa) = 93.81759 147.10010 67.09123
#
# Poissons Ratio (x) = 0.37500 0.28513
# Poissons Ratio (y) = 0.23917 0.14327
# Poissons Ratio (z) = 0.39871 0.31413
#
# Static dielectric constant tensor:
#      x y z
#    x 3.853180 0.000000 0.000000 
#    y 0.000000 4.251790 0.000000 
#    z 0.000000 0.000000 3.719630 
# 
# 
# High freq. dielectric constant tensor:
#      x y z
#    x 1.840480 0.000000 0.000000 
#    y 0.000000 1.867620 0.000000 
#    z 0.000000 0.000000 1.835260 
# 
# From -- ./inp_files/16550.got.cif
#   From: 2010.06.25/outbox.cif.g09.slc.cpg/sg43_9_cif.got.tgz:16550.got - 2010.06.26 16:48:59.
