data_PCOD8187830
_publ_section_title
;
Structure prediction by ZEFSAII (Michael W. Deem and Ramdas Pophale) SiO2 
 PCOD8187830
Probable space group: F D D 2
;
_chemical_formula_sum "Si O2"
_cell_formula_units_Z 112
_cell_length_a 28.201551
_cell_length_b 5.719015
_cell_length_c 28.279944
_cell_angle_alpha 90.000000
_cell_angle_beta 90.000000
_cell_angle_gamma 90.000000
_cell_volume 4561.133404
_symmetry_space_group_name_H-M "F D D 2"
_symmetry_group_IT_number 43
_symmetry_cell_setting 'orthorhombic'
loop_
_space_group_symop_operation_xyz
x,y,z
-x,-y,z
1/4-x,1/4+y,1/4+z
1/4+x,1/4-y,1/4+z
x,1/2+y,1/2+z
-x,1/2-y,1/2+z
1/4-x,3/4+y,3/4+z
1/4+x,3/4-y,3/4+z
1/2+x,y,1/2+z
1/2-x,-y,1/2+z
3/4-x,1/4+y,3/4+z
3/4+x,1/4-y,3/4+z
1/2+x,1/2+y,z
1/2-x,1/2-y,z
3/4-x,3/4+y,1/4+z
3/4+x,3/4-y,1/4+z
loop_
_atom_site_type_symbol
_atom_site_label
_atom_site_fract_x
_atom_site_fract_y
_atom_site_fract_z
Si Si1 0.302786 0.950521 0.436520
Si Si2 0.126553 0.461932 0.723215
Si Si3 0.860648 0.906607 0.654385
Si Si4 0.223427 0.498046 0.211928
Si Si5 0.672056 0.818208 0.293382
Si Si6 0.843459 0.083131 0.557154
Si Si7 0.250000 0.250000 0.022410
Si Si8 0.000000 0.500000 0.616789
O O1 0.336151 0.738849 0.418615
O O2 0.279455 0.916594 0.487672
O O3 0.334673 0.172893 0.444373
O O4 0.261692 0.019323 0.398617
O O5 0.153833 0.336915 0.679969
O O6 0.160301 0.623678 0.754152
O O7 0.104865 0.260596 0.755660
O O8 0.818207 0.067608 0.674133
O O9 0.856634 0.894301 0.597568
O O10 0.250000 0.250000 0.211051
O O11 0.201230 0.520335 0.265238
O O12 0.250000 0.750000 0.202438
O O13 0.703521 0.700734 0.334706
O O14 0.624340 0.930186 0.315803
O O15 0.787065 0.127833 0.557968
#
# Coordination Sequence:
#
# PCOD8187830 Si02
#       8
#    16  16  16  16  16  16   8   8
#     4  12  26  49  78 109 156 204 273 342 425 495
#     4  12  24  51  76 108 160 216 259 343 431 489
#     4  12  27  48  75 111 156 211 272 340 419 503
#     4  12  26  49  76 111 156 211 264 335 417 498
#     4  12  25  48  76 114 159 209 264 347 419 502
#     4  12  27  47  78 111 157 211 272 342 420 511
#     4  12  24  54  75 110 158 214 271 348 432 510
#     4  12  28  44  79 120 150 210 281 346 402 522
#
# _framework density 24.555302000000001
#
# number of rings (size 3 to 8) (size 9 to 14) (size 15 to 20)
#    0.000    0.000    7.857    1.714    3.000    0.000 
#    3.857    0.000    0.000    0.000    0.000    0.000 
#    0.000    0.000    0.000    0.000    0.000    0.000 
#
# Total GULP energy -346916.070087 kJ/mol
# GULP energy per Si atom -12389.859646 kJ/mol
# Density = 2.449941 g / cm^3
# Si number density = 24.555302 Si / 1000 Ang^3
#
#
#
# Elastic Constant Matrix: (Units=GPa)
#
#
# Indices 1 2 3 4 5 6 
#
# 1 114.8049 17.8261 26.1039 -0.1359 0.0256 -0.0705
# 2 17.8261 79.9178 28.0289 -0.1963 -0.0969 -0.0230
# 3 26.1039 28.0289 122.1545 -0.0916 0.0348 -0.0127
# 4 -0.1359 -0.1963 -0.0916 -9.8658 0.0176 -0.0176
# 5 0.0256 -0.0969 0.0348 0.0176 57.7106 0.0280
# 6 -0.0705 -0.0230 -0.0127 -0.0176 0.0280 22.9785
#
#
#
# Elastic Compliance Matrix: (Units=1/GPa)
#
#
# Indices 1 2 3 4 5 6 
#
# 1 0.009318 -0.001501 -0.001647 -0.000083 -0.000006 0.000026
# 2 -0.001501 0.013849 -0.002857 -0.000228 0.000026 0.000007
# 3 -0.001647 -0.002857 0.009194 -0.000006 -0.000010 -0.000003
# 4 -0.000083 -0.000228 -0.000006 -0.101354 0.000031 -0.000078
# 5 -0.000006 0.000026 -0.000010 0.000031 0.017328 -0.000021
# 6 0.000026 0.000007 -0.000003 -0.000078 -0.000021 0.043519
#
#
# Mechanical properties :
#
#
# Convention : Reuss Voigt Hill
#
# Bulk Modulus (GPa) = 49.13795 51.19946 50.16871
# Shear Modulus (GPa) = 469.59209 30.49254 250.04231
#
# Velocity S-wave (km/s) = 13.84391 3.52773 10.10195
# Velocity P-wave (km/s) = 16.60099 6.12283 12.51163
#
# Compressibility (1/GPa) = 0.02035087
#
# Stress axis : x y z
#
# Youngs Moduli (GPa) = 107.32065 72.20629 108.76818
#
# Poissons Ratio (x) = 0.10838 0.17912
# Poissons Ratio (y) = 0.16109 0.31077
# Poissons Ratio (z) = 0.17674 0.20631
#
# Static dielectric constant tensor:
#      x y z
#    x 0.435600 -0.000690 -0.000610 
#    y -0.000690 4.318770 0.000010 
#    z -0.000610 0.000010 4.445810 
# 
# 
# High freq. dielectric constant tensor:
#      x y z
#    x 1.995340 0.000000 0.000000 
#    y 0.000000 1.960940 0.000000 
#    z 0.000000 0.000000 1.977430 
# 
# From -- ./inp_files/30054.got.cif
#   From: 2010.06.25/outbox.cif.g09.slc.cpg/sg43_16_cif.got.tgz:30054.got - 2010.06.26 16:48:59.
