data_PCOD8187113
_publ_section_title
;
Structure prediction by ZEFSAII (Michael W. Deem and Ramdas Pophale) SiO2 
 PCOD8187113
Probable space group: F D D 2
;
_chemical_formula_sum "Si O2"
_cell_formula_units_Z 88
_cell_length_a 10.510928
_cell_length_b 14.421013
_cell_length_c 22.992631
_cell_angle_alpha 90.000000
_cell_angle_beta 90.000000
_cell_angle_gamma 90.000000
_cell_volume 3485.182295
_symmetry_space_group_name_H-M "F D D 2"
_symmetry_group_IT_number 43
_symmetry_cell_setting 'orthorhombic'
loop_
_space_group_symop_operation_xyz
x,y,z
-x,-y,z
1/4-x,1/4+y,1/4+z
1/4+x,1/4-y,1/4+z
x,1/2+y,1/2+z
-x,1/2-y,1/2+z
1/4-x,3/4+y,3/4+z
1/4+x,3/4-y,3/4+z
1/2+x,y,1/2+z
1/2-x,-y,1/2+z
3/4-x,1/4+y,3/4+z
3/4+x,1/4-y,3/4+z
1/2+x,1/2+y,z
1/2-x,1/2-y,z
3/4-x,3/4+y,1/4+z
3/4+x,3/4-y,1/4+z
loop_
_atom_site_type_symbol
_atom_site_label
_atom_site_fract_x
_atom_site_fract_y
_atom_site_fract_z
Si Si1 0.250000 0.250000 0.454280
Si Si2 0.329707 0.477740 0.984672
Si Si3 0.559217 0.216651 0.864363
Si Si4 0.354016 0.676036 0.444103
Si Si5 0.644116 0.176366 0.622336
Si Si6 0.009962 0.318574 0.510325
O O1 0.326111 0.316065 0.407476
O O2 0.339956 0.190308 0.497228
O O3 0.204187 0.413773 0.976615
O O4 0.329257 0.549444 0.932834
O O5 0.332801 0.538551 0.044830
O O6 0.454861 0.412038 0.979217
O O7 0.434560 0.157399 0.884346
O O8 0.538099 0.326384 0.879612
O O9 0.250000 0.750000 0.424934
O O10 0.447856 0.722584 0.490180
O O11 0.750000 0.250000 0.600331
O O12 0.525744 0.170678 0.577757
#
# Coordination Sequence:
#
# PCOD8187113 Si02
#       6
#     8  16  16  16  16  16
#     4  10  20  40  56  86 128 178 206 258 338 390
#     4  10  21  38  65  97 125 163 229 269 322 397
#     4  10  22  39  63  90 132 171 213 269 329 399
#     4   9  17  35  60  90 121 163 208 271 336 383
#     4  11  20  36  64  95 118 161 220 277 316 388
#     4   9  19  36  60  85 124 166 209 265 324 391
#
# _framework density 25.249756000000001
#
# number of rings (size 3 to 8) (size 9 to 14) (size 15 to 20)
#    0.000    2.182    0.000    6.000    1.273    0.000 
#    3.273    3.636    2.000    4.364    0.000    0.000 
#    0.000    0.000    0.000    0.000    0.000    0.000 
#
# Total GULP energy -272590.052900 kJ/mol
# GULP energy per Si atom -12390.456950 kJ/mol
# Density = 2.519229 g / cm^3
# Si number density = 25.249756 Si / 1000 Ang^3
#
#
#
# Elastic Constant Matrix: (Units=GPa)
#
#
# Indices 1 2 3 4 5 6 
#
# 1 145.6694 27.9267 66.4063 0.0000 0.0000 0.0000
# 2 27.9267 75.0620 45.5045 0.0000 0.0000 0.0000
# 3 66.4063 45.5045 151.7093 0.0000 0.0000 0.0000
# 4 0.0000 0.0000 0.0000 51.5491 0.0000 0.0000
# 5 0.0000 0.0000 0.0000 0.0000 41.3528 0.0000
# 6 0.0000 0.0000 0.0000 0.0000 0.0000 9.4928
#
#
#
# Elastic Compliance Matrix: (Units=1/GPa)
#
#
# Indices 1 2 3 4 5 6 
#
# 1 0.008654 -0.001128 -0.003449 0.000000 0.000000 0.000000
# 2 -0.001128 0.016430 -0.004434 0.000000 0.000000 0.000000
# 3 -0.003449 -0.004434 0.009431 0.000000 0.000000 0.000000
# 4 0.000000 0.000000 0.000000 0.019399 0.000000 0.000000
# 5 0.000000 0.000000 0.000000 0.000000 0.024182 0.000000
# 6 0.000000 0.000000 0.000000 0.000000 0.000000 0.105343
#
#
# Mechanical properties :
#
#
# Convention : Reuss Voigt Hill
#
# Bulk Modulus (GPa) = 60.63833 72.45730 66.54782
# Shear Modulus (GPa) = 24.15919 35.98584 30.07252
#
# Velocity S-wave (km/s) = 3.09659 3.77927 3.45483
# Velocity P-wave (km/s) = 6.07064 6.91393 6.50596
#
# Compressibility (1/GPa) = 0.01649122
#
# Stress axis : x y z
#
# Youngs Moduli (GPa) = 115.55771 60.86305 106.02804
#
# Poissons Ratio (x) = 0.06868 0.36574
# Poissons Ratio (y) = 0.13040 0.47016
# Poissons Ratio (z) = 0.39861 0.26988
#
# Static dielectric constant tensor:
#      x y z
#    x 4.914890 0.000000 0.000000 
#    y 0.000000 4.529010 0.000000 
#    z 0.000000 0.000000 4.885570 
# 
# 
# High freq. dielectric constant tensor:
#      x y z
#    x 2.005810 0.000000 0.000000 
#    y 0.000000 1.999520 0.000000 
#    z 0.000000 0.000000 2.023660 
# 
# From -- ./inp_files/17060.got.cif
#   From: 2010.06.25/outbox.cif.g09.slc.cpg/sg43_9_cif.got.tgz:17060.got - 2010.06.26 16:48:59.
