data_PCOD8187697
_publ_section_title
;
Structure prediction by ZEFSAII (Michael W. Deem and Ramdas Pophale) SiO2 
 PCOD8187697
Probable space group: F D D 2
;
_chemical_formula_sum "Si O2"
_cell_formula_units_Z 80
_cell_length_a 24.389994
_cell_length_b 16.225894
_cell_length_c 8.923401
_cell_angle_alpha 90.000000
_cell_angle_beta 90.000000
_cell_angle_gamma 90.000000
_cell_volume 3531.431103
_symmetry_space_group_name_H-M "F D D 2"
_symmetry_group_IT_number 43
_symmetry_cell_setting 'orthorhombic'
loop_
_space_group_symop_operation_xyz
x,y,z
-x,-y,z
1/4-x,1/4+y,1/4+z
1/4+x,1/4-y,1/4+z
x,1/2+y,1/2+z
-x,1/2-y,1/2+z
1/4-x,3/4+y,3/4+z
1/4+x,3/4-y,3/4+z
1/2+x,y,1/2+z
1/2-x,-y,1/2+z
3/4-x,1/4+y,3/4+z
3/4+x,1/4-y,3/4+z
1/2+x,1/2+y,z
1/2-x,1/2-y,z
3/4-x,3/4+y,1/4+z
3/4+x,3/4-y,1/4+z
loop_
_atom_site_type_symbol
_atom_site_label
_atom_site_fract_x
_atom_site_fract_y
_atom_site_fract_z
Si Si1 0.808828 0.240902 0.125000
Si Si2 0.241519 0.848026 0.539774
Si Si3 0.617600 0.605298 0.624839
Si Si4 0.690164 0.861878 0.343063
Si Si5 0.162220 0.041418 0.915959
O O1 0.750000 0.250000 0.213133
O O2 0.852477 0.191460 0.223495
O O3 0.840471 0.323359 0.080568
O O4 0.789395 0.196346 0.974515
O O5 0.250000 0.750000 0.520703
O O6 0.187804 0.883962 0.457612
O O7 0.237419 0.871406 0.716705
O O8 0.291221 0.895188 0.463863
O O9 0.649861 0.546396 0.739123
O O10 0.639031 0.816650 0.266281
O O11 0.677715 0.946218 0.433021
#
# Coordination Sequence:
#
# PCOD8187697 Si02
#       5
#    16  16  16  16  16
#     4  12  26  44  66  99 138 176 226 290 348 412
#     4  11  23  44  69  98 138 185 232 289 351 420
#     4  11  23  42  68  97 131 177 227 281 347 416
#     4  11  25  42  66  98 135 183 230 285 349 421
#     4  11  23  44  68  98 135 181 234 285 348 421
#
# _framework density 22.653706
#
# number of rings (size 3 to 8) (size 9 to 14) (size 15 to 20)
#    0.000    0.800    0.000    9.600    0.000    8.000 
#    0.000    0.000    0.000    0.000    0.000    0.000 
#    0.000    0.000    0.000    0.000    0.000    0.000 
#
# Total GULP energy -247952.550157 kJ/mol
# GULP energy per Si atom -12397.627508 kJ/mol
# Density = 2.260215 g / cm^3
# Si number density = 22.653706 Si / 1000 Ang^3
#
#
#
# Elastic Constant Matrix: (Units=GPa)
#
#
# Indices 1 2 3 4 5 6 
#
# 1 113.5277 42.6817 36.2839 0.0000 0.0000 0.0000
# 2 42.6817 123.9874 21.8520 0.0000 0.0000 0.0000
# 3 36.2839 21.8520 49.5419 0.0000 0.0000 0.0000
# 4 0.0000 0.0000 0.0000 32.3980 0.0000 0.0000
# 5 0.0000 0.0000 0.0000 0.0000 21.0514 0.0000
# 6 0.0000 0.0000 0.0000 0.0000 0.0000 34.7136
#
#
#
# Elastic Compliance Matrix: (Units=1/GPa)
#
#
# Indices 1 2 3 4 5 6 
#
# 1 0.012387 -0.002890 -0.007797 0.000000 0.000000 0.000000
# 2 -0.002890 0.009419 -0.002038 0.000000 0.000000 0.000000
# 3 -0.007797 -0.002038 0.026795 0.000000 0.000000 0.000000
# 4 0.000000 0.000000 0.000000 0.030866 0.000000 0.000000
# 5 0.000000 0.000000 0.000000 0.000000 0.047503 0.000000
# 6 0.000000 0.000000 0.000000 0.000000 0.000000 0.028807
#
#
# Mechanical properties :
#
#
# Convention : Reuss Voigt Hill
#
# Bulk Modulus (GPa) = 43.19643 54.29913 48.74778
# Shear Modulus (GPa) = 26.46277 30.04856 28.25567
#
# Velocity S-wave (km/s) = 3.42152 3.64597 3.53553
# Velocity P-wave (km/s) = 5.89225 6.46107 6.18320
#
# Compressibility (1/GPa) = 0.02315006
#
# Stress axis : x y z
#
# Youngs Moduli (GPa) = 80.72999 106.16421 37.32087
#
# Poissons Ratio (x) = 0.30680 0.29101
# Poissons Ratio (y) = 0.23330 0.07607
# Poissons Ratio (z) = 0.62948 0.21638
#
# Static dielectric constant tensor:
#      x y z
#    x 4.226760 0.000000 0.000000 
#    y 0.000000 3.992770 0.000000 
#    z 0.000000 0.000000 4.251320 
# 
# 
# High freq. dielectric constant tensor:
#      x y z
#    x 1.900720 0.000000 0.000000 
#    y 0.000000 1.892250 0.000000 
#    z 0.000000 0.000000 1.906930 
# 
# From -- ./inp_files/4162.got.cif
#   From: 2010.06.25/outbox.cif.g09.slc.cpg/sg43_3_cif.got.tgz:4162.got - 2010.06.26 16:48:59.
