data_PCOD8187600
_publ_section_title
;
Structure prediction by ZEFSAII (Michael W. Deem and Ramdas Pophale) SiO2 
 PCOD8187600
Probable space group: F D D 2
;
_chemical_formula_sum "Si O2"
_cell_formula_units_Z 72
_cell_length_a 10.488177
_cell_length_b 20.039121
_cell_length_c 16.356995
_cell_angle_alpha 90.000000
_cell_angle_beta 90.000000
_cell_angle_gamma 90.000000
_cell_volume 3437.812580
_symmetry_space_group_name_H-M "F D D 2"
_symmetry_group_IT_number 43
_symmetry_cell_setting 'orthorhombic'
loop_
_space_group_symop_operation_xyz
x,y,z
-x,-y,z
1/4-x,1/4+y,1/4+z
1/4+x,1/4-y,1/4+z
x,1/2+y,1/2+z
-x,1/2-y,1/2+z
1/4-x,3/4+y,3/4+z
1/4+x,3/4-y,3/4+z
1/2+x,y,1/2+z
1/2-x,-y,1/2+z
3/4-x,1/4+y,3/4+z
3/4+x,1/4-y,3/4+z
1/2+x,1/2+y,z
1/2-x,1/2-y,z
3/4-x,3/4+y,1/4+z
3/4+x,3/4-y,1/4+z
loop_
_atom_site_type_symbol
_atom_site_label
_atom_site_fract_x
_atom_site_fract_y
_atom_site_fract_z
Si Si1 0.190557 0.933554 0.988070
Si Si2 0.408911 0.561642 0.163009
Si Si3 0.617093 0.454429 0.450979
Si Si4 0.025868 0.329827 0.047908
Si Si5 0.500000 0.500000 0.874957
O O1 0.268539 0.873366 0.951302
O O2 0.067262 0.944996 0.931703
O O3 0.274827 0.000402 0.992683
O O4 0.148749 0.912919 0.078267
O O5 0.500000 0.500000 0.146082
O O6 0.295961 0.541005 0.224636
O O7 0.500000 0.500000 0.418998
O O8 0.565502 0.403799 0.519575
O O9 0.679966 0.414661 0.375109
O O10 0.150089 0.286935 0.067099
#
# Coordination Sequence:
#
# PCOD8187600 Si02
#       5
#    16  16  16  16   8
#     4  11  26  46  68 101 139 177 230 286 340 406
#     4  12  26  44  72  99 133 185 229 281 348 407
#     4  11  24  45  69 101 141 173 234 285 336 411
#     4  11  25  43  71  98 135 187 223 283 342 402
#     4  10  26  46  66 102 142 174 230 288 338 404
#
# _framework density 20.943549999999998
#
# number of rings (size 3 to 8) (size 9 to 14) (size 15 to 20)
#    0.000    0.889    3.333    2.000    9.333    1.778 
#    0.000    0.000    0.000    0.000    0.000    0.000 
#    0.000    0.000    0.000    0.000    0.000    0.000 
#
# Total GULP energy -223303.110712 kJ/mol
# GULP energy per Si atom -12405.728373 kJ/mol
# Density = 2.089588 g / cm^3
# Si number density = 20.943550 Si / 1000 Ang^3
#
#
#
# Elastic Constant Matrix: (Units=GPa)
#
#
# Indices 1 2 3 4 5 6 
#
# 1 142.1894 53.0556 84.1761 0.0000 0.0000 0.0000
# 2 53.0556 103.3493 74.9825 0.0000 0.0000 0.0000
# 3 84.1761 74.9825 169.8153 0.0000 0.0000 0.0000
# 4 0.0000 0.0000 0.0000 28.1370 0.0000 0.0000
# 5 0.0000 0.0000 0.0000 0.0000 36.2668 0.0000
# 6 0.0000 0.0000 0.0000 0.0000 0.0000 43.0647
#
#
#
# Elastic Compliance Matrix: (Units=1/GPa)
#
#
# Indices 1 2 3 4 5 6 
#
# 1 0.010323 -0.002335 -0.004086 0.000000 0.000000 0.000000
# 2 -0.002335 0.014765 -0.005362 0.000000 0.000000 0.000000
# 3 -0.004086 -0.005362 0.010282 0.000000 0.000000 0.000000
# 4 0.000000 0.000000 0.000000 0.035540 0.000000 0.000000
# 5 0.000000 0.000000 0.000000 0.000000 0.027573 0.000000
# 6 0.000000 0.000000 0.000000 0.000000 0.000000 0.023221
#
#
# Mechanical properties :
#
#
# Convention : Reuss Voigt Hill
#
# Bulk Modulus (GPa) = 84.71961 93.30917 89.01439
# Shear Modulus (GPa) = 33.51089 35.03636 34.27362
#
# Velocity S-wave (km/s) = 4.00441 4.09454 4.04973
# Velocity P-wave (km/s) = 7.86890 8.18554 8.02878
#
# Compressibility (1/GPa) = 0.01180364
#
# Stress axis : x y z
#
# Youngs Moduli (GPa) = 96.87051 67.72804 97.25894
#
# Poissons Ratio (x) = 0.15814 0.39741
# Poissons Ratio (y) = 0.22619 0.52151
# Poissons Ratio (z) = 0.39582 0.36316
#
# Static dielectric constant tensor:
#      x y z
#    x 4.283630 0.000000 0.000000 
#    y 0.000000 3.803740 0.000000 
#    z 0.000000 0.000000 3.857260 
# 
# 
# High freq. dielectric constant tensor:
#      x y z
#    x 1.846120 0.000000 0.000000 
#    y 0.000000 1.815470 0.000000 
#    z 0.000000 0.000000 1.827720 
# 
# From -- ./inp_files/9446.got.cif
#   From: 2010.06.25/outbox.cif.g09.slc.cpg/sg43_5_cif.got.tgz:9446.got - 2010.06.26 16:48:59.
