data_PCOD8187771
_publ_section_title
;
Structure prediction by ZEFSAII (Michael W. Deem and Ramdas Pophale) SiO2 
 PCOD8187771
Probable space group: F D D 2
;
_chemical_formula_sum "Si O2"
_cell_formula_units_Z 56
_cell_length_a 17.373482
_cell_length_b 12.546769
_cell_length_c 8.279110
_cell_angle_alpha 90.000000
_cell_angle_beta 90.000000
_cell_angle_gamma 90.000000
_cell_volume 1804.689218
_symmetry_space_group_name_H-M "F D D 2"
_symmetry_group_IT_number 43
_symmetry_cell_setting 'orthorhombic'
loop_
_space_group_symop_operation_xyz
x,y,z
-x,-y,z
1/4-x,1/4+y,1/4+z
1/4+x,1/4-y,1/4+z
x,1/2+y,1/2+z
-x,1/2-y,1/2+z
1/4-x,3/4+y,3/4+z
1/4+x,3/4-y,3/4+z
1/2+x,y,1/2+z
1/2-x,-y,1/2+z
3/4-x,1/4+y,3/4+z
3/4+x,1/4-y,3/4+z
1/2+x,1/2+y,z
1/2-x,1/2-y,z
3/4-x,3/4+y,1/4+z
3/4+x,3/4-y,1/4+z
loop_
_atom_site_type_symbol
_atom_site_label
_atom_site_fract_x
_atom_site_fract_y
_atom_site_fract_z
Si Si1 0.139045 0.883320 0.682840
Si Si2 0.464451 0.158110 0.828897
Si Si3 0.130286 0.305741 0.543081
Si Si4 0.750000 0.750000 0.966525
O O1 0.125184 0.824447 0.852658
O O2 0.180733 0.796026 0.574223
O O3 0.049673 0.911015 0.617443
O O4 0.189087 0.991090 0.686365
O O5 0.450706 0.175424 0.633943
O O6 0.554311 0.138025 0.861411
O O7 0.408030 0.058329 0.858603
#
# Coordination Sequence:
#
# PCOD8187771 Si02
#       4
#    16  16  16   8
#     4  12  27  53  81 124 169 229 285 366 435 537
#     4  11  27  46  79 111 171 214 285 349 444 506
#     4  11  25  48  74 120 156 223 278 358 429 521
#     4  12  30  50  86 122 172 224 296 356 448 520
#
# _framework density 31.030275
#
# number of rings (size 3 to 8) (size 9 to 14) (size 15 to 20)
#    0.000    0.571    0.000    6.857   12.000    4.571 
#    0.000    0.000    0.000    0.000    0.000    0.000 
#    0.000    0.000    0.000    0.000    0.000    0.000 
#
# Total GULP energy -173481.423201 kJ/mol
# GULP energy per Si atom -12391.530229 kJ/mol
# Density = 3.095965 g / cm^3
# Si number density = 31.030275 Si / 1000 Ang^3
#
#
#
# Elastic Constant Matrix: (Units=GPa)
#
#
# Indices 1 2 3 4 5 6 
#
# 1 138.7450 24.6889 34.9780 0.0000 0.0000 0.0000
# 2 24.6889 125.9345 31.9495 0.0000 0.0000 0.0000
# 3 34.9780 31.9495 111.4650 0.0000 0.0000 0.0000
# 4 0.0000 0.0000 0.0000 49.6031 0.0000 0.0000
# 5 0.0000 0.0000 0.0000 0.0000 26.5444 0.0000
# 6 0.0000 0.0000 0.0000 0.0000 0.0000 58.1572
#
#
#
# Elastic Compliance Matrix: (Units=1/GPa)
#
#
# Indices 1 2 3 4 5 6 
#
# 1 0.007941 -0.000997 -0.002206 0.000000 0.000000 0.000000
# 2 -0.000997 0.008689 -0.002178 0.000000 0.000000 0.000000
# 3 -0.002206 -0.002178 0.010288 0.000000 0.000000 0.000000
# 4 0.000000 0.000000 0.000000 0.020160 0.000000 0.000000
# 5 0.000000 0.000000 0.000000 0.000000 0.037673 0.000000
# 6 0.000000 0.000000 0.000000 0.000000 0.000000 0.017195
#
#
# Mechanical properties :
#
#
# Convention : Reuss Voigt Hill
#
# Bulk Modulus (GPa) = 61.89669 62.15305 62.02487
# Shear Modulus (GPa) = 42.33991 45.82946 44.08469
#
# Velocity S-wave (km/s) = 3.69788 3.84725 3.77331
# Velocity P-wave (km/s) = 6.18247 6.30939 6.24625
#
# Compressibility (1/GPa) = 0.01615595
#
# Stress axis : x y z
#
# Youngs Moduli (GPa) = 125.92765 115.09392 97.20196
#
# Poissons Ratio (x) = 0.11476 0.21444
# Poissons Ratio (y) = 0.12557 0.21166
# Poissons Ratio (z) = 0.27781 0.25062
#
# Static dielectric constant tensor:
#      x y z
#    x 6.193040 0.000000 0.000000 
#    y 0.000000 6.378690 0.000000 
#    z 0.000000 0.000000 5.728390 
# 
# 
# High freq. dielectric constant tensor:
#      x y z
#    x 2.282490 0.000000 0.000000 
#    y 0.000000 2.297360 0.000000 
#    z 0.000000 0.000000 2.295800 
# 
# From -- ./inp_files/2151.got.cif
#   From: 2010.06.25/outbox.cif.g09.slc.cpg/sg43_2_cif.got.tgz:2151.got - 2010.06.26 16:48:59.
