data_PCOD8187353
_publ_section_title
;
Structure prediction by ZEFSAII (Michael W. Deem and Ramdas Pophale) SiO2 
 PCOD8187353
Probable space group: F D D 2
;
_chemical_formula_sum "Si O2"
_cell_formula_units_Z 120
_cell_length_a 15.665160
_cell_length_b 12.038356
_cell_length_c 31.409987
_cell_angle_alpha 90.000000
_cell_angle_beta 90.000000
_cell_angle_gamma 90.000000
_cell_volume 5923.382444
_symmetry_space_group_name_H-M "F D D 2"
_symmetry_group_IT_number 43
_symmetry_cell_setting 'orthorhombic'
loop_
_space_group_symop_operation_xyz
x,y,z
-x,-y,z
1/4-x,1/4+y,1/4+z
1/4+x,1/4-y,1/4+z
x,1/2+y,1/2+z
-x,1/2-y,1/2+z
1/4-x,3/4+y,3/4+z
1/4+x,3/4-y,3/4+z
1/2+x,y,1/2+z
1/2-x,-y,1/2+z
3/4-x,1/4+y,3/4+z
3/4+x,1/4-y,3/4+z
1/2+x,1/2+y,z
1/2-x,1/2-y,z
3/4-x,3/4+y,1/4+z
3/4+x,3/4-y,1/4+z
loop_
_atom_site_type_symbol
_atom_site_label
_atom_site_fract_x
_atom_site_fract_y
_atom_site_fract_z
Si Si1 0.065157 0.190226 0.518310
Si Si2 0.384799 0.681025 0.499476
Si Si3 0.750000 0.750000 0.062516
Si Si4 0.966788 0.392780 0.522685
Si Si5 0.345678 0.787929 0.170834
Si Si6 0.796887 0.863775 0.581190
Si Si7 0.907705 0.550615 0.679622
Si Si8 0.840952 0.952035 0.094214
O O1 0.129802 0.117187 0.546011
O O2 0.099396 0.209724 0.470907
O O3 0.973476 0.126417 0.516651
O O4 0.046224 0.313789 0.537711
O O5 0.308004 0.668995 0.532887
O O6 0.402061 0.815808 0.494713
O O7 0.362103 0.621046 0.455267
O O8 0.804465 0.827361 0.093486
O O9 0.922762 0.450827 0.563576
O O10 0.000000 0.500000 0.495704
O O11 0.250000 0.750000 0.183688
O O12 0.341747 0.856425 0.127093
O O13 0.407818 0.680949 0.166022
O O14 0.750000 0.750000 0.569753
O O15 0.730412 0.962938 0.577679
O O16 0.866459 0.479014 0.642145
O O17 0.000000 0.500000 0.689956
#
# Coordination Sequence:
#
# PCOD8187353 Si02
#       8
#    16  16   8  16  16  16  16  16
#     4  10  22  40  63  98 130 168 229 276 340 397
#     4   9  21  40  65  89 131 174 226 264 343 404
#     4  10  24  42  68  92 128 196 222 270 340 426
#     4   9  19  37  65  91 130 171 215 271 339 399
#     4  11  20  41  66  90 130 177 211 285 342 392
#     4  11  21  36  66  97 128 168 221 280 334 408
#     4  12  25  41  67 102 132 174 227 284 348 406
#     4  11  22  40  65  97 133 176 225 274 346 403
#
# _framework density 20.258694999999999
#
# number of rings (size 3 to 8) (size 9 to 14) (size 15 to 20)
#    0.800    0.800    4.000    1.600    3.733    0.000 
#    3.600    0.000    5.867    0.000    0.000    0.000 
#    0.000    0.000    0.000    0.000    0.000    0.000 
#
# Total GULP energy -371695.363887 kJ/mol
# GULP energy per Si atom -12389.845463 kJ/mol
# Density = 2.021259 g / cm^3
# Si number density = 20.258695 Si / 1000 Ang^3
#
#
#
# Elastic Constant Matrix: (Units=GPa)
#
#
# Indices 1 2 3 4 5 6 
#
# 1 96.1838 14.2464 41.8280 0.0000 0.0000 0.0000
# 2 14.2464 70.9813 36.3325 0.0000 0.0000 0.0000
# 3 41.8280 36.3325 122.8784 0.0000 0.0000 0.0000
# 4 0.0000 0.0000 0.0000 35.1714 0.0000 0.0000
# 5 0.0000 0.0000 0.0000 0.0000 16.6462 0.0000
# 6 0.0000 0.0000 0.0000 0.0000 0.0000 35.3572
#
#
#
# Elastic Compliance Matrix: (Units=1/GPa)
#
#
# Indices 1 2 3 4 5 6 
#
# 1 0.012212 -0.000381 -0.004044 0.000000 0.000000 0.000000
# 2 -0.000381 0.016613 -0.004782 0.000000 0.000000 0.000000
# 3 -0.004044 -0.004782 0.010929 0.000000 0.000000 0.000000
# 4 0.000000 0.000000 0.000000 0.028432 0.000000 0.000000
# 5 0.000000 0.000000 0.000000 0.000000 0.060074 0.000000
# 6 0.000000 0.000000 0.000000 0.000000 0.000000 0.028283
#
#
# Mechanical properties :
#
#
# Convention : Reuss Voigt Hill
#
# Bulk Modulus (GPa) = 46.86415 52.76191 49.81303
# Shear Modulus (GPa) = 27.46197 30.61073 29.03635
#
# Velocity S-wave (km/s) = 3.68579 3.89137 3.78997
# Velocity P-wave (km/s) = 6.42624 6.80374 6.61768
#
# Compressibility (1/GPa) = 0.02133827
#
# Stress axis : x y z
#
# Youngs Moduli (GPa) = 81.88686 60.19548 91.50086
#
# Poissons Ratio (x) = 0.02293 0.37006
# Poissons Ratio (y) = 0.03119 0.43759
# Poissons Ratio (z) = 0.33118 0.28787
#
# Static dielectric constant tensor:
#      x y z
#    x 3.754440 0.000000 0.000000 
#    y 0.000000 3.730430 0.000000 
#    z 0.000000 0.000000 3.427000 
# 
# 
# High freq. dielectric constant tensor:
#      x y z
#    x 1.790770 0.000000 0.000000 
#    y 0.000000 1.793210 0.000000 
#    z 0.000000 0.000000 1.770290 
# 
# From -- ./inp_files/29515.got.cif
#   From: 2010.06.25/outbox.cif.g09.slc.cpg/sg43_15_cif.got.tgz:29515.got - 2010.06.26 16:48:59.
