data_PCOD8187570
_publ_section_title
;
Structure prediction by ZEFSAII (Michael W. Deem and Ramdas Pophale) SiO2 
 PCOD8187570
Probable space group: F D D 2
;
_chemical_formula_sum "Si O2"
_cell_formula_units_Z 112
_cell_length_a 14.101155
_cell_length_b 20.946329
_cell_length_c 15.518993
_cell_angle_alpha 90.000000
_cell_angle_beta 90.000000
_cell_angle_gamma 90.000000
_cell_volume 4583.805108
_symmetry_space_group_name_H-M "F D D 2"
_symmetry_group_IT_number 43
_symmetry_cell_setting 'orthorhombic'
loop_
_space_group_symop_operation_xyz
x,y,z
-x,-y,z
1/4-x,1/4+y,1/4+z
1/4+x,1/4-y,1/4+z
x,1/2+y,1/2+z
-x,1/2-y,1/2+z
1/4-x,3/4+y,3/4+z
1/4+x,3/4-y,3/4+z
1/2+x,y,1/2+z
1/2-x,-y,1/2+z
3/4-x,1/4+y,3/4+z
3/4+x,1/4-y,3/4+z
1/2+x,1/2+y,z
1/2-x,1/2-y,z
3/4-x,3/4+y,1/4+z
3/4+x,3/4-y,1/4+z
loop_
_atom_site_type_symbol
_atom_site_label
_atom_site_fract_x
_atom_site_fract_y
_atom_site_fract_z
Si Si1 0.601429 0.868940 0.497860
Si Si2 0.509367 0.568339 0.372755
Si Si3 0.301351 0.553878 0.351824
Si Si4 0.750755 0.179317 0.426925
Si Si5 0.539566 0.804802 0.938913
Si Si6 0.974892 0.755634 0.265060
Si Si7 0.635009 0.866007 0.299151
O O1 0.656654 0.812857 0.550795
O O2 0.599499 0.857132 0.396678
O O3 0.497332 0.877322 0.538218
O O4 0.666499 0.930360 0.509900
O O5 0.500000 0.500000 0.422133
O O6 0.406612 0.577874 0.328307
O O7 0.525573 0.630609 0.431453
O O8 0.238158 0.619255 0.363012
O O9 0.256491 0.516622 0.269457
O O10 0.296691 0.506042 0.434633
O O11 0.750000 0.250000 0.383536
O O12 0.855954 0.172609 0.466508
O O13 0.670819 0.174800 0.502599
O O14 0.535728 0.759337 0.854133
O O15 0.898796 0.699504 0.256624
#
# Coordination Sequence:
#
# PCOD8187570 Si02
#       7
#    16  16  16  16  16  16  16
#     4  11  27  44  72 106 145 194 247 302 371 443
#     4  10  25  41  68 103 138 188 237 298 363 440
#     4  10  24  45  71 102 143 186 242 303 367 434
#     4  10  25  41  68 103 138 188 237 298 363 440
#     4  10  24  45  71 102 143 186 242 303 367 434
#     4  10  25  46  73 106 142 190 249 304 367 446
#     4  11  27  44  72 106 145 194 247 302 371 443
#
# _framework density 24.433848000000001
#
# number of rings (size 3 to 8) (size 9 to 14) (size 15 to 20)
#    0.000    1.714    0.000    0.429   16.000    5.143 
#    0.000    0.000    0.000    0.000    0.000    0.000 
#    0.000    0.000    0.000    0.000    0.000    0.000 
#
# Total GULP energy -346910.521484 kJ/mol
# GULP energy per Si atom -12389.661482 kJ/mol
# Density = 2.437824 g / cm^3
# Si number density = 24.433848 Si / 1000 Ang^3
#
#
#
# Elastic Constant Matrix: (Units=GPa)
#
#
# Indices 1 2 3 4 5 6 
#
# 1 136.1928 4.4543 42.1126 0.0000 0.0000 0.0000
# 2 4.4543 63.9196 -4.7072 0.0000 0.0000 0.0000
# 3 42.1126 -4.7072 125.2163 0.0000 0.0000 0.0000
# 4 0.0000 0.0000 0.0000 18.2442 0.0000 0.0000
# 5 0.0000 0.0000 0.0000 0.0000 36.2361 0.0000
# 6 0.0000 0.0000 0.0000 0.0000 0.0000 31.6776
#
#
#
# Elastic Compliance Matrix: (Units=1/GPa)
#
#
# Indices 1 2 3 4 5 6 
#
# 1 0.008233 -0.000780 -0.002798 0.000000 0.000000 0.000000
# 2 -0.000780 0.015762 0.000855 0.000000 0.000000 0.000000
# 3 -0.002798 0.000855 0.008959 0.000000 0.000000 0.000000
# 4 0.000000 0.000000 0.000000 0.054812 0.000000 0.000000
# 5 0.000000 0.000000 0.000000 0.000000 0.027597 0.000000
# 6 0.000000 0.000000 0.000000 0.000000 0.000000 0.031568
#
#
# Mechanical properties :
#
#
# Convention : Reuss Voigt Hill
#
# Bulk Modulus (GPa) = 36.35305 45.44980 40.90142
# Shear Modulus (GPa) = 30.95064 36.12952 33.54008
#
# Velocity S-wave (km/s) = 3.56295 3.84952 3.70900
# Velocity P-wave (km/s) = 5.64239 6.19677 5.92607
#
# Compressibility (1/GPa) = 0.02750801
#
# Stress axis : x y z
#
# Youngs Moduli (GPa) = 121.45772 63.44389 111.61402
#
# Poissons Ratio (x) = 0.04948 0.31233
# Poissons Ratio (y) = 0.09472 -0.09541
# Poissons Ratio (z) = 0.33988 -0.05423
#
# Static dielectric constant tensor:
#      x y z
#    x 4.472250 0.000000 0.000000 
#    y 0.000000 4.578880 0.000000 
#    z 0.000000 0.000000 4.479250 
# 
# 
# High freq. dielectric constant tensor:
#      x y z
#    x 1.982230 0.000000 0.000000 
#    y 0.000000 1.986410 0.000000 
#    z 0.000000 0.000000 1.949780 
# 
# From -- ./inp_files/10178.got.cif
#   From: 2010.06.25/outbox.cif.g09.slc.cpg/sg43_6_cif.got.tgz:10178.got - 2010.06.26 16:48:59.
