data_PCOD8187760
_publ_section_title
;
Structure prediction by ZEFSAII (Michael W. Deem and Ramdas Pophale) SiO2 
 PCOD8187760
Probable space group: F D D 2
;
_chemical_formula_sum "Si O2"
_cell_formula_units_Z 120
_cell_length_a 11.995408
_cell_length_b 25.579757
_cell_length_c 16.870230
_cell_angle_alpha 90.000000
_cell_angle_beta 90.000000
_cell_angle_gamma 90.000000
_cell_volume 5176.454992
_symmetry_space_group_name_H-M "F D D 2"
_symmetry_group_IT_number 43
_symmetry_cell_setting 'orthorhombic'
loop_
_space_group_symop_operation_xyz
x,y,z
-x,-y,z
1/4-x,1/4+y,1/4+z
1/4+x,1/4-y,1/4+z
x,1/2+y,1/2+z
-x,1/2-y,1/2+z
1/4-x,3/4+y,3/4+z
1/4+x,3/4-y,3/4+z
1/2+x,y,1/2+z
1/2-x,-y,1/2+z
3/4-x,1/4+y,3/4+z
3/4+x,1/4-y,3/4+z
1/2+x,1/2+y,z
1/2-x,1/2-y,z
3/4-x,3/4+y,1/4+z
3/4+x,3/4-y,1/4+z
loop_
_atom_site_type_symbol
_atom_site_label
_atom_site_fract_x
_atom_site_fract_y
_atom_site_fract_z
Si Si1 0.878080 0.514445 0.587260
Si Si2 0.203971 0.823108 0.512016
Si Si3 0.052418 0.695420 0.283749
Si Si4 0.500000 0.000000 0.124732
Si Si5 0.066332 0.449565 0.760347
Si Si6 0.556441 0.666842 0.066462
Si Si7 0.487714 0.222016 0.110075
Si Si8 0.855923 0.111665 0.989070
O O1 0.798417 0.462723 0.593663
O O2 0.888382 0.541949 0.672048
O O3 0.825800 0.555297 0.525032
O O4 0.000000 0.500000 0.555326
O O5 0.176606 0.884378 0.518085
O O6 0.181390 0.792969 0.428316
O O7 0.336430 0.815484 0.517050
O O8 0.136610 0.795630 0.583775
O O9 0.165753 0.720400 0.315789
O O10 0.005872 0.718966 0.202693
O O11 0.172175 0.436464 0.814894
O O12 0.000000 0.500000 0.791091
O O13 0.987105 0.400463 0.770824
O O14 0.486590 0.718378 0.086058
O O15 0.480215 0.627955 0.015596
O O16 0.601855 0.638096 0.144472
#
# Coordination Sequence:
#
# PCOD8187760 Si02
#       8
#    16  16  16   8  16  16  16  16
#     4  11  25  44  71 111 145 190 250 313 377 460
#     4  12  28  50  76 109 152 201 252 312 390 463
#     4  12  29  47  77 109 152 198 255 312 385 463
#     4  12  28  52  76 114 156 204 252 320 392 466
#     4  11  25  44  73 106 147 196 251 308 386 454
#     4  12  26  45  76 111 148 195 254 312 381 451
#     4  12  26  49  73 106 151 196 250 313 371 461
#     4  12  25  45  76 109 148 198 249 318 384 456
#
# _framework density 23.181888000000001
#
# number of rings (size 3 to 8) (size 9 to 14) (size 15 to 20)
#    0.000    0.267    5.333    2.400    8.400    3.200 
#    0.000    0.000    0.000    0.000    0.000    0.000 
#    0.000    0.000    0.000    0.000    0.000    0.000 
#
# Total GULP energy -371994.294872 kJ/mol
# GULP energy per Si atom -12399.809829 kJ/mol
# Density = 2.312913 g / cm^3
# Si number density = 23.181888 Si / 1000 Ang^3
#
#
#
# Elastic Constant Matrix: (Units=GPa)
#
#
# Indices 1 2 3 4 5 6 
#
# 1 114.0557 40.1810 51.2290 0.0000 0.0000 0.0000
# 2 40.1810 139.4161 30.0874 0.0000 0.0000 0.0000
# 3 51.2290 30.0874 87.8774 0.0000 0.0000 0.0000
# 4 0.0000 0.0000 0.0000 25.2217 0.0000 0.0000
# 5 0.0000 0.0000 0.0000 0.0000 48.4890 0.0000
# 6 0.0000 0.0000 0.0000 0.0000 0.0000 43.2368
#
#
#
# Elastic Compliance Matrix: (Units=1/GPa)
#
#
# Indices 1 2 3 4 5 6 
#
# 1 0.012466 -0.002186 -0.006518 0.000000 0.000000 0.000000
# 2 -0.002186 0.008128 -0.001509 0.000000 0.000000 0.000000
# 3 -0.006518 -0.001509 0.015696 0.000000 0.000000 0.000000
# 4 0.000000 0.000000 0.000000 0.039648 0.000000 0.000000
# 5 0.000000 0.000000 0.000000 0.000000 0.020623 0.000000
# 6 0.000000 0.000000 0.000000 0.000000 0.000000 0.023128
#
#
# Mechanical properties :
#
#
# Convention : Reuss Voigt Hill
#
# Bulk Modulus (GPa) = 63.03674 64.92711 63.98193
# Shear Modulus (GPa) = 34.38692 38.04630 36.21661
#
# Velocity S-wave (km/s) = 3.85561 4.05558 3.95686
# Velocity P-wave (km/s) = 6.86092 7.07098 6.96674
#
# Compressibility (1/GPa) = 0.01586376
#
# Stress axis : x y z
#
# Youngs Moduli (GPa) = 80.22102 123.02599 63.71030
#
# Poissons Ratio (x) = 0.26893 0.41530
# Poissons Ratio (y) = 0.17536 0.09612
# Poissons Ratio (z) = 0.52292 0.18561
#
# Static dielectric constant tensor:
#      x y z
#    x 4.179240 0.000000 0.000000 
#    y 0.000000 4.409450 0.000000 
#    z 0.000000 0.000000 4.149880 
# 
# 
# High freq. dielectric constant tensor:
#      x y z
#    x 1.919380 0.000000 0.000000 
#    y 0.000000 1.931550 0.000000 
#    z 0.000000 0.000000 1.913070 
# 
# From -- ./inp_files/13459.got.cif
#   From: 2010.06.25/outbox.cif.g09.slc.cpg/sg43_7_cif.got.tgz:13459.got - 2010.06.26 16:48:59.
