data_PCOD8187158
_publ_section_title
;
Structure prediction by ZEFSAII (Michael W. Deem and Ramdas Pophale) SiO2 
 PCOD8187158
Probable space group: F D D 2
;
_chemical_formula_sum "Si O2"
_cell_formula_units_Z 88
_cell_length_a 15.523736
_cell_length_b 23.499284
_cell_length_c 11.111281
_cell_angle_alpha 90.000000
_cell_angle_beta 90.000000
_cell_angle_gamma 90.000000
_cell_volume 4053.358431
_symmetry_space_group_name_H-M "F D D 2"
_symmetry_group_IT_number 43
_symmetry_cell_setting 'orthorhombic'
loop_
_space_group_symop_operation_xyz
x,y,z
-x,-y,z
1/4-x,1/4+y,1/4+z
1/4+x,1/4-y,1/4+z
x,1/2+y,1/2+z
-x,1/2-y,1/2+z
1/4-x,3/4+y,3/4+z
1/4+x,3/4-y,3/4+z
1/2+x,y,1/2+z
1/2-x,-y,1/2+z
3/4-x,1/4+y,3/4+z
3/4+x,1/4-y,3/4+z
1/2+x,1/2+y,z
1/2-x,1/2-y,z
3/4-x,3/4+y,1/4+z
3/4+x,3/4-y,1/4+z
loop_
_atom_site_type_symbol
_atom_site_label
_atom_site_fract_x
_atom_site_fract_y
_atom_site_fract_z
Si Si1 0.000000 0.000000 0.803391
Si Si2 0.417045 0.658965 0.962158
Si Si3 0.970092 0.442646 0.527761
Si Si4 0.978109 0.600522 0.128219
Si Si5 0.416166 0.463397 0.444158
Si Si6 0.941749 0.312038 0.294260
O O1 0.042087 0.952325 0.718616
O O2 0.935054 0.966107 0.896568
O O3 0.349085 0.656079 0.851538
O O4 0.500665 0.693853 0.915194
O O5 0.445640 0.595866 0.000536
O O6 0.372508 0.688551 0.073636
O O7 0.000000 0.500000 0.601134
O O8 0.886935 0.606652 0.060768
O O9 0.999125 0.659724 0.191496
O O10 0.056044 0.586081 0.036625
O O11 0.500000 0.500000 0.411242
O O12 0.341361 0.500240 0.506570
#
# Coordination Sequence:
#
# PCOD8187158 Si02
#       6
#     8  16  16  16  16  16
#     4  10  20  42  68  86 128 174 212 262 326 376
#     4  12  24  41  67  98 127 173 219 266 332 378
#     4  10  25  41  67  94 135 167 212 275 319 386
#     4  11  22  43  66  90 131 174 212 263 325 383
#     4  10  25  44  64  94 136 170 213 275 322 387
#     4  11  23  39  65  95 124 172 217 262 316 390
#
# _framework density 21.710391999999999
#
# number of rings (size 3 to 8) (size 9 to 14) (size 15 to 20)
#    0.545    0.727    4.545    1.636    0.000    8.727 
#    0.000    0.000    0.000    0.000    0.000    0.000 
#    0.000    0.000    0.000    0.000    0.000    0.000 
#
# Total GULP energy -272564.276232 kJ/mol
# GULP energy per Si atom -12389.285283 kJ/mol
# Density = 2.166098 g / cm^3
# Si number density = 21.710392 Si / 1000 Ang^3
#
#
#
# Elastic Constant Matrix: (Units=GPa)
#
#
# Indices 1 2 3 4 5 6 
#
# 1 89.0250 39.6490 46.1666 0.0000 0.0000 0.0000
# 2 39.6490 69.7386 30.9329 0.0000 0.0000 0.0000
# 3 46.1666 30.9329 118.8285 0.0000 0.0000 0.0000
# 4 0.0000 0.0000 0.0000 27.5114 0.0000 0.0000
# 5 0.0000 0.0000 0.0000 0.0000 40.5648 0.0000
# 6 0.0000 0.0000 0.0000 0.0000 0.0000 27.3259
#
#
#
# Elastic Compliance Matrix: (Units=1/GPa)
#
#
# Indices 1 2 3 4 5 6 
#
# 1 0.017032 -0.007629 -0.004631 0.000000 0.000000 0.000000
# 2 -0.007629 0.019628 -0.002146 0.000000 0.000000 0.000000
# 3 -0.004631 -0.002146 0.010773 0.000000 0.000000 0.000000
# 4 0.000000 0.000000 0.000000 0.036349 0.000000 0.000000
# 5 0.000000 0.000000 0.000000 0.000000 0.024652 0.000000
# 6 0.000000 0.000000 0.000000 0.000000 0.000000 0.036595
#
#
# Mechanical properties :
#
#
# Convention : Reuss Voigt Hill
#
# Bulk Modulus (GPa) = 53.70007 56.78768 55.24387
# Shear Modulus (GPa) = 27.77016 29.80334 28.78675
#
# Velocity S-wave (km/s) = 3.58036 3.70911 3.64530
# Velocity P-wave (km/s) = 6.47150 6.67510 6.57409
#
# Compressibility (1/GPa) = 0.01862195
#
# Stress axis : x y z
#
# Youngs Moduli (GPa) = 58.71177 50.94644 92.82182
#
# Poissons Ratio (x) = 0.38869 0.42989
# Poissons Ratio (y) = 0.44793 0.19915
# Poissons Ratio (z) = 0.27191 0.10931
#
# Static dielectric constant tensor:
#      x y z
#    x 3.952380 0.000000 0.000000 
#    y 0.000000 3.868300 0.000000 
#    z 0.000000 0.000000 4.081600 
# 
# 
# High freq. dielectric constant tensor:
#      x y z
#    x 1.841550 0.000000 0.000000 
#    y 0.000000 1.843960 0.000000 
#    z 0.000000 0.000000 1.859960 
# 
# From -- ./inp_files/6158.got.cif
#   From: 2010.06.25/outbox.cif.g09.slc.cpg/sg43_4_cif.got.tgz:6158.got - 2010.06.26 16:48:59.
