data_PCOD8187258
_publ_section_title
;
Structure prediction by ZEFSAII (Michael W. Deem and Ramdas Pophale) SiO2 
 PCOD8187258
Probable space group: F D D 2
;
_chemical_formula_sum "Si O2"
_cell_formula_units_Z 80
_cell_length_a 15.268648
_cell_length_b 22.344889
_cell_length_c 9.696019
_cell_angle_alpha 90.000000
_cell_angle_beta 90.000000
_cell_angle_gamma 90.000000
_cell_volume 3308.051351
_symmetry_space_group_name_H-M "F D D 2"
_symmetry_group_IT_number 43
_symmetry_cell_setting 'orthorhombic'
loop_
_space_group_symop_operation_xyz
x,y,z
-x,-y,z
1/4-x,1/4+y,1/4+z
1/4+x,1/4-y,1/4+z
x,1/2+y,1/2+z
-x,1/2-y,1/2+z
1/4-x,3/4+y,3/4+z
1/4+x,3/4-y,3/4+z
1/2+x,y,1/2+z
1/2-x,-y,1/2+z
3/4-x,1/4+y,3/4+z
3/4+x,1/4-y,3/4+z
1/2+x,1/2+y,z
1/2-x,1/2-y,z
3/4-x,3/4+y,1/4+z
3/4+x,3/4-y,1/4+z
loop_
_atom_site_type_symbol
_atom_site_label
_atom_site_fract_x
_atom_site_fract_y
_atom_site_fract_z
Si Si1 0.713669 0.837353 0.426890
Si Si2 0.339579 0.307911 0.173991
Si Si3 0.055440 0.771417 0.841041
Si Si4 0.762837 0.636191 0.959121
Si Si5 0.294457 0.901596 0.174026
O O1 0.661998 0.895065 0.373053
O O2 0.790368 0.822484 0.318567
O O3 0.637195 0.787021 0.443586
O O4 0.753282 0.850669 0.576576
O O5 0.394255 0.246941 0.197650
O O6 0.270218 0.306447 0.048617
O O7 0.991006 0.827196 0.809852
O O8 0.002163 0.715824 0.904479
O O9 0.702431 0.621356 0.829853
O O10 0.853561 0.654728 0.888809
#
# Coordination Sequence:
#
# PCOD8187258 Si02
#       5
#    16  16  16  16  16
#     4  10  21  41  66  91 126 173 216 255 311 396
#     4  10  21  41  66  91 126 173 216 255 311 396
#     4  10  23  42  67  90 128 186 218 242 325 414
#     4  11  24  42  65  99 132 163 215 280 324 369
#     4  11  24  42  65  99 132 163 215 280 324 369
#
# _framework density 24.183420999999999
#
# number of rings (size 3 to 8) (size 9 to 14) (size 15 to 20)
#    0.000    1.600    0.000    5.400    0.000    9.600 
#    0.000    5.000    0.000    0.000    0.000    0.000 
#    0.000    0.000    0.000    0.000    0.000    0.000 
#
# Total GULP energy -247764.184908 kJ/mol
# GULP energy per Si atom -12388.209245 kJ/mol
# Density = 2.412838 g / cm^3
# Si number density = 24.183421 Si / 1000 Ang^3
#
#
#
# Elastic Constant Matrix: (Units=GPa)
#
#
# Indices 1 2 3 4 5 6 
#
# 1 114.4374 38.2639 13.8586 0.0000 0.0000 0.0000
# 2 38.2639 68.9134 15.5525 0.0000 0.0000 0.0000
# 3 13.8586 15.5525 96.2058 0.0000 0.0000 0.0000
# 4 0.0000 0.0000 0.0000 22.7501 0.0000 0.0000
# 5 0.0000 0.0000 0.0000 0.0000 39.9288 0.0000
# 6 0.0000 0.0000 0.0000 0.0000 0.0000 42.1997
#
#
#
# Elastic Compliance Matrix: (Units=1/GPa)
#
#
# Indices 1 2 3 4 5 6 
#
# 1 0.010765 -0.005840 -0.000607 0.000000 0.000000 0.000000
# 2 -0.005840 0.018229 -0.002106 0.000000 0.000000 0.000000
# 3 -0.000607 -0.002106 0.010822 0.000000 0.000000 0.000000
# 4 0.000000 0.000000 0.000000 0.043956 0.000000 0.000000
# 5 0.000000 0.000000 0.000000 0.000000 0.025045 0.000000
# 6 0.000000 0.000000 0.000000 0.000000 0.000000 0.023697
#
#
# Mechanical properties :
#
#
# Convention : Reuss Voigt Hill
#
# Bulk Modulus (GPa) = 44.03132 46.10075 45.06603
# Shear Modulus (GPa) = 31.80911 35.10117 33.45514
#
# Velocity S-wave (km/s) = 3.63068 3.81393 3.72343
# Velocity P-wave (km/s) = 5.98519 6.20476 6.09597
#
# Compressibility (1/GPa) = 0.02271111
#
# Stress axis : x y z
#
# Youngs Moduli (GPa) = 92.89712 54.85801 92.40317
#
# Poissons Ratio (x) = 0.32038 0.05605
# Poissons Ratio (y) = 0.54253 0.19456
# Poissons Ratio (z) = 0.05635 0.11551
#
# Static dielectric constant tensor:
#      x y z
#    x 4.559210 0.000000 0.000000 
#    y 0.000000 4.541470 0.000000 
#    z 0.000000 0.000000 4.201560 
# 
# 
# High freq. dielectric constant tensor:
#      x y z
#    x 1.979920 0.000000 0.000000 
#    y 0.000000 1.955250 0.000000 
#    z 0.000000 0.000000 1.944130 
# 
# From -- ./inp_files/2789.got.cif
#   From: 2010.06.25/outbox.cif.g09.slc.cpg/sg43_2_cif.got.tgz:2789.got - 2010.06.26 16:48:59.
