data_PCOD8187509
_publ_section_title
;
Structure prediction by ZEFSAII (Michael W. Deem and Ramdas Pophale) SiO2 
 PCOD8187509
Probable space group: F D D 2
;
_chemical_formula_sum "Si O2"
_cell_formula_units_Z 120
_cell_length_a 9.565038
_cell_length_b 24.811972
_cell_length_c 22.243152
_cell_angle_alpha 90.000000
_cell_angle_beta 90.000000
_cell_angle_gamma 90.000000
_cell_volume 5278.910656
_symmetry_space_group_name_H-M "F D D 2"
_symmetry_group_IT_number 43
_symmetry_cell_setting 'orthorhombic'
loop_
_space_group_symop_operation_xyz
x,y,z
-x,-y,z
1/4-x,1/4+y,1/4+z
1/4+x,1/4-y,1/4+z
x,1/2+y,1/2+z
-x,1/2-y,1/2+z
1/4-x,3/4+y,3/4+z
1/4+x,3/4-y,3/4+z
1/2+x,y,1/2+z
1/2-x,-y,1/2+z
3/4-x,1/4+y,3/4+z
3/4+x,1/4-y,3/4+z
1/2+x,1/2+y,z
1/2-x,1/2-y,z
3/4-x,3/4+y,1/4+z
3/4+x,3/4-y,1/4+z
loop_
_atom_site_type_symbol
_atom_site_label
_atom_site_fract_x
_atom_site_fract_y
_atom_site_fract_z
Si Si1 0.100981 0.449436 0.040890
Si Si2 0.750000 0.250000 0.986854
Si Si3 0.477563 0.228371 0.060643
Si Si4 0.604978 0.350754 0.465042
Si Si5 0.849174 0.329602 0.887713
Si Si6 0.396214 0.769097 0.763473
Si Si7 0.404849 0.133149 0.139897
Si Si8 0.345950 0.073742 0.395223
O O1 0.254644 0.467776 0.021016
O O2 0.112087 0.423566 0.106182
O O3 0.000000 0.500000 0.041355
O O4 0.039307 0.402649 0.998401
O O5 0.764796 0.301149 0.942408
O O6 0.618788 0.252609 0.031915
O O7 0.500979 0.178351 0.106641
O O8 0.399278 0.275666 0.096465
O O9 0.385693 0.202628 0.006649
O O10 0.508474 0.341160 0.407085
O O11 0.764196 0.365944 0.449879
O O12 0.865935 0.295480 0.827622
O O13 0.762170 0.382335 0.870242
O O14 0.250000 0.750000 0.735389
O O15 0.460810 0.807097 0.711468
O O16 0.251816 0.154771 0.153488
#
# Coordination Sequence:
#
# PCOD8187509 Si02
#       8
#    16   8  16  16  16  16  16  16
#     4  11  23  43  68  98 134 181 230 281 347 416
#     4  10  24  48  70 108 140 194 244 302 366 426
#     4  10  24  45  74 103 147 184 239 301 361 436
#     4  10  23  45  72 100 143 185 238 293 353 428
#     4  11  25  44  70 104 140 184 247 298 356 432
#     4  12  24  44  68  97 141 187 231 297 347 423
#     4  11  24  45  67 106 139 184 234 290 356 431
#     4  12  26  44  70 107 141 188 239 292 367 421
#
# _framework density 22.731961999999999
#
# number of rings (size 3 to 8) (size 9 to 14) (size 15 to 20)
#    0.000    1.067    0.667    5.200    3.733    2.133 
#    3.600    1.333    0.000    0.000    0.000    0.000 
#    0.000    0.000    0.000    0.000    0.000    0.000 
#
# Total GULP energy -371918.877157 kJ/mol
# GULP energy per Si atom -12397.295905 kJ/mol
# Density = 2.268022 g / cm^3
# Si number density = 22.731962 Si / 1000 Ang^3
#
#
#
# Elastic Constant Matrix: (Units=GPa)
#
#
# Indices 1 2 3 4 5 6 
#
# 1 103.8639 43.0144 36.4736 0.0000 0.0000 0.0000
# 2 43.0144 88.1362 25.0854 0.0000 0.0000 0.0000
# 3 36.4736 25.0854 96.2567 0.0000 0.0000 0.0000
# 4 0.0000 0.0000 0.0000 32.7873 0.0000 0.0000
# 5 0.0000 0.0000 0.0000 0.0000 35.1015 0.0000
# 6 0.0000 0.0000 0.0000 0.0000 0.0000 53.1336
#
#
#
# Elastic Compliance Matrix: (Units=1/GPa)
#
#
# Indices 1 2 3 4 5 6 
#
# 1 0.013109 -0.005383 -0.003564 0.000000 0.000000 0.000000
# 2 -0.005383 0.014466 -0.001730 0.000000 0.000000 0.000000
# 3 -0.003564 -0.001730 0.012190 0.000000 0.000000 0.000000
# 4 0.000000 0.000000 0.000000 0.030500 0.000000 0.000000
# 5 0.000000 0.000000 0.000000 0.000000 0.028489 0.000000
# 6 0.000000 0.000000 0.000000 0.000000 0.000000 0.018820
#
#
# Mechanical properties :
#
#
# Convention : Reuss Voigt Hill
#
# Bulk Modulus (GPa) = 54.31903 55.26706 54.79305
# Shear Modulus (GPa) = 34.46699 36.45006 35.45852
#
# Velocity S-wave (km/s) = 3.89811 4.00868 3.95378
# Velocity P-wave (km/s) = 6.64888 6.76693 6.70817
#
# Compressibility (1/GPa) = 0.01840975
#
# Stress axis : x y z
#
# Youngs Moduli (GPa) = 76.28262 69.12860 82.03193
#
# Poissons Ratio (x) = 0.37214 0.29239
# Poissons Ratio (y) = 0.41066 0.14192
# Poissons Ratio (z) = 0.27190 0.11960
#
# Static dielectric constant tensor:
#      x y z
#    x 4.032710 0.000000 0.000000 
#    y 0.000000 4.361120 0.000000 
#    z 0.000000 0.000000 4.151600 
# 
# 
# High freq. dielectric constant tensor:
#      x y z
#    x 1.891860 0.000000 0.000000 
#    y 0.000000 1.908490 0.000000 
#    z 0.000000 0.000000 1.906470 
# 
# From -- ./inp_files/20450.got.cif
#   From: 2010.06.25/outbox.cif.g09.slc.cpg/sg43_11_cif.got.tgz:20450.got - 2010.06.26 16:48:59.
