data_PCOD8187056
_publ_section_title
;
Structure prediction by ZEFSAII (Michael W. Deem and Ramdas Pophale) SiO2 
 PCOD8187056
Probable space group: F D D 2
;
_chemical_formula_sum "Si O2"
_cell_formula_units_Z 96
_cell_length_a 25.561411
_cell_length_b 7.644702
_cell_length_c 26.129004
_cell_angle_alpha 90.000000
_cell_angle_beta 90.000000
_cell_angle_gamma 90.000000
_cell_volume 5105.852205
_symmetry_space_group_name_H-M "F D D 2"
_symmetry_group_IT_number 43
_symmetry_cell_setting 'orthorhombic'
loop_
_space_group_symop_operation_xyz
x,y,z
-x,-y,z
1/4-x,1/4+y,1/4+z
1/4+x,1/4-y,1/4+z
x,1/2+y,1/2+z
-x,1/2-y,1/2+z
1/4-x,3/4+y,3/4+z
1/4+x,3/4-y,3/4+z
1/2+x,y,1/2+z
1/2-x,-y,1/2+z
3/4-x,1/4+y,3/4+z
3/4+x,1/4-y,3/4+z
1/2+x,1/2+y,z
1/2-x,1/2-y,z
3/4-x,3/4+y,1/4+z
3/4+x,3/4-y,1/4+z
loop_
_atom_site_type_symbol
_atom_site_label
_atom_site_fract_x
_atom_site_fract_y
_atom_site_fract_z
Si Si1 0.369807 0.283093 0.150760
Si Si2 0.111460 0.896908 0.013587
Si Si3 0.986872 0.307353 0.994118
Si Si4 0.682850 0.882341 0.606173
Si Si5 0.459033 0.363757 0.083336
Si Si6 0.460488 0.234092 0.892603
O O1 0.380304 0.262499 0.211132
O O2 0.352610 0.478770 0.136128
O O3 0.426680 0.256050 0.125227
O O4 0.329840 0.138244 0.128022
O O5 0.075063 0.732282 0.997399
O O6 0.160685 0.841899 0.049084
O O7 0.077633 0.036842 0.043619
O O8 0.000000 0.500000 0.976490
O O9 0.010066 0.276340 0.049905
O O10 0.014762 0.203707 0.947290
O O11 0.741546 0.963409 0.602018
O O12 0.681177 0.704503 0.640352
O O13 0.500000 0.500000 0.109194
#
# Coordination Sequence:
#
# PCOD8187056 Si02
#       6
#    16  16  16  16  16  16
#     4  11  20  37  63  80 114 161 192 238 301 359
#     4  10  20  36  58  79 116 149 194 241 306 350
#     4  11  19  34  59  84 111 149 197 251 284 351
#     4  10  22  36  53  92 117 142 194 260 293 348
#     4   9  21  36  54  85 113 148 197 239 290 356
#     4  11  20  36  60  85 114 148 201 247 291 356
#
# _framework density 18.801953999999999
#
# number of rings (size 3 to 8) (size 9 to 14) (size 15 to 20)
#    0.000    1.667    5.000    0.500    2.333    0.000 
#    3.000    0.000    0.000    4.000    0.000    0.000 
#    0.000    0.000    0.000    0.000    0.000    0.000 
#
# Total GULP energy -297387.851319 kJ/mol
# GULP energy per Si atom -12391.160472 kJ/mol
# Density = 1.875916 g / cm^3
# Si number density = 18.801954 Si / 1000 Ang^3
#
#
#
# Elastic Constant Matrix: (Units=GPa)
#
#
# Indices 1 2 3 4 5 6 
#
# 1 109.5341 31.1415 66.0398 0.0001 0.0000 -0.0008
# 2 31.1415 66.0225 30.4785 0.0003 0.0000 -0.0008
# 3 66.0398 30.4785 101.8940 0.0000 0.0000 0.0000
# 4 0.0001 0.0003 0.0000 14.4307 0.0001 0.0000
# 5 0.0000 0.0000 0.0000 0.0001 45.1886 0.0001
# 6 -0.0008 -0.0008 0.0000 0.0000 0.0001 29.1548
#
#
#
# Elastic Compliance Matrix: (Units=1/GPa)
#
#
# Indices 1 2 3 4 5 6 
#
# 1 0.015515 -0.003105 -0.009127 0.000000 0.000000 0.000000
# 2 -0.003105 0.018194 -0.003430 0.000000 0.000000 0.000000
# 3 -0.009127 -0.003430 0.016755 0.000000 0.000000 0.000000
# 4 0.000000 0.000000 0.000000 0.069297 0.000000 0.000000
# 5 0.000000 0.000000 0.000000 0.000000 0.022129 0.000000
# 6 0.000000 0.000000 0.000000 0.000000 0.000000 0.034300
#
#
# Mechanical properties :
#
#
# Convention : Reuss Voigt Hill
#
# Bulk Modulus (GPa) = 52.24298 59.19669 55.71983
# Shear Modulus (GPa) = 23.37603 27.74089 25.55846
#
# Velocity S-wave (km/s) = 3.52984 3.84529 3.69094
# Velocity P-wave (km/s) = 6.66778 7.16015 6.91835
#
# Compressibility (1/GPa) = 0.01914133
#
# Stress axis : x y z
#
# Youngs Moduli (GPa) = 64.45340 54.96253 59.68200
#
# Poissons Ratio (x) = 0.17065 0.54472
# Poissons Ratio (y) = 0.20011 0.20471
# Poissons Ratio (z) = 0.58826 0.18852
#
# Static dielectric constant tensor:
#      x y z
#    x 3.744660 0.000000 0.000000 
#    y 0.000000 3.307540 0.000000 
#    z 0.000000 0.000000 3.579490 
# 
# 
# High freq. dielectric constant tensor:
#      x y z
#    x 1.723190 0.000000 0.000000 
#    y 0.000000 1.721020 0.000000 
#    z 0.000000 0.000000 1.718710 
# 
# From -- ./inp_files/20353.got.cif
#   From: 2010.06.25/outbox.cif.g09.slc.cpg/sg43_11_cif.got.tgz:20353.got - 2010.06.26 16:48:59.
