data_PCOD8187972
_publ_section_title
;
Structure prediction by ZEFSAII (Michael W. Deem and Ramdas Pophale) SiO2 
 PCOD8187972
Probable space group: I M M 2
;
_chemical_formula_sum "Si O2"
_cell_formula_units_Z 34
_cell_length_a 7.602128
_cell_length_b 15.424023
_cell_length_c 17.046807
_cell_angle_alpha 90.000000
_cell_angle_beta 90.000000
_cell_angle_gamma 90.000000
_cell_volume 1998.830124
_symmetry_space_group_name_H-M "I M M 2"
_symmetry_group_IT_number 44
_symmetry_cell_setting 'orthorhombic'
loop_
_space_group_symop_operation_xyz
x,y,z
-x,-y,z
-x,y,z
x,-y,z
1/2+x,1/2+y,1/2+z
1/2-x,1/2-y,1/2+z
1/2-x,1/2+y,1/2+z
1/2+x,1/2-y,1/2+z
loop_
_atom_site_type_symbol
_atom_site_label
_atom_site_fract_x
_atom_site_fract_y
_atom_site_fract_z
Si Si1 0.702087 0.000000 0.582350
Si Si2 0.500000 0.703476 0.477658
Si Si3 0.500000 0.322918 0.301267
Si Si4 0.691042 0.784043 0.187592
Si Si5 0.702111 0.317773 0.034545
Si Si6 0.000000 0.896876 0.138934
Si Si7 0.000000 0.000000 0.709872
O O1 0.744145 0.917809 0.527553
O O2 0.500000 0.000000 0.610115
O O3 0.825611 0.000000 0.657833
O O4 0.500000 0.658010 0.393366
O O5 0.325021 0.761674 0.478013
O O6 0.500000 0.633245 0.548032
O O7 0.328191 0.267392 0.270908
O O8 0.500000 0.416333 0.263201
O O9 0.500000 0.824950 0.165040
O O10 0.742063 0.711672 0.123512
O O11 0.832212 0.861076 0.187069
O O12 0.500000 0.303906 0.009854
O O13 0.000000 0.000000 0.141748
#
# Coordination Sequence:
#
# PCOD8187972 Si02
#       7
#     4   4   4   8   8   4   2
#     4  12  18  28  58  90 110 132 191 240 267 328
#     4  10  22  35  52  82 114 141 177 225 282 330
#     4  10  20  38  56  81 117 147 170 226 287 332
#     4   8  17  34  55  76 103 144 180 218 265 317
#     4  10  17  33  54  79 107 147 183 220 273 328
#     4  10  20  34  59  83  99 140 194 227 258 315
#     4  12  20  34  58  88 116 140 178 232 284 338
#
# _framework density 17.009951999999998
#
# number of rings (size 3 to 8) (size 9 to 14) (size 15 to 20)
#    0.706    1.412    4.706    0.000    0.824    0.471 
#    2.118    0.000    5.176    0.000    0.000    0.000 
#    0.000    0.000    0.000    0.000    0.000    0.000 
#
# Total GULP energy -210644.923945 kJ/mol
# GULP energy per Si atom -12390.877879 kJ/mol
# Density = 1.697124 g / cm^3
# Si number density = 17.009952 Si / 1000 Ang^3
#
#
#
# Elastic Constant Matrix: (Units=GPa)
#
#
# Indices 1 2 3 4 5 6 
#
# 1 122.5961 48.8690 20.3859 0.0000 0.0000 0.0000
# 2 48.8690 124.0208 21.3273 0.0000 0.0000 0.0000
# 3 20.3859 21.3273 64.3490 0.0000 0.0000 0.0000
# 4 0.0000 0.0000 0.0000 8.2937 0.0000 0.0000
# 5 0.0000 0.0000 0.0000 0.0000 16.6003 0.0000
# 6 0.0000 0.0000 0.0000 0.0000 0.0000 22.1833
#
#
#
# Elastic Compliance Matrix: (Units=1/GPa)
#
#
# Indices 1 2 3 4 5 6 
#
# 1 0.009904 -0.003566 -0.001956 0.000000 0.000000 0.000000
# 2 -0.003566 0.009835 -0.002130 0.000000 0.000000 0.000000
# 3 -0.001956 -0.002130 0.016866 0.000000 0.000000 0.000000
# 4 0.000000 0.000000 0.000000 0.120574 0.000000 0.000000
# 5 0.000000 0.000000 0.000000 0.000000 0.060240 0.000000
# 6 0.000000 0.000000 0.000000 0.000000 0.000000 0.045079
#
#
# Mechanical properties :
#
#
# Convention : Reuss Voigt Hill
#
# Bulk Modulus (GPa) = 46.94616 54.68115 50.81366
# Shear Modulus (GPa) = 17.55005 24.10771 20.82888
#
# Velocity S-wave (km/s) = 3.21557 3.76875 3.50310
# Velocity P-wave (km/s) = 6.43783 7.15223 6.80441
#
# Compressibility (1/GPa) = 0.02130100
#
# Stress axis : x y z
#
# Youngs Moduli (GPa) = 100.97385 101.68191 59.29215
#
# Poissons Ratio (x) = 0.36261 0.11595
# Poissons Ratio (y) = 0.36008 0.12628
# Poissons Ratio (z) = 0.19746 0.21656
#
# Static dielectric constant tensor:
#      x y z
#    x 3.358950 0.000000 0.000000 
#    y 0.000000 3.118240 0.000000 
#    z 0.000000 0.000000 2.808220 
# 
# 
# High freq. dielectric constant tensor:
#      x y z
#    x 1.663700 0.000000 0.000000 
#    y 0.000000 1.652980 0.000000 
#    z 0.000000 0.000000 1.617230 
# 
# From -- ./inp_files/20149.got.cif
#   From: 2010.03.12/outbox.cif.g09.slc.cpg/sg44_11_cif.got.tgz:20149.got - 2010.04.14 02:36:11.
