data_PCOD8187551
_publ_section_title
;
Structure prediction by ZEFSAII (Michael W. Deem and Ramdas Pophale) SiO2 
 PCOD8187551
Probable space group: F D D 2
;
_chemical_formula_sum "Si O2"
_cell_formula_units_Z 112
_cell_length_a 28.256576
_cell_length_b 11.177075
_cell_length_c 16.010457
_cell_angle_alpha 90.000000
_cell_angle_beta 90.000000
_cell_angle_gamma 90.000000
_cell_volume 5056.516498
_symmetry_space_group_name_H-M "F D D 2"
_symmetry_group_IT_number 43
_symmetry_cell_setting 'orthorhombic'
loop_
_space_group_symop_operation_xyz
x,y,z
-x,-y,z
1/4-x,1/4+y,1/4+z
1/4+x,1/4-y,1/4+z
x,1/2+y,1/2+z
-x,1/2-y,1/2+z
1/4-x,3/4+y,3/4+z
1/4+x,3/4-y,3/4+z
1/2+x,y,1/2+z
1/2-x,-y,1/2+z
3/4-x,1/4+y,3/4+z
3/4+x,1/4-y,3/4+z
1/2+x,1/2+y,z
1/2-x,1/2-y,z
3/4-x,3/4+y,1/4+z
3/4+x,3/4-y,1/4+z
loop_
_atom_site_type_symbol
_atom_site_label
_atom_site_fract_x
_atom_site_fract_y
_atom_site_fract_z
Si Si1 0.407696 0.182100 0.375000
Si Si2 0.508445 0.237763 0.447178
Si Si3 0.822570 0.822763 0.620048
Si Si4 0.245901 0.609455 0.876316
Si Si5 0.659641 0.009758 0.973625
Si Si6 0.672943 0.877083 0.497729
Si Si7 0.048801 0.055443 0.822017
O O1 0.454878 0.234118 0.416143
O O2 0.364800 0.192002 0.439896
O O3 0.396156 0.265057 0.295140
O O4 0.413076 0.045398 0.345902
O O5 0.530561 0.366845 0.423721
O O6 0.508776 0.218626 0.545843
O O7 0.539409 0.133934 0.404586
O O8 0.859295 0.759542 0.681689
O O9 0.802824 0.717740 0.560678
O O10 0.847956 0.920061 0.560474
O O11 0.250000 0.750000 0.855327
O O12 0.193595 0.580740 0.909710
O O13 0.283652 0.568566 0.945738
O O14 0.681588 0.880806 0.994702
O O15 0.000000 0.000000 0.789258
#
# Coordination Sequence:
#
# PCOD8187551 Si02
#       7
#    16  16  16  16  16  16  16
#     4  11  25  42  69 105 137 182 235 291 346 423
#     4  10  24  43  69  98 140 181 232 287 356 406
#     4  11  24  46  67 100 139 184 222 292 344 423
#     4  12  24  43  72 104 137 185 238 294 348 426
#     4  11  24  44  69  99 142 180 233 286 356 411
#     4  12  26  41  74 100 140 180 239 283 354 415
#     4   9  20  42  66  95 142 182 224 293 348 415
#
# _framework density 22.149635
#
# number of rings (size 3 to 8) (size 9 to 14) (size 15 to 20)
#    0.000    1.143    1.429    5.571    6.000    1.143 
#    2.571    0.000    0.000    0.000    0.000    0.000 
#    0.000    0.000    0.000    0.000    0.000    0.000 
#
# Total GULP energy -347342.526135 kJ/mol
# GULP energy per Si atom -12405.090219 kJ/mol
# Density = 2.209922 g / cm^3
# Si number density = 22.149635 Si / 1000 Ang^3
#
#
#
# Elastic Constant Matrix: (Units=GPa)
#
#
# Indices 1 2 3 4 5 6 
#
# 1 69.4257 17.3960 23.2341 0.0000 0.0000 0.0000
# 2 17.3960 71.2614 25.0552 0.0000 0.0000 0.0000
# 3 23.2341 25.0552 107.0395 0.0000 0.0000 0.0000
# 4 0.0000 0.0000 0.0000 36.9577 0.0000 0.0000
# 5 0.0000 0.0000 0.0000 0.0000 28.8070 0.0000
# 6 0.0000 0.0000 0.0000 0.0000 0.0000 41.1833
#
#
#
# Elastic Compliance Matrix: (Units=1/GPa)
#
#
# Indices 1 2 3 4 5 6 
#
# 1 0.016078 -0.002940 -0.002802 0.000000 0.000000 0.000000
# 2 -0.002940 0.015829 -0.003067 0.000000 0.000000 0.000000
# 3 -0.002802 -0.003067 0.010668 0.000000 0.000000 0.000000
# 4 0.000000 0.000000 0.000000 0.027058 0.000000 0.000000
# 5 0.000000 0.000000 0.000000 0.000000 0.034714 0.000000
# 6 0.000000 0.000000 0.000000 0.000000 0.000000 0.024282
#
#
# Mechanical properties :
#
#
# Convention : Reuss Voigt Hill
#
# Bulk Modulus (GPa) = 40.06706 42.12191 41.09448
# Shear Modulus (GPa) = 32.34877 33.52572 32.93724
#
# Velocity S-wave (km/s) = 3.82575 3.89472 3.86039
# Velocity P-wave (km/s) = 6.13544 6.26765 6.20190
#
# Compressibility (1/GPa) = 0.02495816
#
# Stress axis : x y z
#
# Youngs Moduli (GPa) = 62.19612 63.17584 93.73466
#
# Poissons Ratio (x) = 0.18573 0.26263
# Poissons Ratio (y) = 0.18285 0.28748
# Poissons Ratio (z) = 0.17426 0.19376
#
# Static dielectric constant tensor:
#      x y z
#    x 3.843500 0.000000 0.000000 
#    y 0.000000 4.251360 0.000000 
#    z 0.000000 0.000000 4.023710 
# 
# 
# High freq. dielectric constant tensor:
#      x y z
#    x 1.866870 0.000000 0.000000 
#    y 0.000000 1.882320 0.000000 
#    z 0.000000 0.000000 1.870920 
# 
# From -- ./inp_files/9800.got.cif
#   From: 2010.06.25/outbox.cif.g09.slc.cpg/sg43_5_cif.got.tgz:9800.got - 2010.06.26 16:48:59.
