data_PCOD8187084
_publ_section_title
;
Structure prediction by ZEFSAII (Michael W. Deem and Ramdas Pophale) SiO2 
 PCOD8187084
Probable space group: F D D 2
;
_chemical_formula_sum "Si O2"
_cell_formula_units_Z 96
_cell_length_a 9.487218
_cell_length_b 19.031692
_cell_length_c 27.899175
_cell_angle_alpha 90.000000
_cell_angle_beta 90.000000
_cell_angle_gamma 90.000000
_cell_volume 5037.413964
_symmetry_space_group_name_H-M "F D D 2"
_symmetry_group_IT_number 43
_symmetry_cell_setting 'orthorhombic'
loop_
_space_group_symop_operation_xyz
x,y,z
-x,-y,z
1/4-x,1/4+y,1/4+z
1/4+x,1/4-y,1/4+z
x,1/2+y,1/2+z
-x,1/2-y,1/2+z
1/4-x,3/4+y,3/4+z
1/4+x,3/4-y,3/4+z
1/2+x,y,1/2+z
1/2-x,-y,1/2+z
3/4-x,1/4+y,3/4+z
3/4+x,1/4-y,3/4+z
1/2+x,1/2+y,z
1/2-x,1/2-y,z
3/4-x,3/4+y,1/4+z
3/4+x,3/4-y,1/4+z
loop_
_atom_site_type_symbol
_atom_site_label
_atom_site_fract_x
_atom_site_fract_y
_atom_site_fract_z
Si Si1 0.000000 0.000000 0.114980
Si Si2 0.250000 0.750000 0.328288
Si Si3 0.840752 0.505730 0.261912
Si Si4 0.363722 0.124718 0.771178
Si Si5 0.037157 0.272950 0.907612
Si Si6 0.834606 0.890443 0.320573
Si Si7 0.564025 0.076682 0.919297
O O1 0.128519 0.004574 0.152086
O O2 0.022539 0.936329 0.078584
O O3 0.265882 0.682997 0.294930
O O4 0.114481 0.741417 0.361681
O O5 0.734772 0.443133 0.274529
O O6 0.852323 0.512574 0.204605
O O7 0.773995 0.574919 0.284368
O O8 0.000000 0.500000 0.282499
O O9 0.508749 0.110992 0.798602
O O10 0.399395 0.148347 0.716594
O O11 0.047192 0.359094 0.908964
O O12 0.837375 0.930096 0.372253
O O13 0.500000 0.000000 0.929187
#
# Coordination Sequence:
#
# PCOD8187084 Si02
#       7
#     8   8  16  16  16  16  16
#     4  10  22  42  64  91 123 168 212 264 308 376
#     4  12  20  42  62  91 123 166 212 264 308 376
#     4  11  25  41  62  94 128 167 211 267 315 376
#     4  11  23  39  66  93 123 172 213 256 318 372
#     4  10  23  39  65  90 125 168 210 259 319 374
#     4  11  24  41  65  90 129 168 213 258 319 375
#     4  10  20  38  61  94 122 160 211 255 306 379
#
# _framework density 19.057397000000002
#
# number of rings (size 3 to 8) (size 9 to 14) (size 15 to 20)
#    0.000    1.333    5.000    1.500    9.333    0.000 
#    0.000    0.000    1.833    0.000    0.000    0.000 
#    0.000    0.000    0.000    0.000    0.000    0.000 
#
# Total GULP energy -297465.269144 kJ/mol
# GULP energy per Si atom -12394.386214 kJ/mol
# Density = 1.901402 g / cm^3
# Si number density = 19.057397 Si / 1000 Ang^3
#
#
#
# Elastic Constant Matrix: (Units=GPa)
#
#
# Indices 1 2 3 4 5 6 
#
# 1 105.6039 60.6789 26.4685 0.0000 0.0000 0.0000
# 2 60.6789 85.1841 46.9661 0.0000 0.0000 0.0000
# 3 26.4685 46.9661 104.9345 0.0000 0.0000 0.0000
# 4 0.0000 0.0000 0.0000 30.6521 0.0000 0.0000
# 5 0.0000 0.0000 0.0000 0.0000 26.9882 0.0000
# 6 0.0000 0.0000 0.0000 0.0000 0.0000 25.8332
#
#
#
# Elastic Compliance Matrix: (Units=1/GPa)
#
#
# Indices 1 2 3 4 5 6 
#
# 1 0.016191 -0.012322 0.001431 0.000000 0.000000 0.000000
# 2 -0.012322 0.024963 -0.008065 0.000000 0.000000 0.000000
# 3 0.001431 -0.008065 0.012778 0.000000 0.000000 0.000000
# 4 0.000000 0.000000 0.000000 0.032624 0.000000 0.000000
# 5 0.000000 0.000000 0.000000 0.000000 0.037053 0.000000
# 6 0.000000 0.000000 0.000000 0.000000 0.000000 0.038710
#
#
# Mechanical properties :
#
#
# Convention : Reuss Voigt Hill
#
# Bulk Modulus (GPa) = 62.41906 62.66104 62.54005
# Shear Modulus (GPa) = 24.32241 27.46865 25.89553
#
# Velocity S-wave (km/s) = 3.57637 3.80065 3.69021
# Velocity P-wave (km/s) = 7.06245 7.22575 7.14457
#
# Compressibility (1/GPa) = 0.01602075
#
# Stress axis : x y z
#
# Youngs Moduli (GPa) = 61.76319 40.05888 78.25730
#
# Poissons Ratio (x) = 0.49362 -0.11200
# Poissons Ratio (y) = 0.76106 0.63113
# Poissons Ratio (z) = -0.08839 0.32307
#
# Static dielectric constant tensor:
#      x y z
#    x 3.402080 0.000000 0.000000 
#    y 0.000000 3.598200 0.000000 
#    z 0.000000 0.000000 3.781730 
# 
# 
# High freq. dielectric constant tensor:
#      x y z
#    x 1.726880 0.000000 0.000000 
#    y 0.000000 1.740060 0.000000 
#    z 0.000000 0.000000 1.761170 
# 
# From -- ./inp_files/24265.got.cif
#   From: 2010.06.25/outbox.cif.g09.slc.cpg/sg43_13_cif.got.tgz:24265.got - 2010.06.26 16:48:59.
