data_PCOD8187302
_publ_section_title
;
Structure prediction by ZEFSAII (Michael W. Deem and Ramdas Pophale) SiO2 
 PCOD8187302
Probable space group: F D D 2
;
_chemical_formula_sum "Si O2"
_cell_formula_units_Z 88
_cell_length_a 20.155373
_cell_length_b 6.655912
_cell_length_c 28.311821
_cell_angle_alpha 90.000000
_cell_angle_beta 90.000000
_cell_angle_gamma 90.000000
_cell_volume 3798.098425
_symmetry_space_group_name_H-M "F D D 2"
_symmetry_group_IT_number 43
_symmetry_cell_setting 'orthorhombic'
loop_
_space_group_symop_operation_xyz
x,y,z
-x,-y,z
1/4-x,1/4+y,1/4+z
1/4+x,1/4-y,1/4+z
x,1/2+y,1/2+z
-x,1/2-y,1/2+z
1/4-x,3/4+y,3/4+z
1/4+x,3/4-y,3/4+z
1/2+x,y,1/2+z
1/2-x,-y,1/2+z
3/4-x,1/4+y,3/4+z
3/4+x,1/4-y,3/4+z
1/2+x,1/2+y,z
1/2-x,1/2-y,z
3/4-x,3/4+y,1/4+z
3/4+x,3/4-y,1/4+z
loop_
_atom_site_type_symbol
_atom_site_label
_atom_site_fract_x
_atom_site_fract_y
_atom_site_fract_z
Si Si1 0.048401 0.219304 0.159230
Si Si2 0.750000 0.750000 0.323341
Si Si3 0.500000 0.000000 0.739889
Si Si4 0.084732 0.668124 0.929037
Si Si5 0.388683 0.221381 0.872573
Si Si6 0.642363 0.482710 0.280934
Si Si7 0.750000 0.750000 0.137959
O O1 0.084699 0.434945 0.159183
O O2 0.016010 0.189068 0.107634
O O3 0.998122 0.196685 0.204055
O O4 0.097918 0.031617 0.166491
O O5 0.686725 0.683545 0.291006
O O6 0.436160 0.970829 0.773648
O O7 0.077129 0.468649 0.897658
O O8 0.081245 0.616704 0.984688
O O9 0.023990 0.817207 0.920245
O O10 0.440905 0.398040 0.857717
O O11 0.350908 0.164307 0.825077
#
# Coordination Sequence:
#
# PCOD8187302 Si02
#       7
#    16   8   8  16  16  16   8
#     4   9  21  44  68  93 138 189 232 285 373 429
#     4  11  21  44  72  98 144 182 242 302 357 447
#     4   9  22  44  71  96 140 188 235 300 360 435
#     4  10  21  45  65 102 139 187 231 300 357 435
#     4  11  23  43  69 101 141 188 236 300 360 439
#     4  11  24  42  72 106 136 187 245 298 365 436
#     4  10  23  42  69  96 146 190 227 286 375 418
#
# _framework density 23.169491000000001
#
# number of rings (size 3 to 8) (size 9 to 14) (size 15 to 20)
#    0.000    1.818    1.818    1.091    2.545    0.727 
#   19.636    0.000    0.000    0.000    0.000    0.000 
#    0.000    0.000    0.000    0.000    0.000    0.000 
#
# Total GULP energy -272543.453395 kJ/mol
# GULP energy per Si atom -12388.338791 kJ/mol
# Density = 2.311676 g / cm^3
# Si number density = 23.169491 Si / 1000 Ang^3
#
#
#
# Elastic Constant Matrix: (Units=GPa)
#
#
# Indices 1 2 3 4 5 6 
#
# 1 112.8654 41.0467 35.2909 0.0010 0.0000 0.0001
# 2 41.0467 123.0865 53.6646 0.0018 0.0002 -0.0005
# 3 35.2909 53.6646 113.4036 -0.0001 0.0002 0.0004
# 4 0.0010 0.0018 -0.0001 17.7939 0.0000 -0.0014
# 5 0.0000 0.0002 0.0002 0.0000 31.8760 -0.0001
# 6 0.0001 -0.0005 0.0004 -0.0014 -0.0001 44.5624
#
#
#
# Elastic Compliance Matrix: (Units=1/GPa)
#
#
# Indices 1 2 3 4 5 6 
#
# 1 0.010437 -0.002601 -0.002017 0.000000 0.000000 0.000000
# 2 -0.002601 0.010885 -0.004341 -0.000001 0.000000 0.000000
# 3 -0.002017 -0.004341 0.011500 0.000001 0.000000 0.000000
# 4 0.000000 -0.000001 0.000001 0.056199 0.000000 0.000002
# 5 0.000000 0.000000 0.000000 0.000000 0.031372 0.000000
# 6 0.000000 0.000000 0.000000 0.000002 0.000000 0.022440
#
#
# Mechanical properties :
#
#
# Convention : Reuss Voigt Hill
#
# Bulk Modulus (GPa) = 67.10211 67.70665 67.40438
# Shear Modulus (GPa) = 30.17160 33.47001 31.82080
#
# Velocity S-wave (km/s) = 3.61253 3.80488 3.70995
# Velocity P-wave (km/s) = 6.81358 6.97055 6.89251
#
# Compressibility (1/GPa) = 0.01490266
#
# Stress axis : x y z
#
# Youngs Moduli (GPa) = 95.81543 91.87356 86.95538
#
# Poissons Ratio (x) = 0.23896 0.17539
# Poissons Ratio (y) = 0.24922 0.37750
# Poissons Ratio (z) = 0.19326 0.39885
#
# Static dielectric constant tensor:
#      x y z
#    x 4.554060 0.000000 0.000000 
#    y 0.000000 3.923920 0.000000 
#    z 0.000000 0.000000 4.238270 
# 
# 
# High freq. dielectric constant tensor:
#      x y z
#    x 1.934710 0.000000 0.000000 
#    y 0.000000 1.894790 0.000000 
#    z 0.000000 0.000000 1.901710 
# 
# From -- ./inp_files/27286.got.cif
#   From: 2010.06.25/outbox.cif.g09.slc.cpg/sg43_14_cif.got.tgz:27286.got - 2010.06.26 16:48:59.
