data_PCOD8187667
_publ_section_title
;
Structure prediction by ZEFSAII (Michael W. Deem and Ramdas Pophale) SiO2 
 PCOD8187667
Probable space group: F D D 2
;
_chemical_formula_sum "Si O2"
_cell_formula_units_Z 56
_cell_length_a 23.820097
_cell_length_b 9.574164
_cell_length_c 11.681455
_cell_angle_alpha 90.000000
_cell_angle_beta 90.000000
_cell_angle_gamma 90.000000
_cell_volume 2664.043601
_symmetry_space_group_name_H-M "F D D 2"
_symmetry_group_IT_number 43
_symmetry_cell_setting 'orthorhombic'
loop_
_space_group_symop_operation_xyz
x,y,z
-x,-y,z
1/4-x,1/4+y,1/4+z
1/4+x,1/4-y,1/4+z
x,1/2+y,1/2+z
-x,1/2-y,1/2+z
1/4-x,3/4+y,3/4+z
1/4+x,3/4-y,3/4+z
1/2+x,y,1/2+z
1/2-x,-y,1/2+z
3/4-x,1/4+y,3/4+z
3/4+x,1/4-y,3/4+z
1/2+x,1/2+y,z
1/2-x,1/2-y,z
3/4-x,3/4+y,1/4+z
3/4+x,3/4-y,1/4+z
loop_
_atom_site_type_symbol
_atom_site_label
_atom_site_fract_x
_atom_site_fract_y
_atom_site_fract_z
Si Si1 0.000000 0.500000 0.657001
Si Si2 0.080052 0.275042 0.743421
Si Si3 0.270308 0.606560 0.689226
Si Si4 0.201964 0.364848 0.772083
O O1 0.956095 0.581784 0.736713
O O2 0.964671 0.394353 0.572464
O O3 0.072481 0.207819 0.869712
O O4 0.145201 0.301917 0.719287
O O5 0.058396 0.165558 0.650805
O O6 0.250000 0.750000 0.627380
O O7 0.219690 0.493937 0.690954
O O8 0.250000 0.250000 0.773760
#
# Coordination Sequence:
#
# PCOD8187667 Si02
#       4
#     8  16  16  16
#     4   8  22  42  64 102 126 176 218 268 344 396
#     4  11  22  43  69  94 138 177 220 289 332 401
#     4   9  21  45  62  97 137 167 227 273 333 406
#     4  11  24  42  66 101 131 181 231 272 348 405
#
# _framework density 21.020678
#
# number of rings (size 3 to 8) (size 9 to 14) (size 15 to 20)
#    0.857    1.143    0.000    2.571    6.000    0.000 
#   20.571    0.000    0.000    0.000    0.000    0.000 
#    0.000    0.000    0.000    0.000    0.000    0.000 
#
# Total GULP energy -173501.853625 kJ/mol
# GULP energy per Si atom -12392.989545 kJ/mol
# Density = 2.097283 g / cm^3
# Si number density = 21.020678 Si / 1000 Ang^3
#
#
#
# Elastic Constant Matrix: (Units=GPa)
#
#
# Indices 1 2 3 4 5 6 
#
# 1 140.8430 88.0741 35.4679 0.0000 0.0000 0.0000
# 2 88.0741 152.5677 39.7599 0.0000 0.0000 0.0000
# 3 35.4679 39.7599 62.2911 0.0000 0.0000 0.0000
# 4 0.0000 0.0000 0.0000 18.7794 0.0000 0.0000
# 5 0.0000 0.0000 0.0000 0.0000 28.6648 0.0000
# 6 0.0000 0.0000 0.0000 0.0000 0.0000 30.1001
#
#
#
# Elastic Compliance Matrix: (Units=1/GPa)
#
#
# Indices 1 2 3 4 5 6 
#
# 1 0.011496 -0.005915 -0.002771 0.000000 0.000000 0.000000
# 2 -0.005915 0.010905 -0.003593 0.000000 0.000000 0.000000
# 3 -0.002771 -0.003593 0.019925 0.000000 0.000000 0.000000
# 4 0.000000 0.000000 0.000000 0.053250 0.000000 0.000000
# 5 0.000000 0.000000 0.000000 0.000000 0.034886 0.000000
# 6 0.000000 0.000000 0.000000 0.000000 0.000000 0.033222
#
#
# Mechanical properties :
#
#
# Convention : Reuss Voigt Hill
#
# Bulk Modulus (GPa) = 56.27562 75.81175 66.04368
# Shear Modulus (GPa) = 25.75137 28.33553 27.04345
#
# Velocity S-wave (km/s) = 3.50387 3.67547 3.59070
# Velocity P-wave (km/s) = 6.57260 7.35906 6.97692
#
# Compressibility (1/GPa) = 0.01776968
#
# Stress axis : x y z
#
# Youngs Moduli (GPa) = 86.98340 91.69956 50.18912
#
# Poissons Ratio (x) = 0.54237 0.13906
# Poissons Ratio (y) = 0.51447 0.18033
# Poissons Ratio (z) = 0.24101 0.32947
#
# Static dielectric constant tensor:
#      x y z
#    x 3.545240 0.000000 0.000000 
#    y 0.000000 4.095280 0.000000 
#    z 0.000000 0.000000 3.636110 
# 
# 
# High freq. dielectric constant tensor:
#      x y z
#    x 1.793370 0.000000 0.000000 
#    y 0.000000 1.842970 0.000000 
#    z 0.000000 0.000000 1.817700 
# 
# From -- ./inp_files/5228.got.cif
#   From: 2010.06.25/outbox.cif.g09.slc.cpg/sg43_3_cif.got.tgz:5228.got - 2010.06.26 16:48:59.
