data_PCOD8187491
_publ_section_title
;
Structure prediction by ZEFSAII (Michael W. Deem and Ramdas Pophale) SiO2 
 PCOD8187491
Probable space group: F D D 2
;
_chemical_formula_sum "Si O2"
_cell_formula_units_Z 120
_cell_length_a 24.518799
_cell_length_b 25.491296
_cell_length_c 8.919697
_cell_angle_alpha 90.000000
_cell_angle_beta 90.000000
_cell_angle_gamma 90.000000
_cell_volume 5574.953009
_symmetry_space_group_name_H-M "F D D 2"
_symmetry_group_IT_number 43
_symmetry_cell_setting 'orthorhombic'
loop_
_space_group_symop_operation_xyz
x,y,z
-x,-y,z
1/4-x,1/4+y,1/4+z
1/4+x,1/4-y,1/4+z
x,1/2+y,1/2+z
-x,1/2-y,1/2+z
1/4-x,3/4+y,3/4+z
1/4+x,3/4-y,3/4+z
1/2+x,y,1/2+z
1/2-x,-y,1/2+z
3/4-x,1/4+y,3/4+z
3/4+x,1/4-y,3/4+z
1/2+x,1/2+y,z
1/2-x,1/2-y,z
3/4-x,3/4+y,1/4+z
3/4+x,3/4-y,1/4+z
loop_
_atom_site_type_symbol
_atom_site_label
_atom_site_fract_x
_atom_site_fract_y
_atom_site_fract_z
Si Si1 0.250000 0.250000 0.431590
Si Si2 0.044791 0.307110 0.570160
Si Si3 0.132604 0.476969 0.343560
Si Si4 0.188820 0.818928 0.461026
Si Si5 0.657707 0.771814 0.662815
Si Si6 0.780548 0.330638 0.692970
Si Si7 0.518141 0.752489 0.284935
Si Si8 0.416627 0.816254 0.290921
O O1 0.303938 0.245069 0.528557
O O2 0.248707 0.198648 0.328846
O O3 0.109122 0.308927 0.603204
O O4 0.027379 0.358111 0.478198
O O5 0.028770 0.257044 0.463374
O O6 0.011942 0.301421 0.728806
O O7 0.098149 0.523777 0.277008
O O8 0.092980 0.437231 0.430567
O O9 0.173588 0.505961 0.455934
O O10 0.165547 0.442894 0.220828
O O11 0.192833 0.805577 0.283953
O O12 0.248628 0.818902 0.537147
O O13 0.158137 0.873730 0.493142
O O14 0.632873 0.717717 0.725012
O O15 0.475755 0.797719 0.230945
#
# Coordination Sequence:
#
# PCOD8187491 Si02
#       8
#     8  16  16  16  16  16  16  16
#     4  12  26  48  66 100 144 176 222 294 352 410
#     4  11  25  45  69 104 136 182 233 280 348 407
#     4  11  23  40  69  98 137 176 230 285 339 408
#     4  11  23  45  69  99 136 184 231 280 345 416
#     4  10  27  45  68 101 142 175 229 289 344 414
#     4  12  25  44  70 101 138 185 230 280 349 418
#     4  11  21  46  66  98 138 177 230 288 329 416
#     4  10  23  43  68 101 132 181 235 276 346 412
#
# _framework density 21.524844000000002
#
# number of rings (size 3 to 8) (size 9 to 14) (size 15 to 20)
#    0.000    1.067    4.000    0.800    7.467    1.067 
#    4.800    0.000    0.000    0.000    0.000    0.000 
#    0.000    0.000    0.000    0.000    0.000    0.000 
#
# Total GULP energy -371924.927070 kJ/mol
# GULP energy per Si atom -12397.497569 kJ/mol
# Density = 2.147585 g / cm^3
# Si number density = 21.524844 Si / 1000 Ang^3
#
#
#
# Elastic Constant Matrix: (Units=GPa)
#
#
# Indices 1 2 3 4 5 6 
#
# 1 114.7349 26.0252 49.3891 -0.0020 -0.0039 0.0078
# 2 26.0252 103.3425 41.7142 0.0049 -0.0005 0.0079
# 3 49.3891 41.7142 117.3692 0.0182 -0.0340 0.0047
# 4 -0.0020 0.0049 0.0182 21.4602 -0.0111 0.0042
# 5 -0.0039 -0.0005 -0.0340 -0.0111 39.7894 -0.0071
# 6 0.0078 0.0079 0.0047 0.0042 -0.0071 2.6288
#
#
#
# Elastic Compliance Matrix: (Units=1/GPa)
#
#
# Indices 1 2 3 4 5 6 
#
# 1 0.010736 -0.001028 -0.004153 0.000005 -0.000003 -0.000021
# 2 -0.001028 0.011396 -0.003618 0.000000 -0.000003 -0.000025
# 3 -0.004153 -0.003618 0.011553 -0.000009 0.000009 0.000002
# 4 0.000005 0.000000 -0.000009 0.046598 0.000013 -0.000074
# 5 -0.000003 -0.000003 0.000009 0.000013 0.025132 0.000067
# 6 -0.000021 -0.000025 0.000002 -0.000074 0.000067 0.380405
#
#
# Mechanical properties :
#
#
# Convention : Reuss Voigt Hill
#
# Bulk Modulus (GPa) = 62.15253 63.30040 62.72646
# Shear Modulus (GPa) = 9.82743 27.33021 18.57882
#
# Velocity S-wave (km/s) = 2.13905 3.56716 2.94110
# Velocity P-wave (km/s) = 5.91931 6.81455 6.38264
#
# Compressibility (1/GPa) = 0.01608945
#
# Stress axis : x y z
#
# Youngs Moduli (GPa) = 93.14110 87.75292 86.55500
#
# Poissons Ratio (x) = 0.09017 0.35944
# Poissons Ratio (y) = 0.09571 0.31313
# Poissons Ratio (z) = 0.38679 0.31747
#
# Static dielectric constant tensor:
#      x y z
#    x 4.001800 -0.000010 0.000000 
#    y -0.000010 3.810810 -0.000060 
#    z 0.000000 -0.000060 4.146740 
# 
# 
# High freq. dielectric constant tensor:
#      x y z
#    x 1.857930 0.000000 0.000000 
#    y 0.000000 1.830510 0.000000 
#    z 0.000000 0.000000 1.848460 
# 
# From -- ./inp_files/3885.got.cif
#   From: 2010.06.25/outbox.cif.g09.slc.cpg/sg43_2_cif.got.tgz:3885.got - 2010.06.26 16:48:59.
