data_PCOD8187494
_publ_section_title
;
Structure prediction by ZEFSAII (Michael W. Deem and Ramdas Pophale) SiO2 
 PCOD8187494
Probable space group: F D D 2
;
_chemical_formula_sum "Si O2"
_cell_formula_units_Z 104
_cell_length_a 9.350764
_cell_length_b 18.266574
_cell_length_c 27.038510
_cell_angle_alpha 90.000000
_cell_angle_beta 90.000000
_cell_angle_gamma 90.000000
_cell_volume 4618.351165
_symmetry_space_group_name_H-M "F D D 2"
_symmetry_group_IT_number 43
_symmetry_cell_setting 'orthorhombic'
loop_
_space_group_symop_operation_xyz
x,y,z
-x,-y,z
1/4-x,1/4+y,1/4+z
1/4+x,1/4-y,1/4+z
x,1/2+y,1/2+z
-x,1/2-y,1/2+z
1/4-x,3/4+y,3/4+z
1/4+x,3/4-y,3/4+z
1/2+x,y,1/2+z
1/2-x,-y,1/2+z
3/4-x,1/4+y,3/4+z
3/4+x,1/4-y,3/4+z
1/2+x,1/2+y,z
1/2-x,1/2-y,z
3/4-x,3/4+y,1/4+z
3/4+x,3/4-y,1/4+z
loop_
_atom_site_type_symbol
_atom_site_label
_atom_site_fract_x
_atom_site_fract_y
_atom_site_fract_z
Si Si1 0.607004 0.705156 0.179460
Si Si2 0.750000 0.250000 0.909006
Si Si3 0.460994 0.347596 0.983488
Si Si4 0.701789 0.433641 0.236901
Si Si5 0.208877 0.666505 0.087073
Si Si6 0.725366 0.370337 0.840724
Si Si7 0.190035 0.406926 0.937835
O O1 0.750000 0.750000 0.185108
O O2 0.638034 0.631246 0.212168
O O3 0.576053 0.691222 0.121549
O O4 0.476065 0.756718 0.198985
O O5 0.653274 0.194313 0.940451
O O6 0.661284 0.302017 0.871661
O O7 0.479073 0.262660 0.996532
O O8 0.333315 0.358810 0.944826
O O9 0.413737 0.383972 0.035465
O O10 0.619404 0.405437 0.284899
O O11 0.816856 0.371010 0.224560
O O12 0.250000 0.750000 0.094869
O O13 0.351900 0.617740 0.087490
O O14 0.105111 0.642365 0.131395
#
# Coordination Sequence:
#
# PCOD8187494 Si02
#       7
#    16   8  16  16  16  16  16
#     4  10  23  43  68  99 140 181 234 292 367 429
#     4  12  24  40  72 102 132 184 238 296 348 426
#     4  11  24  43  68 100 142 186 234 297 368 441
#     4  12  23  45  71 102 139 189 243 294 364 432
#     4  12  23  43  71  97 133 189 244 282 357 443
#     4  12  24  43  71  97 138 187 239 289 359 436
#     4  11  25  42  67 104 141 180 236 306 352 431
#
# _framework density 22.51886
#
# number of rings (size 3 to 8) (size 9 to 14) (size 15 to 20)
#    0.000    0.615    6.923    0.462    3.231    3.692 
#    0.000    0.000    0.000    0.000    0.000    0.000 
#    0.000    0.000    0.000    0.000    0.000    0.000 
#
# Total GULP energy -322268.729361 kJ/mol
# GULP energy per Si atom -12394.951129 kJ/mol
# Density = 2.246761 g / cm^3
# Si number density = 22.518860 Si / 1000 Ang^3
#
#
#
# Elastic Constant Matrix: (Units=GPa)
#
#
# Indices 1 2 3 4 5 6 
#
# 1 78.4607 32.3574 40.8620 0.0000 0.0000 0.0000
# 2 32.3574 59.4855 35.5428 0.0000 0.0000 0.0000
# 3 40.8620 35.5428 151.1994 0.0000 0.0000 0.0000
# 4 0.0000 0.0000 0.0000 35.5629 0.0000 0.0000
# 5 0.0000 0.0000 0.0000 0.0000 41.5716 0.0000
# 6 0.0000 0.0000 0.0000 0.0000 0.0000 40.1909
#
#
#
# Elastic Compliance Matrix: (Units=1/GPa)
#
#
# Indices 1 2 3 4 5 6 
#
# 1 0.017454 -0.007767 -0.002891 0.000000 0.000000 0.000000
# 2 -0.007767 0.023014 -0.003311 0.000000 0.000000 0.000000
# 3 -0.002891 -0.003311 0.008173 0.000000 0.000000 0.000000
# 4 0.000000 0.000000 0.000000 0.028119 0.000000 0.000000
# 5 0.000000 0.000000 0.000000 0.000000 0.024055 0.000000
# 6 0.000000 0.000000 0.000000 0.000000 0.000000 0.024881
#
#
# Mechanical properties :
#
#
# Convention : Reuss Voigt Hill
#
# Bulk Modulus (GPa) = 48.30085 56.29666 52.29875
# Shear Modulus (GPa) = 31.14577 35.49064 33.31821
#
# Velocity S-wave (km/s) = 3.72304 3.97424 3.85069
# Velocity P-wave (km/s) = 6.32273 6.79070 6.56089
#
# Compressibility (1/GPa) = 0.02070357
#
# Stress axis : x y z
#
# Youngs Moduli (GPa) = 57.29366 43.45214 122.34705
#
# Poissons Ratio (x) = 0.33748 0.35374
# Poissons Ratio (y) = 0.44498 0.40509
# Poissons Ratio (z) = 0.16565 0.14387
#
# Static dielectric constant tensor:
#      x y z
#    x 4.151010 0.000000 0.000000 
#    y 0.000000 4.216600 0.000000 
#    z 0.000000 0.000000 4.182070 
# 
# 
# High freq. dielectric constant tensor:
#      x y z
#    x 1.878020 0.000000 0.000000 
#    y 0.000000 1.885700 0.000000 
#    z 0.000000 0.000000 1.896140 
# 
# From -- ./inp_files/24337.got.cif
#   From: 2010.06.25/outbox.cif.g09.slc.cpg/sg43_13_cif.got.tgz:24337.got - 2010.06.26 16:48:59.
