data_PCOD8187106
_publ_section_title
;
Structure prediction by ZEFSAII (Michael W. Deem and Ramdas Pophale) SiO2 
 PCOD8187106
Probable space group: F D D 2
;
_chemical_formula_sum "Si O2"
_cell_formula_units_Z 72
_cell_length_a 13.194510
_cell_length_b 8.250029
_cell_length_c 33.563476
_cell_angle_alpha 90.000000
_cell_angle_beta 90.000000
_cell_angle_gamma 90.000000
_cell_volume 3653.555205
_symmetry_space_group_name_H-M "F D D 2"
_symmetry_group_IT_number 43
_symmetry_cell_setting 'orthorhombic'
loop_
_space_group_symop_operation_xyz
x,y,z
-x,-y,z
1/4-x,1/4+y,1/4+z
1/4+x,1/4-y,1/4+z
x,1/2+y,1/2+z
-x,1/2-y,1/2+z
1/4-x,3/4+y,3/4+z
1/4+x,3/4-y,3/4+z
1/2+x,y,1/2+z
1/2-x,-y,1/2+z
3/4-x,1/4+y,3/4+z
3/4+x,1/4-y,3/4+z
1/2+x,1/2+y,z
1/2-x,1/2-y,z
3/4-x,3/4+y,1/4+z
3/4+x,3/4-y,1/4+z
loop_
_atom_site_type_symbol
_atom_site_label
_atom_site_fract_x
_atom_site_fract_y
_atom_site_fract_z
Si Si1 0.653199 0.836990 0.550960
Si Si2 0.250000 0.750000 0.858500
Si Si3 0.600884 0.906731 0.419597
Si Si4 0.968581 0.316004 0.984885
Si Si5 0.584676 0.866448 0.241478
O O1 0.750000 0.750000 0.571866
O O2 0.566753 0.874776 0.582991
O O3 0.616791 0.705603 0.518310
O O4 0.687090 0.002309 0.529130
O O5 0.325374 0.636243 0.883516
O O6 0.570096 0.739820 0.441543
O O7 0.500000 0.000000 0.403899
O O8 0.663212 0.017040 0.450459
O O9 0.000000 0.500000 0.981148
O O10 0.057924 0.199057 0.999278
O O11 0.500000 0.000000 0.237318
#
# Coordination Sequence:
#
# PCOD8187106 Si02
#       5
#    16   8  16  16  16
#     4  11  23  42  62  92 127 167 211 262 323 374
#     4  12  24  44  62  90 140 174 200 276 316 380
#     4   9  23  42  63  91 128 163 211 264 321 374
#     4  10  20  39  68  96 118 161 220 263 315 382
#     4  10  20  39  68  96 122 158 217 271 308 382
#
# _framework density 19.706833
#
# number of rings (size 3 to 8) (size 9 to 14) (size 15 to 20)
#    0.000    1.778    2.222    2.667    9.333    1.778 
#    8.000    0.000    0.000    0.000    0.000    0.000 
#    0.000    0.000    0.000    0.000    0.000    0.000 
#
# Total GULP energy -223214.778557 kJ/mol
# GULP energy per Si atom -12400.821031 kJ/mol
# Density = 1.966198 g / cm^3
# Si number density = 19.706833 Si / 1000 Ang^3
#
#
#
# Elastic Constant Matrix: (Units=GPa)
#
#
# Indices 1 2 3 4 5 6 
#
# 1 118.2159 53.5163 58.6065 0.0000 0.0000 0.0000
# 2 53.5163 140.3424 50.7324 0.0000 0.0000 0.0000
# 3 58.6065 50.7324 92.3878 0.0000 0.0000 0.0000
# 4 0.0000 0.0000 0.0000 16.1728 0.0000 0.0000
# 5 0.0000 0.0000 0.0000 0.0000 36.8491 0.0000
# 6 0.0000 0.0000 0.0000 0.0000 0.0000 44.5591
#
#
#
# Elastic Compliance Matrix: (Units=1/GPa)
#
#
# Indices 1 2 3 4 5 6 
#
# 1 0.012988 -0.002463 -0.006886 0.000000 0.000000 0.000000
# 2 -0.002463 0.009357 -0.003576 0.000000 0.000000 0.000000
# 3 -0.006886 -0.003576 0.017156 0.000000 0.000000 0.000000
# 4 0.000000 0.000000 0.000000 0.061832 0.000000 0.000000
# 5 0.000000 0.000000 0.000000 0.000000 0.027138 0.000000
# 6 0.000000 0.000000 0.000000 0.000000 0.000000 0.022442
#
#
# Mechanical properties :
#
#
# Convention : Reuss Voigt Hill
#
# Bulk Modulus (GPa) = 73.25763 75.18406 74.22084
# Shear Modulus (GPa) = 27.57634 32.05558 29.81596
#
# Velocity S-wave (km/s) = 3.74482 4.03752 3.89392
# Velocity P-wave (km/s) = 7.48015 7.74400 7.61322
#
# Compressibility (1/GPa) = 0.01365046
#
# Stress axis : x y z
#
# Youngs Moduli (GPa) = 76.99235 106.86763 58.28898
#
# Poissons Ratio (x) = 0.26326 0.40140
# Poissons Ratio (y) = 0.18966 0.20842
# Poissons Ratio (z) = 0.53021 0.38213
#
# Static dielectric constant tensor:
#      x y z
#    x 3.671610 0.000000 0.000000 
#    y 0.000000 3.479420 0.000000 
#    z 0.000000 0.000000 3.399650 
# 
# 
# High freq. dielectric constant tensor:
#      x y z
#    x 1.784910 0.000000 0.000000 
#    y 0.000000 1.772180 0.000000 
#    z 0.000000 0.000000 1.748480 
# 
# From -- ./inp_files/23956.got.cif
#   From: 2010.06.25/outbox.cif.g09.slc.cpg/sg43_12_cif.got.tgz:23956.got - 2010.06.26 16:48:59.
