data_PCOD8187188
_publ_section_title
;
Structure prediction by ZEFSAII (Michael W. Deem and Ramdas Pophale) SiO2 
 PCOD8187188
Probable space group: F D D 2
;
_chemical_formula_sum "Si O2"
_cell_formula_units_Z 96
_cell_length_a 23.096235
_cell_length_b 12.891799
_cell_length_c 15.567807
_cell_angle_alpha 90.000000
_cell_angle_beta 90.000000
_cell_angle_gamma 90.000000
_cell_volume 4635.345970
_symmetry_space_group_name_H-M "F D D 2"
_symmetry_group_IT_number 43
_symmetry_cell_setting 'orthorhombic'
loop_
_space_group_symop_operation_xyz
x,y,z
-x,-y,z
1/4-x,1/4+y,1/4+z
1/4+x,1/4-y,1/4+z
x,1/2+y,1/2+z
-x,1/2-y,1/2+z
1/4-x,3/4+y,3/4+z
1/4+x,3/4-y,3/4+z
1/2+x,y,1/2+z
1/2-x,-y,1/2+z
3/4-x,1/4+y,3/4+z
3/4+x,1/4-y,3/4+z
1/2+x,1/2+y,z
1/2-x,1/2-y,z
3/4-x,3/4+y,1/4+z
3/4+x,3/4-y,1/4+z
loop_
_atom_site_type_symbol
_atom_site_label
_atom_site_fract_x
_atom_site_fract_y
_atom_site_fract_z
Si Si1 0.860798 0.469225 0.621740
Si Si2 0.590616 0.318682 0.064279
Si Si3 0.188065 0.200969 0.844763
Si Si4 0.980130 0.887805 0.146043
Si Si5 0.268501 0.438367 0.992831
Si Si6 0.604737 0.639016 0.697451
O O1 0.851058 0.483915 0.722762
O O2 0.870208 0.579860 0.576755
O O3 0.915840 0.394345 0.606414
O O4 0.804861 0.415290 0.578970
O O5 0.522928 0.348386 0.071063
O O6 0.608432 0.237831 0.136469
O O7 0.250000 0.250000 0.817176
O O8 0.198392 0.109208 0.911566
O O9 0.158691 0.146863 0.762143
O O10 0.145078 0.285894 0.888144
O O11 0.984727 0.811798 0.227478
O O12 0.000000 0.000000 0.181317
O O13 0.204937 0.388669 0.002656
#
# Coordination Sequence:
#
# PCOD8187188 Si02
#       6
#    16  16  16  16  16  16
#     4  11  20  37  61  94 120 170 206 262 326 382
#     4  10  21  37  62  86 131 159 217 264 319 383
#     4  10  23  43  66  93 131 172 219 270 324 392
#     4   9  20  38  59  87 127 161 204 269 312 375
#     4  10  22  39  64  92 130 165 216 266 326 387
#     4  10  22  44  61  93 129 171 215 275 320 389
#
# _framework density 20.710429999999999
#
# number of rings (size 3 to 8) (size 9 to 14) (size 15 to 20)
#    0.000    2.000    1.667    1.000    2.333    1.333 
#    9.000    8.333    0.000    0.000    0.000    0.000 
#    0.000    0.000    0.000    0.000    0.000    0.000 
#
# Total GULP energy -297594.377719 kJ/mol
# GULP energy per Si atom -12399.765738 kJ/mol
# Density = 2.066329 g / cm^3
# Si number density = 20.710430 Si / 1000 Ang^3
#
#
#
# Elastic Constant Matrix: (Units=GPa)
#
#
# Indices 1 2 3 4 5 6 
#
# 1 93.1891 4.7102 50.6905 0.0000 0.0000 0.0000
# 2 4.7102 58.5655 5.8297 0.0000 0.0000 0.0000
# 3 50.6905 5.8297 98.8139 0.0000 0.0000 0.0000
# 4 0.0000 0.0000 0.0000 20.9968 0.0000 0.0000
# 5 0.0000 0.0000 0.0000 0.0000 39.8514 0.0000
# 6 0.0000 0.0000 0.0000 0.0000 0.0000 20.6833
#
#
#
# Elastic Compliance Matrix: (Units=1/GPa)
#
#
# Indices 1 2 3 4 5 6 
#
# 1 0.014895 -0.000440 -0.007615 0.000000 0.000000 0.000000
# 2 -0.000440 0.017189 -0.000788 0.000000 0.000000 0.000000
# 3 -0.007615 -0.000788 0.014073 0.000000 0.000000 0.000000
# 4 0.000000 0.000000 0.000000 0.047626 0.000000 0.000000
# 5 0.000000 0.000000 0.000000 0.000000 0.025093 0.000000
# 6 0.000000 0.000000 0.000000 0.000000 0.000000 0.048348
#
#
# Mechanical properties :
#
#
# Convention : Reuss Voigt Hill
#
# Bulk Modulus (GPa) = 35.12455 41.44770 38.28613
# Shear Modulus (GPa) = 25.71988 28.92884 27.32436
#
# Velocity S-wave (km/s) = 3.52786 3.74147 3.63623
# Velocity P-wave (km/s) = 5.79577 6.22263 6.01299
#
# Compressibility (1/GPa) = 0.02847012
#
# Stress axis : x y z
#
# Youngs Moduli (GPa) = 67.13470 58.17750 71.05765
#
# Poissons Ratio (x) = 0.02559 0.54112
# Poissons Ratio (y) = 0.02954 0.05602
# Poissons Ratio (z) = 0.51125 0.04587
#
# Static dielectric constant tensor:
#      x y z
#    x 3.958200 0.000000 0.000000 
#    y 0.000000 3.868420 0.000000 
#    z 0.000000 0.000000 3.390610 
# 
# 
# High freq. dielectric constant tensor:
#      x y z
#    x 1.816090 0.000000 0.000000 
#    y 0.000000 1.817840 0.000000 
#    z 0.000000 0.000000 1.786490 
# 
# From -- ./inp_files/14830.got.cif
#   From: 2010.06.25/outbox.cif.g09.slc.cpg/sg43_8_cif.got.tgz:14830.got - 2010.06.26 16:48:59.
