data_PCOD8187613
_publ_section_title
;
Structure prediction by ZEFSAII (Michael W. Deem and Ramdas Pophale) SiO2 
 PCOD8187613
Probable space group: F D D 2
;
_chemical_formula_sum "Si O2"
_cell_formula_units_Z 96
_cell_length_a 12.676011
_cell_length_b 23.178410
_cell_length_c 18.238900
_cell_angle_alpha 90.000000
_cell_angle_beta 90.000000
_cell_angle_gamma 90.000000
_cell_volume 5358.767199
_symmetry_space_group_name_H-M "F D D 2"
_symmetry_group_IT_number 43
_symmetry_cell_setting 'orthorhombic'
loop_
_space_group_symop_operation_xyz
x,y,z
-x,-y,z
1/4-x,1/4+y,1/4+z
1/4+x,1/4-y,1/4+z
x,1/2+y,1/2+z
-x,1/2-y,1/2+z
1/4-x,3/4+y,3/4+z
1/4+x,3/4-y,3/4+z
1/2+x,y,1/2+z
1/2-x,-y,1/2+z
3/4-x,1/4+y,3/4+z
3/4+x,1/4-y,3/4+z
1/2+x,1/2+y,z
1/2-x,1/2-y,z
3/4-x,3/4+y,1/4+z
3/4+x,3/4-y,1/4+z
loop_
_atom_site_type_symbol
_atom_site_label
_atom_site_fract_x
_atom_site_fract_y
_atom_site_fract_z
Si Si1 0.381824 0.339627 0.622080
Si Si2 0.387428 0.472849 0.645340
Si Si3 0.196787 0.468229 0.738828
Si Si4 0.933607 0.126374 0.163182
Si Si5 0.878736 0.494835 0.987629
Si Si6 0.417607 0.916615 0.779344
O O1 0.402045 0.404309 0.645704
O O2 0.467002 0.320683 0.560931
O O3 0.406941 0.300389 0.692425
O O4 0.266022 0.330155 0.586072
O O5 0.500000 0.500000 0.663240
O O6 0.307985 0.491863 0.709780
O O7 0.330431 0.493232 0.569644
O O8 0.143361 0.427181 0.678346
O O9 0.117850 0.519672 0.758349
O O10 0.892191 0.186205 0.195188
O O11 0.928513 0.134175 0.073835
O O12 0.047405 0.114759 0.202685
O O13 0.000000 0.500000 0.005324
#
# Coordination Sequence:
#
# PCOD8187613 Si02
#       6
#    16  16  16  16  16  16
#     4  11  19  35  60  88 111 150 195 250 296 347
#     4  11  24  36  56  90 119 153 198 247 298 356
#     4  11  20  36  56  87 122 150 193 249 298 352
#     4  11  18  32  54  91 118 144 198 245 306 352
#     4  11  17  30  56  85 112 142 192 245 291 341
#     4  11  21  33  58  90 120 152 191 256 305 347
#
# _framework density 17.914569
#
# number of rings (size 3 to 8) (size 9 to 14) (size 15 to 20)
#    0.000    1.000    8.333    2.000    2.333    0.000 
#    0.000    1.667    0.000    0.000    0.000    0.000 
#    0.000    0.000    0.000    0.000    0.000    0.000 
#
# Total GULP energy -297336.954311 kJ/mol
# GULP energy per Si atom -12389.039763 kJ/mol
# Density = 1.787379 g / cm^3
# Si number density = 17.914569 Si / 1000 Ang^3
#
#
#
# Elastic Constant Matrix: (Units=GPa)
#
#
# Indices 1 2 3 4 5 6 
#
# 1 64.0997 39.2800 43.0707 0.0000 0.0000 0.0000
# 2 39.2800 124.1105 34.8196 0.0000 0.0000 0.0000
# 3 43.0707 34.8196 88.0694 0.0000 0.0000 0.0000
# 4 0.0000 0.0000 0.0000 31.4792 0.0000 0.0000
# 5 0.0000 0.0000 0.0000 0.0000 16.4063 0.0000
# 6 0.0000 0.0000 0.0000 0.0000 0.0000 6.3886
#
#
#
# Elastic Compliance Matrix: (Units=1/GPa)
#
#
# Indices 1 2 3 4 5 6 
#
# 1 0.025941 -0.005231 -0.010618 0.000000 0.000000 0.000000
# 2 -0.005231 0.010117 -0.001442 0.000000 0.000000 0.000000
# 3 -0.010618 -0.001442 0.017118 0.000000 0.000000 0.000000
# 4 0.000000 0.000000 0.000000 0.031767 0.000000 0.000000
# 5 0.000000 0.000000 0.000000 0.000000 0.060952 0.000000
# 6 0.000000 0.000000 0.000000 0.000000 0.000000 0.156529
#
#
# Mechanical properties :
#
#
# Convention : Reuss Voigt Hill
#
# Bulk Modulus (GPa) = 53.78186 56.73558 55.25872
# Shear Modulus (GPa) = 14.56855 21.46211 18.01533
#
# Velocity S-wave (km/s) = 2.85480 3.46501 3.17460
# Velocity P-wave (km/s) = 6.39945 6.90993 6.65959
#
# Compressibility (1/GPa) = 0.01859363
#
# Stress axis : x y z
#
# Youngs Moduli (GPa) = 38.54867 98.83919 58.41898
#
# Poissons Ratio (x) = 0.51704 0.62032
# Poissons Ratio (y) = 0.20165 0.08423
# Poissons Ratio (z) = 0.40933 0.14250
#
# Static dielectric constant tensor:
#      x y z
#    x 3.155630 0.000000 0.000000 
#    y 0.000000 3.413100 0.000000 
#    z 0.000000 0.000000 3.791360 
# 
# 
# High freq. dielectric constant tensor:
#      x y z
#    x 1.642930 0.000000 0.000000 
#    y 0.000000 1.704060 0.000000 
#    z 0.000000 0.000000 1.695500 
# 
# From -- ./inp_files/14820.got.cif
#   From: 2010.06.25/outbox.cif.g09.slc.cpg/sg43_8_cif.got.tgz:14820.got - 2010.06.26 16:48:59.
