data_PCOD8187752
_publ_section_title
;
Structure prediction by ZEFSAII (Michael W. Deem and Ramdas Pophale) SiO2 
 PCOD8187752
Probable space group: F D D 2
;
_chemical_formula_sum "Si O2"
_cell_formula_units_Z 120
_cell_length_a 9.304148
_cell_length_b 23.966107
_cell_length_c 23.375535
_cell_angle_alpha 90.000000
_cell_angle_beta 90.000000
_cell_angle_gamma 90.000000
_cell_volume 5212.375124
_symmetry_space_group_name_H-M "F D D 2"
_symmetry_group_IT_number 43
_symmetry_cell_setting 'orthorhombic'
loop_
_space_group_symop_operation_xyz
x,y,z
-x,-y,z
1/4-x,1/4+y,1/4+z
1/4+x,1/4-y,1/4+z
x,1/2+y,1/2+z
-x,1/2-y,1/2+z
1/4-x,3/4+y,3/4+z
1/4+x,3/4-y,3/4+z
1/2+x,y,1/2+z
1/2-x,-y,1/2+z
3/4-x,1/4+y,3/4+z
3/4+x,1/4-y,3/4+z
1/2+x,1/2+y,z
1/2-x,1/2-y,z
3/4-x,3/4+y,1/4+z
3/4+x,3/4-y,1/4+z
loop_
_atom_site_type_symbol
_atom_site_label
_atom_site_fract_x
_atom_site_fract_y
_atom_site_fract_z
Si Si1 0.876754 0.575064 0.383390
Si Si2 0.221293 0.515138 0.568132
Si Si3 0.500000 0.000000 0.478177
Si Si4 0.603403 0.049669 0.812509
Si Si5 0.831382 0.437620 0.680977
Si Si6 0.640923 0.370560 0.554174
Si Si7 0.495483 0.565137 0.694671
Si Si8 0.408077 0.650173 0.333300
O O1 0.759341 0.545493 0.342429
O O2 0.825551 0.635805 0.406030
O O3 0.901577 0.539087 0.439717
O O4 0.027069 0.580519 0.349029
O O5 0.103504 0.534045 0.521314
O O6 0.155883 0.512612 0.633498
O O7 0.338850 0.563940 0.568204
O O8 0.290930 0.456046 0.549993
O O9 0.617016 0.044195 0.743662
O O10 0.542632 0.108691 0.834041
O O11 0.500000 0.000000 0.834103
O O12 0.666640 0.416145 0.682715
O O13 0.697542 0.355385 0.492895
O O14 0.468662 0.363753 0.553959
O O15 0.500000 0.500000 0.711414
O O16 0.604549 0.577813 0.643913
#
# Coordination Sequence:
#
# PCOD8187752 Si02
#       8
#    16  16   8  16  16  16  16  16
#     4  11  26  47  75 106 150 200 250 308 376 472
#     4  11  25  46  76 108 147 195 265 310 380 459
#     4  12  28  44  78 106 152 202 250 306 388 458
#     4  12  31  48  72 114 159 194 255 331 403 448
#     4  11  24  47  77 104 148 199 258 309 373 473
#     4  11  25  43  77 108 149 195 252 306 383 460
#     4  12  23  44  77 112 146 197 256 308 381 477
#     4  12  26  47  73 113 149 194 249 328 388 452
#
# _framework density 23.022134999999999
#
# number of rings (size 3 to 8) (size 9 to 14) (size 15 to 20)
#    0.000    0.533    5.333    2.000   11.200    2.133 
#    0.000    0.000    0.000    0.000    0.000    0.000 
#    0.000    0.000    0.000    0.000    0.000    0.000 
#
# Total GULP energy -371912.020247 kJ/mol
# GULP energy per Si atom -12397.067342 kJ/mol
# Density = 2.296974 g / cm^3
# Si number density = 23.022135 Si / 1000 Ang^3
#
#
#
# Elastic Constant Matrix: (Units=GPa)
#
#
# Indices 1 2 3 4 5 6 
#
# 1 98.0846 34.4074 49.0916 0.0000 0.0000 0.0000
# 2 34.4074 91.3276 41.1217 0.0000 0.0000 0.0000
# 3 49.0916 41.1217 111.3202 0.0000 0.0000 0.0000
# 4 0.0000 0.0000 0.0000 29.6742 0.0000 0.0000
# 5 0.0000 0.0000 0.0000 0.0000 39.5725 0.0000
# 6 0.0000 0.0000 0.0000 0.0000 0.0000 39.0119
#
#
#
# Elastic Compliance Matrix: (Units=1/GPa)
#
#
# Indices 1 2 3 4 5 6 
#
# 1 0.013707 -0.002930 -0.004962 0.000000 0.000000 0.000000
# 2 -0.002930 0.013760 -0.003791 0.000000 0.000000 0.000000
# 3 -0.004962 -0.003791 0.012572 0.000000 0.000000 0.000000
# 4 0.000000 0.000000 0.000000 0.033699 0.000000 0.000000
# 5 0.000000 0.000000 0.000000 0.000000 0.025270 0.000000
# 6 0.000000 0.000000 0.000000 0.000000 0.000000 0.025633
#
#
# Mechanical properties :
#
#
# Convention : Reuss Voigt Hill
#
# Bulk Modulus (GPa) = 59.97817 61.10821 60.54319
# Shear Modulus (GPa) = 32.55946 33.39249 32.97598
#
# Velocity S-wave (km/s) = 3.76475 3.81261 3.78876
# Velocity P-wave (km/s) = 6.70871 6.78102 6.74496
#
# Compressibility (1/GPa) = 0.01667273
#
# Stress axis : x y z
#
# Youngs Moduli (GPa) = 72.95739 72.67273 79.54221
#
# Poissons Ratio (x) = 0.21290 0.39472
# Poissons Ratio (y) = 0.21373 0.30156
# Poissons Ratio (z) = 0.36204 0.27551
#
# Static dielectric constant tensor:
#      x y z
#    x 4.240550 0.000000 0.000000 
#    y 0.000000 4.038480 0.000000 
#    z 0.000000 0.000000 4.257990 
# 
# 
# High freq. dielectric constant tensor:
#      x y z
#    x 1.908900 0.000000 0.000000 
#    y 0.000000 1.905040 0.000000 
#    z 0.000000 0.000000 1.917590 
# 
# From -- ./inp_files/20429.got.cif
#   From: 2010.06.25/outbox.cif.g09.slc.cpg/sg43_11_cif.got.tgz:20429.got - 2010.06.26 16:48:59.
