data_PCOD8187746
_publ_section_title
;
Structure prediction by ZEFSAII (Michael W. Deem and Ramdas Pophale) SiO2 
 PCOD8187746
Probable space group: F D D 2
;
_chemical_formula_sum "Si O2"
_cell_formula_units_Z 88
_cell_length_a 6.572093
_cell_length_b 27.733346
_cell_length_c 22.308452
_cell_angle_alpha 90.000000
_cell_angle_beta 90.000000
_cell_angle_gamma 90.000000
_cell_volume 4066.075193
_symmetry_space_group_name_H-M "F D D 2"
_symmetry_group_IT_number 43
_symmetry_cell_setting 'orthorhombic'
loop_
_space_group_symop_operation_xyz
x,y,z
-x,-y,z
1/4-x,1/4+y,1/4+z
1/4+x,1/4-y,1/4+z
x,1/2+y,1/2+z
-x,1/2-y,1/2+z
1/4-x,3/4+y,3/4+z
1/4+x,3/4-y,3/4+z
1/2+x,y,1/2+z
1/2-x,-y,1/2+z
3/4-x,1/4+y,3/4+z
3/4+x,1/4-y,3/4+z
1/2+x,1/2+y,z
1/2-x,1/2-y,z
3/4-x,3/4+y,1/4+z
3/4+x,3/4-y,1/4+z
loop_
_atom_site_type_symbol
_atom_site_label
_atom_site_fract_x
_atom_site_fract_y
_atom_site_fract_z
Si Si1 0.096017 0.791354 0.785890
Si Si2 0.697018 0.084081 0.183334
Si Si3 0.576830 0.447863 0.298949
Si Si4 0.012866 0.133914 0.099949
Si Si5 0.164531 0.578488 0.408812
Si Si6 0.500000 0.000000 0.111210
O O1 0.250000 0.750000 0.807837
O O2 0.158443 0.844306 0.804606
O O3 0.086364 0.791391 0.714040
O O4 0.880170 0.782919 0.816782
O O5 0.766100 0.074715 0.251287
O O6 0.888779 0.108222 0.152119
O O7 0.505020 0.119927 0.179747
O O8 0.639505 0.033528 0.152757
O O9 0.500000 0.500000 0.277852
O O10 0.373933 0.416790 0.307072
O O11 0.695049 0.449255 0.361481
O O12 0.190926 0.164368 0.131338
#
# Coordination Sequence:
#
# PCOD8187746 Si02
#       6
#    16  16  16  16  16   8
#     4  12  26  43  74 105 141 185 240 295 358 432
#     4  11  25  45  71 102 140 186 237 294 350 431
#     4  11  28  45  70 104 144 180 237 294 360 429
#     4  11  24  47  71 105 139 188 235 292 363 430
#     4  11  26  45  71 102 141 189 232 291 362 427
#     4  12  26  44  74 106 142 184 244 294 356 426
#
# _framework density 21.642491
#
# number of rings (size 3 to 8) (size 9 to 14) (size 15 to 20)
#    0.000    0.727    3.636    2.182    8.909    4.364 
#    0.000    0.000    0.000    0.000    0.000    0.000 
#    0.000    0.000    0.000    0.000    0.000    0.000 
#
# Total GULP energy -272911.687317 kJ/mol
# GULP energy per Si atom -12405.076696 kJ/mol
# Density = 2.159323 g / cm^3
# Si number density = 21.642491 Si / 1000 Ang^3
#
#
#
# Elastic Constant Matrix: (Units=GPa)
#
#
# Indices 1 2 3 4 5 6 
#
# 1 123.0519 35.1790 44.1661 0.0000 0.0000 0.0000
# 2 35.1790 79.1329 27.2852 0.0000 0.0000 0.0000
# 3 44.1661 27.2852 118.5643 0.0000 0.0000 0.0000
# 4 0.0000 0.0000 0.0000 36.3649 0.0000 0.0000
# 5 0.0000 0.0000 0.0000 0.0000 47.0765 0.0000
# 6 0.0000 0.0000 0.0000 0.0000 0.0000 24.9052
#
#
#
# Elastic Compliance Matrix: (Units=1/GPa)
#
#
# Indices 1 2 3 4 5 6 
#
# 1 0.010203 -0.003503 -0.002994 0.000000 0.000000 0.000000
# 2 -0.003503 0.014929 -0.002131 0.000000 0.000000 0.000000
# 3 -0.002994 -0.002131 0.010040 0.000000 0.000000 0.000000
# 4 0.000000 0.000000 0.000000 0.027499 0.000000 0.000000
# 5 0.000000 0.000000 0.000000 0.000000 0.021242 0.000000
# 6 0.000000 0.000000 0.000000 0.000000 0.000000 0.040152
#
#
# Mechanical properties :
#
#
# Convention : Reuss Voigt Hill
#
# Bulk Modulus (GPa) = 55.81831 59.33440 57.57635
# Shear Modulus (GPa) = 33.94574 35.94391 34.94483
#
# Velocity S-wave (km/s) = 3.96470 4.07972 4.02262
# Velocity P-wave (km/s) = 6.84145 7.04750 6.94524
#
# Compressibility (1/GPa) = 0.01791527
#
# Stress axis : x y z
#
# Youngs Moduli (GPa) = 98.01056 66.98362 99.60135
#
# Poissons Ratio (x) = 0.23466 0.29825
# Poissons Ratio (y) = 0.34336 0.21221
# Poissons Ratio (z) = 0.29349 0.14272
#
# Static dielectric constant tensor:
#      x y z
#    x 3.556810 0.000000 0.000000 
#    y 0.000000 3.792270 0.000000 
#    z 0.000000 0.000000 3.902650 
# 
# 
# High freq. dielectric constant tensor:
#      x y z
#    x 1.862490 0.000000 0.000000 
#    y 0.000000 1.854030 0.000000 
#    z 0.000000 0.000000 1.860960 
# 
# From -- ./inp_files/19553.got.cif
#   From: 2010.06.25/outbox.cif.g09.slc.cpg/sg43_10_cif.got.tgz:19553.got - 2010.06.26 16:48:59.
