data_PCOD8187870
_publ_section_title
;
Structure prediction by ZEFSAII (Michael W. Deem and Ramdas Pophale) SiO2 
 PCOD8187870
Probable space group: I M M 2
;
_chemical_formula_sum "Si O2"
_cell_formula_units_Z 40
_cell_length_a 26.166249
_cell_length_b 9.024120
_cell_length_c 9.219668
_cell_angle_alpha 90.000000
_cell_angle_beta 90.000000
_cell_angle_gamma 90.000000
_cell_volume 2177.015966
_symmetry_space_group_name_H-M "I M M 2"
_symmetry_group_IT_number 44
_symmetry_cell_setting 'orthorhombic'
loop_
_space_group_symop_operation_xyz
x,y,z
-x,-y,z
-x,y,z
x,-y,z
1/2+x,1/2+y,1/2+z
1/2-x,1/2-y,1/2+z
1/2-x,1/2+y,1/2+z
1/2+x,1/2-y,1/2+z
loop_
_atom_site_type_symbol
_atom_site_label
_atom_site_fract_x
_atom_site_fract_y
_atom_site_fract_z
Si Si1 0.891194 0.836180 0.608660
Si Si2 0.000000 0.325009 0.277441
Si Si3 0.297926 0.171597 0.763009
Si Si4 0.207157 0.329825 0.603208
Si Si5 0.399330 0.332759 0.763538
Si Si6 0.500000 0.327869 0.078190
O O1 0.848967 0.718829 0.661025
O O2 0.898681 0.829906 0.436546
O O3 0.948131 0.801054 0.673123
O O4 0.872787 0.000000 0.656544
O O5 0.949083 0.254883 0.204920
O O6 0.000000 0.500000 0.253123
O O7 0.000000 0.288287 0.447369
O O8 0.249121 0.230668 0.679200
O O9 0.348076 0.255160 0.704270
O O10 0.305251 0.000000 0.728358
O O11 0.289216 0.199618 0.932683
O O12 0.215704 0.500000 0.644836
O O13 0.400933 0.500000 0.703420
O O14 0.500000 0.500000 0.020206
#
# Coordination Sequence:
#
# PCOD8187870 Si02
#       6
#     8   4   8   8   8   4
#     4   8  14  25  41  61  87 118 150 186 228 274
#     4  10  16  22  36  60  89 118 149 186 229 276
#     4  10  20  33  49  70  95 124 159 196 234 279
#     4  10  20  32  47  69  95 124 158 193 232 279
#     4   9  16  27  42  61  88 120 152 188 232 278
#     4   8  14  24  38  58  85 118 151 184 231 280
#
# _framework density 18.373774000000001
#
# number of rings (size 3 to 8) (size 9 to 14) (size 15 to 20)
#    0.000    2.800    0.000    3.900    0.000    7.200 
#    0.000    0.000    0.000    0.000    0.000    1.400 
#    0.000    9.600    0.000    0.000    0.000    0.000 
#
# Total GULP energy -247880.715557 kJ/mol
# GULP energy per Si atom -12394.035778 kJ/mol
# Density = 1.833195 g / cm^3
# Si number density = 18.373774 Si / 1000 Ang^3
#
#
#
# Elastic Constant Matrix: (Units=GPa)
#
#
# Indices 1 2 3 4 5 6 
#
# 1 180.5809 79.9939 23.6106 0.0000 0.0000 0.0000
# 2 79.9939 135.6682 23.9545 0.0000 0.0000 0.0000
# 3 23.6106 23.9545 11.4491 0.0000 0.0000 0.0000
# 4 0.0000 0.0000 0.0000 15.6913 0.0000 0.0000
# 5 0.0000 0.0000 0.0000 0.0000 14.9763 0.0000
# 6 0.0000 0.0000 0.0000 0.0000 0.0000 41.4971
#
#
#
# Elastic Compliance Matrix: (Units=1/GPa)
#
#
# Indices 1 2 3 4 5 6 
#
# 1 0.008268 -0.002957 -0.010864 0.000000 0.000000 0.000000
# 2 -0.002957 0.012747 -0.020572 0.000000 0.000000 0.000000
# 3 -0.010864 -0.020572 0.152789 0.000000 0.000000 0.000000
# 4 0.000000 0.000000 0.000000 0.063730 0.000000 0.000000
# 5 0.000000 0.000000 0.000000 0.000000 0.066772 0.000000
# 6 0.000000 0.000000 0.000000 0.000000 0.000000 0.024098
#
#
# Mechanical properties :
#
#
# Convention : Reuss Voigt Hill
#
# Bulk Modulus (GPa) = 9.52213 64.75735 37.13974
# Shear Modulus (GPa) = 11.56887 27.77556 19.67221
#
# Velocity S-wave (km/s) = 2.51199 3.89227 3.27566
# Velocity P-wave (km/s) = 3.68879 7.45122 5.87911
#
# Compressibility (1/GPa) = 0.10501853
#
# Stress axis : x y z
#
# Youngs Moduli (GPa) = 120.94930 78.45210 6.54497
#
# Poissons Ratio (x) = 0.23197 0.07110
# Poissons Ratio (y) = 0.35762 0.13464
# Poissons Ratio (z) = 1.31399 1.61390
#
# Static dielectric constant tensor:
#      x y z
#    x 3.997720 0.000000 0.000000 
#    y 0.000000 3.486560 0.000000 
#    z 0.000000 0.000000 2.650970 
# 
# 
# High freq. dielectric constant tensor:
#      x y z
#    x 1.743020 0.000000 0.000000 
#    y 0.000000 1.722550 0.000000 
#    z 0.000000 0.000000 1.622980 
# 
# From -- ./inp_files/4645.got.cif
#   From: 2010.03.12/outbox.cif.g09.slc.cpg/sg44_3_cif.got.tgz:4645.got - 2010.04.14 02:36:11.
