data_PCOD8187729
_publ_section_title
;
Structure prediction by ZEFSAII (Michael W. Deem and Ramdas Pophale) SiO2 
 PCOD8187729
Probable space group: F D D 2
;
_chemical_formula_sum "Si O2"
_cell_formula_units_Z 80
_cell_length_a 29.270711
_cell_length_b 21.127078
_cell_length_c 5.435462
_cell_angle_alpha 90.000000
_cell_angle_beta 90.000000
_cell_angle_gamma 90.000000
_cell_volume 3361.314674
_symmetry_space_group_name_H-M "F D D 2"
_symmetry_group_IT_number 43
_symmetry_cell_setting 'orthorhombic'
loop_
_space_group_symop_operation_xyz
x,y,z
-x,-y,z
1/4-x,1/4+y,1/4+z
1/4+x,1/4-y,1/4+z
x,1/2+y,1/2+z
-x,1/2-y,1/2+z
1/4-x,3/4+y,3/4+z
1/4+x,3/4-y,3/4+z
1/2+x,y,1/2+z
1/2-x,-y,1/2+z
3/4-x,1/4+y,3/4+z
3/4+x,1/4-y,3/4+z
1/2+x,1/2+y,z
1/2-x,1/2-y,z
3/4-x,3/4+y,1/4+z
3/4+x,3/4-y,1/4+z
loop_
_atom_site_type_symbol
_atom_site_label
_atom_site_fract_x
_atom_site_fract_y
_atom_site_fract_z
Si Si1 0.902853 0.982356 0.647480
Si Si2 0.679681 0.205261 0.873049
Si Si3 0.446643 0.760120 0.292876
Si Si4 0.003508 0.147400 0.124922
Si Si5 0.161700 0.397427 0.677696
O O1 0.923489 0.014791 0.397212
O O2 0.850070 0.002804 0.699944
O O3 0.906375 0.906763 0.632226
O O4 0.931050 0.996003 0.895482
O O5 0.726616 0.167472 0.837057
O O6 0.638283 0.156997 0.812270
O O7 0.483154 0.812202 0.385047
O O8 0.471981 0.692820 0.292890
O O9 0.429915 0.784943 0.028115
O O10 0.051266 0.123847 0.234600
#
# Coordination Sequence:
#
# PCOD8187729 Si02
#       5
#    16  16  16  16  16
#     4  11  26  49  71 105 144 193 234 301 372 430
#     4  11  27  46  73 104 148 186 241 302 366 430
#     4  11  24  44  75 100 142 184 250 294 363 428
#     4  12  24  45  72 109 138 194 244 306 352 449
#     4  11  25  46  72 104 144 190 239 304 361 433
#
# _framework density 23.800214
#
# number of rings (size 3 to 8) (size 9 to 14) (size 15 to 20)
#    0.000    0.800    6.000    0.000    5.600    0.800 
#    0.000    0.000    0.000    0.000    0.000    0.000 
#    0.000    0.000    0.000    0.000    0.000    0.000 
#
# Total GULP energy -247854.554816 kJ/mol
# GULP energy per Si atom -12392.727741 kJ/mol
# Density = 2.374604 g / cm^3
# Si number density = 23.800214 Si / 1000 Ang^3
#
#
#
# Elastic Constant Matrix: (Units=GPa)
#
#
# Indices 1 2 3 4 5 6 
#
# 1 70.6375 -7.2788 6.2005 -0.1004 -0.0578 -0.0475
# 2 -7.2788 59.6352 3.2655 0.0972 0.0416 0.0124
# 3 6.2005 3.2655 92.0144 0.3481 0.0438 0.0146
# 4 -0.1004 0.0972 0.3481 39.3649 0.0849 0.0469
# 5 -0.0578 0.0416 0.0438 0.0849 32.5666 0.0200
# 6 -0.0475 0.0124 0.0146 0.0469 0.0200 41.7093
#
#
#
# Elastic Compliance Matrix: (Units=1/GPa)
#
#
# Indices 1 2 3 4 5 6 
#
# 1 0.014435 0.001819 -0.001037 0.000041 0.000025 0.000016
# 2 0.001819 0.017030 -0.000727 -0.000031 -0.000017 -0.000003
# 3 -0.001037 -0.000727 0.010964 -0.000098 -0.000015 -0.000005
# 4 0.000041 -0.000031 -0.000098 0.025405 -0.000066 -0.000028
# 5 0.000025 -0.000017 -0.000015 -0.000066 0.030707 -0.000015
# 6 0.000016 -0.000003 -0.000005 -0.000028 -0.000015 0.023976
#
#
# Mechanical properties :
#
#
# Convention : Reuss Voigt Hill
#
# Bulk Modulus (GPa) = 23.50814 25.18461 24.34638
# Shear Modulus (GPa) = 36.60664 37.40147 37.00406
#
# Velocity S-wave (km/s) = 3.92609 3.96849 3.94735
# Velocity P-wave (km/s) = 5.51824 5.62167 5.57019
#
# Compressibility (1/GPa) = 0.04253846
#
# Stress axis : x y z
#
# Youngs Moduli (GPa) = 69.27439 58.71837 91.20808
#
# Poissons Ratio (x) = -0.10679 0.09462
# Poissons Ratio (y) = -0.12598 0.06629
# Poissons Ratio (z) = 0.07187 0.04268
#
# Static dielectric constant tensor:
#      x y z
#    x 4.568050 -0.000180 -0.000260 
#    y -0.000180 4.216540 -0.000250 
#    z -0.000260 -0.000250 3.891290 
# 
# 
# High freq. dielectric constant tensor:
#      x y z
#    x 1.961570 0.000000 0.000010 
#    y 0.000000 1.946050 -0.000040 
#    z 0.000010 -0.000040 1.920190 
# 
# From -- ./inp_files/955.got.cif
#   From: 2010.06.25/outbox.cif.g09.slc.cpg/sg43_1_cif.got.tgz:955.got - 2010.06.26 16:48:59.
