data_PCOD8187733
_publ_section_title
;
Structure prediction by ZEFSAII (Michael W. Deem and Ramdas Pophale) SiO2 
 PCOD8187733
Probable space group: F D D 2
;
_chemical_formula_sum "Si O2"
_cell_formula_units_Z 112
_cell_length_a 29.535689
_cell_length_b 14.710056
_cell_length_c 11.660297
_cell_angle_alpha 90.000000
_cell_angle_beta 90.000000
_cell_angle_gamma 90.000000
_cell_volume 5066.068351
_symmetry_space_group_name_H-M "F D D 2"
_symmetry_group_IT_number 43
_symmetry_cell_setting 'orthorhombic'
loop_
_space_group_symop_operation_xyz
x,y,z
-x,-y,z
1/4-x,1/4+y,1/4+z
1/4+x,1/4-y,1/4+z
x,1/2+y,1/2+z
-x,1/2-y,1/2+z
1/4-x,3/4+y,3/4+z
1/4+x,3/4-y,3/4+z
1/2+x,y,1/2+z
1/2-x,-y,1/2+z
3/4-x,1/4+y,3/4+z
3/4+x,1/4-y,3/4+z
1/2+x,1/2+y,z
1/2-x,1/2-y,z
3/4-x,3/4+y,1/4+z
3/4+x,3/4-y,1/4+z
loop_
_atom_site_type_symbol
_atom_site_label
_atom_site_fract_x
_atom_site_fract_y
_atom_site_fract_z
Si Si1 0.751578 0.507422 0.412610
Si Si2 0.755591 0.854362 0.741134
Si Si3 0.782633 0.669653 0.265580
Si Si4 0.396082 0.479141 0.207269
Si Si5 0.825985 0.058123 0.559219
Si Si6 0.680585 0.934766 0.580662
Si Si7 0.851672 0.879986 0.642204
O O1 0.741720 0.412945 0.350418
O O2 0.751024 0.592767 0.325226
O O3 0.713584 0.508322 0.511231
O O4 0.800658 0.507985 0.473414
O O5 0.750000 0.750000 0.772535
O O6 0.722540 0.881060 0.636972
O O7 0.807853 0.875662 0.721427
O O8 0.750000 0.750000 0.222078
O O9 0.818003 0.712746 0.355764
O O10 0.808107 0.628596 0.154907
O O11 0.345166 0.493911 0.161218
O O12 0.394492 0.390825 0.288772
O O13 0.408293 0.567618 0.281527
O O14 0.852089 0.107115 0.457112
O O15 0.860756 0.985312 0.612179
#
# Coordination Sequence:
#
# PCOD8187733 Si02
#       7
#    16  16  16  16  16  16  16
#     4  11  24  47  72 100 146 189 234 301 364 437
#     4  12  25  46  71 103 138 188 241 289 363 424
#     4  11  26  47  73 106 144 191 241 305 367 435
#     4  11  25  42  74 103 137 185 244 289 355 443
#     4  12  27  45  70 106 146 187 244 301 370 429
#     4  11  24  45  69 102 138 183 233 293 354 424
#     4  12  25  46  70 102 143 189 238 303 355 442
#
# _framework density 22.107873000000001
#
# number of rings (size 3 to 8) (size 9 to 14) (size 15 to 20)
#    0.000    0.571    4.286    2.571    6.000    2.857 
#    0.000    0.000    0.000    0.000    0.000    0.000 
#    0.000    0.000    0.000    0.000    0.000    0.000 
#
# Total GULP energy -347194.353098 kJ/mol
# GULP energy per Si atom -12399.798325 kJ/mol
# Density = 2.205755 g / cm^3
# Si number density = 22.107873 Si / 1000 Ang^3
#
#
#
# Elastic Constant Matrix: (Units=GPa)
#
#
# Indices 1 2 3 4 5 6 
#
# 1 92.9709 47.3025 41.7225 0.0000 0.0000 0.0000
# 2 47.3025 134.4692 73.4932 0.0000 0.0000 0.0000
# 3 41.7225 73.4932 102.2980 0.0000 0.0000 0.0000
# 4 0.0000 0.0000 0.0000 24.6926 0.0000 0.0000
# 5 0.0000 0.0000 0.0000 0.0000 14.0414 0.0000
# 6 0.0000 0.0000 0.0000 0.0000 0.0000 34.2115
#
#
#
# Elastic Compliance Matrix: (Units=1/GPa)
#
#
# Indices 1 2 3 4 5 6 
#
# 1 0.013836 -0.002936 -0.003534 0.000000 0.000000 0.000000
# 2 -0.002936 0.012867 -0.008047 0.000000 0.000000 0.000000
# 3 -0.003534 -0.008047 0.016998 0.000000 0.000000 0.000000
# 4 0.000000 0.000000 0.000000 0.040498 0.000000 0.000000
# 5 0.000000 0.000000 0.000000 0.000000 0.071218 0.000000
# 6 0.000000 0.000000 0.000000 0.000000 0.000000 0.029230
#
#
# Mechanical properties :
#
#
# Convention : Reuss Voigt Hill
#
# Bulk Modulus (GPa) = 68.17602 72.75272 70.46437
# Shear Modulus (GPa) = 22.87614 25.73709 24.30661
#
# Velocity S-wave (km/s) = 3.22024 3.41568 3.31940
# Velocity P-wave (km/s) = 6.68816 6.96673 6.82886
#
# Compressibility (1/GPa) = 0.01466791
#
# Stress axis : x y z
#
# Youngs Moduli (GPa) = 72.27772 77.71681 58.83134
#
# Poissons Ratio (x) = 0.22814 0.20791
# Poissons Ratio (y) = 0.21217 0.47341
# Poissons Ratio (z) = 0.25542 0.62538
#
# Static dielectric constant tensor:
#      x y z
#    x 3.918600 0.000000 0.000000 
#    y 0.000000 4.557240 0.000000 
#    z 0.000000 0.000000 4.008230 
# 
# 
# High freq. dielectric constant tensor:
#      x y z
#    x 1.870800 0.000000 0.000000 
#    y 0.000000 1.876660 0.000000 
#    z 0.000000 0.000000 1.874470 
# 
# From -- ./inp_files/6325.got.cif
#   From: 2010.06.25/outbox.cif.g09.slc.cpg/sg43_4_cif.got.tgz:6325.got - 2010.06.26 16:48:59.
