data_PCOD8187561
_publ_section_title
;
Structure prediction by ZEFSAII (Michael W. Deem and Ramdas Pophale) SiO2 
 PCOD8187561
Probable space group: F D D 2
;
_chemical_formula_sum "Si O2"
_cell_formula_units_Z 88
_cell_length_a 12.576231
_cell_length_b 12.702567
_cell_length_c 24.198598
_cell_angle_alpha 90.000000
_cell_angle_beta 90.000000
_cell_angle_gamma 90.000000
_cell_volume 3865.736119
_symmetry_space_group_name_H-M "F D D 2"
_symmetry_group_IT_number 43
_symmetry_cell_setting 'orthorhombic'
loop_
_space_group_symop_operation_xyz
x,y,z
-x,-y,z
1/4-x,1/4+y,1/4+z
1/4+x,1/4-y,1/4+z
x,1/2+y,1/2+z
-x,1/2-y,1/2+z
1/4-x,3/4+y,3/4+z
1/4+x,3/4-y,3/4+z
1/2+x,y,1/2+z
1/2-x,-y,1/2+z
3/4-x,1/4+y,3/4+z
3/4+x,1/4-y,3/4+z
1/2+x,1/2+y,z
1/2-x,1/2-y,z
3/4-x,3/4+y,1/4+z
3/4+x,3/4-y,1/4+z
loop_
_atom_site_type_symbol
_atom_site_label
_atom_site_fract_x
_atom_site_fract_y
_atom_site_fract_z
Si Si1 0.488120 0.731462 0.878580
Si Si2 0.963225 0.198591 0.556531
Si Si3 0.250000 0.250000 0.105025
Si Si4 0.688004 0.853660 0.907576
Si Si5 0.612011 0.955354 0.724104
Si Si6 0.425336 0.773903 0.263045
O O1 0.516427 0.607259 0.890696
O O2 0.565609 0.817594 0.906694
O O3 0.377765 0.759618 0.909774
O O4 0.487986 0.747801 0.811886
O O5 0.856223 0.267462 0.567459
O O6 0.036404 0.190652 0.611140
O O7 0.038661 0.251778 0.509951
O O8 0.926632 0.080504 0.540090
O O9 0.750000 0.750000 0.893033
O O10 0.723466 0.898826 0.966807
O O11 0.612185 0.830590 0.732412
O O12 0.500000 0.000000 0.745344
#
# Coordination Sequence:
#
# PCOD8187561 Si02
#       6
#    16  16   8  16  16  16
#     4  11  25  44  70 108 147 190 245 312 369 432
#     4  11  23  47  75 109 145 189 257 310 361 455
#     4  10  24  44  70 106 158 178 244 316 368 446
#     4  12  22  41  78 104 139 194 255 301 363 449
#     4  12  27  46  70 110 154 194 245 312 377 444
#     4  11  25  45  73 105 145 193 258 299 359 460
#
# _framework density 22.764099999999999
#
# number of rings (size 3 to 8) (size 9 to 14) (size 15 to 20)
#    0.000    0.727    7.273    0.545    7.636    1.455 
#    0.000    0.000    2.000    0.000    0.000    0.000 
#    0.000    0.000    0.000    0.000    0.000    0.000 
#
# Total GULP energy -272588.002671 kJ/mol
# GULP energy per Si atom -12390.363758 kJ/mol
# Density = 2.271229 g / cm^3
# Si number density = 22.764100 Si / 1000 Ang^3
#
#
#
# Elastic Constant Matrix: (Units=GPa)
#
#
# Indices 1 2 3 4 5 6 
#
# 1 123.2618 22.9730 43.0015 0.0000 0.0000 0.0000
# 2 22.9730 74.3694 43.8563 0.0000 0.0000 0.0000
# 3 43.0015 43.8563 158.8358 0.0000 0.0000 0.0000
# 4 0.0000 0.0000 0.0000 35.4604 0.0000 0.0000
# 5 0.0000 0.0000 0.0000 0.0000 32.1150 0.0000
# 6 0.0000 0.0000 0.0000 0.0000 0.0000 30.4103
#
#
#
# Elastic Compliance Matrix: (Units=1/GPa)
#
#
# Indices 1 2 3 4 5 6 
#
# 1 0.009121 -0.001626 -0.002020 0.000000 0.000000 0.000000
# 2 -0.001626 0.016352 -0.004075 0.000000 0.000000 0.000000
# 3 -0.002020 -0.004075 0.007968 0.000000 0.000000 0.000000
# 4 0.000000 0.000000 0.000000 0.028200 0.000000 0.000000
# 5 0.000000 0.000000 0.000000 0.000000 0.031138 0.000000
# 6 0.000000 0.000000 0.000000 0.000000 0.000000 0.032884
#
#
# Mechanical properties :
#
#
# Convention : Reuss Voigt Hill
#
# Bulk Modulus (GPa) = 55.56131 64.01430 59.78781
# Shear Modulus (GPa) = 33.98971 36.03955 35.01463
#
# Velocity S-wave (km/s) = 3.86829 3.98323 3.92618
# Velocity P-wave (km/s) = 6.66423 7.02400 6.84648
#
# Compressibility (1/GPa) = 0.01799814
#
# Stress axis : x y z
#
# Youngs Moduli (GPa) = 109.64118 61.15642 125.50515
#
# Poissons Ratio (x) = 0.09944 0.25355
# Poissons Ratio (y) = 0.17828 0.51139
# Poissons Ratio (z) = 0.22150 0.24919
#
# Static dielectric constant tensor:
#      x y z
#    x 4.366970 0.000000 0.000000 
#    y 0.000000 4.019130 0.000000 
#    z 0.000000 0.000000 4.201350 
# 
# 
# High freq. dielectric constant tensor:
#      x y z
#    x 1.883900 0.000000 0.000000 
#    y 0.000000 1.879600 0.000000 
#    z 0.000000 0.000000 1.900820 
# 
# From -- ./inp_files/21669.got.cif
#   From: 2010.06.25/outbox.cif.g09.slc.cpg/sg43_11_cif.got.tgz:21669.got - 2010.06.26 16:48:59.
