data_PCOD8187177
_publ_section_title
;
Structure prediction by ZEFSAII (Michael W. Deem and Ramdas Pophale) SiO2 
 PCOD8187177
Probable space group: F D D 2
;
_chemical_formula_sum "Si O2"
_cell_formula_units_Z 88
_cell_length_a 14.861432
_cell_length_b 10.143041
_cell_length_c 26.770135
_cell_angle_alpha 90.000000
_cell_angle_beta 90.000000
_cell_angle_gamma 90.000000
_cell_volume 4035.333204
_symmetry_space_group_name_H-M "F D D 2"
_symmetry_group_IT_number 43
_symmetry_cell_setting 'orthorhombic'
loop_
_space_group_symop_operation_xyz
x,y,z
-x,-y,z
1/4-x,1/4+y,1/4+z
1/4+x,1/4-y,1/4+z
x,1/2+y,1/2+z
-x,1/2-y,1/2+z
1/4-x,3/4+y,3/4+z
1/4+x,3/4-y,3/4+z
1/2+x,y,1/2+z
1/2-x,-y,1/2+z
3/4-x,1/4+y,3/4+z
3/4+x,1/4-y,3/4+z
1/2+x,1/2+y,z
1/2-x,1/2-y,z
3/4-x,3/4+y,1/4+z
3/4+x,3/4-y,1/4+z
loop_
_atom_site_type_symbol
_atom_site_label
_atom_site_fract_x
_atom_site_fract_y
_atom_site_fract_z
Si Si1 0.790103 0.570809 0.702870
Si Si2 0.601327 0.606870 0.556279
Si Si3 0.349274 0.287646 0.184999
Si Si4 0.000000 0.000000 0.364392
Si Si5 0.919051 0.689422 0.084761
Si Si6 0.899824 0.038504 0.737033
O O1 0.836504 0.660830 0.746243
O O2 0.850841 0.439086 0.701655
O O3 0.802053 0.647928 0.650739
O O4 0.682635 0.541886 0.710666
O O5 0.691236 0.672960 0.574416
O O6 0.522937 0.709241 0.571064
O O7 0.599041 0.467077 0.584305
O O8 0.250000 0.250000 0.167717
O O9 0.411256 0.257357 0.137957
O O10 0.384445 0.194968 0.229919
O O11 0.852831 0.761646 0.046034
O O12 0.000000 0.000000 0.716451
#
# Coordination Sequence:
#
# PCOD8187177 Si02
#       6
#    16  16  16   8  16  16
#     4  10  23  43  61  96 136 171 225 287 332 422
#     4  10  23  41  64  93 129 178 228 271 343 421
#     4  10  21  36  60  92 127 163 218 272 330 396
#     4  12  24  44  70  90 140 184 222 282 360 392
#     4  10  21  40  63  91 125 166 224 275 324 411
#     4  10  21  36  65  93 125 169 218 271 339 399
#
# _framework density 21.807369000000001
#
# number of rings (size 3 to 8) (size 9 to 14) (size 15 to 20)
#    0.000    1.818    0.000    4.909    5.091    2.909 
#    3.273    1.818    0.000    0.000    0.000    0.000 
#    0.000    0.000    0.000    0.000    0.000    0.000 
#
# Total GULP energy -272651.549098 kJ/mol
# GULP energy per Si atom -12393.252232 kJ/mol
# Density = 2.175773 g / cm^3
# Si number density = 21.807369 Si / 1000 Ang^3
#
#
#
# Elastic Constant Matrix: (Units=GPa)
#
#
# Indices 1 2 3 4 5 6 
#
# 1 64.1676 21.4388 43.8196 0.0000 0.0000 0.0000
# 2 21.4388 98.7161 21.3726 0.0000 0.0000 0.0000
# 3 43.8196 21.3726 84.7618 0.0000 0.0000 0.0000
# 4 0.0000 0.0000 0.0000 35.0769 0.0000 0.0000
# 5 0.0000 0.0000 0.0000 0.0000 26.0797 0.0000
# 6 0.0000 0.0000 0.0000 0.0000 0.0000 27.3092
#
#
#
# Elastic Compliance Matrix: (Units=1/GPa)
#
#
# Indices 1 2 3 4 5 6 
#
# 1 0.024779 -0.002759 -0.012114 0.000000 0.000000 0.000000
# 2 -0.002759 0.011022 -0.001353 0.000000 0.000000 0.000000
# 3 -0.012114 -0.001353 0.018402 0.000000 0.000000 0.000000
# 4 0.000000 0.000000 0.000000 0.028509 0.000000 0.000000
# 5 0.000000 0.000000 0.000000 0.000000 0.038344 0.000000
# 6 0.000000 0.000000 0.000000 0.000000 0.000000 0.036618
#
#
# Mechanical properties :
#
#
# Convention : Reuss Voigt Hill
#
# Bulk Modulus (GPa) = 45.97593 46.76751 46.37172
# Shear Modulus (GPa) = 25.33247 28.42745 26.87996
#
# Velocity S-wave (km/s) = 3.41199 3.61442 3.51466
# Velocity P-wave (km/s) = 6.05399 6.23787 6.14661
#
# Compressibility (1/GPa) = 0.02175051
#
# Stress axis : x y z
#
# Youngs Moduli (GPa) = 40.35738 90.72679 54.34268
#
# Poissons Ratio (x) = 0.25027 0.65832
# Poissons Ratio (y) = 0.11133 0.07353
# Poissons Ratio (z) = 0.48890 0.12276
#
# Static dielectric constant tensor:
#      x y z
#    x 3.957000 0.000000 0.000000 
#    y 0.000000 3.942920 0.000000 
#    z 0.000000 0.000000 3.852370 
# 
# 
# High freq. dielectric constant tensor:
#      x y z
#    x 1.846520 0.000000 0.000000 
#    y 0.000000 1.855660 0.000000 
#    z 0.000000 0.000000 1.853530 
# 
# From -- ./inp_files/21656.got.cif
#   From: 2010.06.25/outbox.cif.g09.slc.cpg/sg43_11_cif.got.tgz:21656.got - 2010.06.26 16:48:59.
