data_PCOD8187782
_publ_section_title
;
Structure prediction by ZEFSAII (Michael W. Deem and Ramdas Pophale) SiO2 
 PCOD8187782
Probable space group: F D D 2
;
_chemical_formula_sum "Si O2"
_cell_formula_units_Z 112
_cell_length_a 29.563312
_cell_length_b 14.574807
_cell_length_c 11.405368
_cell_angle_alpha 90.000000
_cell_angle_beta 90.000000
_cell_angle_gamma 90.000000
_cell_volume 4914.340022
_symmetry_space_group_name_H-M "F D D 2"
_symmetry_group_IT_number 43
_symmetry_cell_setting 'orthorhombic'
loop_
_space_group_symop_operation_xyz
x,y,z
-x,-y,z
1/4-x,1/4+y,1/4+z
1/4+x,1/4-y,1/4+z
x,1/2+y,1/2+z
-x,1/2-y,1/2+z
1/4-x,3/4+y,3/4+z
1/4+x,3/4-y,3/4+z
1/2+x,y,1/2+z
1/2-x,-y,1/2+z
3/4-x,1/4+y,3/4+z
3/4+x,1/4-y,3/4+z
1/2+x,1/2+y,z
1/2-x,1/2-y,z
3/4-x,3/4+y,1/4+z
3/4+x,3/4-y,1/4+z
loop_
_atom_site_type_symbol
_atom_site_label
_atom_site_fract_x
_atom_site_fract_y
_atom_site_fract_z
Si Si1 0.626891 0.440483 0.077510
Si Si2 0.220494 0.618835 0.128426
Si Si3 0.726084 0.657862 0.369755
Si Si4 0.814055 0.193818 0.214961
Si Si5 0.296861 0.583091 0.685745
Si Si6 0.549161 0.033011 0.226010
Si Si7 0.867917 0.358560 0.581599
O O1 0.572724 0.434131 0.070222
O O2 0.643732 0.358008 0.158320
O O3 0.646692 0.538173 0.120316
O O4 0.643726 0.433249 0.943584
O O5 0.187355 0.703157 0.161982
O O6 0.269284 0.637538 0.183668
O O7 0.200483 0.526594 0.182975
O O8 0.223285 0.599437 0.989065
O O9 0.750000 0.750000 0.412054
O O10 0.754447 0.610119 0.266875
O O11 0.823885 0.192703 0.354138
O O12 0.292522 0.628331 0.557817
O O13 0.344903 0.618714 0.730929
O O14 0.500000 0.000000 0.187173
O O15 0.575199 0.951161 0.291793
#
# Coordination Sequence:
#
# PCOD8187782 Si02
#       7
#    16  16  16  16  16  16  16
#     4  12  27  46  78 110 144 194 251 315 373 449
#     4  11  26  48  73 103 146 199 244 307 374 448
#     4  12  23  51  74 107 148 190 255 311 371 448
#     4  11  26  50  72 110 150 197 247 311 378 451
#     4  12  28  47  76 109 149 199 248 311 382 442
#     4  12  27  50  74 111 158 198 251 311 385 458
#     4  12  26  49  73 109 148 196 251 314 369 453
#
# _framework density 22.790445999999999
#
# number of rings (size 3 to 8) (size 9 to 14) (size 15 to 20)
#    0.000    0.286    5.714    3.000   10.000    0.000 
#    0.000    0.000    0.000    0.000    0.000    0.000 
#    0.000    0.000    0.000    0.000    0.000    0.000 
#
# Total GULP energy -347308.587520 kJ/mol
# GULP energy per Si atom -12403.878126 kJ/mol
# Density = 2.273857 g / cm^3
# Si number density = 22.790446 Si / 1000 Ang^3
#
#
#
# Elastic Constant Matrix: (Units=GPa)
#
#
# Indices 1 2 3 4 5 6 
#
# 1 75.0445 47.8874 24.4417 0.0000 0.0000 0.0000
# 2 47.8874 142.8059 40.7248 0.0000 0.0000 0.0000
# 3 24.4417 40.7248 151.6785 0.0000 0.0000 0.0000
# 4 0.0000 0.0000 0.0000 20.2921 0.0000 0.0000
# 5 0.0000 0.0000 0.0000 0.0000 23.1169 0.0000
# 6 0.0000 0.0000 0.0000 0.0000 0.0000 31.9749
#
#
#
# Elastic Compliance Matrix: (Units=1/GPa)
#
#
# Indices 1 2 3 4 5 6 
#
# 1 0.017195 -0.005388 -0.001324 0.000000 0.000000 0.000000
# 2 -0.005388 0.009272 -0.001621 0.000000 0.000000 0.000000
# 3 -0.001324 -0.001621 0.007242 0.000000 0.000000 0.000000
# 4 0.000000 0.000000 0.000000 0.049280 0.000000 0.000000
# 5 0.000000 0.000000 0.000000 0.000000 0.043258 0.000000
# 6 0.000000 0.000000 0.000000 0.000000 0.000000 0.031275
#
#
# Mechanical properties :
#
#
# Convention : Reuss Voigt Hill
#
# Bulk Modulus (GPa) = 58.68172 66.18186 62.43179
# Shear Modulus (GPa) = 27.79797 32.17513 29.98655
#
# Velocity S-wave (km/s) = 3.49624 3.76144 3.63126
# Velocity P-wave (km/s) = 6.48865 6.92582 6.71079
#
# Compressibility (1/GPa) = 0.01704108
#
# Stress axis : x y z
#
# Youngs Moduli (GPa) = 58.15588 107.85462 138.09274
#
# Poissons Ratio (x) = 0.58117 0.18285
# Poissons Ratio (y) = 0.31337 0.22386
# Poissons Ratio (z) = 0.07700 0.17484
#
# Static dielectric constant tensor:
#      x y z
#    x 3.974120 0.000000 0.000000 
#    y 0.000000 4.172790 0.000000 
#    z 0.000000 0.000000 4.232630 
# 
# 
# High freq. dielectric constant tensor:
#      x y z
#    x 1.893230 0.000000 0.000000 
#    y 0.000000 1.904730 0.000000 
#    z 0.000000 0.000000 1.916290 
# 
# From -- ./inp_files/8273.got.cif
#   From: 2010.06.25/outbox.cif.g09.slc.cpg/sg43_5_cif.got.tgz:8273.got - 2010.06.26 16:48:59.
