data_PCOD8187390
_publ_section_title
;
Structure prediction by ZEFSAII (Michael W. Deem and Ramdas Pophale) SiO2 
 PCOD8187390
Probable space group: F D D 2
;
_chemical_formula_sum "Si O2"
_cell_formula_units_Z 120
_cell_length_a 24.787371
_cell_length_b 8.635351
_cell_length_c 26.687610
_cell_angle_alpha 90.000000
_cell_angle_beta 90.000000
_cell_angle_gamma 90.000000
_cell_volume 5712.420177
_symmetry_space_group_name_H-M "F D D 2"
_symmetry_group_IT_number 43
_symmetry_cell_setting 'orthorhombic'
loop_
_space_group_symop_operation_xyz
x,y,z
-x,-y,z
1/4-x,1/4+y,1/4+z
1/4+x,1/4-y,1/4+z
x,1/2+y,1/2+z
-x,1/2-y,1/2+z
1/4-x,3/4+y,3/4+z
1/4+x,3/4-y,3/4+z
1/2+x,y,1/2+z
1/2-x,-y,1/2+z
3/4-x,1/4+y,3/4+z
3/4+x,1/4-y,3/4+z
1/2+x,1/2+y,z
1/2-x,1/2-y,z
3/4-x,3/4+y,1/4+z
3/4+x,3/4-y,1/4+z
loop_
_atom_site_type_symbol
_atom_site_label
_atom_site_fract_x
_atom_site_fract_y
_atom_site_fract_z
Si Si1 0.922174 0.719273 0.667870
Si Si2 0.625616 0.239096 0.371561
Si Si3 0.655475 0.932756 0.324049
Si Si4 0.410506 0.218420 0.413795
Si Si5 0.750000 0.750000 0.358417
Si Si6 0.743848 0.570619 0.601853
Si Si7 0.504298 0.320801 0.747787
Si Si8 0.870074 0.441167 0.468656
O O1 0.864791 0.635339 0.678863
O O2 0.961003 0.595579 0.643559
O O3 0.948995 0.775706 0.719650
O O4 0.913067 0.860090 0.628836
O O5 0.568309 0.276813 0.347905
O O6 0.610931 0.174854 0.426033
O O7 0.655788 0.117337 0.334924
O O8 0.620766 0.852166 0.366803
O O9 0.716367 0.868144 0.323783
O O10 0.629869 0.892006 0.271067
O O11 0.472939 0.235670 0.396741
O O12 0.402851 0.102898 0.461378
O O13 0.750000 0.750000 0.611727
O O14 0.766853 0.526974 0.547528
O O15 0.500000 0.500000 0.762769
O O16 0.555467 0.283756 0.711866
#
# Coordination Sequence:
#
# PCOD8187390 Si02
#       8
#    16  16  16  16   8  16  16  16
#     4  11  22  42  63  99 132 175 220 292 341 404
#     4  11  24  41  67  95 142 172 226 292 344 409
#     4  10  22  42  64  99 129 179 223 277 341 417
#     4  10  23  42  65  95 139 174 227 279 344 403
#     4  10  24  40  66  90 138 172 220 274 352 412
#     4  12  26  43  66  97 138 187 226 284 352 411
#     4  12  24  39  70 101 126 171 237 284 346 418
#     4  11  23  41  68  98 132 174 231 283 340 420
#
# _framework density 21.006858000000001
#
# number of rings (size 3 to 8) (size 9 to 14) (size 15 to 20)
#    0.000    1.067    4.000    3.200    4.667    1.067 
#    0.000    0.000    2.933    0.000    0.000    0.000 
#    0.000    0.000    0.000    0.000    0.000    0.000 
#
# Total GULP energy -372000.351685 kJ/mol
# GULP energy per Si atom -12400.011723 kJ/mol
# Density = 2.095905 g / cm^3
# Si number density = 21.006858 Si / 1000 Ang^3
#
#
#
# Elastic Constant Matrix: (Units=GPa)
#
#
# Indices 1 2 3 4 5 6 
#
# 1 93.6246 39.0241 16.1412 0.0006 0.0000 0.0001
# 2 39.0241 135.4325 33.4905 0.0027 0.0000 0.0003
# 3 16.1412 33.4905 76.2428 -0.0008 0.0000 0.0000
# 4 0.0006 0.0027 -0.0008 -78.2297 0.0006 -0.0018
# 5 0.0000 0.0000 0.0000 0.0006 28.0639 0.0000
# 6 0.0001 0.0003 0.0000 -0.0018 0.0000 35.1281
#
#
#
# Elastic Compliance Matrix: (Units=1/GPa)
#
#
# Indices 1 2 3 4 5 6 
#
# 1 0.012231 -0.003235 -0.001168 0.000000 0.000000 0.000000
# 2 -0.003235 0.009139 -0.003330 0.000000 0.000000 0.000000
# 3 -0.001168 -0.003330 0.014826 0.000000 0.000000 0.000000
# 4 0.000000 0.000000 0.000000 -0.012783 0.000000 -0.000001
# 5 0.000000 0.000000 0.000000 0.000000 0.035633 0.000000
# 6 0.000000 0.000000 0.000000 -0.000001 0.000000 0.028467
#
#
# Mechanical properties :
#
#
# Convention : Reuss Voigt Hill
#
# Bulk Modulus (GPa) = 48.23984 53.62351 50.93168
# Shear Modulus (GPa) = 45.50014 11.43540 28.46777
#
# Velocity S-wave (km/s) = 4.65904 2.33569 3.68525
# Velocity P-wave (km/s) = 7.20805 5.73202 6.51199
#
# Compressibility (1/GPa) = 0.02072975
#
# Stress axis : x y z
#
# Youngs Moduli (GPa) = 81.76008 109.41663 67.44963
#
# Poissons Ratio (x) = 0.35401 0.07879
# Poissons Ratio (y) = 0.26453 0.22458
# Poissons Ratio (z) = 0.09551 0.36432
#
# Static dielectric constant tensor:
#      x y z
#    x 4.266230 -0.000030 0.000000 
#    y -0.000030 4.739070 0.000000 
#    z 0.000000 0.000000 3.550770 
# 
# 
# High freq. dielectric constant tensor:
#      x y z
#    x 1.823240 0.000000 0.000000 
#    y 0.000000 1.836070 0.000000 
#    z 0.000000 0.000000 1.803870 
# 
# From -- ./inp_files/26612.got.cif
#   From: 2010.06.25/outbox.cif.g09.slc.cpg/sg43_14_cif.got.tgz:26612.got - 2010.06.26 16:48:59.
