data_PCOD8187900
_publ_section_title
;
Structure prediction by ZEFSAII (Michael W. Deem and Ramdas Pophale) SiO2 
 PCOD8187900
Probable space group: I M M 2
;
_chemical_formula_sum "Si O2"
_cell_formula_units_Z 64
_cell_length_a 30.320483
_cell_length_b 9.484945
_cell_length_c 14.647113
_cell_angle_alpha 90.000000
_cell_angle_beta 90.000000
_cell_angle_gamma 90.000000
_cell_volume 4212.335598
_symmetry_space_group_name_H-M "I M M 2"
_symmetry_group_IT_number 44
_symmetry_cell_setting 'orthorhombic'
loop_
_space_group_symop_operation_xyz
x,y,z
-x,-y,z
-x,y,z
x,-y,z
1/2+x,1/2+y,1/2+z
1/2-x,1/2-y,1/2+z
1/2-x,1/2+y,1/2+z
1/2+x,1/2-y,1/2+z
loop_
_atom_site_type_symbol
_atom_site_label
_atom_site_fract_x
_atom_site_fract_y
_atom_site_fract_z
Si Si1 0.205123 0.665319 0.559980
Si Si2 0.451116 0.664394 0.474243
Si Si3 0.324486 0.656674 0.361684
Si Si4 0.450917 0.836644 0.292689
Si Si5 0.212071 0.168103 0.180770
Si Si6 0.637205 0.163136 0.204563
Si Si7 0.637978 0.665145 0.547640
Si Si8 0.778380 0.658023 0.361664
O O1 0.213229 0.500000 0.550865
O O2 0.245771 0.723376 0.622119
O O3 0.157655 0.702377 0.605838
O O4 0.203134 0.725355 0.456750
O O5 0.500000 0.706034 0.510382
O O6 0.448914 0.500000 0.449037
O O7 0.439413 0.747204 0.382060
O O8 0.414746 0.699956 0.552961
O O9 0.344069 0.500000 0.343910
O O10 0.334121 0.754192 0.276871
O O11 0.345517 0.727920 0.451488
O O12 0.273114 0.647309 0.377233
O O13 0.500000 0.799429 0.255738
O O14 0.415045 0.800660 0.213539
O O15 0.448095 0.000000 0.320729
O O16 0.166981 0.222946 0.131428
O O17 0.209750 0.238919 0.279435
O O18 0.213674 0.000000 0.194142
O O19 0.645662 0.000000 0.224806
O O20 0.647224 0.500000 0.544636
O O21 0.797325 0.500000 0.342670
#
# Coordination Sequence:
#
# PCOD8187900 Si02
#       8
#     8   8   8   8   8   8   8   8
#     4   9  17  29  44  60  81 111 143 170 205 250
#     4   9  16  26  42  63  85 111 144 174 201 248
#     4  10  17  26  42  62  86 113 139 171 210 245
#     4   9  17  27  39  60  89 113 135 171 216 252
#     4  10  18  30  46  62  83 113 145 175 208 251
#     4  10  18  28  43  62  83 114 147 171 201 250
#     4   9  16  27  43  62  85 116 144 167 207 253
#     4  10  19  31  44  61  86 114 143 177 211 245
#
# _framework density 15.193472
#
# number of rings (size 3 to 8) (size 9 to 14) (size 15 to 20)
#    0.000    2.500    3.750    0.000    0.000    0.000 
#    0.000    2.500    0.000    0.000    0.000    0.875 
#    0.000    1.000    0.000    0.000    0.000    0.000 
#
# Total GULP energy -396475.961845 kJ/mol
# GULP energy per Si atom -12389.873808 kJ/mol
# Density = 1.515889 g / cm^3
# Si number density = 15.193472 Si / 1000 Ang^3
#
#
#
# Elastic Constant Matrix: (Units=GPa)
#
#
# Indices 1 2 3 4 5 6 
#
# 1 108.9625 20.7953 50.9637 0.0000 0.0000 0.0000
# 2 20.7953 27.5710 26.5223 0.0000 0.0000 0.0000
# 3 50.9637 26.5223 103.2747 0.0000 0.0000 0.0000
# 4 0.0000 0.0000 0.0000 19.5637 0.0000 0.0000
# 5 0.0000 0.0000 0.0000 0.0000 23.0933 0.0000
# 6 0.0000 0.0000 0.0000 0.0000 0.0000 14.6276
#
#
#
# Elastic Compliance Matrix: (Units=1/GPa)
#
#
# Indices 1 2 3 4 5 6 
#
# 1 0.012353 -0.004586 -0.004918 0.000000 0.000000 0.000000
# 2 -0.004586 0.049873 -0.010545 0.000000 0.000000 0.000000
# 3 -0.004918 -0.010545 0.014818 0.000000 0.000000 0.000000
# 4 0.000000 0.000000 0.000000 0.051115 0.000000 0.000000
# 5 0.000000 0.000000 0.000000 0.000000 0.043303 0.000000
# 6 0.000000 0.000000 0.000000 0.000000 0.000000 0.068364
#
#
# Mechanical properties :
#
#
# Convention : Reuss Voigt Hill
#
# Bulk Modulus (GPa) = 27.06684 48.48564 37.77624
# Shear Modulus (GPa) = 17.10929 20.89206 19.00068
#
# Velocity S-wave (km/s) = 3.35937 3.71221 3.54019
# Velocity P-wave (km/s) = 5.73591 7.09616 6.45198
#
# Compressibility (1/GPa) = 0.03694557
#
# Stress axis : x y z
#
# Youngs Moduli (GPa) = 80.95183 20.05099 67.48565
#
# Poissons Ratio (x) = 0.09196 0.33190
# Poissons Ratio (y) = 0.37125 0.71163
# Poissons Ratio (z) = 0.39813 0.21144
#
# Static dielectric constant tensor:
#      x y z
#    x 3.173630 0.000000 0.000000 
#    y 0.000000 2.769730 0.000000 
#    z 0.000000 0.000000 2.870000 
# 
# 
# High freq. dielectric constant tensor:
#      x y z
#    x 1.583410 0.000000 0.000000 
#    y 0.000000 1.561080 0.000000 
#    z 0.000000 0.000000 1.555910 
# 
# From -- ./inp_files/17117.got.cif
#   From: 2010.03.12/outbox.cif.g09.slc.cpg/sg44_9_cif.got.tgz:17117.got - 2010.04.14 02:36:11.
