data_PCOD8187401
_publ_section_title
;
Structure prediction by ZEFSAII (Michael W. Deem and Ramdas Pophale) SiO2 
 PCOD8187401
Probable space group: F D D 2
;
_chemical_formula_sum "Si O2"
_cell_formula_units_Z 88
_cell_length_a 25.102049
_cell_length_b 9.906453
_cell_length_c 15.557485
_cell_angle_alpha 90.000000
_cell_angle_beta 90.000000
_cell_angle_gamma 90.000000
_cell_volume 3868.715089
_symmetry_space_group_name_H-M "F D D 2"
_symmetry_group_IT_number 43
_symmetry_cell_setting 'orthorhombic'
loop_
_space_group_symop_operation_xyz
x,y,z
-x,-y,z
1/4-x,1/4+y,1/4+z
1/4+x,1/4-y,1/4+z
x,1/2+y,1/2+z
-x,1/2-y,1/2+z
1/4-x,3/4+y,3/4+z
1/4+x,3/4-y,3/4+z
1/2+x,y,1/2+z
1/2-x,-y,1/2+z
3/4-x,1/4+y,3/4+z
3/4+x,1/4-y,3/4+z
1/2+x,1/2+y,z
1/2-x,1/2-y,z
3/4-x,3/4+y,1/4+z
3/4+x,3/4-y,1/4+z
loop_
_atom_site_type_symbol
_atom_site_label
_atom_site_fract_x
_atom_site_fract_y
_atom_site_fract_z
Si Si1 0.750000 0.250000 0.950610
Si Si2 0.844228 0.363245 0.837933
Si Si3 0.346789 0.362978 0.886744
Si Si4 0.915872 0.626860 0.392231
Si Si5 0.612161 0.164267 0.214900
Si Si6 0.490770 0.716896 0.756724
O O1 0.791972 0.322780 0.889512
O O2 0.773108 0.128789 0.010115
O O3 0.881470 0.232538 0.835984
O O4 0.829292 0.414640 0.742522
O O5 0.873961 0.488269 0.884362
O O6 0.390948 0.479786 0.885939
O O7 0.343595 0.307810 0.788698
O O8 0.369396 0.242146 0.943559
O O9 0.289338 0.408887 0.921975
O O10 0.972603 0.639578 0.343897
O O11 0.552946 0.190902 0.250034
#
# Coordination Sequence:
#
# PCOD8187401 Si02
#       6
#     8  16  16  16  16  16
#     4  10  22  42  68  96 132 176 234 282 346 402
#     4  11  22  41  65  97 130 180 223 288 342 412
#     4  12  22  42  69  98 132 185 222 285 345 406
#     4  12  22  42  71  95 136 177 233 276 350 413
#     4  11  26  43  69  99 143 175 231 291 352 405
#     4  11  24  45  70 102 139 181 233 295 338 426
#
# _framework density 22.746569999999998
#
# number of rings (size 3 to 8) (size 9 to 14) (size 15 to 20)
#    0.000    0.727    5.455    1.636    0.000    2.909 
#    3.273    0.000    0.000    0.000    0.000    0.000 
#    0.000    0.000    0.000    0.000    0.000    0.000 
#
# Total GULP energy -272760.911695 kJ/mol
# GULP energy per Si atom -12398.223259 kJ/mol
# Density = 2.269480 g / cm^3
# Si number density = 22.746570 Si / 1000 Ang^3
#
#
#
# Elastic Constant Matrix: (Units=GPa)
#
#
# Indices 1 2 3 4 5 6 
#
# 1 34.2361 21.2067 21.9074 0.0000 0.0000 0.0000
# 2 21.2067 128.8556 45.1011 0.0000 0.0000 0.0000
# 3 21.9074 45.1011 142.5606 0.0000 0.0000 0.0000
# 4 0.0000 0.0000 0.0000 37.1991 0.0000 0.0000
# 5 0.0000 0.0000 0.0000 0.0000 26.6589 0.0000
# 6 0.0000 0.0000 0.0000 0.0000 0.0000 30.5521
#
#
#
# Elastic Compliance Matrix: (Units=1/GPa)
#
#
# Indices 1 2 3 4 5 6 
#
# 1 0.034375 -0.004283 -0.003928 0.000000 0.000000 0.000000
# 2 -0.004283 0.009261 -0.002272 0.000000 0.000000 0.000000
# 3 -0.003928 -0.002272 0.008337 0.000000 0.000000 0.000000
# 4 0.000000 0.000000 0.000000 0.026882 0.000000 0.000000
# 5 0.000000 0.000000 0.000000 0.000000 0.037511 0.000000
# 6 0.000000 0.000000 0.000000 0.000000 0.000000 0.032731
#
#
# Mechanical properties :
#
#
# Convention : Reuss Voigt Hill
#
# Bulk Modulus (GPa) = 32.24903 53.56472 42.90687
# Shear Modulus (GPa) = 27.71677 33.37783 30.54730
#
# Velocity S-wave (km/s) = 3.49449 3.83479 3.66859
# Velocity P-wave (km/s) = 5.52180 6.57321 6.07031
#
# Compressibility (1/GPa) = 0.03100869
#
# Stress axis : x y z
#
# Youngs Moduli (GPa) = 29.09097 107.98508 119.95075
#
# Poissons Ratio (x) = 0.46246 0.47111
# Poissons Ratio (y) = 0.12459 0.27248
# Poissons Ratio (z) = 0.11426 0.24530
#
# Static dielectric constant tensor:
#      x y z
#    x 3.814410 0.000000 0.000000 
#    y 0.000000 4.582410 0.000000 
#    z 0.000000 0.000000 4.661130 
# 
# 
# High freq. dielectric constant tensor:
#      x y z
#    x 1.871600 0.000000 0.000000 
#    y 0.000000 1.921030 0.000000 
#    z 0.000000 0.000000 1.904400 
# 
# From -- ./inp_files/11467.got.cif
#   From: 2010.06.25/outbox.cif.g09.slc.cpg/sg43_6_cif.got.tgz:11467.got - 2010.06.26 16:48:59.
