data_PCOD8187325
_publ_section_title
;
Structure prediction by ZEFSAII (Michael W. Deem and Ramdas Pophale) SiO2 
 PCOD8187325
Probable space group: F D D 2
;
_chemical_formula_sum "Si O2"
_cell_formula_units_Z 104
_cell_length_a 17.526005
_cell_length_b 10.444081
_cell_length_c 27.308722
_cell_angle_alpha 90.000000
_cell_angle_beta 90.000000
_cell_angle_gamma 90.000000
_cell_volume 4998.670833
_symmetry_space_group_name_H-M "F D D 2"
_symmetry_group_IT_number 43
_symmetry_cell_setting 'orthorhombic'
loop_
_space_group_symop_operation_xyz
x,y,z
-x,-y,z
1/4-x,1/4+y,1/4+z
1/4+x,1/4-y,1/4+z
x,1/2+y,1/2+z
-x,1/2-y,1/2+z
1/4-x,3/4+y,3/4+z
1/4+x,3/4-y,3/4+z
1/2+x,y,1/2+z
1/2-x,-y,1/2+z
3/4-x,1/4+y,3/4+z
3/4+x,1/4-y,3/4+z
1/2+x,1/2+y,z
1/2-x,1/2-y,z
3/4-x,3/4+y,1/4+z
3/4+x,3/4-y,1/4+z
loop_
_atom_site_type_symbol
_atom_site_label
_atom_site_fract_x
_atom_site_fract_y
_atom_site_fract_z
Si Si1 0.699360 0.872621 0.062260
Si Si2 0.201878 0.865039 0.902115
Si Si3 0.960258 0.258766 0.891571
Si Si4 0.209520 0.384997 0.738649
Si Si5 0.291978 0.406097 0.496499
Si Si6 0.724562 0.606867 0.837560
Si Si7 0.250000 0.250000 0.585301
O O1 0.750000 0.750000 0.056173
O O2 0.609273 0.853163 0.064242
O O3 0.722337 0.941466 0.112508
O O4 0.719808 0.948100 0.012601
O O5 0.250000 0.750000 0.877320
O O6 0.113971 0.833234 0.890931
O O7 0.221810 0.866535 0.960718
O O8 0.227822 0.002979 0.881062
O O9 0.992794 0.271337 0.946956
O O10 0.948945 0.402550 0.868583
O O11 0.250000 0.250000 0.738468
O O12 0.122377 0.366724 0.719824
O O13 0.219707 0.440675 0.793468
O O14 0.302035 0.330099 0.547796
O O15 0.750000 0.750000 0.855809
#
# Coordination Sequence:
#
# PCOD8187325 Si02
#       7
#    16  16  16  16  16  16   8
#     4  11  23  45  66  97 138 183 229 296 353 432
#     4  12  25  43  68 103 140 178 231 305 344 424
#     4  11  23  40  70  97 138 172 231 287 360 404
#     4  11  21  40  65  98 130 178 236 285 338 440
#     4  11  22  41  67  95 139 176 232 285 350 426
#     4  11  25  46  70  97 141 188 240 283 363 429
#     4  10  22  38  66 100 128 184 214 278 360 418
#
# _framework density 20.805531999999999
#
# number of rings (size 3 to 8) (size 9 to 14) (size 15 to 20)
#    0.000    0.923    7.692    0.000    2.154    1.846 
#    2.769    0.769    0.000    0.000    0.000    0.000 
#    0.000    0.000    0.000    0.000    0.000    0.000 
#
# Total GULP energy -322129.994561 kJ/mol
# GULP energy per Si atom -12389.615175 kJ/mol
# Density = 2.075818 g / cm^3
# Si number density = 20.805532 Si / 1000 Ang^3
#
#
#
# Elastic Constant Matrix: (Units=GPa)
#
#
# Indices 1 2 3 4 5 6 
#
# 1 84.7630 20.3960 18.7535 0.0000 0.0000 0.0000
# 2 20.3960 117.5451 41.8801 0.0000 0.0000 0.0000
# 3 18.7535 41.8801 108.0916 0.0000 0.0000 0.0000
# 4 0.0000 0.0000 0.0000 33.9160 0.0000 0.0000
# 5 0.0000 0.0000 0.0000 0.0000 28.6481 0.0000
# 6 0.0000 0.0000 0.0000 0.0000 0.0000 32.8710
#
#
#
# Elastic Compliance Matrix: (Units=1/GPa)
#
#
# Indices 1 2 3 4 5 6 
#
# 1 0.012530 -0.001624 -0.001545 0.000000 0.000000 0.000000
# 2 -0.001624 0.010080 -0.003624 0.000000 0.000000 0.000000
# 3 -0.001545 -0.003624 0.010923 0.000000 0.000000 0.000000
# 4 0.000000 0.000000 0.000000 0.029485 0.000000 0.000000
# 5 0.000000 0.000000 0.000000 0.000000 0.034906 0.000000
# 6 0.000000 0.000000 0.000000 0.000000 0.000000 0.030422
#
#
# Mechanical properties :
#
#
# Convention : Reuss Voigt Hill
#
# Bulk Modulus (GPa) = 50.12792 52.49543 51.31167
# Shear Modulus (GPa) = 33.65162 34.37837 34.01499
#
# Velocity S-wave (km/s) = 4.02610 4.06934 4.04778
# Velocity P-wave (km/s) = 6.76450 6.88227 6.82364
#
# Compressibility (1/GPa) = 0.01994896
#
# Stress axis : x y z
#
# Youngs Moduli (GPa) = 79.80780 99.20361 91.54580
#
# Poissons Ratio (x) = 0.16109 0.14142
# Poissons Ratio (y) = 0.12959 0.33175
# Poissons Ratio (z) = 0.12329 0.35950
#
# Static dielectric constant tensor:
#      x y z
#    x 3.447330 0.000000 0.000000 
#    y 0.000000 4.034940 0.000000 
#    z 0.000000 0.000000 4.033270 
# 
# 
# High freq. dielectric constant tensor:
#      x y z
#    x 1.805620 0.000000 0.000000 
#    y 0.000000 1.818960 0.000000 
#    z 0.000000 0.000000 1.816150 
# 
# From -- ./inp_files/26005.got.cif
#   From: 2010.06.25/outbox.cif.g09.slc.cpg/sg43_14_cif.got.tgz:26005.got - 2010.06.26 16:48:59.
