data_PCOD8187296
_publ_section_title
;
Structure prediction by ZEFSAII (Michael W. Deem and Ramdas Pophale) SiO2 
 PCOD8187296
Probable space group: F D D 2
;
_chemical_formula_sum "Si O2"
_cell_formula_units_Z 72
_cell_length_a 11.545021
_cell_length_b 10.602692
_cell_length_c 27.574474
_cell_angle_alpha 90.000000
_cell_angle_beta 90.000000
_cell_angle_gamma 90.000000
_cell_volume 3375.344535
_symmetry_space_group_name_H-M "F D D 2"
_symmetry_group_IT_number 43
_symmetry_cell_setting 'orthorhombic'
loop_
_space_group_symop_operation_xyz
x,y,z
-x,-y,z
1/4-x,1/4+y,1/4+z
1/4+x,1/4-y,1/4+z
x,1/2+y,1/2+z
-x,1/2-y,1/2+z
1/4-x,3/4+y,3/4+z
1/4+x,3/4-y,3/4+z
1/2+x,y,1/2+z
1/2-x,-y,1/2+z
3/4-x,1/4+y,3/4+z
3/4+x,1/4-y,3/4+z
1/2+x,1/2+y,z
1/2-x,1/2-y,z
3/4-x,3/4+y,1/4+z
3/4+x,3/4-y,1/4+z
loop_
_atom_site_type_symbol
_atom_site_label
_atom_site_fract_x
_atom_site_fract_y
_atom_site_fract_z
Si Si1 0.647893 0.833516 0.812790
Si Si2 0.083604 0.780710 0.801910
Si Si3 0.366485 0.005822 0.662187
Si Si4 0.250000 0.750000 0.134367
Si Si5 0.232526 0.062490 0.257886
O O1 0.750000 0.750000 0.836431
O O2 0.551285 0.740338 0.789368
O O3 0.590952 0.920361 0.853204
O O4 0.705243 0.918371 0.770999
O O5 0.098450 0.805956 0.859407
O O6 0.151078 0.652318 0.789851
O O7 0.134925 0.897902 0.770884
O O8 0.323513 0.151019 0.665845
O O9 0.500000 0.000000 0.677962
O O10 0.292610 0.922390 0.700609
#
# Coordination Sequence:
#
# PCOD8187296 Si02
#       5
#    16  16  16   8  16
#     4  11  21  39  68  93 133 183 218 280 340 393
#     4  10  21  44  65  97 143 171 228 287 324 411
#     4  11  20  38  71  95 131 187 219 274 346 395
#     4  10  22  44  62  98 136 172 234 272 334 416
#     4  11  21  40  67  99 131 180 229 273 344 401
#
# _framework density 21.331156
#
# number of rings (size 3 to 8) (size 9 to 14) (size 15 to 20)
#    0.000    1.333    6.667    1.333    1.556    0.889 
#    0.000   22.222    0.000    0.000    0.000    0.000 
#    0.000    0.000    0.000    0.000    0.000    0.000 
#
# Total GULP energy -223156.016985 kJ/mol
# GULP energy per Si atom -12397.556499 kJ/mol
# Density = 2.128260 g / cm^3
# Si number density = 21.331156 Si / 1000 Ang^3
#
#
#
# Elastic Constant Matrix: (Units=GPa)
#
#
# Indices 1 2 3 4 5 6 
#
# 1 153.7838 83.3367 41.0060 0.0000 0.0000 0.0000
# 2 83.3367 82.4473 55.9666 0.0000 0.0000 0.0000
# 3 41.0060 55.9666 130.0918 0.0000 0.0000 0.0000
# 4 0.0000 0.0000 0.0000 12.5809 0.0000 0.0000
# 5 0.0000 0.0000 0.0000 0.0000 -1.0314 0.0000
# 6 0.0000 0.0000 0.0000 0.0000 0.0000 48.0777
#
#
#
# Elastic Compliance Matrix: (Units=1/GPa)
#
#
# Indices 1 2 3 4 5 6 
#
# 1 0.014944 -0.016819 0.002525 0.000000 0.000000 0.000000
# 2 -0.016819 0.036062 -0.010213 0.000000 0.000000 0.000000
# 3 0.002525 -0.010213 0.011284 0.000000 0.000000 0.000000
# 4 0.000000 0.000000 0.000000 0.079485 0.000000 0.000000
# 5 0.000000 0.000000 0.000000 0.000000 -0.969510 0.000000
# 6 0.000000 0.000000 0.000000 0.000000 0.000000 0.020800
#
#
# Mechanical properties :
#
#
# Convention : Reuss Voigt Hill
#
# Bulk Modulus (GPa) = 75.31659 80.77130 78.04394
# Shear Modulus (GPa) = -6.63574 24.32635 8.84530
#
# Velocity S-wave (km/s) = -1.76567 3.38067 2.03854
# Velocity P-wave (km/s) = 5.58821 7.29288 6.49670
#
# Compressibility (1/GPa) = 0.01327729
#
# Stress axis : x y z
#
# Youngs Moduli (GPa) = 66.91783 27.72994 88.61761
#
# Poissons Ratio (x) = 0.46639 -0.22379
# Poissons Ratio (y) = 1.12550 0.90502
# Poissons Ratio (z) = -0.16899 0.28320
#
# Static dielectric constant tensor:
#      x y z
#    x 4.167770 0.000000 0.000000 
#    y 0.000000 3.936690 0.000000 
#    z 0.000000 0.000000 3.594240 
# 
# 
# High freq. dielectric constant tensor:
#      x y z
#    x 1.841040 0.000000 0.000000 
#    y 0.000000 1.826100 0.000000 
#    z 0.000000 0.000000 1.819980 
# 
# From -- ./inp_files/24848.got.cif
#   From: 2010.06.25/outbox.cif.g09.slc.cpg/sg43_13_cif.got.tgz:24848.got - 2010.06.26 16:48:59.
