data_PCOD8187303
_publ_section_title
;
Structure prediction by ZEFSAII (Michael W. Deem and Ramdas Pophale) SiO2 
 PCOD8187303
Probable space group: F D D 2
;
_chemical_formula_sum "Si O2"
_cell_formula_units_Z 112
_cell_length_a 22.802036
_cell_length_b 19.525916
_cell_length_c 13.094683
_cell_angle_alpha 90.000000
_cell_angle_beta 90.000000
_cell_angle_gamma 90.000000
_cell_volume 5830.154087
_symmetry_space_group_name_H-M "F D D 2"
_symmetry_group_IT_number 43
_symmetry_cell_setting 'orthorhombic'
loop_
_space_group_symop_operation_xyz
x,y,z
-x,-y,z
1/4-x,1/4+y,1/4+z
1/4+x,1/4-y,1/4+z
x,1/2+y,1/2+z
-x,1/2-y,1/2+z
1/4-x,3/4+y,3/4+z
1/4+x,3/4-y,3/4+z
1/2+x,y,1/2+z
1/2-x,-y,1/2+z
3/4-x,1/4+y,3/4+z
3/4+x,1/4-y,3/4+z
1/2+x,1/2+y,z
1/2-x,1/2-y,z
3/4-x,3/4+y,1/4+z
3/4+x,3/4-y,1/4+z
loop_
_atom_site_type_symbol
_atom_site_label
_atom_site_fract_x
_atom_site_fract_y
_atom_site_fract_z
Si Si1 0.039166 0.066424 0.997490
Si Si2 0.237915 0.946766 0.289920
Si Si3 0.668376 0.527006 0.948028
Si Si4 0.826415 0.482098 0.963811
Si Si5 0.245396 0.946572 0.619954
Si Si6 0.792778 0.187095 0.178011
Si Si7 0.781440 0.616158 0.463409
O O1 0.012285 0.127943 0.933072
O O2 0.102414 0.051677 0.950609
O O3 0.042285 0.085684 0.116179
O O4 0.000000 0.000000 0.982072
O O5 0.302741 0.955579 0.338374
O O6 0.229079 0.869012 0.257774
O O7 0.187097 0.968924 0.368129
O O8 0.230593 0.993665 0.191390
O O9 0.705464 0.566822 0.034237
O O10 0.671182 0.445098 0.964855
O O11 0.892448 0.458034 0.961196
O O12 0.814463 0.526364 0.066506
O O13 0.783942 0.415547 0.961092
O O14 0.750000 0.250000 0.191297
O O15 0.791694 0.162508 0.061735
#
# Coordination Sequence:
#
# PCOD8187303 Si02
#       7
#    16  16  16  16  16  16  16
#     4  12  26  38  71 103 125 163 228 270 313 391
#     4  10  21  45  66  89 134 176 206 260 340 379
#     4  10  24  42  66  92 132 175 210 261 332 385
#     4  10  24  42  68  90 132 174 212 262 334 378
#     4  10  21  46  64  89 132 178 205 259 338 379
#     4  12  26  39  69 103 125 165 228 269 310 394
#     4  10  23  44  62 100 127 171 206 270 340 365
#
# _framework density 19.210469
#
# number of rings (size 3 to 8) (size 9 to 14) (size 15 to 20)
#    0.000    1.714    5.714    0.429   10.000    0.000 
#    2.571    2.857    0.000    0.000    0.000    0.000 
#    0.000    0.000    0.000    0.000    0.000    0.000 
#
# Total GULP energy -347241.686538 kJ/mol
# GULP energy per Si atom -12401.488805 kJ/mol
# Density = 1.916675 g / cm^3
# Si number density = 19.210469 Si / 1000 Ang^3
#
#
#
# Elastic Constant Matrix: (Units=GPa)
#
#
# Indices 1 2 3 4 5 6 
#
# 1 64.8417 28.1077 3.4075 0.0000 0.0000 0.0000
# 2 28.1077 118.4090 31.7680 0.0000 0.0000 0.0000
# 3 3.4075 31.7680 72.7282 0.0000 0.0000 0.0000
# 4 0.0000 0.0000 0.0000 6.9340 0.0000 0.0000
# 5 0.0000 0.0000 0.0000 0.0000 12.3140 0.0000
# 6 0.0000 0.0000 0.0000 0.0000 0.0000 21.9708
#
#
#
# Elastic Compliance Matrix: (Units=1/GPa)
#
#
# Indices 1 2 3 4 5 6 
#
# 1 0.017270 -0.004398 0.001112 0.000000 0.000000 0.000000
# 2 -0.004398 0.010686 -0.004462 0.000000 0.000000 0.000000
# 3 0.001112 -0.004462 0.015647 0.000000 0.000000 0.000000
# 4 0.000000 0.000000 0.000000 0.144217 0.000000 0.000000
# 5 0.000000 0.000000 0.000000 0.000000 0.081209 0.000000
# 6 0.000000 0.000000 0.000000 0.000000 0.000000 0.045515
#
#
# Mechanical properties :
#
#
# Convention : Reuss Voigt Hill
#
# Bulk Modulus (GPa) = 35.57762 42.50504 39.04133
# Shear Modulus (GPa) = 14.73151 21.09011 17.91081
#
# Velocity S-wave (km/s) = 2.77221 3.31697 3.05675
# Velocity P-wave (km/s) = 5.36721 6.06990 5.72934
#
# Compressibility (1/GPa) = 0.02810756
#
# Stress axis : x y z
#
# Youngs Moduli (GPa) = 57.90338 93.57763 63.91136
#
# Poissons Ratio (x) = 0.41154 -0.07106
# Poissons Ratio (y) = 0.25465 0.28516
# Poissons Ratio (z) = -0.06438 0.41752
#
# Static dielectric constant tensor:
#      x y z
#    x 3.364060 0.000000 0.000000 
#    y 0.000000 3.620230 0.000000 
#    z 0.000000 0.000000 3.772090 
# 
# 
# High freq. dielectric constant tensor:
#      x y z
#    x 1.736520 0.000000 0.000000 
#    y 0.000000 1.752370 0.000000 
#    z 0.000000 0.000000 1.762750 
# 
# From -- ./inp_files/7580.got.cif
#   From: 2010.06.25/outbox.cif.g09.slc.cpg/sg43_4_cif.got.tgz:7580.got - 2010.06.26 16:48:59.
