data_PCOD8187314
_publ_section_title
;
Structure prediction by ZEFSAII (Michael W. Deem and Ramdas Pophale) SiO2 
 PCOD8187314
Probable space group: F D D 2
;
_chemical_formula_sum "Si O2"
_cell_formula_units_Z 64
_cell_length_a 31.518021
_cell_length_b 17.636782
_cell_length_c 5.220097
_cell_angle_alpha 90.000000
_cell_angle_beta 90.000000
_cell_angle_gamma 90.000000
_cell_volume 2901.729070
_symmetry_space_group_name_H-M "F D D 2"
_symmetry_group_IT_number 43
_symmetry_cell_setting 'orthorhombic'
loop_
_space_group_symop_operation_xyz
x,y,z
-x,-y,z
1/4-x,1/4+y,1/4+z
1/4+x,1/4-y,1/4+z
x,1/2+y,1/2+z
-x,1/2-y,1/2+z
1/4-x,3/4+y,3/4+z
1/4+x,3/4-y,3/4+z
1/2+x,y,1/2+z
1/2-x,-y,1/2+z
3/4-x,1/4+y,3/4+z
3/4+x,1/4-y,3/4+z
1/2+x,1/2+y,z
1/2-x,1/2-y,z
3/4-x,3/4+y,1/4+z
3/4+x,3/4-y,1/4+z
loop_
_atom_site_type_symbol
_atom_site_label
_atom_site_fract_x
_atom_site_fract_y
_atom_site_fract_z
Si Si1 0.225832 0.021640 0.225490
Si Si2 0.439617 0.067551 0.530833
Si Si3 0.853681 0.075081 0.257141
Si Si4 0.172749 0.757026 0.277532
O O1 0.218709 0.108698 0.301616
O O2 0.244607 0.980641 0.475779
O O3 0.182095 0.980872 0.148004
O O4 0.389404 0.089742 0.539145
O O5 0.449754 0.010439 0.768186
O O6 0.449180 0.026059 0.264644
O O7 0.832776 0.154498 0.333342
O O8 0.876792 0.035103 0.501261
#
# Coordination Sequence:
#
# PCOD8187314 Si02
#       4
#    16  16  16  16
#     4  12  27  44  67  99 143 175 211 282 353 385
#     4  10  22  42  64  96 128 171 229 261 316 411
#     4  10  23  41  68  98 125 179 224 275 316 405
#     4  10  22  35  72  90 126 161 239 268 306 378
#
# _framework density 22.055817000000001
#
# number of rings (size 3 to 8) (size 9 to 14) (size 15 to 20)
#    1.500    0.000    2.500    1.500   10.500    0.000 
#    0.000    7.500    0.000    0.000    0.000    0.000 
#    0.000    0.000    0.000    0.000    0.000    0.000 
#
# Total GULP energy -198325.830281 kJ/mol
# GULP energy per Si atom -12395.364393 kJ/mol
# Density = 2.200562 g / cm^3
# Si number density = 22.055817 Si / 1000 Ang^3
#
#
#
# Elastic Constant Matrix: (Units=GPa)
#
#
# Indices 1 2 3 4 5 6 
#
# 1 32.6424 -9.3341 7.6345 -0.0001 -0.0001 0.0001
# 2 -9.3341 95.3825 8.6981 0.0017 0.0006 -0.0001
# 3 7.6345 8.6981 131.3684 0.0046 0.0021 0.0004
# 4 -0.0001 0.0017 0.0046 18.6874 0.0022 0.0009
# 5 -0.0001 0.0006 0.0021 0.0022 18.0602 0.0004
# 6 0.0001 -0.0001 0.0004 0.0009 0.0004 30.6460
#
#
#
# Elastic Compliance Matrix: (Units=1/GPa)
#
#
# Indices 1 2 3 4 5 6 
#
# 1 0.032074 0.003329 -0.002084 0.000000 0.000000 0.000000
# 2 0.003329 0.010893 -0.000915 -0.000001 0.000000 0.000000
# 3 -0.002084 -0.000915 0.007794 -0.000002 -0.000001 0.000000
# 4 0.000000 -0.000001 -0.000002 0.053512 -0.000006 -0.000002
# 5 0.000000 0.000000 -0.000001 -0.000006 0.055370 -0.000001
# 6 0.000000 0.000000 0.000000 -0.000002 -0.000001 0.032631
#
#
# Mechanical properties :
#
#
# Convention : Reuss Voigt Hill
#
# Bulk Modulus (GPa) = 19.44729 30.37669 24.91199
# Shear Modulus (GPa) = 23.95147 30.30504 27.12826
#
# Velocity S-wave (km/s) = 3.29895 3.71079 3.51091
# Velocity P-wave (km/s) = 4.83189 5.67120 5.26829
#
# Compressibility (1/GPa) = 0.05142103
#
# Stress axis : x y z
#
# Youngs Moduli (GPa) = 31.17753 91.79971 128.30582
#
# Poissons Ratio (x) = -0.30559 0.26744
# Poissons Ratio (y) = -0.10379 0.11736
# Poissons Ratio (z) = 0.06499 0.08397
#
# Static dielectric constant tensor:
#      x y z
#    x 3.731680 0.000000 0.000000 
#    y 0.000000 3.796680 0.000000 
#    z 0.000000 0.000000 3.669910 
# 
# 
# High freq. dielectric constant tensor:
#      x y z
#    x 1.849970 0.000000 0.000000 
#    y 0.000000 1.872370 0.000000 
#    z 0.000000 0.000000 1.857460 
# 
# From -- ./inp_files/521.got.cif
#   From: 2010.06.25/outbox.cif.g09.slc.cpg/sg43_1_cif.got.tgz:521.got - 2010.06.26 16:48:59.
