data_PCOD8187300
_publ_section_title
;
Structure prediction by ZEFSAII (Michael W. Deem and Ramdas Pophale) SiO2 
 PCOD8187300
Probable space group: F D D 2
;
_chemical_formula_sum "Si O2"
_cell_formula_units_Z 96
_cell_length_a 24.251339
_cell_length_b 18.525608
_cell_length_c 9.103265
_cell_angle_alpha 90.000000
_cell_angle_beta 90.000000
_cell_angle_gamma 90.000000
_cell_volume 4089.831147
_symmetry_space_group_name_H-M "F D D 2"
_symmetry_group_IT_number 43
_symmetry_cell_setting 'orthorhombic'
loop_
_space_group_symop_operation_xyz
x,y,z
-x,-y,z
1/4-x,1/4+y,1/4+z
1/4+x,1/4-y,1/4+z
x,1/2+y,1/2+z
-x,1/2-y,1/2+z
1/4-x,3/4+y,3/4+z
1/4+x,3/4-y,3/4+z
1/2+x,y,1/2+z
1/2-x,-y,1/2+z
3/4-x,1/4+y,3/4+z
3/4+x,1/4-y,3/4+z
1/2+x,1/2+y,z
1/2-x,1/2-y,z
3/4-x,3/4+y,1/4+z
3/4+x,3/4-y,1/4+z
loop_
_atom_site_type_symbol
_atom_site_label
_atom_site_fract_x
_atom_site_fract_y
_atom_site_fract_z
Si Si1 0.190854 0.333227 0.656540
Si Si2 0.321784 0.381290 0.333351
Si Si3 0.008233 0.289320 0.821496
Si Si4 0.000000 0.500000 0.669905
Si Si5 0.423045 0.240698 0.093577
Si Si6 0.250000 0.250000 0.892291
Si Si7 0.581130 0.892332 0.269482
O O1 0.133562 0.376776 0.649385
O O2 0.240723 0.389783 0.660952
O O3 0.200202 0.284938 0.512494
O O4 0.198408 0.281493 0.797735
O O5 0.297298 0.443720 0.433931
O O6 0.283649 0.309445 0.328233
O O7 0.322580 0.407487 0.164437
O O8 0.956708 0.250922 0.745085
O O9 0.041409 0.245881 0.945744
O O10 0.400887 0.158379 0.128916
O O11 0.375495 0.298765 0.073942
O O12 0.225421 0.184796 0.986880
#
# Coordination Sequence:
#
# PCOD8187300 Si02
#       7
#    16  16  16   8  16   8  16
#     4  10  21  44  69  99 139 188 240 295 368 446
#     4  11  23  42  72 105 139 193 235 313 371 447
#     4  11  24  48  71 103 146 188 249 299 371 450
#     4   9  23  38  68 100 142 180 252 290 372 446
#     4  12  27  48  72 110 147 197 249 315 374 458
#     4  11  23  48  70 104 146 192 246 310 362 460
#     4  12  27  44  73 108 149 189 255 307 388 441
#
# _framework density 23.472850999999999
#
# number of rings (size 3 to 8) (size 9 to 14) (size 15 to 20)
#    0.000    1.000    3.333    2.500    2.333    4.000 
#    3.000    0.000    0.000    0.000    0.000    0.000 
#    0.000    0.000    0.000    0.000    0.000    0.000 
#
# Total GULP energy -297322.685166 kJ/mol
# GULP energy per Si atom -12388.445215 kJ/mol
# Density = 2.341943 g / cm^3
# Si number density = 23.472851 Si / 1000 Ang^3
#
#
#
# Elastic Constant Matrix: (Units=GPa)
#
#
# Indices 1 2 3 4 5 6 
#
# 1 110.2350 33.4994 49.4409 0.0000 0.0000 0.0000
# 2 33.4994 74.3057 38.5246 -0.0001 0.0000 0.0000
# 3 49.4409 38.5246 110.7803 -0.0002 0.0000 0.0000
# 4 0.0000 -0.0001 -0.0002 23.9271 0.0000 0.0000
# 5 0.0000 0.0000 0.0000 0.0000 25.7096 0.0000
# 6 0.0000 0.0000 0.0000 0.0000 0.0000 29.4747
#
#
#
# Elastic Compliance Matrix: (Units=1/GPa)
#
#
# Indices 1 2 3 4 5 6 
#
# 1 0.011933 -0.003195 -0.004215 0.000000 0.000000 0.000000
# 2 -0.003195 0.017273 -0.004581 0.000000 0.000000 0.000000
# 3 -0.004215 -0.004581 0.012501 0.000000 0.000000 0.000000
# 4 0.000000 0.000000 0.000000 0.041794 0.000000 0.000000
# 5 0.000000 0.000000 0.000000 0.000000 0.038896 0.000000
# 6 0.000000 0.000000 0.000000 0.000000 0.000000 0.033927
#
#
# Mechanical properties :
#
#
# Convention : Reuss Voigt Hill
#
# Bulk Modulus (GPa) = 56.41341 59.80564 58.10952
# Shear Modulus (GPa) = 26.85097 27.41269 27.13183
#
# Velocity S-wave (km/s) = 3.38585 3.42108 3.40351
# Velocity P-wave (km/s) = 6.27463 6.41397 6.34468
#
# Compressibility (1/GPa) = 0.01772628
#
# Stress axis : x y z
#
# Youngs Moduli (GPa) = 83.80437 57.89288 79.99386
#
# Poissons Ratio (x) = 0.18494 0.33714
# Poissons Ratio (y) = 0.26771 0.36647
# Poissons Ratio (z) = 0.35320 0.26522
#
# Static dielectric constant tensor:
#      x y z
#    x 4.060890 0.000000 0.000000 
#    y 0.000000 4.321030 0.000000 
#    z 0.000000 0.000000 4.293590 
# 
# 
# High freq. dielectric constant tensor:
#      x y z
#    x 1.922710 0.000000 0.000000 
#    y 0.000000 1.926190 0.000000 
#    z 0.000000 0.000000 1.936770 
# 
# From -- ./inp_files/3331.got.cif
#   From: 2010.06.25/outbox.cif.g09.slc.cpg/sg43_2_cif.got.tgz:3331.got - 2010.06.26 16:48:59.
