data_PCOD8187151
_publ_section_title
;
Structure prediction by ZEFSAII (Michael W. Deem and Ramdas Pophale) SiO2 
 PCOD8187151
Probable space group: F D D 2
;
_chemical_formula_sum "Si O2"
_cell_formula_units_Z 88
_cell_length_a 26.329120
_cell_length_b 16.419240
_cell_length_c 9.281111
_cell_angle_alpha 90.000000
_cell_angle_beta 90.000000
_cell_angle_gamma 90.000000
_cell_volume 4012.262712
_symmetry_space_group_name_H-M "F D D 2"
_symmetry_group_IT_number 43
_symmetry_cell_setting 'orthorhombic'
loop_
_space_group_symop_operation_xyz
x,y,z
-x,-y,z
1/4-x,1/4+y,1/4+z
1/4+x,1/4-y,1/4+z
x,1/2+y,1/2+z
-x,1/2-y,1/2+z
1/4-x,3/4+y,3/4+z
1/4+x,3/4-y,3/4+z
1/2+x,y,1/2+z
1/2-x,-y,1/2+z
3/4-x,1/4+y,3/4+z
3/4+x,1/4-y,3/4+z
1/2+x,1/2+y,z
1/2-x,1/2-y,z
3/4-x,3/4+y,1/4+z
3/4+x,3/4-y,1/4+z
loop_
_atom_site_type_symbol
_atom_site_label
_atom_site_fract_x
_atom_site_fract_y
_atom_site_fract_z
Si Si1 0.677011 0.105115 0.405570
Si Si2 0.119603 0.269274 0.901672
Si Si3 0.500000 0.500000 0.329900
Si Si4 0.536364 0.332648 0.213004
Si Si5 0.209516 0.854957 0.311876
Si Si6 0.460484 0.735987 0.915212
O O1 0.634245 0.174480 0.391891
O O2 0.667090 0.035168 0.287388
O O3 0.734101 0.137867 0.378643
O O4 0.672026 0.064591 0.563851
O O5 0.093649 0.304986 0.755165
O O6 0.171292 0.320523 0.931456
O O7 0.526915 0.428384 0.239826
O O8 0.457455 0.459593 0.431051
O O9 0.504678 0.270587 0.313298
O O10 0.521596 0.322945 0.045231
O O11 0.185771 0.938452 0.250158
#
# Coordination Sequence:
#
# PCOD8187151 Si02
#       6
#    16  16   8  16  16  16
#     4  12  25  43  69 106 134 191 231 293 350 424
#     4  12  23  43  72 100 138 182 239 280 355 422
#     4  10  20  42  66 102 138 176 238 278 358 412
#     4  11  22  43  70  98 135 190 220 298 345 422
#     4  11  21  43  70  97 137 183 231 286 353 421
#     4  11  23  44  65  96 139 178 231 286 356 403
#
# _framework density 21.932762
#
# number of rings (size 3 to 8) (size 9 to 14) (size 15 to 20)
#    0.000    0.727    7.273    1.091    0.000    1.455 
#    3.273    5.455    0.000    0.000    0.000    0.000 
#    0.000    0.000    0.000    0.000    0.000    0.000 
#
# Total GULP energy -272596.591700 kJ/mol
# GULP energy per Si atom -12390.754168 kJ/mol
# Density = 2.188284 g / cm^3
# Si number density = 21.932762 Si / 1000 Ang^3
#
#
#
# Elastic Constant Matrix: (Units=GPa)
#
#
# Indices 1 2 3 4 5 6 
#
# 1 65.6350 28.9172 17.2215 0.0000 0.0000 0.0000
# 2 28.9172 139.9801 42.5272 0.0000 0.0000 0.0000
# 3 17.2215 42.5272 125.8361 0.0000 0.0000 0.0000
# 4 0.0000 0.0000 0.0000 39.6966 0.0000 0.0000
# 5 0.0000 0.0000 0.0000 0.0000 15.2286 0.0000
# 6 0.0000 0.0000 0.0000 0.0000 0.0000 29.8932
#
#
#
# Elastic Compliance Matrix: (Units=1/GPa)
#
#
# Indices 1 2 3 4 5 6 
#
# 1 0.016940 -0.003115 -0.001266 0.000000 0.000000 0.000000
# 2 -0.003115 0.008534 -0.002458 0.000000 0.000000 0.000000
# 3 -0.001266 -0.002458 0.008951 0.000000 0.000000 0.000000
# 4 0.000000 0.000000 0.000000 0.025191 0.000000 0.000000
# 5 0.000000 0.000000 0.000000 0.000000 0.065666 0.000000
# 6 0.000000 0.000000 0.000000 0.000000 0.000000 0.033452
#
#
# Mechanical properties :
#
#
# Convention : Reuss Voigt Hill
#
# Bulk Modulus (GPa) = 48.19729 56.53141 52.36435
# Shear Modulus (GPa) = 27.88194 33.14937 30.51566
#
# Velocity S-wave (km/s) = 3.56932 3.89190 3.73410
# Velocity P-wave (km/s) = 6.24576 6.78430 6.52059
#
# Compressibility (1/GPa) = 0.02074805
#
# Stress axis : x y z
#
# Youngs Moduli (GPa) = 59.03097 117.17715 111.72312
#
# Poissons Ratio (x) = 0.36501 0.14140
# Poissons Ratio (y) = 0.18388 0.27460
# Poissons Ratio (z) = 0.07471 0.28800
#
# Static dielectric constant tensor:
#      x y z
#    x 3.785760 0.000000 0.000000 
#    y 0.000000 4.267650 0.000000 
#    z 0.000000 0.000000 4.042370 
# 
# 
# High freq. dielectric constant tensor:
#      x y z
#    x 1.842840 0.000000 0.000000 
#    y 0.000000 1.878360 0.000000 
#    z 0.000000 0.000000 1.853330 
# 
# From -- ./inp_files/2936.got.cif
#   From: 2010.06.25/outbox.cif.g09.slc.cpg/sg43_2_cif.got.tgz:2936.got - 2010.06.26 16:48:59.
