data_PCOD8187742
_publ_section_title
;
Structure prediction by ZEFSAII (Michael W. Deem and Ramdas Pophale) SiO2 
 PCOD8187742
Probable space group: F D D 2
;
_chemical_formula_sum "Si O2"
_cell_formula_units_Z 64
_cell_length_a 14.451191
_cell_length_b 12.002712
_cell_length_c 16.163330
_cell_angle_alpha 90.000000
_cell_angle_beta 90.000000
_cell_angle_gamma 90.000000
_cell_volume 2803.585896
_symmetry_space_group_name_H-M "F D D 2"
_symmetry_group_IT_number 43
_symmetry_cell_setting 'orthorhombic'
loop_
_space_group_symop_operation_xyz
x,y,z
-x,-y,z
1/4-x,1/4+y,1/4+z
1/4+x,1/4-y,1/4+z
x,1/2+y,1/2+z
-x,1/2-y,1/2+z
1/4-x,3/4+y,3/4+z
1/4+x,3/4-y,3/4+z
1/2+x,y,1/2+z
1/2-x,-y,1/2+z
3/4-x,1/4+y,3/4+z
3/4+x,1/4-y,3/4+z
1/2+x,1/2+y,z
1/2-x,1/2-y,z
3/4-x,3/4+y,1/4+z
3/4+x,3/4-y,1/4+z
loop_
_atom_site_type_symbol
_atom_site_label
_atom_site_fract_x
_atom_site_fract_y
_atom_site_fract_z
Si Si1 0.108550 0.981271 0.705990
Si Si2 0.346713 0.704129 0.007031
Si Si3 0.355376 0.754774 0.637734
Si Si4 0.976422 0.379143 0.931822
O O1 0.115717 0.854056 0.684178
O O2 0.152536 0.989947 0.798034
O O3 0.177066 0.065631 0.655240
O O4 0.000000 0.000000 0.693042
O O5 0.250000 0.750000 0.974876
O O6 0.375629 0.609153 0.944585
O O7 0.420065 0.805477 0.998272
O O8 0.335866 0.655145 0.099974
O O9 0.250000 0.750000 0.613433
O O10 0.000000 0.500000 0.972675
#
# Coordination Sequence:
#
# PCOD8187742 Si02
#       4
#    16  16  16  16
#     4  11  27  45  75 105 150 197 248 304 370 439
#     4  11  26  44  76 109 151 194 246 305 374 436
#     4  11  24  46  73 107 144 197 248 308 368 441
#     4  11  27  48  72 111 149 197 247 305 371 441
#
# _framework density 22.827908000000001
#
# number of rings (size 3 to 8) (size 9 to 14) (size 15 to 20)
#    0.000    1.000    2.500    1.500   10.500    7.000 
#    0.000    0.000    0.000    0.000    0.000    0.000 
#    0.000    0.000    0.000    0.000    0.000    0.000 
#
# Total GULP energy -198255.468164 kJ/mol
# GULP energy per Si atom -12390.966760 kJ/mol
# Density = 2.277595 g / cm^3
# Si number density = 22.827908 Si / 1000 Ang^3
#
#
#
# Elastic Constant Matrix: (Units=GPa)
#
#
# Indices 1 2 3 4 5 6 
#
# 1 120.3306 43.7088 25.6491 0.0000 0.0000 0.0000
# 2 43.7088 161.3555 54.4053 0.0000 0.0000 0.0000
# 3 25.6491 54.4053 132.5195 0.0000 0.0000 0.0000
# 4 0.0000 0.0000 0.0000 21.8672 0.0000 0.0000
# 5 0.0000 0.0000 0.0000 0.0000 111.3958 0.0000
# 6 0.0000 0.0000 0.0000 0.0000 0.0000 55.8444
#
#
#
# Elastic Compliance Matrix: (Units=1/GPa)
#
#
# Indices 1 2 3 4 5 6 
#
# 1 0.009307 -0.002221 -0.000889 0.000000 0.000000 0.000000
# 2 -0.002221 0.007723 -0.002741 0.000000 0.000000 0.000000
# 3 -0.000889 -0.002741 0.008843 0.000000 0.000000 0.000000
# 4 0.000000 0.000000 0.000000 0.045731 0.000000 0.000000
# 5 0.000000 0.000000 0.000000 0.000000 0.008977 0.000000
# 6 0.000000 0.000000 0.000000 0.000000 0.000000 0.017907
#
#
# Mechanical properties :
#
#
# Convention : Reuss Voigt Hill
#
# Bulk Modulus (GPa) = 70.56839 73.52578 72.04709
# Shear Modulus (GPa) = 43.51056 57.18431 50.34743
#
# Velocity S-wave (km/s) = 4.37054 5.01044 4.70139
# Velocity P-wave (km/s) = 7.51327 8.10872 7.81667
#
# Compressibility (1/GPa) = 0.01417065
#
# Stress axis : x y z
#
# Youngs Moduli (GPa) = 107.44781 129.47764 113.07789
#
# Poissons Ratio (x) = 0.28759 0.10058
# Poissons Ratio (y) = 0.23866 0.30993
# Poissons Ratio (z) = 0.09557 0.35488
#
# Static dielectric constant tensor:
#      x y z
#    x 3.770570 0.000000 0.000000 
#    y 0.000000 4.217190 0.000000 
#    z 0.000000 0.000000 4.003920 
# 
# 
# High freq. dielectric constant tensor:
#      x y z
#    x 1.916920 0.000000 0.000000 
#    y 0.000000 1.921560 0.000000 
#    z 0.000000 0.000000 1.894740 
# 
# From -- ./inp_files/9393.got.cif
#   From: 2010.06.25/outbox.cif.g09.slc.cpg/sg43_5_cif.got.tgz:9393.got - 2010.06.26 16:48:59.
