data_PCOD8187268
_publ_section_title
;
Structure prediction by ZEFSAII (Michael W. Deem and Ramdas Pophale) SiO2 
 PCOD8187268
Probable space group: F D D 2
;
_chemical_formula_sum "Si O2"
_cell_formula_units_Z 120
_cell_length_a 16.429982
_cell_length_b 17.721519
_cell_length_c 18.789500
_cell_angle_alpha 90.000000
_cell_angle_beta 90.000000
_cell_angle_gamma 90.000000
_cell_volume 5470.830453
_symmetry_space_group_name_H-M "F D D 2"
_symmetry_group_IT_number 43
_symmetry_cell_setting 'orthorhombic'
loop_
_space_group_symop_operation_xyz
x,y,z
-x,-y,z
1/4-x,1/4+y,1/4+z
1/4+x,1/4-y,1/4+z
x,1/2+y,1/2+z
-x,1/2-y,1/2+z
1/4-x,3/4+y,3/4+z
1/4+x,3/4-y,3/4+z
1/2+x,y,1/2+z
1/2-x,-y,1/2+z
3/4-x,1/4+y,3/4+z
3/4+x,1/4-y,3/4+z
1/2+x,1/2+y,z
1/2-x,1/2-y,z
3/4-x,3/4+y,1/4+z
3/4+x,3/4-y,1/4+z
loop_
_atom_site_type_symbol
_atom_site_label
_atom_site_fract_x
_atom_site_fract_y
_atom_site_fract_z
Si Si1 0.432030 0.737411 0.561740
Si Si2 0.682474 0.346343 0.160579
Si Si3 0.000000 0.500000 0.292766
Si Si4 0.004032 0.805753 0.190615
Si Si5 0.229760 0.416902 0.030954
Si Si6 0.541207 0.428207 0.542110
Si Si7 0.478465 0.739396 0.924851
Si Si8 0.680271 0.303678 0.004734
O O1 0.336291 0.743262 0.584732
O O2 0.481801 0.798287 0.607300
O O3 0.470211 0.653891 0.578547
O O4 0.441765 0.754774 0.476691
O O5 0.595193 0.337490 0.199316
O O6 0.750495 0.318515 0.214657
O O7 0.705019 0.431730 0.137996
O O8 0.682829 0.296358 0.089870
O O9 0.001130 0.418099 0.252513
O O10 0.981498 0.725452 0.226202
O O11 0.943017 0.862126 0.228402
O O12 0.135908 0.439972 0.030265
O O13 0.260766 0.427757 0.112524
O O14 0.500000 0.500000 0.585131
O O15 0.407584 0.720249 0.979252
O O16 0.750000 0.250000 0.971843
#
# Coordination Sequence:
#
# PCOD8187268 Si02
#       8
#    16  16   8  16  16  16  16  16
#     4  10  24  43  68  93 140 178 231 284 339 417
#     4  11  22  41  66 102 137 170 226 282 357 411
#     4  10  24  48  62  96 128 188 240 270 330 404
#     4  12  23  42  67 103 133 179 224 282 349 413
#     4  11  24  44  69  95 141 176 234 284 338 420
#     4  10  21  42  64 100 133 176 229 286 353 402
#     4  11  23  44  67 102 136 177 222 285 349 415
#     4  12  24  39  70 100 140 174 220 286 345 420
#
# _framework density 21.934512999999999
#
# number of rings (size 3 to 8) (size 9 to 14) (size 15 to 20)
#    0.000    1.067    5.333    1.200    0.000    2.133 
#    9.600    0.000    2.933    0.000    0.000    0.000 
#    0.000    0.000    0.000    0.000    0.000    0.000 
#
# Total GULP energy -371729.736457 kJ/mol
# GULP energy per Si atom -12390.991215 kJ/mol
# Density = 2.188459 g / cm^3
# Si number density = 21.934513 Si / 1000 Ang^3
#
#
#
# Elastic Constant Matrix: (Units=GPa)
#
#
# Indices 1 2 3 4 5 6 
#
# 1 102.8240 28.5115 25.3372 0.0000 0.0000 0.0000
# 2 28.5115 110.7421 -3.1550 0.0000 0.0000 0.0000
# 3 25.3372 -3.1550 65.3788 0.0000 0.0000 0.0000
# 4 0.0000 0.0000 0.0000 23.8386 0.0000 0.0000
# 5 0.0000 0.0000 0.0000 0.0000 24.9940 0.0000
# 6 0.0000 0.0000 0.0000 0.0000 0.0000 37.1866
#
#
#
# Elastic Compliance Matrix: (Units=1/GPa)
#
#
# Indices 1 2 3 4 5 6 
#
# 1 0.011763 -0.003163 -0.004711 0.000000 0.000000 0.000000
# 2 -0.003163 0.009893 0.001703 0.000000 0.000000 0.000000
# 3 -0.004711 0.001703 0.017204 0.000000 0.000000 0.000000
# 4 0.000000 0.000000 0.000000 0.041949 0.000000 0.000000
# 5 0.000000 0.000000 0.000000 0.000000 0.040010 0.000000
# 6 0.000000 0.000000 0.000000 0.000000 0.000000 0.026891
#
#
# Mechanical properties :
#
#
# Convention : Reuss Voigt Hill
#
# Bulk Modulus (GPa) = 37.71099 42.25912 39.98505
# Shear Modulus (GPa) = 29.60491 32.42058 31.01275
#
# Velocity S-wave (km/s) = 3.67781 3.84873 3.76424
# Velocity P-wave (km/s) = 5.93842 6.24965 6.09602
#
# Compressibility (1/GPa) = 0.02651747
#
# Stress axis : x y z
#
# Youngs Moduli (GPa) = 85.01014 101.08369 58.12751
#
# Poissons Ratio (x) = 0.31971 0.27386
# Poissons Ratio (y) = 0.26887 -0.09900
# Poissons Ratio (z) = 0.40052 -0.17216
#
# Static dielectric constant tensor:
#      x y z
#    x 3.915360 0.000000 0.000000 
#    y 0.000000 4.414020 0.000000 
#    z 0.000000 0.000000 3.533050 
# 
# 
# High freq. dielectric constant tensor:
#      x y z
#    x 1.863940 0.000000 0.000000 
#    y 0.000000 1.878940 0.000000 
#    z 0.000000 0.000000 1.834430 
# 
# From -- ./inp_files/14277.got.cif
#   From: 2010.06.25/outbox.cif.g09.slc.cpg/sg43_8_cif.got.tgz:14277.got - 2010.06.26 16:48:59.
