data_PCOD8187040
_publ_section_title
;
Structure prediction by ZEFSAII (Michael W. Deem and Ramdas Pophale) SiO2 
 PCOD8187040
Probable space group: F D D 2
;
_chemical_formula_sum "Si O2"
_cell_formula_units_Z 80
_cell_length_a 22.664756
_cell_length_b 6.357262
_cell_length_c 28.187407
_cell_angle_alpha 90.000000
_cell_angle_beta 90.000000
_cell_angle_gamma 90.000000
_cell_volume 4061.404864
_symmetry_space_group_name_H-M "F D D 2"
_symmetry_group_IT_number 43
_symmetry_cell_setting 'orthorhombic'
loop_
_space_group_symop_operation_xyz
x,y,z
-x,-y,z
1/4-x,1/4+y,1/4+z
1/4+x,1/4-y,1/4+z
x,1/2+y,1/2+z
-x,1/2-y,1/2+z
1/4-x,3/4+y,3/4+z
1/4+x,3/4-y,3/4+z
1/2+x,y,1/2+z
1/2-x,-y,1/2+z
3/4-x,1/4+y,3/4+z
3/4+x,1/4-y,3/4+z
1/2+x,1/2+y,z
1/2-x,1/2-y,z
3/4-x,3/4+y,1/4+z
3/4+x,3/4-y,1/4+z
loop_
_atom_site_type_symbol
_atom_site_label
_atom_site_fract_x
_atom_site_fract_y
_atom_site_fract_z
Si Si1 0.560260 0.615500 0.344050
Si Si2 0.852397 0.519489 0.922822
Si Si3 0.560260 0.884503 0.106586
Si Si4 0.852396 0.480507 0.027813
Si Si5 0.000000 0.000000 0.145001
Si Si6 0.500000 0.000000 0.305634
O O1 0.500000 0.500000 0.358066
O O2 0.604013 0.603753 0.388194
O O3 0.590892 0.506237 0.297639
O O4 0.545579 0.860943 0.336697
O O5 0.840892 0.756233 0.902996
O O6 0.789007 0.404739 0.926803
O O7 0.880232 0.499998 0.975318
O O8 0.545578 0.639060 0.113938
O O9 0.500000 0.000000 0.092569
O O10 0.604013 0.896252 0.062442
O O11 0.789006 0.595256 0.023833
#
# Coordination Sequence:
#
# PCOD8187040 Si02
#       6
#    16  16  16  16   8   8
#     4   9  20  38  54  79 114 148 185 232 283 337
#     4  10  21  34  57  83 110 147 189 233 283 341
#     4   9  20  38  54  79 114 148 185 232 283 337
#     4  10  21  34  57  83 110 147 189 233 283 341
#     4  10  20  34  58  79 116 144 183 234 284 334
#     4  10  20  34  58  79 116 144 183 234 284 334
#
# _framework density 19.697617999999999
#
# number of rings (size 3 to 8) (size 9 to 14) (size 15 to 20)
#    0.000    2.400    0.000    1.200    8.400    0.800 
#    0.000    0.000    0.000   21.600    0.000    0.000 
#    0.000    0.000    0.000    0.000    0.000    0.000 
#
# Total GULP energy -247900.049787 kJ/mol
# GULP energy per Si atom -12395.002489 kJ/mol
# Density = 1.965279 g / cm^3
# Si number density = 19.697618 Si / 1000 Ang^3
#
#
#
# Elastic Constant Matrix: (Units=GPa)
#
#
# Indices 1 2 3 4 5 6 
#
# 1 57.3851 20.9453 38.0584 0.0010 -0.0015 0.0066
# 2 20.9453 115.1958 50.4426 -0.0001 -0.0037 0.0149
# 3 38.0584 50.4426 153.6645 0.0001 0.0000 -0.0009
# 4 0.0010 -0.0001 0.0001 10.6888 0.0003 -0.0007
# 5 -0.0015 -0.0037 0.0000 0.0003 15.2397 0.0022
# 6 0.0066 0.0149 -0.0009 -0.0007 0.0022 39.9600
#
#
#
# Elastic Compliance Matrix: (Units=1/GPa)
#
#
# Indices 1 2 3 4 5 6 
#
# 1 0.021171 -0.001814 -0.004648 -0.000002 0.000002 -0.000003
# 2 -0.001814 0.010294 -0.002930 0.000000 0.000002 -0.000004
# 3 -0.004648 -0.002930 0.008621 0.000000 -0.000001 0.000002
# 4 -0.000002 0.000000 0.000000 0.093556 -0.000002 0.000002
# 5 0.000002 0.000002 -0.000001 -0.000002 0.065618 -0.000004
# 6 -0.000003 -0.000004 0.000002 0.000002 -0.000004 0.025025
#
#
# Mechanical properties :
#
#
# Convention : Reuss Voigt Hill
#
# Bulk Modulus (GPa) = 46.94504 60.57089 53.75797
# Shear Modulus (GPa) = 19.98658 27.63098 23.80878
#
# Velocity S-wave (km/s) = 3.18884 3.74940 3.48043
# Velocity P-wave (km/s) = 6.11906 7.03997 6.59561
#
# Compressibility (1/GPa) = 0.02130150
#
# Stress axis : x y z
#
# Youngs Moduli (GPa) = 47.23492 97.14769 116.00174
#
# Poissons Ratio (x) = 0.17624 0.53916
# Poissons Ratio (y) = 0.08569 0.33985
# Poissons Ratio (z) = 0.21954 0.28462
#
# Static dielectric constant tensor:
#      x y z
#    x 3.675480 0.000000 0.000000 
#    y 0.000000 3.718760 0.000000 
#    z 0.000000 0.000000 3.285280 
# 
# 
# High freq. dielectric constant tensor:
#      x y z
#    x 1.777260 0.000000 0.000000 
#    y 0.000000 1.770510 0.000000 
#    z 0.000000 0.000000 1.737330 
# 
# From -- ./inp_files/23568.got.cif
#   From: 2010.06.25/outbox.cif.g09.slc.cpg/sg43_12_cif.got.tgz:23568.got - 2010.06.26 16:48:59.
