data_PCOD8187473
_publ_section_title
;
Structure prediction by ZEFSAII (Michael W. Deem and Ramdas Pophale) SiO2 
 PCOD8187473
Probable space group: F D D 2
;
_chemical_formula_sum "Si O2"
_cell_formula_units_Z 120
_cell_length_a 19.618536
_cell_length_b 24.732084
_cell_length_c 11.962089
_cell_angle_alpha 90.000000
_cell_angle_beta 90.000000
_cell_angle_gamma 90.000000
_cell_volume 5804.092671
_symmetry_space_group_name_H-M "F D D 2"
_symmetry_group_IT_number 43
_symmetry_cell_setting 'orthorhombic'
loop_
_space_group_symop_operation_xyz
x,y,z
-x,-y,z
1/4-x,1/4+y,1/4+z
1/4+x,1/4-y,1/4+z
x,1/2+y,1/2+z
-x,1/2-y,1/2+z
1/4-x,3/4+y,3/4+z
1/4+x,3/4-y,3/4+z
1/2+x,y,1/2+z
1/2-x,-y,1/2+z
3/4-x,1/4+y,3/4+z
3/4+x,1/4-y,3/4+z
1/2+x,1/2+y,z
1/2-x,1/2-y,z
3/4-x,3/4+y,1/4+z
3/4+x,3/4-y,1/4+z
loop_
_atom_site_type_symbol
_atom_site_label
_atom_site_fract_x
_atom_site_fract_y
_atom_site_fract_z
Si Si1 0.750000 0.750000 0.917990
Si Si2 0.592682 0.152956 0.905499
Si Si3 0.183332 0.778094 0.205204
Si Si4 0.742716 0.688896 0.347303
Si Si5 0.608548 0.315000 0.871078
Si Si6 0.812250 0.505749 0.821992
Si Si7 0.302302 0.323485 0.102181
Si Si8 0.428351 0.276661 0.203471
O O1 0.812569 0.730023 0.839583
O O2 0.734546 0.698333 0.993174
O O3 0.572891 0.090890 0.922223
O O4 0.675408 0.160153 0.898439
O O5 0.557632 0.174069 0.790470
O O6 0.561403 0.186913 0.008581
O O7 0.250000 0.750000 0.148635
O O8 0.119500 0.743054 0.166575
O O9 0.750000 0.750000 0.391715
O O10 0.814078 0.661734 0.387007
O O11 0.741264 0.687561 0.213033
O O12 0.559336 0.362756 0.833227
O O13 0.608455 0.269456 0.776617
O O14 0.579115 0.293057 0.987727
O O15 0.742939 0.495006 0.887715
O O16 0.375664 0.294976 0.109331
#
# Coordination Sequence:
#
# PCOD8187473 Si02
#       8
#     8  16  16  16  16  16  16  16
#     4  10  24  44  64  90 134 174 224 254 342 412
#     4  10  23  43  70  96 132 178 219 284 333 399
#     4  10  26  44  62  98 128 183 221 265 345 408
#     4  11  19  43  68 100 129 171 229 275 333 387
#     4  11  24  39  69 100 128 177 220 281 340 392
#     4  11  23  41  66  98 134 168 224 281 330 405
#     4  11  22  42  67  91 131 175 214 281 324 402
#     4  10  23  40  64 101 135 163 229 275 337 399
#
# _framework density 20.675066999999999
#
# number of rings (size 3 to 8) (size 9 to 14) (size 15 to 20)
#    0.400    1.067    4.667    1.600    7.467    3.200 
#    0.000    1.333    0.000    0.000    0.000    0.000 
#    0.000    0.000    0.000    0.000    0.000    0.000 
#
# Total GULP energy -371876.913551 kJ/mol
# GULP energy per Si atom -12395.897118 kJ/mol
# Density = 2.062801 g / cm^3
# Si number density = 20.675067 Si / 1000 Ang^3
#
#
#
# Elastic Constant Matrix: (Units=GPa)
#
#
# Indices 1 2 3 4 5 6 
#
# 1 97.0582 21.2498 32.2867 0.0000 0.0000 0.0000
# 2 21.2498 105.5838 24.7953 0.0000 0.0000 0.0000
# 3 32.2867 24.7953 92.5346 0.0000 0.0000 0.0000
# 4 0.0000 0.0000 0.0000 6.5849 0.0000 0.0000
# 5 0.0000 0.0000 0.0000 0.0000 36.3599 0.0000
# 6 0.0000 0.0000 0.0000 0.0000 0.0000 31.3490
#
#
#
# Elastic Compliance Matrix: (Units=1/GPa)
#
#
# Indices 1 2 3 4 5 6 
#
# 1 0.011878 -0.001512 -0.003739 0.000000 0.000000 0.000000
# 2 -0.001512 0.010300 -0.002232 0.000000 0.000000 0.000000
# 3 -0.003739 -0.002232 0.012710 0.000000 0.000000 0.000000
# 4 0.000000 0.000000 0.000000 0.151863 0.000000 0.000000
# 5 0.000000 0.000000 0.000000 0.000000 0.027503 0.000000
# 6 0.000000 0.000000 0.000000 0.000000 0.000000 0.031899
#
#
# Mechanical properties :
#
#
# Convention : Reuss Voigt Hill
#
# Bulk Modulus (GPa) = 50.20142 50.20449 50.20295
# Shear Modulus (GPa) = 18.67347 29.31507 23.99427
#
# Velocity S-wave (km/s) = 3.00857 3.76958 3.41037
# Velocity P-wave (km/s) = 6.03345 6.57888 6.31206
#
# Compressibility (1/GPa) = 0.01991976
#
# Stress axis : x y z
#
# Youngs Moduli (GPa) = 84.18868 97.08968 78.68102
#
# Poissons Ratio (x) = 0.14685 0.29420
# Poissons Ratio (y) = 0.12733 0.17563
# Poissons Ratio (z) = 0.31480 0.21672
#
# Static dielectric constant tensor:
#      x y z
#    x 3.776490 0.000000 0.000000 
#    y 0.000000 3.744260 0.000000 
#    z 0.000000 0.000000 3.718160 
# 
# 
# High freq. dielectric constant tensor:
#      x y z
#    x 1.801240 0.000000 0.000000 
#    y 0.000000 1.814040 0.000000 
#    z 0.000000 0.000000 1.807100 
# 
# From -- ./inp_files/7214.got.cif
#   From: 2010.06.25/outbox.cif.g09.slc.cpg/sg43_4_cif.got.tgz:7214.got - 2010.06.26 16:48:59.
