data_PCOD8187593
_publ_section_title
;
Structure prediction by ZEFSAII (Michael W. Deem and Ramdas Pophale) SiO2 
 PCOD8187593
Probable space group: F D D 2
;
_chemical_formula_sum "Si O2"
_cell_formula_units_Z 96
_cell_length_a 22.007878
_cell_length_b 15.082223
_cell_length_c 12.838673
_cell_angle_alpha 90.000000
_cell_angle_beta 90.000000
_cell_angle_gamma 90.000000
_cell_volume 4261.511505
_symmetry_space_group_name_H-M "F D D 2"
_symmetry_group_IT_number 43
_symmetry_cell_setting 'orthorhombic'
loop_
_space_group_symop_operation_xyz
x,y,z
-x,-y,z
1/4-x,1/4+y,1/4+z
1/4+x,1/4-y,1/4+z
x,1/2+y,1/2+z
-x,1/2-y,1/2+z
1/4-x,3/4+y,3/4+z
1/4+x,3/4-y,3/4+z
1/2+x,y,1/2+z
1/2-x,-y,1/2+z
3/4-x,1/4+y,3/4+z
3/4+x,1/4-y,3/4+z
1/2+x,1/2+y,z
1/2-x,1/2-y,z
3/4-x,3/4+y,1/4+z
3/4+x,3/4-y,1/4+z
loop_
_atom_site_type_symbol
_atom_site_label
_atom_site_fract_x
_atom_site_fract_y
_atom_site_fract_z
Si Si1 0.486782 0.136222 0.709350
Si Si2 0.750000 0.750000 0.287896
Si Si3 0.250000 0.250000 0.628281
Si Si4 0.665043 0.216696 0.601977
Si Si5 0.943208 0.194800 0.707559
Si Si6 0.816221 0.641118 0.948636
Si Si7 0.118911 0.029773 0.497930
O O1 0.517763 0.083133 0.612734
O O2 0.529617 0.214101 0.755141
O O3 0.419413 0.170136 0.677180
O O4 0.472239 0.075786 0.807277
O O5 0.694957 0.714585 0.216618
O O6 0.196116 0.288684 0.696275
O O7 0.661968 0.118419 0.546952
O O8 0.600821 0.268011 0.616985
O O9 0.703368 0.281522 0.527892
O O10 0.001347 0.145138 0.655185
O O11 0.856165 0.569648 0.012400
O O12 0.860845 0.678529 0.861243
#
# Coordination Sequence:
#
# PCOD8187593 Si02
#       7
#    16   8   8  16  16  16  16
#     4  10  25  48  68 104 138 185 233 291 351 428
#     4  11  24  47  74 102 150 179 236 297 360 422
#     4  11  24  45  70 100 132 181 236 283 350 414
#     4  12  24  45  70 106 142 189 230 299 353 431
#     4  11  25  45  69 102 142 181 238 279 359 415
#     4  11  24  44  69 104 141 182 239 287 351 424
#     4  11  24  44  71 100 137 185 232 293 347 422
#
# _framework density 22.527218999999999
#
# number of rings (size 3 to 8) (size 9 to 14) (size 15 to 20)
#    0.000    1.000    3.333    2.000    7.000    0.000 
#    6.000    0.000    0.000    0.000    0.000    0.000 
#    0.000    0.000    0.000    0.000    0.000    0.000 
#
# Total GULP energy -297342.265639 kJ/mol
# GULP energy per Si atom -12389.261068 kJ/mol
# Density = 2.247595 g / cm^3
# Si number density = 22.527219 Si / 1000 Ang^3
#
#
#
# Elastic Constant Matrix: (Units=GPa)
#
#
# Indices 1 2 3 4 5 6 
#
# 1 121.3184 52.9802 31.7797 0.0000 0.0000 0.0000
# 2 52.9802 149.9863 63.6383 0.0000 0.0000 0.0000
# 3 31.7797 63.6383 87.8071 0.0000 0.0000 0.0000
# 4 0.0000 0.0000 0.0000 -12.7263 0.0000 0.0000
# 5 0.0000 0.0000 0.0000 0.0000 31.8448 0.0000
# 6 0.0000 0.0000 0.0000 0.0000 0.0000 30.7227
#
#
#
# Elastic Compliance Matrix: (Units=1/GPa)
#
#
# Indices 1 2 3 4 5 6 
#
# 1 0.009883 -0.002850 -0.001512 0.000000 0.000000 0.000000
# 2 -0.002850 0.010450 -0.006542 0.000000 0.000000 0.000000
# 3 -0.001512 -0.006542 0.016677 0.000000 0.000000 0.000000
# 4 0.000000 0.000000 0.000000 -0.078577 0.000000 0.000000
# 5 0.000000 0.000000 0.000000 0.000000 0.031402 0.000000
# 6 0.000000 0.000000 0.000000 0.000000 0.000000 0.032549
#
#
# Mechanical properties :
#
#
# Convention : Reuss Voigt Hill
#
# Bulk Modulus (GPa) = 65.77584 72.87867 69.32725
# Shear Modulus (GPa) = 101.50558 24.01582 62.76070
#
# Velocity S-wave (km/s) = 6.71989 3.26863 5.28398
# Velocity P-wave (km/s) = 9.45891 6.83132 8.25039
#
# Compressibility (1/GPa) = 0.01520315
#
# Stress axis : x y z
#
# Youngs Moduli (GPa) = 101.18145 95.69741 59.96274
#
# Poissons Ratio (x) = 0.27271 0.09064
# Poissons Ratio (y) = 0.28834 0.39228
# Poissons Ratio (z) = 0.15295 0.62605
#
# Static dielectric constant tensor:
#      x y z
#    x 4.051550 0.000000 0.000000 
#    y 0.000000 4.396750 0.000000 
#    z 0.000000 0.000000 3.730310 
# 
# 
# High freq. dielectric constant tensor:
#      x y z
#    x 1.900890 0.000000 0.000000 
#    y 0.000000 1.905220 0.000000 
#    z 0.000000 0.000000 1.860240 
# 
# From -- ./inp_files/10941.got.cif
#   From: 2010.06.25/outbox.cif.g09.slc.cpg/sg43_6_cif.got.tgz:10941.got - 2010.06.26 16:48:59.
