data_PCOD8187590
_publ_section_title
;
Structure prediction by ZEFSAII (Michael W. Deem and Ramdas Pophale) SiO2 
 PCOD8187590
Probable space group: F D D 2
;
_chemical_formula_sum "Si O2"
_cell_formula_units_Z 88
_cell_length_a 26.993161
_cell_length_b 17.145775
_cell_length_c 7.797055
_cell_angle_alpha 90.000000
_cell_angle_beta 90.000000
_cell_angle_gamma 90.000000
_cell_volume 3608.622586
_symmetry_space_group_name_H-M "F D D 2"
_symmetry_group_IT_number 43
_symmetry_cell_setting 'orthorhombic'
loop_
_space_group_symop_operation_xyz
x,y,z
-x,-y,z
1/4-x,1/4+y,1/4+z
1/4+x,1/4-y,1/4+z
x,1/2+y,1/2+z
-x,1/2-y,1/2+z
1/4-x,3/4+y,3/4+z
1/4+x,3/4-y,3/4+z
1/2+x,y,1/2+z
1/2-x,-y,1/2+z
3/4-x,1/4+y,3/4+z
3/4+x,1/4-y,3/4+z
1/2+x,1/2+y,z
1/2-x,1/2-y,z
3/4-x,3/4+y,1/4+z
3/4+x,3/4-y,1/4+z
loop_
_atom_site_type_symbol
_atom_site_label
_atom_site_fract_x
_atom_site_fract_y
_atom_site_fract_z
Si Si1 0.722359 0.410070 0.671210
Si Si2 0.395073 0.992751 0.671825
Si Si3 0.518720 0.326654 0.564392
Si Si4 0.620156 0.087688 0.317624
Si Si5 0.668030 0.363444 0.219169
Si Si6 0.250000 0.250000 0.350400
O O1 0.733728 0.483448 0.789372
O O2 0.758812 0.413421 0.512771
O O3 0.663570 0.412439 0.623429
O O4 0.731790 0.325363 0.748367
O O5 0.382013 0.975969 0.471625
O O6 0.393824 0.916184 0.792362
O O7 0.355765 0.051836 0.750977
O O8 0.450831 0.027048 0.701991
O O9 0.573159 0.361523 0.527405
O O10 0.477727 0.374175 0.452865
O O11 0.595488 0.059599 0.135503
#
# Coordination Sequence:
#
# PCOD8187590 Si02
#       6
#    16  16  16  16  16   8
#     4  10  25  45  75 109 140 199 241 301 368 442
#     4  11  27  47  73 108 147 193 239 307 365 442
#     4  11  25  46  79 104 147 195 247 300 370 439
#     4  10  26  45  71 106 148 182 246 302 358 432
#     4  11  28  47  74 112 141 195 250 297 372 442
#     4  10  26  46  72 106 154 186 240 306 374 424
#
# _framework density 24.386035
#
# number of rings (size 3 to 8) (size 9 to 14) (size 15 to 20)
#    0.000    1.455    0.000    1.091   22.909    1.455 
#    3.273    0.909    0.000    0.000    0.000    0.000 
#    0.000    0.000    0.000    0.000    0.000    0.000 
#
# Total GULP energy -272586.439065 kJ/mol
# GULP energy per Si atom -12390.292685 kJ/mol
# Density = 2.433053 g / cm^3
# Si number density = 24.386035 Si / 1000 Ang^3
#
#
#
# Elastic Constant Matrix: (Units=GPa)
#
#
# Indices 1 2 3 4 5 6 
#
# 1 179.1699 27.1031 25.0760 0.0000 0.0000 0.0000
# 2 27.1031 71.0078 25.8070 0.0000 0.0000 0.0000
# 3 25.0760 25.8070 94.2384 0.0001 0.0000 0.0000
# 4 0.0000 0.0000 0.0001 20.8486 0.0000 0.0000
# 5 0.0000 0.0000 0.0000 0.0000 35.3449 0.0000
# 6 0.0000 0.0000 0.0000 0.0000 0.0000 30.0140
#
#
#
# Elastic Compliance Matrix: (Units=1/GPa)
#
#
# Indices 1 2 3 4 5 6 
#
# 1 0.006021 -0.001905 -0.001080 0.000000 0.000000 0.000000
# 2 -0.001905 0.016243 -0.003941 0.000000 0.000000 0.000000
# 3 -0.001080 -0.003941 0.011978 0.000000 0.000000 0.000000
# 4 0.000000 0.000000 0.000000 0.047965 0.000000 0.000000
# 5 0.000000 0.000000 0.000000 0.000000 0.028293 0.000000
# 6 0.000000 0.000000 0.000000 0.000000 0.000000 0.033318
#
#
# Mechanical properties :
#
#
# Convention : Reuss Voigt Hill
#
# Bulk Modulus (GPa) = 49.04849 55.59869 52.32359
# Shear Modulus (GPa) = 30.40142 35.00350 32.70246
#
# Velocity S-wave (km/s) = 3.53466 3.79277 3.66598
# Velocity P-wave (km/s) = 6.06757 6.48298 6.27871
#
# Compressibility (1/GPa) = 0.02038799
#
# Stress axis : x y z
#
# Youngs Moduli (GPa) = 166.09305 61.56670 83.48596
#
# Poissons Ratio (x) = 0.11731 0.09019
# Poissons Ratio (y) = 0.31648 0.32902
# Poissons Ratio (z) = 0.17942 0.24263
#
# Static dielectric constant tensor:
#      x y z
#    x 5.022020 0.000000 0.000000 
#    y 0.000000 3.981190 0.000000 
#    z 0.000000 0.000000 4.385450 
# 
# 
# High freq. dielectric constant tensor:
#      x y z
#    x 1.994230 0.000000 0.000000 
#    y 0.000000 1.941200 0.000000 
#    z 0.000000 0.000000 1.973570 
# 
# From -- ./inp_files/3687.got.cif
#   From: 2010.06.25/outbox.cif.g09.slc.cpg/sg43_2_cif.got.tgz:3687.got - 2010.06.26 16:48:59.
