data_PCOD8187233
_publ_section_title
;
Structure prediction by ZEFSAII (Michael W. Deem and Ramdas Pophale) SiO2 
 PCOD8187233
Probable space group: F D D 2
;
_chemical_formula_sum "Si O2"
_cell_formula_units_Z 112
_cell_length_a 30.837143
_cell_length_b 15.847077
_cell_length_c 10.460912
_cell_angle_alpha 90.000000
_cell_angle_beta 90.000000
_cell_angle_gamma 90.000000
_cell_volume 5112.023617
_symmetry_space_group_name_H-M "F D D 2"
_symmetry_group_IT_number 43
_symmetry_cell_setting 'orthorhombic'
loop_
_space_group_symop_operation_xyz
x,y,z
-x,-y,z
1/4-x,1/4+y,1/4+z
1/4+x,1/4-y,1/4+z
x,1/2+y,1/2+z
-x,1/2-y,1/2+z
1/4-x,3/4+y,3/4+z
1/4+x,3/4-y,3/4+z
1/2+x,y,1/2+z
1/2-x,-y,1/2+z
3/4-x,1/4+y,3/4+z
3/4+x,1/4-y,3/4+z
1/2+x,1/2+y,z
1/2-x,1/2-y,z
3/4-x,3/4+y,1/4+z
3/4+x,3/4-y,1/4+z
loop_
_atom_site_type_symbol
_atom_site_label
_atom_site_fract_x
_atom_site_fract_y
_atom_site_fract_z
Si Si1 0.651095 0.803846 0.563930
Si Si2 0.527970 0.581947 0.102836
Si Si3 0.242603 0.556601 0.055073
Si Si4 0.164215 0.488996 0.626703
Si Si5 0.325763 0.064144 0.157744
Si Si6 0.651636 0.573488 0.861402
Si Si7 0.789111 0.304497 0.234595
O O1 0.684163 0.802738 0.446614
O O2 0.604224 0.773980 0.510897
O O3 0.669898 0.748396 0.680870
O O4 0.643306 0.897072 0.615330
O O5 0.500000 0.500000 0.072575
O O6 0.503684 0.665287 0.160513
O O7 0.545644 0.614140 0.968338
O O8 0.283524 0.513771 0.126865
O O9 0.201698 0.493795 0.059954
O O10 0.232600 0.646482 0.117674
O O11 0.148392 0.545970 0.508067
O O12 0.361718 0.114589 0.077292
O O13 0.348369 0.006844 0.267360
O O14 0.695264 0.628407 0.840476
O O15 0.750000 0.250000 0.296321
#
# Coordination Sequence:
#
# PCOD8187233 Si02
#       7
#    16  16  16  16  16  16  16
#     4  11  21  37  67  89 127 161 216 251 309 380
#     4  11  19  40  67  90 121 165 209 263 305 368
#     4  10  21  40  64  88 127 160 212 255 316 370
#     4  11  21  41  62  93 120 167 205 262 314 375
#     4  11  24  44  62  91 127 170 204 260 320 378
#     4  11  23  42  65  87 133 166 200 264 323 372
#     4  11  21  43  64  92 126 168 211 265 316 375
#
# _framework density 21.909133000000001
#
# number of rings (size 3 to 8) (size 9 to 14) (size 15 to 20)
#    0.000    1.143    8.571    0.000    0.000    3.429 
#    7.714    0.000    0.000    0.000    0.000    0.000 
#    0.000    0.000    0.000    0.000    0.000    0.000 
#
# Total GULP energy -347181.208418 kJ/mol
# GULP energy per Si atom -12399.328872 kJ/mol
# Density = 2.185927 g / cm^3
# Si number density = 21.909133 Si / 1000 Ang^3
#
#
#
# Elastic Constant Matrix: (Units=GPa)
#
#
# Indices 1 2 3 4 5 6 
#
# 1 90.9527 43.6970 14.6887 0.0000 0.0000 0.0000
# 2 43.6970 99.6405 13.3076 0.0000 0.0000 0.0000
# 3 14.6887 13.3076 36.0744 0.0000 0.0000 0.0000
# 4 0.0000 0.0000 0.0000 6.9337 0.0000 0.0000
# 5 0.0000 0.0000 0.0000 0.0000 30.7072 0.0000
# 6 0.0000 0.0000 0.0000 0.0000 0.0000 45.3298
#
#
#
# Elastic Compliance Matrix: (Units=1/GPa)
#
#
# Indices 1 2 3 4 5 6 
#
# 1 0.014388 -0.005814 -0.003714 0.000000 0.000000 0.000000
# 2 -0.005814 0.012905 -0.002394 0.000000 0.000000 0.000000
# 3 -0.003714 -0.002394 0.030116 0.000000 0.000000 0.000000
# 4 0.000000 0.000000 0.000000 0.144223 0.000000 0.000000
# 5 0.000000 0.000000 0.000000 0.000000 0.032566 0.000000
# 6 0.000000 0.000000 0.000000 0.000000 0.000000 0.022061
#
#
# Mechanical properties :
#
#
# Convention : Reuss Voigt Hill
#
# Bulk Modulus (GPa) = 29.79133 41.11712 35.45423
# Shear Modulus (GPa) = 17.16512 26.92577 22.04544
#
# Velocity S-wave (km/s) = 2.80209 3.50948 3.17554
# Velocity P-wave (km/s) = 4.90878 5.93547 5.44637
#
# Compressibility (1/GPa) = 0.03356681
#
# Stress axis : x y z
#
# Youngs Moduli (GPa) = 69.50457 77.48761 33.20542
#
# Poissons Ratio (x) = 0.45048 0.12331
# Poissons Ratio (y) = 0.40407 0.07948
# Poissons Ratio (z) = 0.25812 0.18547
#
# Static dielectric constant tensor:
#      x y z
#    x 4.055280 0.000000 0.000000 
#    y 0.000000 4.088490 0.000000 
#    z 0.000000 0.000000 3.477190 
# 
# 
# High freq. dielectric constant tensor:
#      x y z
#    x 1.863680 0.000000 0.000000 
#    y 0.000000 1.878350 0.000000 
#    z 0.000000 0.000000 1.825140 
# 
# From -- ./inp_files/8279.got.cif
#   From: 2010.06.25/outbox.cif.g09.slc.cpg/sg43_5_cif.got.tgz:8279.got - 2010.06.26 16:48:59.
