data_PCOD8187823
_publ_section_title
;
Structure prediction by ZEFSAII (Michael W. Deem and Ramdas Pophale) SiO2 
 PCOD8187823
Probable space group: F D D 2
;
_chemical_formula_sum "Si O2"
_cell_formula_units_Z 120
_cell_length_a 24.749042
_cell_length_b 25.450196
_cell_length_c 8.486432
_cell_angle_alpha 90.000000
_cell_angle_beta 90.000000
_cell_angle_gamma 90.000000
_cell_volume 5345.331694
_symmetry_space_group_name_H-M "F D D 2"
_symmetry_group_IT_number 43
_symmetry_cell_setting 'orthorhombic'
loop_
_space_group_symop_operation_xyz
x,y,z
-x,-y,z
1/4-x,1/4+y,1/4+z
1/4+x,1/4-y,1/4+z
x,1/2+y,1/2+z
-x,1/2-y,1/2+z
1/4-x,3/4+y,3/4+z
1/4+x,3/4-y,3/4+z
1/2+x,y,1/2+z
1/2-x,-y,1/2+z
3/4-x,1/4+y,3/4+z
3/4+x,1/4-y,3/4+z
1/2+x,1/2+y,z
1/2-x,1/2-y,z
3/4-x,3/4+y,1/4+z
3/4+x,3/4-y,1/4+z
loop_
_atom_site_type_symbol
_atom_site_label
_atom_site_fract_x
_atom_site_fract_y
_atom_site_fract_z
Si Si1 0.250000 0.750000 0.375000
Si Si2 0.308335 0.435377 0.519680
Si Si3 0.340193 0.828049 0.880980
Si Si4 0.184727 0.953071 0.944394
Si Si5 0.976326 0.599462 0.321624
Si Si6 0.666326 0.399666 0.623472
Si Si7 0.144417 0.732764 0.173129
Si Si8 0.913602 0.182148 0.624428
O O1 0.247310 0.801255 0.481487
O O2 0.195697 0.750636 0.273136
O O3 0.326102 0.376598 0.490249
O O4 0.248316 0.445044 0.455775
O O5 0.349289 0.472023 0.423863
O O6 0.309262 0.445160 0.706459
O O7 0.403118 0.829900 0.827936
O O8 0.300584 0.826749 0.730903
O O9 0.334121 0.777305 0.995160
O O10 0.158176 0.933169 0.782187
O O11 0.169685 0.014471 0.972725
O O12 0.935206 0.629282 0.207909
O O13 0.019497 0.645483 0.353519
O O14 0.635293 0.430322 0.485447
O O15 0.648273 0.337772 0.616683
#
# Coordination Sequence:
#
# PCOD8187823 Si02
#       8
#     8  16  16  16  16  16  16  16
#     4  12  26  52  78 108 154 200 248 308 392 448
#     4  12  27  48  76 109 149 202 249 307 382 455
#     4  12  28  48  72 115 151 189 259 314 380 441
#     4  12  28  47  74 109 152 196 250 315 373 456
#     4  12  27  47  76 107 149 202 246 312 375 455
#     4  12  24  48  73 105 148 196 253 300 380 452
#     4  12  27  48  76 114 147 198 251 312 381 455
#     4  12  26  48  74 106 149 197 251 302 378 454
#
# _framework density 22.449494000000001
#
# number of rings (size 3 to 8) (size 9 to 14) (size 15 to 20)
#    0.000    0.000    6.667    1.600    7.467    1.600 
#    0.000    0.000    0.000    0.000    0.000    0.000 
#    0.000    0.000    0.000    0.000    0.000    0.000 
#
# Total GULP energy -371940.211274 kJ/mol
# GULP energy per Si atom -12398.007042 kJ/mol
# Density = 2.239840 g / cm^3
# Si number density = 22.449494 Si / 1000 Ang^3
#
#
#
# Elastic Constant Matrix: (Units=GPa)
#
#
# Indices 1 2 3 4 5 6 
#
# 1 119.9264 26.7847 33.0817 -0.0001 0.0020 0.0049
# 2 26.7847 68.6264 27.0268 -0.0073 0.0254 0.0180
# 3 33.0817 27.0268 114.5886 0.0092 -0.0330 -0.0151
# 4 -0.0001 -0.0073 0.0092 32.4861 -0.0412 -0.0174
# 5 0.0020 0.0254 -0.0330 -0.0412 25.7709 0.0367
# 6 0.0049 0.0180 -0.0151 -0.0174 0.0367 42.7235
#
#
#
# Elastic Compliance Matrix: (Units=1/GPa)
#
#
# Indices 1 2 3 4 5 6 
#
# 1 0.009561 -0.002915 -0.002073 0.000000 -0.000001 -0.000001
# 2 -0.002915 0.016953 -0.003157 0.000005 -0.000021 -0.000008
# 3 -0.002073 -0.003157 0.010070 -0.000004 0.000016 0.000005
# 4 0.000000 0.000005 -0.000004 0.030782 0.000049 0.000012
# 5 -0.000001 -0.000021 0.000016 0.000049 0.038804 -0.000033
# 6 -0.000001 -0.000008 0.000005 0.000012 -0.000033 0.023406
#
#
# Mechanical properties :
#
#
# Convention : Reuss Voigt Hill
#
# Bulk Modulus (GPa) = 49.27566 52.99199 51.13382
# Shear Modulus (GPa) = 32.75873 34.61264 33.68569
#
# Velocity S-wave (km/s) = 3.82412 3.93084 3.87784
# Velocity P-wave (km/s) = 6.44172 6.65268 6.54805
#
# Compressibility (1/GPa) = 0.02029400
#
# Stress axis : x y z
#
# Youngs Moduli (GPa) = 104.58761 58.98733 99.30651
#
# Poissons Ratio (x) = 0.17198 0.20583
# Poissons Ratio (y) = 0.30492 0.31349
# Poissons Ratio (z) = 0.21678 0.18621
#
# Static dielectric constant tensor:
#      x y z
#    x 4.157420 0.000030 0.000040 
#    y 0.000030 4.028880 -0.000040 
#    z 0.000040 -0.000040 4.086530 
# 
# 
# High freq. dielectric constant tensor:
#      x y z
#    x 1.898360 0.000000 0.000000 
#    y 0.000000 1.890160 0.000000 
#    z 0.000000 0.000000 1.889490 
# 
# From -- ./inp_files/3913.got.cif
#   From: 2010.06.25/outbox.cif.g09.slc.cpg/sg43_2_cif.got.tgz:3913.got - 2010.06.26 16:48:59.
