data_PCOD8187539
_publ_section_title
;
Structure prediction by ZEFSAII (Michael W. Deem and Ramdas Pophale) SiO2 
 PCOD8187539
Probable space group: F D D 2
;
_chemical_formula_sum "Si O2"
_cell_formula_units_Z 112
_cell_length_a 5.562530
_cell_length_b 28.916180
_cell_length_c 31.651558
_cell_angle_alpha 90.000000
_cell_angle_beta 90.000000
_cell_angle_gamma 90.000000
_cell_volume 5091.061908
_symmetry_space_group_name_H-M "F D D 2"
_symmetry_group_IT_number 43
_symmetry_cell_setting 'orthorhombic'
loop_
_space_group_symop_operation_xyz
x,y,z
-x,-y,z
1/4-x,1/4+y,1/4+z
1/4+x,1/4-y,1/4+z
x,1/2+y,1/2+z
-x,1/2-y,1/2+z
1/4-x,3/4+y,3/4+z
1/4+x,3/4-y,3/4+z
1/2+x,y,1/2+z
1/2-x,-y,1/2+z
3/4-x,1/4+y,3/4+z
3/4+x,1/4-y,3/4+z
1/2+x,1/2+y,z
1/2-x,1/2-y,z
3/4-x,3/4+y,1/4+z
3/4+x,3/4-y,1/4+z
loop_
_atom_site_type_symbol
_atom_site_label
_atom_site_fract_x
_atom_site_fract_y
_atom_site_fract_z
Si Si1 0.507677 0.724500 0.717120
Si Si2 0.750000 0.844121 0.565323
Si Si3 0.644441 0.955439 0.255968
Si Si4 0.257677 0.974500 0.663526
Si Si5 0.392487 0.634375 0.861524
Si Si6 0.857512 0.615625 0.019122
Si Si7 0.894442 0.705439 0.124679
O O1 0.750000 0.750000 0.733235
O O2 0.519226 0.675786 0.740352
O O3 0.539141 0.717341 0.667172
O O4 0.250000 0.750000 0.727210
O O5 0.558317 0.809606 0.545036
O O6 0.642716 0.877491 0.602379
O O7 0.857287 0.877491 0.528268
O O8 0.941680 0.809605 0.585610
O O9 0.789141 0.967341 0.213474
O O10 0.469907 0.912610 0.245503
O O11 0.500000 0.000000 0.271531
O O12 0.269227 0.925786 0.640294
O O13 0.500000 0.000000 0.647411
O O14 0.000000 0.000000 0.653437
O O15 0.499997 0.641330 0.815323
O O16 0.469909 0.587390 0.885143
O O17 0.750000 0.750000 0.109115
#
# Coordination Sequence:
#
# PCOD8187539 Si02
#       7
#    16  16  16  16  16  16  16
#     4  11  27  46  71 101 138 183 233 284 344 413
#     4  10  24  41  72  98 142 180 236 284 359 410
#     4  10  24  44  65 102 136 180 229 286 353 415
#     4  11  27  46  71 101 138 183 233 284 344 413
#     4  10  24  44  69  99 134 179 230 288 346 411
#     4  10  24  44  69  99 134 179 230 288 346 411
#     4  10  24  44  65 102 136 180 229 286 353 415
#
# _framework density 21.999341000000001
#
# number of rings (size 3 to 8) (size 9 to 14) (size 15 to 20)
#    0.000    1.714    0.000    0.857   16.000    8.571 
#    0.000    0.000    0.000    0.000    0.000    0.000 
#    0.000    0.000    0.000    0.000    0.000    0.000 
#
# Total GULP energy -346913.022952 kJ/mol
# GULP energy per Si atom -12389.750820 kJ/mol
# Density = 2.194927 g / cm^3
# Si number density = 21.999341 Si / 1000 Ang^3
#
#
#
# Elastic Constant Matrix: (Units=GPa)
#
#
# Indices 1 2 3 4 5 6 
#
# 1 142.9795 76.3722 30.3572 0.0000 0.0000 0.0000
# 2 76.3722 167.1118 46.8481 0.0000 0.0000 0.0000
# 3 30.3572 46.8481 64.5180 0.0000 0.0000 0.0000
# 4 0.0000 0.0000 0.0000 39.1011 0.0000 0.0000
# 5 0.0000 0.0000 0.0000 0.0000 13.7344 0.0000
# 6 0.0000 0.0000 0.0000 0.0000 0.0000 27.0732
#
#
#
# Elastic Compliance Matrix: (Units=1/GPa)
#
#
# Indices 1 2 3 4 5 6 
#
# 1 0.009388 -0.003832 -0.001635 0.000000 0.000000 0.000000
# 2 -0.003832 0.009078 -0.004788 0.000000 0.000000 0.000000
# 3 -0.001635 -0.004788 0.019746 0.000000 0.000000 0.000000
# 4 0.000000 0.000000 0.000000 0.025575 0.000000 0.000000
# 5 0.000000 0.000000 0.000000 0.000000 0.072810 0.000000
# 6 0.000000 0.000000 0.000000 0.000000 0.000000 0.036937
#
#
# Mechanical properties :
#
#
# Convention : Reuss Voigt Hill
#
# Bulk Modulus (GPa) = 56.49422 75.75161 66.12291
# Shear Modulus (GPa) = 25.00704 30.71719 27.86212
#
# Velocity S-wave (km/s) = 3.37518 3.74073 3.56265
# Velocity P-wave (km/s) = 6.39725 7.29149 6.85896
#
# Compressibility (1/GPa) = 0.01770093
#
# Stress axis : x y z
#
# Youngs Moduli (GPa) = 106.51855 110.15910 50.64394
#
# Poissons Ratio (x) = 0.42215 0.08278
# Poissons Ratio (y) = 0.40820 0.24251
# Poissons Ratio (z) = 0.17412 0.52749
#
# Static dielectric constant tensor:
#      x y z
#    x 5.096830 0.000000 0.000000 
#    y 0.000000 4.096660 0.000000 
#    z 0.000000 0.000000 3.860170 
# 
# 
# High freq. dielectric constant tensor:
#      x y z
#    x 1.875350 0.000000 0.000000 
#    y 0.000000 1.871890 0.000000 
#    z 0.000000 0.000000 1.859140 
# 
# From -- ./inp_files/27432.got.cif
#   From: 2010.06.25/outbox.cif.g09.slc.cpg/sg43_14_cif.got.tgz:27432.got - 2010.06.26 16:48:59.
