data_PCOD8187270
_publ_section_title
;
Structure prediction by ZEFSAII (Michael W. Deem and Ramdas Pophale) SiO2 
 PCOD8187270
Probable space group: F D D 2
;
_chemical_formula_sum "Si O2"
_cell_formula_units_Z 72
_cell_length_a 16.269877
_cell_length_b 28.386889
_cell_length_c 7.930426
_cell_angle_alpha 90.000000
_cell_angle_beta 90.000000
_cell_angle_gamma 90.000000
_cell_volume 3662.676705
_symmetry_space_group_name_H-M "F D D 2"
_symmetry_group_IT_number 43
_symmetry_cell_setting 'orthorhombic'
loop_
_space_group_symop_operation_xyz
x,y,z
-x,-y,z
1/4-x,1/4+y,1/4+z
1/4+x,1/4-y,1/4+z
x,1/2+y,1/2+z
-x,1/2-y,1/2+z
1/4-x,3/4+y,3/4+z
1/4+x,3/4-y,3/4+z
1/2+x,y,1/2+z
1/2-x,-y,1/2+z
3/4-x,1/4+y,3/4+z
3/4+x,1/4-y,3/4+z
1/2+x,1/2+y,z
1/2-x,1/2-y,z
3/4-x,3/4+y,1/4+z
3/4+x,3/4-y,1/4+z
loop_
_atom_site_type_symbol
_atom_site_label
_atom_site_fract_x
_atom_site_fract_y
_atom_site_fract_z
Si Si1 0.899646 0.770507 0.967720
Si Si2 0.789462 0.669915 0.475300
Si Si3 0.371486 0.827756 0.774964
Si Si4 0.820267 0.979036 0.055130
Si Si5 0.000000 0.000000 0.481401
O O1 0.830495 0.751179 0.845219
O O2 0.978894 0.784996 0.859581
O O3 0.867921 0.816121 0.073455
O O4 0.922993 0.729024 0.101177
O O5 0.719339 0.659866 0.338010
O O6 0.817162 0.620979 0.559754
O O7 0.867554 0.691771 0.382474
O O8 0.753853 0.703296 0.619536
O O9 0.406308 0.781598 0.872771
#
# Coordination Sequence:
#
# PCOD8187270 Si02
#       5
#    16  16  16  16   8
#     4  10  22  40  64  93 128 168 220 256 332 371
#     4  12  22  43  68  90 136 165 220 265 330 381
#     4  10  24  40  63  98 124 170 216 266 321 392
#     4  10  21  42  65  89 129 171 209 270 317 386
#     4  12  22  40  68  94 130 178 208 272 324 390
#
# _framework density 19.657753
#
# number of rings (size 3 to 8) (size 9 to 14) (size 15 to 20)
#    1.333    0.000    2.222    4.000    3.111    0.000 
#    4.000    2.222    0.000    0.000    0.000    0.000 
#    0.000    0.000    0.000    0.000    0.000    0.000 
#
# Total GULP energy -223146.103699 kJ/mol
# GULP energy per Si atom -12397.005761 kJ/mol
# Density = 1.961301 g / cm^3
# Si number density = 19.657753 Si / 1000 Ang^3
#
#
#
# Elastic Constant Matrix: (Units=GPa)
#
#
# Indices 1 2 3 4 5 6 
#
# 1 167.0340 28.9607 58.1933 0.0000 -0.0002 0.0000
# 2 28.9607 84.5306 9.9382 0.0000 0.0001 0.0000
# 3 58.1933 9.9382 95.9067 0.0000 -0.0004 0.0000
# 4 0.0000 0.0000 0.0000 15.5234 0.0000 0.0000
# 5 -0.0002 0.0001 -0.0004 0.0000 50.2738 0.0000
# 6 0.0000 0.0000 0.0000 0.0000 0.0000 36.7930
#
#
#
# Elastic Compliance Matrix: (Units=1/GPa)
#
#
# Indices 1 2 3 4 5 6 
#
# 1 0.007973 -0.002189 -0.004611 0.000000 0.000000 0.000000
# 2 -0.002189 0.012577 0.000025 0.000000 0.000000 0.000000
# 3 -0.004611 0.000025 0.013222 0.000000 0.000000 0.000000
# 4 0.000000 0.000000 0.000000 0.064419 0.000000 0.000000
# 5 0.000000 0.000000 0.000000 0.000000 0.019891 0.000000
# 6 0.000000 0.000000 0.000000 0.000000 0.000000 0.027179
#
#
# Mechanical properties :
#
#
# Convention : Reuss Voigt Hill
#
# Bulk Modulus (GPa) = 49.45157 60.18396 54.81776
# Shear Modulus (GPa) = 30.20211 37.21000 33.70606
#
# Velocity S-wave (km/s) = 3.92394 4.35546 4.14532
# Velocity P-wave (km/s) = 6.76318 7.48169 7.13149
#
# Compressibility (1/GPa) = 0.02022181
#
# Stress axis : x y z
#
# Youngs Moduli (GPa) = 125.42707 79.50903 75.63238
#
# Poissons Ratio (x) = 0.17408 0.34872
# Poissons Ratio (y) = 0.27461 -0.00191
# Poissons Ratio (z) = 0.57831 -0.00200
#
# Static dielectric constant tensor:
#      x y z
#    x 3.560460 0.000000 0.000000 
#    y 0.000000 3.404530 0.000000 
#    z 0.000000 0.000000 3.498790 
# 
# 
# High freq. dielectric constant tensor:
#      x y z
#    x 1.779170 0.000000 0.000000 
#    y 0.000000 1.750390 0.000000 
#    z 0.000000 0.000000 1.759400 
# 
# From -- ./inp_files/2335.got.cif
#   From: 2010.06.25/outbox.cif.g09.slc.cpg/sg43_2_cif.got.tgz:2335.got - 2010.06.26 16:48:59.
