data_PCOD8187758
_publ_section_title
;
Structure prediction by ZEFSAII (Michael W. Deem and Ramdas Pophale) SiO2 
 PCOD8187758
Probable space group: F D D 2
;
_chemical_formula_sum "Si O2"
_cell_formula_units_Z 72
_cell_length_a 6.951654
_cell_length_b 32.206786
_cell_length_c 12.273962
_cell_angle_alpha 90.000000
_cell_angle_beta 90.000000
_cell_angle_gamma 90.000000
_cell_volume 2748.022663
_symmetry_space_group_name_H-M "F D D 2"
_symmetry_group_IT_number 43
_symmetry_cell_setting 'orthorhombic'
loop_
_space_group_symop_operation_xyz
x,y,z
-x,-y,z
1/4-x,1/4+y,1/4+z
1/4+x,1/4-y,1/4+z
x,1/2+y,1/2+z
-x,1/2-y,1/2+z
1/4-x,3/4+y,3/4+z
1/4+x,3/4-y,3/4+z
1/2+x,y,1/2+z
1/2-x,-y,1/2+z
3/4-x,1/4+y,3/4+z
3/4+x,1/4-y,3/4+z
1/2+x,1/2+y,z
1/2-x,1/2-y,z
3/4-x,3/4+y,1/4+z
3/4+x,3/4-y,1/4+z
loop_
_atom_site_type_symbol
_atom_site_label
_atom_site_fract_x
_atom_site_fract_y
_atom_site_fract_z
Si Si1 0.789504 0.203509 0.075700
Si Si2 0.382586 0.588613 0.728284
Si Si3 0.626338 0.038680 0.071829
Si Si4 0.900897 0.179306 0.665430
Si Si5 0.500000 0.000000 0.556622
O O1 0.750000 0.250000 0.031271
O O2 0.897411 0.205105 0.192496
O O3 0.593858 0.178137 0.093700
O O4 0.916284 0.180457 0.981958
O O5 0.511813 0.577857 0.622259
O O6 0.383297 0.638366 0.740706
O O7 0.473942 0.568438 0.834403
O O8 0.500000 0.000000 0.108404
O O9 0.845803 0.030551 0.118701
O O10 0.896166 0.220778 0.737908
#
# Coordination Sequence:
#
# PCOD8187758 Si02
#       5
#    16  16  16  16   8
#     4  11  24  50  76 108 156 201 261 330 391 474
#     4  12  29  46  76 113 156 202 267 324 396 470
#     4  11  25  46  76 111 149 201 258 314 399 475
#     4  12  26  48  75 110 152 210 257 324 398 464
#     4  12  24  50  80 106 162 204 254 334 390 480
#
# _framework density 26.200658000000001
#
# number of rings (size 3 to 8) (size 9 to 14) (size 15 to 20)
#    0.000    0.444    6.667    1.333    7.778    3.556 
#    0.000    0.000    0.000    0.000    0.000    0.000 
#    0.000    0.000    0.000    0.000    0.000    0.000 
#
# Total GULP energy -223184.997051 kJ/mol
# GULP energy per Si atom -12399.166503 kJ/mol
# Density = 2.614102 g / cm^3
# Si number density = 26.200658 Si / 1000 Ang^3
#
#
#
# Elastic Constant Matrix: (Units=GPa)
#
#
# Indices 1 2 3 4 5 6 
#
# 1 186.4414 57.3346 22.6559 0.0000 0.0000 0.0000
# 2 57.3346 153.9147 28.4288 0.0000 0.0000 0.0000
# 3 22.6559 28.4288 43.9966 0.0000 0.0000 0.0000
# 4 0.0000 0.0000 0.0000 34.5284 0.0000 0.0000
# 5 0.0000 0.0000 0.0000 0.0000 26.8355 0.0000
# 6 0.0000 0.0000 0.0000 0.0000 0.0000 38.4097
#
#
#
# Elastic Compliance Matrix: (Units=1/GPa)
#
#
# Indices 1 2 3 4 5 6 
#
# 1 0.006199 -0.001953 -0.001930 0.000000 0.000000 0.000000
# 2 -0.001953 0.007993 -0.004159 0.000000 0.000000 0.000000
# 3 -0.001930 -0.004159 0.026410 0.000000 0.000000 0.000000
# 4 0.000000 0.000000 0.000000 0.028962 0.000000 0.000000
# 5 0.000000 0.000000 0.000000 0.000000 0.037264 0.000000
# 6 0.000000 0.000000 0.000000 0.000000 0.000000 0.026035
#
#
# Mechanical properties :
#
#
# Convention : Reuss Voigt Hill
#
# Bulk Modulus (GPa) = 40.78651 66.79903 53.79277
# Shear Modulus (GPa) = 31.82301 38.35027 35.08664
#
# Velocity S-wave (km/s) = 3.48887 3.83000 3.66341
# Velocity P-wave (km/s) = 5.64185 6.71633 6.20240
#
# Compressibility (1/GPa) = 0.02451791
#
# Stress axis : x y z
#
# Youngs Moduli (GPa) = 161.32622 125.11520 37.86376
#
# Poissons Ratio (x) = 0.24429 0.07309
# Poissons Ratio (y) = 0.31499 0.15748
# Poissons Ratio (z) = 0.31141 0.52036
#
# Static dielectric constant tensor:
#      x y z
#    x 4.866890 0.000000 0.000000 
#    y 0.000000 4.758720 0.000000 
#    z 0.000000 0.000000 4.400320 
# 
# 
# High freq. dielectric constant tensor:
#      x y z
#    x 2.076320 0.000000 0.000000 
#    y 0.000000 2.039580 0.000000 
#    z 0.000000 0.000000 2.041990 
# 
# From -- ./inp_files/9149.got.cif
#   From: 2010.06.25/outbox.cif.g09.slc.cpg/sg43_5_cif.got.tgz:9149.got - 2010.06.26 16:48:59.
