data_PCOD8187707
_publ_section_title
;
Structure prediction by ZEFSAII (Michael W. Deem and Ramdas Pophale) SiO2 
 PCOD8187707
Probable space group: F D D 2
;
_chemical_formula_sum "Si O2"
_cell_formula_units_Z 80
_cell_length_a 23.700486
_cell_length_b 14.090043
_cell_length_c 11.037457
_cell_angle_alpha 90.000000
_cell_angle_beta 90.000000
_cell_angle_gamma 90.000000
_cell_volume 3685.857959
_symmetry_space_group_name_H-M "F D D 2"
_symmetry_group_IT_number 43
_symmetry_cell_setting 'orthorhombic'
loop_
_space_group_symop_operation_xyz
x,y,z
-x,-y,z
1/4-x,1/4+y,1/4+z
1/4+x,1/4-y,1/4+z
x,1/2+y,1/2+z
-x,1/2-y,1/2+z
1/4-x,3/4+y,3/4+z
1/4+x,3/4-y,3/4+z
1/2+x,y,1/2+z
1/2-x,-y,1/2+z
3/4-x,1/4+y,3/4+z
3/4+x,1/4-y,3/4+z
1/2+x,1/2+y,z
1/2-x,1/2-y,z
3/4-x,3/4+y,1/4+z
3/4+x,3/4-y,1/4+z
loop_
_atom_site_type_symbol
_atom_site_label
_atom_site_fract_x
_atom_site_fract_y
_atom_site_fract_z
Si Si1 0.103411 0.987349 0.970870
Si Si2 0.353389 0.722963 0.976103
Si Si3 0.750000 0.750000 0.042164
Si Si4 0.500000 0.000000 0.895487
Si Si5 0.777093 0.048244 0.218981
Si Si6 0.475251 0.700211 0.711352
O O1 0.123760 0.881576 0.000924
O O2 0.057366 0.993590 0.867840
O O3 0.157989 0.051715 0.940712
O O4 0.075279 0.027269 0.093105
O O5 0.405510 0.796222 0.980734
O O6 0.306663 0.757232 0.068135
O O7 0.748855 0.844399 0.961758
O O8 0.496114 0.905450 0.975179
O O9 0.751565 0.998197 0.341165
O O10 0.758539 0.000319 0.090246
#
# Coordination Sequence:
#
# PCOD8187707 Si02
#       6
#    16  16   8   8  16  16
#     4  11  23  44  69 108 141 188 244 291 357 438
#     4  11  23  44  69 108 141 188 244 291 357 438
#     4  12  24  44  74  98 149 186 233 312 349 426
#     4  12  24  44  74  98 149 186 233 312 349 426
#     4  11  26  45  70 108 143 186 241 291 364 429
#     4  11  26  45  70 108 143 186 241 291 364 429
#
# _framework density 21.704581000000001
#
# number of rings (size 3 to 8) (size 9 to 14) (size 15 to 20)
#    0.000    0.800    8.000    1.200    5.600    1.600 
#    0.000    0.000    0.000    0.000    0.000    0.000 
#    0.000    0.000    0.000    0.000    0.000    0.000 
#
# Total GULP energy -247864.459161 kJ/mol
# GULP energy per Si atom -12393.222958 kJ/mol
# Density = 2.165518 g / cm^3
# Si number density = 21.704581 Si / 1000 Ang^3
#
#
#
# Elastic Constant Matrix: (Units=GPa)
#
#
# Indices 1 2 3 4 5 6 
#
# 1 103.1577 38.5633 48.2002 0.0000 0.0000 0.0000
# 2 38.5633 105.8432 14.8597 0.0000 0.0000 0.0000
# 3 48.2002 14.8597 156.8877 0.0000 0.0000 0.0000
# 4 0.0000 0.0000 0.0000 25.6369 0.0000 0.0000
# 5 0.0000 0.0000 0.0000 0.0000 3.7861 0.0000
# 6 0.0000 0.0000 0.0000 0.0000 0.0000 41.2565
#
#
#
# Elastic Compliance Matrix: (Units=1/GPa)
#
#
# Indices 1 2 3 4 5 6 
#
# 1 0.012940 -0.004212 -0.003576 0.000000 0.000000 0.000000
# 2 -0.004212 0.010947 0.000257 0.000000 0.000000 0.000000
# 3 -0.003576 0.000257 0.007448 0.000000 0.000000 0.000000
# 4 0.000000 0.000000 0.000000 0.039006 0.000000 0.000000
# 5 0.000000 0.000000 0.000000 0.000000 0.264123 0.000000
# 6 0.000000 0.000000 0.000000 0.000000 0.000000 0.024239
#
#
# Mechanical properties :
#
#
# Convention : Reuss Voigt Hill
#
# Bulk Modulus (GPa) = 61.45644 63.23721 62.34683
# Shear Modulus (GPa) = 13.18602 31.75358 22.46980
#
# Velocity S-wave (km/s) = 2.46747 3.82905 3.22103
# Velocity P-wave (km/s) = 6.04105 6.98194 6.52847
#
# Compressibility (1/GPa) = 0.01627169
#
# Stress axis : x y z
#
# Youngs Moduli (GPa) = 77.28154 91.35287 134.25709
#
# Poissons Ratio (x) = 0.38481 0.48016
# Poissons Ratio (y) = 0.32554 -0.03455
# Poissons Ratio (z) = 0.27639 -0.02351
#
# Static dielectric constant tensor:
#      x y z
#    x 4.100200 0.000000 0.000000 
#    y 0.000000 4.490420 0.000000 
#    z 0.000000 0.000000 4.282900 
# 
# 
# High freq. dielectric constant tensor:
#      x y z
#    x 1.847410 0.000000 0.000000 
#    y 0.000000 1.848290 0.000000 
#    z 0.000000 0.000000 1.868350 
# 
# From -- ./inp_files/6093.got.cif
#   From: 2010.06.25/outbox.cif.g09.slc.cpg/sg43_4_cif.got.tgz:6093.got - 2010.06.26 16:48:59.
