data_PCOD8187928
_publ_section_title
;
Structure prediction by ZEFSAII (Michael W. Deem and Ramdas Pophale) SiO2 
 PCOD8187928
Probable space group: I M M 2
;
_chemical_formula_sum "Si O2"
_cell_formula_units_Z 64
_cell_length_a 9.106413
_cell_length_b 23.586577
_cell_length_c 19.219528
_cell_angle_alpha 90.000000
_cell_angle_beta 90.000000
_cell_angle_gamma 90.000000
_cell_volume 4128.145341
_symmetry_space_group_name_H-M "I M M 2"
_symmetry_group_IT_number 44
_symmetry_cell_setting 'orthorhombic'
loop_
_space_group_symop_operation_xyz
x,y,z
-x,-y,z
-x,y,z
x,-y,z
1/2+x,1/2+y,1/2+z
1/2-x,1/2-y,1/2+z
1/2-x,1/2+y,1/2+z
1/2+x,1/2-y,1/2+z
loop_
_atom_site_type_symbol
_atom_site_label
_atom_site_fract_x
_atom_site_fract_y
_atom_site_fract_z
Si Si1 0.325274 0.063476 0.160040
Si Si2 0.168672 0.771899 0.655494
Si Si3 0.673175 0.668821 0.023593
Si Si4 0.330836 0.436154 0.935354
Si Si5 0.169438 0.662242 0.563488
Si Si6 0.827666 0.229003 0.951798
Si Si7 0.172857 0.741429 0.801586
Si Si8 0.825421 0.613875 0.805094
O O1 0.500000 0.064745 0.162121
O O2 0.271101 0.103777 0.097005
O O3 0.265973 0.086313 0.233711
O O4 0.265466 0.000000 0.146813
O O5 0.231639 0.820143 0.602840
O O6 0.192187 0.710654 0.620950
O O7 0.243365 0.771123 0.732400
O O8 0.000000 0.785899 0.666945
O O9 0.500000 0.683052 0.019573
O O10 0.709709 0.605018 0.000004
O O11 0.755401 0.711640 0.972581
O O12 0.500000 0.427779 0.914420
O O13 0.298505 0.500000 0.960658
O O14 0.234689 0.422990 0.868360
O O15 0.261157 0.676064 0.493962
O O16 0.000000 0.657452 0.541605
O O17 0.793455 0.220685 0.869604
O O18 0.000000 0.232700 0.966393
O O19 0.236391 0.677911 0.810417
O O20 0.000000 0.734474 0.789668
O O21 0.000000 0.611886 0.809041
#
# Coordination Sequence:
#
# PCOD8187928 Si02
#       8
#     8   8   8   8   8   8   8   8
#     4   9  16  26  44  67  86 110 150 190 210 232
#     4   8  13  24  42  60  78 103 138 172 208 246
#     4   9  17  29  45  61  79 110 145 175 207 248
#     4  10  20  31  41  59  90 121 145 172 210 254
#     4   9  16  28  44  61  84 112 141 173 209 251
#     4  10  18  27  42  63  87 109 135 173 214 255
#     4   9  15  24  41  64  86 108 134 172 213 248
#     4  10  17  28  44  64  87 113 149 182 205 238
#
# _framework density 15.50333
#
# number of rings (size 3 to 8) (size 9 to 14) (size 15 to 20)
#    0.000    2.750    2.500    1.500    0.000    0.750 
#    0.000    0.625    0.000    7.125    0.000    0.875 
#    0.000    3.000    0.000    0.000    0.000    0.000 
#
# Total GULP energy -396558.494638 kJ/mol
# GULP energy per Si atom -12392.452957 kJ/mol
# Density = 1.546804 g / cm^3
# Si number density = 15.503330 Si / 1000 Ang^3
#
#
#
# Elastic Constant Matrix: (Units=GPa)
#
#
# Indices 1 2 3 4 5 6 
#
# 1 28.9964 21.6638 30.3437 0.0000 0.0000 0.0000
# 2 21.6638 103.1261 69.2957 0.0000 0.0000 0.0000
# 3 30.3437 69.2957 126.7863 0.0000 0.0000 0.0000
# 4 0.0000 0.0000 0.0000 26.2126 0.0000 0.0000
# 5 0.0000 0.0000 0.0000 0.0000 18.7311 0.0000
# 6 0.0000 0.0000 0.0000 0.0000 0.0000 14.2925
#
#
#
# Elastic Compliance Matrix: (Units=1/GPa)
#
#
# Indices 1 2 3 4 5 6 
#
# 1 0.046863 -0.003648 -0.009222 0.000000 0.000000 0.000000
# 2 -0.003648 0.015609 -0.007658 0.000000 0.000000 0.000000
# 3 -0.009222 -0.007658 0.014280 0.000000 0.000000 0.000000
# 4 0.000000 0.000000 0.000000 0.038150 0.000000 0.000000
# 5 0.000000 0.000000 0.000000 0.000000 0.053387 0.000000
# 6 0.000000 0.000000 0.000000 0.000000 0.000000 0.069967
#
#
# Mechanical properties :
#
#
# Convention : Reuss Voigt Hill
#
# Bulk Modulus (GPa) = 28.01437 55.72393 41.86915
# Shear Modulus (GPa) = 17.16974 21.02094 19.09534
#
# Velocity S-wave (km/s) = 3.33150 3.68625 3.51336
# Velocity P-wave (km/s) = 5.73652 7.35793 6.59723
#
# Compressibility (1/GPa) = 0.03569596
#
# Stress axis : x y z
#
# Youngs Moduli (GPa) = 21.33890 64.06513 70.02810
#
# Poissons Ratio (x) = 0.23370 0.64579
# Poissons Ratio (y) = 0.07784 0.53629
# Poissons Ratio (z) = 0.19678 0.49062
#
# Static dielectric constant tensor:
#      x y z
#    x 2.675220 0.000000 0.000000 
#    y 0.000000 3.001820 0.000000 
#    z 0.000000 0.000000 3.206660 
# 
# 
# High freq. dielectric constant tensor:
#      x y z
#    x 1.561310 0.000000 0.000000 
#    y 0.000000 1.572830 0.000000 
#    z 0.000000 0.000000 1.595750 
# 
# From -- ./inp_files/20865.got.cif
#   From: 2010.03.12/outbox.cif.g09.slc.cpg/sg44_11_cif.got.tgz:20865.got - 2010.04.14 02:36:11.
