data_PCOD8187487
_publ_section_title
;
Structure prediction by ZEFSAII (Michael W. Deem and Ramdas Pophale) SiO2 
 PCOD8187487
Probable space group: F D D 2
;
_chemical_formula_sum "Si O2"
_cell_formula_units_Z 96
_cell_length_a 15.417472
_cell_length_b 11.488010
_cell_length_c 22.439056
_cell_angle_alpha 90.000000
_cell_angle_beta 90.000000
_cell_angle_gamma 90.000000
_cell_volume 3974.317470
_symmetry_space_group_name_H-M "F D D 2"
_symmetry_group_IT_number 43
_symmetry_cell_setting 'orthorhombic'
loop_
_space_group_symop_operation_xyz
x,y,z
-x,-y,z
1/4-x,1/4+y,1/4+z
1/4+x,1/4-y,1/4+z
x,1/2+y,1/2+z
-x,1/2-y,1/2+z
1/4-x,3/4+y,3/4+z
1/4+x,3/4-y,3/4+z
1/2+x,y,1/2+z
1/2-x,-y,1/2+z
3/4-x,1/4+y,3/4+z
3/4+x,1/4-y,3/4+z
1/2+x,1/2+y,z
1/2-x,1/2-y,z
3/4-x,3/4+y,1/4+z
3/4+x,3/4-y,1/4+z
loop_
_atom_site_type_symbol
_atom_site_label
_atom_site_fract_x
_atom_site_fract_y
_atom_site_fract_z
Si Si1 0.500000 0.000000 0.510520
Si Si2 0.321337 0.873833 0.077847
Si Si3 0.000000 0.000000 0.816923
Si Si4 0.110539 0.414135 0.024755
Si Si5 0.250000 0.750000 0.971125
Si Si6 0.378372 0.828722 0.663848
Si Si7 0.750000 0.250000 0.176696
Si Si8 0.511908 0.260136 0.078567
O O1 0.585732 0.986572 0.469892
O O2 0.491705 0.886382 0.551107
O O3 0.252092 0.863163 0.132147
O O4 0.387214 0.764921 0.088187
O O5 0.369057 0.997874 0.079451
O O6 0.276497 0.858567 0.013310
O O7 0.942204 0.922830 0.771852
O O8 0.059071 0.915832 0.859074
O O9 0.022806 0.341731 0.035343
O O10 0.088677 0.489792 0.965676
O O11 0.332607 0.706206 0.931756
O O12 0.460228 0.752304 0.641153
#
# Coordination Sequence:
#
# PCOD8187487 Si02
#       8
#     8  16   8  16   8  16   8  16
#     4  11  23  46  71 102 149 186 251 299 370 432
#     4  11  25  45  69 108 142 190 247 299 364 444
#     4   9  24  46  70 106 142 186 242 295 356 442
#     4  11  24  49  71 104 151 189 243 303 367 441
#     4  11  23  42  71 100 141 182 243 289 362 434
#     4  10  23  42  71 103 136 192 235 300 361 427
#     4  11  26  46  74 104 148 200 232 313 370 426
#     4  11  23  45  70 107 143 191 246 307 355 448
#
# _framework density 24.155090999999999
#
# number of rings (size 3 to 8) (size 9 to 14) (size 15 to 20)
#    0.000    1.333    3.333    0.500    2.333    8.000 
#    9.000    0.000    0.000    0.000    0.000    0.000 
#    0.000    0.000    0.000    0.000    0.000    0.000 
#
# Total GULP energy -297362.222530 kJ/mol
# GULP energy per Si atom -12390.092605 kJ/mol
# Density = 2.410011 g / cm^3
# Si number density = 24.155091 Si / 1000 Ang^3
#
#
#
# Elastic Constant Matrix: (Units=GPa)
#
#
# Indices 1 2 3 4 5 6 
#
# 1 120.7291 48.3221 55.9368 0.0000 0.0000 0.0000
# 2 48.3221 125.8710 52.8688 0.0000 0.0000 0.0000
# 3 55.9368 52.8688 113.6901 0.0000 0.0000 0.0000
# 4 0.0000 0.0000 0.0000 11.6073 0.0000 0.0000
# 5 0.0000 0.0000 0.0000 0.0000 37.2649 0.0000
# 6 0.0000 0.0000 0.0000 0.0000 0.0000 50.1424
#
#
#
# Elastic Compliance Matrix: (Units=1/GPa)
#
#
# Indices 1 2 3 4 5 6 
#
# 1 0.011326 -0.002495 -0.004412 0.000000 0.000000 0.000000
# 2 -0.002495 0.010423 -0.003619 0.000000 0.000000 0.000000
# 3 -0.004412 -0.003619 0.012650 0.000000 0.000000 0.000000
# 4 0.000000 0.000000 0.000000 0.086153 0.000000 0.000000
# 5 0.000000 0.000000 0.000000 0.000000 0.026835 0.000000
# 6 0.000000 0.000000 0.000000 0.000000 0.000000 0.019943
#
#
# Mechanical properties :
#
#
# Convention : Reuss Voigt Hill
#
# Bulk Modulus (GPa) = 74.93173 74.94954 74.94063
# Shear Modulus (GPa) = 25.92953 33.34708 29.63830
#
# Velocity S-wave (km/s) = 3.27992 3.71959 3.50666
# Velocity P-wave (km/s) = 6.74035 7.03868 6.89113
#
# Compressibility (1/GPa) = 0.01334548
#
# Stress axis : x y z
#
# Youngs Moduli (GPa) = 88.29336 95.94555 79.05231
#
# Poissons Ratio (x) = 0.23936 0.34881
# Poissons Ratio (y) = 0.22027 0.28612
# Poissons Ratio (z) = 0.38958 0.34726
#
# Static dielectric constant tensor:
#      x y z
#    x 4.466930 0.000000 0.000000 
#    y 0.000000 4.107440 0.000000 
#    z 0.000000 0.000000 4.327600 
# 
# 
# High freq. dielectric constant tensor:
#      x y z
#    x 1.971140 0.000000 0.000000 
#    y 0.000000 1.940220 0.000000 
#    z 0.000000 0.000000 1.951930 
# 
# From -- ./inp_files/21117.got.cif
#   From: 2010.06.25/outbox.cif.g09.slc.cpg/sg43_11_cif.got.tgz:21117.got - 2010.06.26 16:48:59.
