data_PCOD8187245
_publ_section_title
;
Structure prediction by ZEFSAII (Michael W. Deem and Ramdas Pophale) SiO2 
 PCOD8187245
Probable space group: F D D 2
;
_chemical_formula_sum "Si O2"
_cell_formula_units_Z 96
_cell_length_a 11.138873
_cell_length_b 26.786376
_cell_length_c 16.456754
_cell_angle_alpha 90.000000
_cell_angle_beta 90.000000
_cell_angle_gamma 90.000000
_cell_volume 4910.202356
_symmetry_space_group_name_H-M "F D D 2"
_symmetry_group_IT_number 43
_symmetry_cell_setting 'orthorhombic'
loop_
_space_group_symop_operation_xyz
x,y,z
-x,-y,z
1/4-x,1/4+y,1/4+z
1/4+x,1/4-y,1/4+z
x,1/2+y,1/2+z
-x,1/2-y,1/2+z
1/4-x,3/4+y,3/4+z
1/4+x,3/4-y,3/4+z
1/2+x,y,1/2+z
1/2-x,-y,1/2+z
3/4-x,1/4+y,3/4+z
3/4+x,1/4-y,3/4+z
1/2+x,1/2+y,z
1/2-x,1/2-y,z
3/4-x,3/4+y,1/4+z
3/4+x,3/4-y,1/4+z
loop_
_atom_site_type_symbol
_atom_site_label
_atom_site_fract_x
_atom_site_fract_y
_atom_site_fract_z
Si Si1 0.084150 0.816325 0.165750
Si Si2 0.961385 0.728760 0.834203
Si Si3 0.000000 0.500000 0.809925
Si Si4 0.400392 0.832963 0.528049
Si Si5 0.583365 0.429707 0.180182
Si Si6 0.936835 0.668005 0.378069
Si Si7 0.750000 0.750000 0.941474
O O1 0.062136 0.780243 0.240431
O O2 0.191282 0.793165 0.113536
O O3 0.112695 0.871892 0.200308
O O4 0.967216 0.816896 0.110031
O O5 0.841510 0.717532 0.886410
O O6 0.072376 0.694812 0.861446
O O7 0.987999 0.786837 0.842436
O O8 0.903328 0.531401 0.755499
O O9 0.312753 0.877633 0.555643
O O10 0.496364 0.851344 0.460022
O O11 0.321432 0.787225 0.498993
O O12 0.447718 0.435565 0.148488
#
# Coordination Sequence:
#
# PCOD8187245 Si02
#       7
#    16  16   8  16  16  16   8
#     4  11  24  37  65  98 120 163 218 257 305 392
#     4  11  22  42  62  89 131 162 205 251 320 367
#     4  12  19  42  63  90 132 162 206 270 315 360
#     4  10  22  41  64  90 127 161 217 254 312 369
#     4  11  21  41  66  92 122 169 209 259 316 372
#     4  10  21  40  66  92 122 165 207 266 301 375
#     4  10  23  46  57  90 132 170 192 266 313 378
#
# _framework density 19.551129
#
# number of rings (size 3 to 8) (size 9 to 14) (size 15 to 20)
#    0.000    1.333    3.333    2.500    7.000    1.333 
#   12.000    0.000    0.000    0.000    0.000    0.000 
#    0.000    0.000    0.000    0.000    0.000    0.000 
#
# Total GULP energy -297604.582819 kJ/mol
# GULP energy per Si atom -12400.190951 kJ/mol
# Density = 1.950663 g / cm^3
# Si number density = 19.551129 Si / 1000 Ang^3
#
#
#
# Elastic Constant Matrix: (Units=GPa)
#
#
# Indices 1 2 3 4 5 6 
#
# 1 71.1461 27.4969 28.3990 0.0000 0.0000 0.0000
# 2 27.4969 98.3678 51.5571 0.0000 0.0000 0.0000
# 3 28.3990 51.5571 114.2320 0.0000 0.0000 0.0000
# 4 0.0000 0.0000 0.0000 27.5053 0.0000 0.0000
# 5 0.0000 0.0000 0.0000 0.0000 21.2691 0.0000
# 6 0.0000 0.0000 0.0000 0.0000 0.0000 25.4376
#
#
#
# Elastic Compliance Matrix: (Units=1/GPa)
#
#
# Indices 1 2 3 4 5 6 
#
# 1 0.016335 -0.003193 -0.002620 0.000000 0.000000 0.000000
# 2 -0.003193 0.013940 -0.005498 0.000000 0.000000 0.000000
# 3 -0.002620 -0.005498 0.011887 0.000000 0.000000 0.000000
# 4 0.000000 0.000000 0.000000 0.036357 0.000000 0.000000
# 5 0.000000 0.000000 0.000000 0.000000 0.047017 0.000000
# 6 0.000000 0.000000 0.000000 0.000000 0.000000 0.039312
#
#
# Mechanical properties :
#
#
# Convention : Reuss Voigt Hill
#
# Bulk Modulus (GPa) = 51.17558 55.40577 53.29067
# Shear Modulus (GPa) = 25.77549 26.59526 26.18538
#
# Velocity S-wave (km/s) = 3.63487 3.69222 3.66365
# Velocity P-wave (km/s) = 6.62181 6.82474 6.72404
#
# Compressibility (1/GPa) = 0.01954057
#
# Stress axis : x y z
#
# Youngs Moduli (GPa) = 61.21652 71.73577 84.12679
#
# Poissons Ratio (x) = 0.22906 0.22041
# Poissons Ratio (y) = 0.19547 0.46251
# Poissons Ratio (z) = 0.16039 0.39439
#
# Static dielectric constant tensor:
#      x y z
#    x 3.709920 0.000000 0.000000 
#    y 0.000000 3.905610 0.000000 
#    z 0.000000 0.000000 3.651120 
# 
# 
# High freq. dielectric constant tensor:
#      x y z
#    x 1.758120 0.000000 0.000000 
#    y 0.000000 1.768410 0.000000 
#    z 0.000000 0.000000 1.764290 
# 
# From -- ./inp_files/9744.got.cif
#   From: 2010.06.25/outbox.cif.g09.slc.cpg/sg43_5_cif.got.tgz:9744.got - 2010.06.26 16:48:59.
