data_PCOD8187387
_publ_section_title
;
Structure prediction by ZEFSAII (Michael W. Deem and Ramdas Pophale) SiO2 
 PCOD8187387
Probable space group: F D D 2
;
_chemical_formula_sum "Si O2"
_cell_formula_units_Z 120
_cell_length_a 18.068514
_cell_length_b 27.318597
_cell_length_c 10.135942
_cell_angle_alpha 90.000000
_cell_angle_beta 90.000000
_cell_angle_gamma 90.000000
_cell_volume 5003.166372
_symmetry_space_group_name_H-M "F D D 2"
_symmetry_group_IT_number 43
_symmetry_cell_setting 'orthorhombic'
loop_
_space_group_symop_operation_xyz
x,y,z
-x,-y,z
1/4-x,1/4+y,1/4+z
1/4+x,1/4-y,1/4+z
x,1/2+y,1/2+z
-x,1/2-y,1/2+z
1/4-x,3/4+y,3/4+z
1/4+x,3/4-y,3/4+z
1/2+x,y,1/2+z
1/2-x,-y,1/2+z
3/4-x,1/4+y,3/4+z
3/4+x,1/4-y,3/4+z
1/2+x,1/2+y,z
1/2-x,1/2-y,z
3/4-x,3/4+y,1/4+z
3/4+x,3/4-y,1/4+z
loop_
_atom_site_type_symbol
_atom_site_label
_atom_site_fract_x
_atom_site_fract_y
_atom_site_fract_z
Si Si1 0.250000 0.750000 0.059111
Si Si2 0.162210 0.611633 0.188460
Si Si3 0.364954 0.029791 0.972310
Si Si4 0.326911 0.757635 0.704286
Si Si5 0.955847 0.689687 0.208481
Si Si6 0.739309 0.855297 0.460238
Si Si7 0.570399 0.026820 0.170705
Si Si8 0.427257 0.620273 0.944674
O O1 0.328227 0.745206 0.139097
O O2 0.236136 0.701098 0.973308
O O3 0.145546 0.665850 0.232018
O O4 0.185475 0.581942 0.317311
O O5 0.087898 0.583759 0.132332
O O6 0.225059 0.611453 0.075664
O O7 0.280863 0.031151 0.924069
O O8 0.360896 0.006057 0.118872
O O9 0.250000 0.750000 0.788344
O O10 0.397473 0.729961 0.767775
O O11 0.310597 0.725161 0.575678
O O12 0.341443 0.813556 0.666338
O O13 0.964864 0.646640 0.317859
O O14 0.767392 0.875385 0.318684
O O15 0.651408 0.855747 0.474073
O O16 0.500000 0.000000 0.099419
#
# Coordination Sequence:
#
# PCOD8187387 Si02
#       8
#     8  16  16  16  16  16  16  16
#     4  10  26  50  72 102 152 206 248 324 394 476
#     4  10  26  46  72 106 145 196 257 313 388 466
#     4  11  24  42  76 104 145 190 254 315 385 455
#     4  10  24  46  69 103 146 197 245 313 392 458
#     4  11  27  45  77 111 147 199 263 320 376 479
#     4  11  29  48  75 107 154 203 257 316 402 469
#     4  10  22  41  72 103 145 184 244 315 380 449
#     4  12  28  46  76 107 154 202 256 322 392 463
#
# _framework density 23.984811000000001
#
# number of rings (size 3 to 8) (size 9 to 14) (size 15 to 20)
#    0.000    1.333    0.667    1.600   21.467    0.000 
#    2.400    0.000    0.000    0.000    0.000    0.000 
#    0.000    0.000    0.000    0.000    0.000    0.000 
#
# Total GULP energy -371654.962838 kJ/mol
# GULP energy per Si atom -12388.498761 kJ/mol
# Density = 2.393022 g / cm^3
# Si number density = 23.984811 Si / 1000 Ang^3
#
#
#
# Elastic Constant Matrix: (Units=GPa)
#
#
# Indices 1 2 3 4 5 6 
#
# 1 118.1474 13.2243 35.0890 0.0000 0.0000 0.0000
# 2 13.2243 96.0430 31.2602 0.0000 0.0000 0.0000
# 3 35.0890 31.2602 94.4485 0.0000 0.0000 0.0000
# 4 0.0000 0.0000 0.0000 25.8059 0.0000 0.0000
# 5 0.0000 0.0000 0.0000 0.0000 25.6891 0.0000
# 6 0.0000 0.0000 0.0000 0.0000 0.0000 45.5939
#
#
#
# Elastic Compliance Matrix: (Units=1/GPa)
#
#
# Indices 1 2 3 4 5 6 
#
# 1 0.009516 -0.000179 -0.003476 0.000000 0.000000 0.000000
# 2 -0.000179 0.011672 -0.003797 0.000000 0.000000 0.000000
# 3 -0.003476 -0.003797 0.013136 0.000000 0.000000 0.000000
# 4 0.000000 0.000000 0.000000 0.038751 0.000000 0.000000
# 5 0.000000 0.000000 0.000000 0.000000 0.038927 0.000000
# 6 0.000000 0.000000 0.000000 0.000000 0.000000 0.021933
#
#
# Mechanical properties :
#
#
# Convention : Reuss Voigt Hill
#
# Bulk Modulus (GPa) = 51.49116 51.97621 51.73368
# Shear Modulus (GPa) = 32.19301 34.68879 33.44090
#
# Velocity S-wave (km/s) = 3.66761 3.80713 3.73802
# Velocity P-wave (km/s) = 6.28093 6.40649 6.34402
#
# Compressibility (1/GPa) = 0.01942081
#
# Stress axis : x y z
#
# Youngs Moduli (GPa) = 105.08108 85.67190 76.12695
#
# Poissons Ratio (x) = 0.01532 0.26464
# Poissons Ratio (y) = 0.01879 0.28904
# Poissons Ratio (z) = 0.36529 0.32528
#
# Static dielectric constant tensor:
#      x y z
#    x 4.881340 0.000000 0.000000 
#    y 0.000000 4.535230 0.000000 
#    z 0.000000 0.000000 4.256610 
# 
# 
# High freq. dielectric constant tensor:
#      x y z
#    x 1.954520 0.000000 0.000000 
#    y 0.000000 1.958690 0.000000 
#    z 0.000000 0.000000 1.950140 
# 
# From -- ./inp_files/6814.got.cif
#   From: 2010.06.25/outbox.cif.g09.slc.cpg/sg43_4_cif.got.tgz:6814.got - 2010.06.26 16:48:59.
