data_PCOD8187897
_publ_section_title
;
Structure prediction by ZEFSAII (Michael W. Deem and Ramdas Pophale) SiO2 
 PCOD8187897
Probable space group: I M M 2
;
_chemical_formula_sum "Si O2"
_cell_formula_units_Z 64
_cell_length_a 8.779200
_cell_length_b 26.656518
_cell_length_c 18.425587
_cell_angle_alpha 90.000000
_cell_angle_beta 90.000000
_cell_angle_gamma 90.000000
_cell_volume 4312.009356
_symmetry_space_group_name_H-M "I M M 2"
_symmetry_group_IT_number 44
_symmetry_cell_setting 'orthorhombic'
loop_
_space_group_symop_operation_xyz
x,y,z
-x,-y,z
-x,y,z
x,-y,z
1/2+x,1/2+y,1/2+z
1/2-x,1/2-y,1/2+z
1/2-x,1/2+y,1/2+z
1/2+x,1/2-y,1/2+z
loop_
_atom_site_type_symbol
_atom_site_label
_atom_site_fract_x
_atom_site_fract_y
_atom_site_fract_z
Si Si1 0.674307 0.354232 0.592260
Si Si2 0.321082 0.299260 0.044526
Si Si3 0.819614 0.244841 0.336523
Si Si4 0.679115 0.253279 0.669660
Si Si5 0.676706 0.708494 0.460853
Si Si6 0.819054 0.555508 0.830644
Si Si7 0.818726 0.349631 0.917908
Si Si8 0.820323 0.555659 0.668545
O O1 0.500000 0.363582 0.612513
O O2 0.736203 0.307008 0.638979
O O3 0.694557 0.343283 0.505691
O O4 0.763814 0.404455 0.610104
O O5 0.500000 0.308240 0.046401
O O6 0.258635 0.292705 0.126497
O O7 0.278404 0.249436 0.001205
O O8 0.242405 0.345217 0.000717
O O9 0.773530 0.251192 0.253053
O O10 0.744905 0.292700 0.379208
O O11 0.749281 0.193533 0.366650
O O12 0.000000 0.244027 0.347212
O O13 0.500000 0.248357 0.656812
O O14 0.500000 0.725359 0.460167
O O15 0.760176 0.500000 0.853893
O O16 0.759040 0.597165 0.886813
O O17 0.759281 0.568469 0.749474
O O18 0.000000 0.555480 0.829506
O O19 0.000000 0.345814 0.916803
O O20 0.763425 0.500000 0.645953
O O21 0.000000 0.557164 0.668649
#
# Coordination Sequence:
#
# PCOD8187897 Si02
#       8
#     8   8   8   8   8   8   8   8
#     4   9  17  28  41  56  77 107 136 163 196 233
#     4  10  18  27  40  57  78 104 135 167 197 235
#     4  10  18  27  41  60  82 106 133 166 199 236
#     4   9  18  30  41  57  82 107 133 166 201 235
#     4   9  17  29  41  55  79 106 133 165 199 235
#     4   8  15  27  41  58  79 104 136 169 198 230
#     4  10  17  26  42  59  79 108 137 166 200 236
#     4   9  17  28  41  58  80 104 133 170 202 228
#
# _framework density 14.842268000000001
#
# number of rings (size 3 to 8) (size 9 to 14) (size 15 to 20)
#    0.000    2.750    0.000    6.000    0.000    3.750 
#    0.000    0.625    0.000    3.000    0.000    0.000 
#    0.000    1.000    0.000    9.000    0.000    5.250 
#
# Total GULP energy -396539.958529 kJ/mol
# GULP energy per Si atom -12391.873704 kJ/mol
# Density = 1.480849 g / cm^3
# Si number density = 14.842268 Si / 1000 Ang^3
#
#
#
# Elastic Constant Matrix: (Units=GPa)
#
#
# Indices 1 2 3 4 5 6 
#
# 1 47.9113 27.8376 37.6241 0.0000 -0.0001 0.0000
# 2 27.8376 88.6118 58.9427 0.0001 0.0000 0.0000
# 3 37.6241 58.9427 114.2999 0.0003 0.0001 0.0000
# 4 0.0000 0.0001 0.0003 26.1212 0.0000 0.0000
# 5 -0.0001 0.0000 0.0001 0.0000 23.2207 0.0001
# 6 0.0000 0.0000 0.0000 0.0000 0.0001 17.1639
#
#
#
# Elastic Compliance Matrix: (Units=1/GPa)
#
#
# Indices 1 2 3 4 5 6 
#
# 1 0.029151 -0.004224 -0.007417 0.000000 0.000000 0.000000
# 2 -0.004224 0.017789 -0.007783 0.000000 0.000000 0.000000
# 3 -0.007417 -0.007783 0.015204 0.000000 0.000000 0.000000
# 4 0.000000 0.000000 0.000000 0.038283 0.000000 0.000000
# 5 0.000000 0.000000 0.000000 0.000000 0.043065 0.000000
# 6 0.000000 0.000000 0.000000 0.000000 0.000000 0.058262
#
#
# Mechanical properties :
#
#
# Convention : Reuss Voigt Hill
#
# Bulk Modulus (GPa) = 42.92722 55.51465 49.22093
# Shear Modulus (GPa) = 20.13134 21.72907 20.93020
#
# Velocity S-wave (km/s) = 3.68686 3.83037 3.75930
# Velocity P-wave (km/s) = 6.86360 7.55292 7.21650
#
# Compressibility (1/GPa) = 0.02329524
#
# Stress axis : x y z
#
# Youngs Moduli (GPa) = 34.30432 56.21307 65.77108
#
# Poissons Ratio (x) = 0.23744 0.48785
# Poissons Ratio (y) = 0.14490 0.51192
# Poissons Ratio (z) = 0.25445 0.43753
#
# Static dielectric constant tensor:
#      x y z
#    x 2.796220 0.000000 0.000000 
#    y 0.000000 2.875480 0.000000 
#    z 0.000000 0.000000 3.225540 
# 
# 
# High freq. dielectric constant tensor:
#      x y z
#    x 1.568270 0.000000 0.000000 
#    y 0.000000 1.532890 0.000000 
#    z 0.000000 0.000000 1.561180 
# 
# From -- ./inp_files/23481.got.cif
#   From: 2010.03.12/outbox.cif.g09.slc.cpg/sg44_12_cif.got.tgz:23481.got - 2010.04.14 02:36:11.
