data_PCOD8187885
_publ_section_title
;
Structure prediction by ZEFSAII (Michael W. Deem and Ramdas Pophale) SiO2 
 PCOD8187885
Probable space group: I M M 2
;
_chemical_formula_sum "Si O2"
_cell_formula_units_Z 64
_cell_length_a 21.589857
_cell_length_b 8.974185
_cell_length_c 22.037719
_cell_angle_alpha 90.000000
_cell_angle_beta 90.000000
_cell_angle_gamma 90.000000
_cell_volume 4269.838266
_symmetry_space_group_name_H-M "I M M 2"
_symmetry_group_IT_number 44
_symmetry_cell_setting 'orthorhombic'
loop_
_space_group_symop_operation_xyz
x,y,z
-x,-y,z
-x,y,z
x,-y,z
1/2+x,1/2+y,1/2+z
1/2-x,1/2-y,1/2+z
1/2-x,1/2+y,1/2+z
1/2+x,1/2-y,1/2+z
loop_
_atom_site_type_symbol
_atom_site_label
_atom_site_fract_x
_atom_site_fract_y
_atom_site_fract_z
Si Si1 0.740393 0.175606 0.005990
Si Si2 0.331074 0.825045 0.279205
Si Si3 0.432361 0.827100 0.504203
Si Si4 0.929125 0.324404 0.681542
Si Si5 0.246186 0.664499 0.195947
Si Si6 0.674883 0.822187 0.415653
Si Si7 0.346986 0.331452 0.090322
Si Si8 0.333026 0.172450 0.593177
O O1 0.675362 0.245994 0.029360
O O2 0.792721 0.211543 0.055184
O O3 0.731913 0.000000 0.997950
O O4 0.762365 0.248734 0.942330
O O5 0.388703 0.765104 0.238942
O O6 0.265792 0.777333 0.248744
O O7 0.334923 0.762406 0.347297
O O8 0.332762 0.000000 0.281643
O O9 0.500000 0.748143 0.500195
O O10 0.384927 0.764886 0.453559
O O11 0.404100 0.802315 0.572179
O O12 0.441432 0.000000 0.491095
O O13 0.920250 0.500000 0.673682
O O14 0.907109 0.248071 0.619124
O O15 0.000000 0.280862 0.694408
O O16 0.246358 0.500000 0.224896
O O17 0.292664 0.674165 0.139505
O O18 0.178729 0.701612 0.165421
O O19 0.682012 0.000000 0.419114
O O20 0.364672 0.500000 0.072964
O O21 0.313411 0.000000 0.577612
#
# Coordination Sequence:
#
# PCOD8187885 Si02
#       8
#     8   8   8   8   8   8   8   8
#     4  10  17  25  40  59  76  97 128 166 209 248
#     4   9  17  27  39  55  77 107 139 168 196 229
#     4   8  13  22  38  57  75  99 132 163 187 220
#     4   9  17  28  41  60  86 112 140 174 205 233
#     4   8  14  24  38  54  73  97 124 159 201 238
#     4   9  17  28  39  54  79 108 137 167 199 234
#     4   9  16  27  42  58  77 102 132 166 206 249
#     4   8  14  25  39  56  77  99 124 158 201 241
#
# _framework density 14.988858
#
# number of rings (size 3 to 8) (size 9 to 14) (size 15 to 20)
#    0.000    3.250    0.000    3.000    0.000    4.250 
#    0.000    2.500    0.000    6.000    0.000    5.250 
#    0.000    1.000    0.000    9.250    0.000    3.250 
#
# Total GULP energy -396421.796073 kJ/mol
# GULP energy per Si atom -12388.181127 kJ/mol
# Density = 1.495474 g / cm^3
# Si number density = 14.988858 Si / 1000 Ang^3
#
#
#
# Elastic Constant Matrix: (Units=GPa)
#
#
# Indices 1 2 3 4 5 6 
#
# 1 62.9419 23.3362 70.1638 0.0000 0.0000 0.0000
# 2 23.3362 44.4185 27.3494 0.0000 0.0000 0.0000
# 3 70.1638 27.3494 88.6012 0.0000 0.0000 0.0000
# 4 0.0000 0.0000 0.0000 19.5695 0.0000 0.0000
# 5 0.0000 0.0000 0.0000 0.0000 17.2328 0.0000
# 6 0.0000 0.0000 0.0000 0.0000 0.0000 14.5355
#
#
#
# Elastic Compliance Matrix: (Units=1/GPa)
#
#
# Indices 1 2 3 4 5 6 
#
# 1 0.136976 -0.006389 -0.106500 0.000000 0.000000 0.000000
# 2 -0.006389 0.028094 -0.003613 0.000000 0.000000 0.000000
# 3 -0.106500 -0.003613 0.096739 0.000000 0.000000 0.000000
# 4 0.000000 0.000000 0.000000 0.051100 0.000000 0.000000
# 5 0.000000 0.000000 0.000000 0.000000 0.058029 0.000000
# 6 0.000000 0.000000 0.000000 0.000000 0.000000 0.068797
#
#
# Mechanical properties :
#
#
# Convention : Reuss Voigt Hill
#
# Bulk Modulus (GPa) = 34.71420 48.62892 41.67156
# Shear Modulus (GPa) = 7.32773 15.27505 11.30139
#
# Velocity S-wave (km/s) = 2.21346 3.19579 2.74886
# Velocity P-wave (km/s) = 5.45370 6.79200 6.15930
#
# Compressibility (1/GPa) = 0.02880666
#
# Stress axis : x y z
#
# Youngs Moduli (GPa) = 7.30055 35.59468 10.33705
#
# Poissons Ratio (x) = 0.22741 1.10089
# Poissons Ratio (y) = 0.04664 0.03734
# Poissons Ratio (z) = 0.77751 0.12859
#
# Static dielectric constant tensor:
#      x y z
#    x 2.989200 0.000000 0.000000 
#    y 0.000000 2.763280 0.000000 
#    z 0.000000 0.000000 3.017010 
# 
# 
# High freq. dielectric constant tensor:
#      x y z
#    x 1.545100 0.000000 0.000000 
#    y 0.000000 1.562210 0.000000 
#    z 0.000000 0.000000 1.551580 
# 
# From -- ./inp_files/23428.got.cif
#   From: 2010.03.12/outbox.cif.g09.slc.cpg/sg44_12_cif.got.tgz:23428.got - 2010.04.14 02:36:11.
