data_PCOD8187066
_publ_section_title
;
Structure prediction by ZEFSAII (Michael W. Deem and Ramdas Pophale) SiO2 
 PCOD8187066
Probable space group: F D D 2
;
_chemical_formula_sum "Si O2"
_cell_formula_units_Z 128
_cell_length_a 11.046015
_cell_length_b 25.186342
_cell_length_c 21.710408
_cell_angle_alpha 90.000000
_cell_angle_beta 90.000000
_cell_angle_gamma 90.000000
_cell_volume 6040.024636
_symmetry_space_group_name_H-M "F D D 2"
_symmetry_group_IT_number 43
_symmetry_cell_setting 'orthorhombic'
loop_
_space_group_symop_operation_xyz
x,y,z
-x,-y,z
1/4-x,1/4+y,1/4+z
1/4+x,1/4-y,1/4+z
x,1/2+y,1/2+z
-x,1/2-y,1/2+z
1/4-x,3/4+y,3/4+z
1/4+x,3/4-y,3/4+z
1/2+x,y,1/2+z
1/2-x,-y,1/2+z
3/4-x,1/4+y,3/4+z
3/4+x,1/4-y,3/4+z
1/2+x,1/2+y,z
1/2-x,1/2-y,z
3/4-x,3/4+y,1/4+z
3/4+x,3/4-y,1/4+z
loop_
_atom_site_type_symbol
_atom_site_label
_atom_site_fract_x
_atom_site_fract_y
_atom_site_fract_z
Si Si1 0.128520 0.389491 0.298830
Si Si2 0.265991 0.937172 0.003335
Si Si3 0.878520 0.639491 0.102829
Si Si4 0.715870 0.049291 0.464704
Si Si5 0.278706 0.844448 0.234399
Si Si6 0.721294 0.844448 0.417261
Si Si7 0.034130 0.200709 0.936955
Si Si8 0.734009 0.437172 0.148324
O O1 0.115549 0.335182 0.259743
O O2 0.221518 0.378534 0.354118
O O3 0.183901 0.436455 0.257292
O O4 1.000000 0.408535 0.325830
O O5 0.406688 0.940102 0.982809
O O6 0.208929 0.883994 0.975113
O O7 0.191092 0.987206 0.976326
O O8 0.250000 0.935622 0.075830
O O9 0.933901 0.686455 0.144368
O O10 0.865549 0.585182 0.141917
O O11 0.971518 0.628534 0.047542
O O12 0.856653 0.056223 0.481319
O O13 0.291071 0.883994 0.176547
O O14 0.606653 0.806223 0.420340
O O15 0.843312 0.809898 0.418851
O O16 0.058908 0.262794 0.925333
#
# Coordination Sequence:
#
# PCOD8187066 Si02
#       8
#    16  16  16  16  16  16  16  16
#     4   9  19  38  58  83 117 146 181 233 287 341
#     4  11  22  36  57  82 110 150 194 234 282 336
#     4   9  19  38  58  83 117 146 181 233 287 341
#     4  10  20  37  60  83 112 148 185 231 285 343
#     4  10  21  37  56  81 114 146 187 237 280 337
#     4  10  21  37  56  81 114 146 187 237 280 337
#     4  10  20  37  60  83 112 148 185 231 285 343
#     4  11  22  36  57  82 110 150 194 234 282 336
#
# _framework density 21.191967000000002
#
# number of rings (size 3 to 8) (size 9 to 14) (size 15 to 20)
#    0.000    2.000    0.000    4.500    0.000    1.000 
#    0.000   22.500    0.000    4.500    0.000    0.000 
#    0.000    0.000    0.000    0.000    0.000    0.000 
#
# Total GULP energy -396905.323808 kJ/mol
# GULP energy per Si atom -12403.291369 kJ/mol
# Density = 2.114373 g / cm^3
# Si number density = 21.191967 Si / 1000 Ang^3
#
#
#
# Elastic Constant Matrix: (Units=GPa)
#
#
# Indices 1 2 3 4 5 6 
#
# 1 25.1358 10.6177 4.1324 0.0000 0.0000 0.0000
# 2 10.6177 97.3573 44.2896 0.0000 0.0000 0.0000
# 3 4.1324 44.2896 113.6348 0.0000 0.0000 0.0000
# 4 0.0000 0.0000 0.0000 11.9967 0.0000 0.0000
# 5 0.0000 0.0000 0.0000 0.0000 32.0479 0.0000
# 6 0.0000 0.0000 0.0000 0.0000 0.0000 24.0327
#
#
#
# Elastic Compliance Matrix: (Units=1/GPa)
#
#
# Indices 1 2 3 4 5 6 
#
# 1 0.041714 -0.004691 0.000311 0.000000 0.000000 0.000000
# 2 -0.004691 0.013013 -0.004901 0.000000 0.000000 0.000000
# 3 0.000311 -0.004901 0.010699 0.000000 0.000000 0.000000
# 4 0.000000 0.000000 0.000000 0.083356 0.000000 0.000000
# 5 0.000000 0.000000 0.000000 0.000000 0.031203 0.000000
# 6 0.000000 0.000000 0.000000 0.000000 0.000000 0.041610
#
#
# Mechanical properties :
#
#
# Convention : Reuss Voigt Hill
#
# Bulk Modulus (GPa) = 21.33813 39.35636 30.34725
# Shear Modulus (GPa) = 19.54816 25.42134 22.48475
#
# Velocity S-wave (km/s) = 3.04045 3.46724 3.26084
# Velocity P-wave (km/s) = 4.73462 5.88564 5.34122
#
# Compressibility (1/GPa) = 0.04686446
#
# Stress axis : x y z
#
# Youngs Moduli (GPa) = 23.97263 76.84832 93.46631
#
# Poissons Ratio (x) = 0.36049 -0.02910
# Poissons Ratio (y) = 0.11245 0.45809
# Poissons Ratio (z) = -0.00746 0.37664
#
# Static dielectric constant tensor:
#      x y z
#    x 3.752210 0.000000 0.000000 
#    y 0.000000 3.557770 0.000000 
#    z 0.000000 0.000000 3.960750 
# 
# 
# High freq. dielectric constant tensor:
#      x y z
#    x 1.827230 0.000000 0.000000 
#    y 0.000000 1.812920 0.000000 
#    z 0.000000 0.000000 1.841130 
# 
# From -- ./inp_files/21325.got.cif
#   From: 2010.06.25/outbox.cif.g09.slc.cpg/sg43_11_cif.got.tgz:21325.got - 2010.06.26 16:48:59.
