data_PCOD8187989
_publ_section_title
;
Structure prediction by ZEFSAII (Michael W. Deem and Ramdas Pophale) SiO2 
 PCOD8187989
Probable space group: I M M 2
;
_chemical_formula_sum "Si O2"
_cell_formula_units_Z 56
_cell_length_a 7.784340
_cell_length_b 13.766927
_cell_length_c 32.445088
_cell_angle_alpha 90.000000
_cell_angle_beta 90.000000
_cell_angle_gamma 90.000000
_cell_volume 3477.024593
_symmetry_space_group_name_H-M "I M M 2"
_symmetry_group_IT_number 44
_symmetry_cell_setting 'orthorhombic'
loop_
_space_group_symop_operation_xyz
x,y,z
-x,-y,z
-x,y,z
x,-y,z
1/2+x,1/2+y,1/2+z
1/2-x,1/2-y,1/2+z
1/2-x,1/2+y,1/2+z
1/2+x,1/2-y,1/2+z
loop_
_atom_site_type_symbol
_atom_site_label
_atom_site_fract_x
_atom_site_fract_y
_atom_site_fract_z
Si Si1 0.703340 0.607268 0.437890
Si Si2 0.296836 0.295389 0.144202
Si Si3 0.500000 0.885360 0.792345
Si Si4 0.804599 0.783981 0.015895
Si Si5 0.500000 0.116353 0.697158
Si Si6 0.699800 0.109460 0.096024
Si Si7 0.302651 0.395333 0.061494
Si Si8 0.308828 0.616046 0.347019
O O1 0.500000 0.599284 0.443489
O O2 0.785064 0.500000 0.441702
O O3 0.783445 0.671870 0.474807
O O4 0.745499 0.652324 0.392881
O O5 0.500000 0.313023 0.154572
O O6 0.175077 0.334562 0.180416
O O7 0.261534 0.181003 0.134690
O O8 0.229072 0.352337 0.103934
O O9 0.500000 0.856044 0.744996
O O10 0.328680 0.842835 0.814232
O O11 0.500000 0.000000 0.797969
O O12 0.793633 0.857352 0.054430
O O13 0.719671 0.679862 0.024400
O O14 0.000000 0.761865 0.006258
O O15 0.500000 0.000000 0.689608
O O16 0.500000 0.115242 0.085399
O O17 0.757808 0.000000 0.107878
O O18 0.500000 0.412316 0.069336
O O19 0.214737 0.500000 0.051739
O O20 0.500000 0.654566 0.335286
O O21 0.312525 0.500000 0.347692
#
# Coordination Sequence:
#
# PCOD8187989 Si02
#       8
#     8   8   4   8   4   8   8   8
#     4   8  14  25  40  59  87 120 147 172 210 264
#     4   9  19  34  48  66  90 119 156 192 229 275
#     4   9  18  30  42  65  89 109 149 190 222 273
#     4  10  18  26  40  66  92 113 149 193 224 260
#     4  11  22  32  47  69  93 119 156 200 233 271
#     4   9  18  32  46  62  90 123 152 184 226 274
#     4   9  18  32  45  56  80 120 159 192 227 266
#     4   8  14  27  44  59  83 118 147 175 218 269
#
# _framework density 16.105723999999999
#
# number of rings (size 3 to 8) (size 9 to 14) (size 15 to 20)
#    0.000    3.000    0.000    3.000    4.000    2.571 
#    2.571    1.429    0.000    0.000    0.000    0.000 
#    0.000    2.286    0.000    5.000    0.000    0.000 
#
# Total GULP energy -346923.779523 kJ/mol
# GULP energy per Si atom -12390.134983 kJ/mol
# Density = 1.606907 g / cm^3
# Si number density = 16.105724 Si / 1000 Ang^3
#
#
#
# Elastic Constant Matrix: (Units=GPa)
#
#
# Indices 1 2 3 4 5 6 
#
# 1 65.1872 24.4321 47.2749 0.0000 0.0000 0.0000
# 2 24.4321 103.0466 46.4321 0.0000 0.0000 0.0000
# 3 47.2749 46.4321 118.5192 0.0000 0.0000 0.0000
# 4 0.0000 0.0000 0.0000 18.1805 0.0000 0.0000
# 5 0.0000 0.0000 0.0000 0.0000 18.8558 0.0000
# 6 0.0000 0.0000 0.0000 0.0000 0.0000 15.1733
#
#
#
# Elastic Compliance Matrix: (Units=1/GPa)
#
#
# Indices 1 2 3 4 5 6 
#
# 1 0.021778 -0.001517 -0.008092 0.000000 0.000000 0.000000
# 2 -0.001517 0.011890 -0.004053 0.000000 0.000000 0.000000
# 3 -0.008092 -0.004053 0.013253 0.000000 0.000000 0.000000
# 4 0.000000 0.000000 0.000000 0.055004 0.000000 0.000000
# 5 0.000000 0.000000 0.000000 0.000000 0.053034 0.000000
# 6 0.000000 0.000000 0.000000 0.000000 0.000000 0.065905
#
#
# Mechanical properties :
#
#
# Convention : Reuss Voigt Hill
#
# Bulk Modulus (GPa) = 51.03040 58.11460 54.57250
# Shear Modulus (GPa) = 19.62926 21.68284 20.65605
#
# Velocity S-wave (km/s) = 3.49488 3.67315 3.58513
# Velocity P-wave (km/s) = 6.93102 7.35873 7.14808
#
# Compressibility (1/GPa) = 0.01959616
#
# Stress axis : x y z
#
# Youngs Moduli (GPa) = 45.91845 84.10172 75.45340
#
# Poissons Ratio (x) = 0.12759 0.61059
# Poissons Ratio (y) = 0.06966 0.30582
# Poissons Ratio (z) = 0.37159 0.34088
#
# Static dielectric constant tensor:
#      x y z
#    x 3.054010 0.000000 0.000000 
#    y 0.000000 3.216380 0.000000 
#    z 0.000000 0.000000 3.036600 
# 
# 
# High freq. dielectric constant tensor:
#      x y z
#    x 1.621840 0.000000 0.000000 
#    y 0.000000 1.586580 0.000000 
#    z 0.000000 0.000000 1.596500 
# 
# From -- ./inp_files/27258.got.cif
#   From: 2010.03.12/outbox.cif.g09.slc.cpg/sg44_14_cif.got.tgz:27258.got - 2010.04.14 02:36:11.
