data_PCOD8187347
_publ_section_title
;
Structure prediction by ZEFSAII (Michael W. Deem and Ramdas Pophale) SiO2 
 PCOD8187347
Probable space group: F D D 2
;
_chemical_formula_sum "Si O2"
_cell_formula_units_Z 96
_cell_length_a 30.788768
_cell_length_b 14.895137
_cell_length_c 10.296892
_cell_angle_alpha 90.000000
_cell_angle_beta 90.000000
_cell_angle_gamma 90.000000
_cell_volume 4722.184712
_symmetry_space_group_name_H-M "F D D 2"
_symmetry_group_IT_number 43
_symmetry_cell_setting 'orthorhombic'
loop_
_space_group_symop_operation_xyz
x,y,z
-x,-y,z
1/4-x,1/4+y,1/4+z
1/4+x,1/4-y,1/4+z
x,1/2+y,1/2+z
-x,1/2-y,1/2+z
1/4-x,3/4+y,3/4+z
1/4+x,3/4-y,3/4+z
1/2+x,y,1/2+z
1/2-x,-y,1/2+z
3/4-x,1/4+y,3/4+z
3/4+x,1/4-y,3/4+z
1/2+x,1/2+y,z
1/2-x,1/2-y,z
3/4-x,3/4+y,1/4+z
3/4+x,3/4-y,1/4+z
loop_
_atom_site_type_symbol
_atom_site_label
_atom_site_fract_x
_atom_site_fract_y
_atom_site_fract_z
Si Si1 0.750000 0.250000 0.461870
Si Si2 0.838036 0.312978 0.935430
Si Si3 0.335750 0.460031 0.654983
Si Si4 0.500000 0.500000 0.119630
Si Si5 0.837098 0.336642 0.396320
Si Si6 0.587930 0.329328 0.923233
Si Si7 0.741881 0.401373 0.663285
O O1 0.790167 0.288707 0.379133
O O2 0.732365 0.332971 0.546210
O O3 0.793934 0.255674 0.953432
O O4 0.841236 0.349923 0.789643
O O5 0.880790 0.253187 0.957432
O O6 0.832132 0.386816 0.044220
O O7 0.377542 0.513898 0.609332
O O8 0.340814 0.418777 0.797549
O O9 0.293973 0.522818 0.660720
O O10 0.507507 0.591860 0.041781
O O11 0.849941 0.370254 0.540058
O O12 0.538149 0.296989 0.904128
#
# Coordination Sequence:
#
# PCOD8187347 Si02
#       7
#     8  16  16   8  16  16  16
#     4   9  20  39  62  86 114 150 198 242 284 344
#     4  11  23  38  59  87 117 150 190 243 287 334
#     4  12  24  37  59  89 120 150 190 243 292 335
#     4   9  20  39  60  82 116 156 192 228 284 356
#     4  11  23  39  61  85 116 158 194 236 288 351
#     4  10  22  40  61  82 112 155 194 230 284 349
#     4   9  20  39  61  85 114 154 195 234 285 349
#
# _framework density 20.329574999999998
#
# number of rings (size 3 to 8) (size 9 to 14) (size 15 to 20)
#    0.000    1.667    0.000    5.000    0.000    8.667 
#    0.000    0.000    0.000    0.000    0.000    0.000 
#    0.000    0.000    0.000    0.000    0.000    0.000 
#
# Total GULP energy -297532.760212 kJ/mol
# GULP energy per Si atom -12397.198342 kJ/mol
# Density = 2.028330 g / cm^3
# Si number density = 20.329575 Si / 1000 Ang^3
#
#
#
# Elastic Constant Matrix: (Units=GPa)
#
#
# Indices 1 2 3 4 5 6 
#
# 1 130.6855 76.1621 23.3882 0.0000 0.0000 0.0000
# 2 76.1621 113.1790 34.9719 0.0000 0.0000 0.0000
# 3 23.3882 34.9719 80.9122 0.0000 0.0000 0.0000
# 4 0.0000 0.0000 0.0000 -1.6188 0.0000 0.0000
# 5 0.0000 0.0000 0.0000 0.0000 53.2558 0.0000
# 6 0.0000 0.0000 0.0000 0.0000 0.0000 58.2757
#
#
#
# Elastic Compliance Matrix: (Units=1/GPa)
#
#
# Indices 1 2 3 4 5 6 
#
# 1 0.012589 -0.008480 0.000026 0.000000 0.000000 0.000000
# 2 -0.008480 0.015909 -0.004425 0.000000 0.000000 0.000000
# 3 0.000026 -0.004425 0.014264 0.000000 0.000000 0.000000
# 4 0.000000 0.000000 0.000000 -0.617759 0.000000 0.000000
# 5 0.000000 0.000000 0.000000 0.000000 0.018777 0.000000
# 6 0.000000 0.000000 0.000000 0.000000 0.000000 0.017160
#
#
# Mechanical properties :
#
#
# Convention : Reuss Voigt Hill
#
# Bulk Modulus (GPa) = 58.80621 65.98012 62.39317
# Shear Modulus (GPa) = -9.84962 34.66618 12.40828
#
# Velocity S-wave (km/s) = -2.20352 4.13390 2.47322
# Velocity P-wave (km/s) = 4.74502 7.43715 6.23805
#
# Compressibility (1/GPa) = 0.01700501
#
# Stress axis : x y z
#
# Youngs Moduli (GPa) = 79.43312 62.85641 70.10572
#
# Poissons Ratio (x) = 0.53301 -0.00183
# Poissons Ratio (y) = 0.67358 0.31023
# Poissons Ratio (z) = -0.00208 0.27815
#
# Static dielectric constant tensor:
#      x y z
#    x 3.979500 0.000000 0.000000 
#    y 0.000000 3.646280 0.000000 
#    z 0.000000 0.000000 3.597170 
# 
# 
# High freq. dielectric constant tensor:
#      x y z
#    x 1.814900 0.000000 0.000000 
#    y 0.000000 1.793370 0.000000 
#    z 0.000000 0.000000 1.786030 
# 
# From -- ./inp_files/6291.got.cif
#   From: 2010.06.25/outbox.cif.g09.slc.cpg/sg43_4_cif.got.tgz:6291.got - 2010.06.26 16:48:59.
