data_PCOD8187812
_publ_section_title
;
Structure prediction by ZEFSAII (Michael W. Deem and Ramdas Pophale) SiO2 
 PCOD8187812
Probable space group: F D D 2
;
_chemical_formula_sum "Si O2"
_cell_formula_units_Z 80
_cell_length_a 19.482656
_cell_length_b 28.728492
_cell_length_c 6.192744
_cell_angle_alpha 90.000000
_cell_angle_beta 90.000000
_cell_angle_gamma 90.000000
_cell_volume 3466.124191
_symmetry_space_group_name_H-M "F D D 2"
_symmetry_group_IT_number 43
_symmetry_cell_setting 'orthorhombic'
loop_
_space_group_symop_operation_xyz
x,y,z
-x,-y,z
1/4-x,1/4+y,1/4+z
1/4+x,1/4-y,1/4+z
x,1/2+y,1/2+z
-x,1/2-y,1/2+z
1/4-x,3/4+y,3/4+z
1/4+x,3/4-y,3/4+z
1/2+x,y,1/2+z
1/2-x,-y,1/2+z
3/4-x,1/4+y,3/4+z
3/4+x,1/4-y,3/4+z
1/2+x,1/2+y,z
1/2-x,1/2-y,z
3/4-x,3/4+y,1/4+z
3/4+x,3/4-y,1/4+z
loop_
_atom_site_type_symbol
_atom_site_label
_atom_site_fract_x
_atom_site_fract_y
_atom_site_fract_z
Si Si1 0.137066 0.317459 0.737700
Si Si2 0.635049 0.651132 0.194792
Si Si3 0.025085 0.801645 0.553221
Si Si4 0.963596 0.381003 0.318464
Si Si5 0.348583 0.500728 0.150931
O O1 0.147726 0.364529 0.606143
O O2 0.149698 0.272192 0.582062
O O3 0.188161 0.322048 0.943274
O O4 0.059284 0.315810 0.826409
O O5 0.716747 0.643974 0.189347
O O6 0.626509 0.702994 0.288106
O O7 0.596044 0.642261 0.967468
O O8 0.978901 0.843302 0.636579
O O9 0.974823 0.758237 0.514868
O O10 0.085895 0.788479 0.719671
#
# Coordination Sequence:
#
# PCOD8187812 Si02
#       5
#    16  16  16  16  16
#     4  12  25  46  75 109 145 194 252 311 374 455
#     4  12  27  46  76 107 152 199 247 319 384 456
#     4  12  23  45  78 107 141 191 254 303 365 465
#     4  12  25  48  75 109 152 195 253 313 388 457
#     4  12  24  43  76 111 144 193 254 304 376 456
#
# _framework density 23.080534
#
# number of rings (size 3 to 8) (size 9 to 14) (size 15 to 20)
#    0.000    0.000    8.000    2.400    0.000    0.000 
#    0.000    6.000    0.000    0.000    0.000    0.000 
#    0.000    0.000    0.000    0.000    0.000    0.000 
#
# Total GULP energy -247875.934495 kJ/mol
# GULP energy per Si atom -12393.796725 kJ/mol
# Density = 2.302800 g / cm^3
# Si number density = 23.080534 Si / 1000 Ang^3
#
#
#
# Elastic Constant Matrix: (Units=GPa)
#
#
# Indices 1 2 3 4 5 6 
#
# 1 80.9369 32.8413 30.8041 0.0043 0.0000 0.0046
# 2 32.8413 106.7783 56.8185 0.0173 -0.0150 -0.0129
# 3 30.8041 56.8185 106.4281 0.0367 -0.0659 -0.0213
# 4 0.0043 0.0173 0.0367 54.1971 -0.0197 -0.0106
# 5 0.0000 -0.0150 -0.0659 -0.0197 41.5582 0.0105
# 6 0.0046 -0.0129 -0.0213 -0.0106 0.0105 40.6236
#
#
#
# Elastic Compliance Matrix: (Units=1/GPa)
#
#
# Indices 1 2 3 4 5 6 
#
# 1 0.014598 -0.003131 -0.002554 0.000002 -0.000005 -0.000004
# 2 -0.003131 0.013753 -0.006436 0.000000 -0.000005 0.000001
# 3 -0.002554 -0.006436 0.013571 -0.000007 0.000019 0.000005
# 4 0.000002 0.000000 -0.000007 0.018451 0.000009 0.000005
# 5 -0.000005 -0.000005 0.000019 0.000009 0.024063 -0.000006
# 6 -0.000004 0.000001 0.000005 0.000005 -0.000006 0.024616
#
#
# Mechanical properties :
#
#
# Convention : Reuss Voigt Hill
#
# Bulk Modulus (GPa) = 56.55932 59.45236 58.00584
# Shear Modulus (GPa) = 35.92309 38.85439 37.38874
#
# Velocity S-wave (km/s) = 3.94943 4.10741 4.02920
# Velocity P-wave (km/s) = 6.73467 6.95047 6.84342
#
# Compressibility (1/GPa) = 0.01768055
#
# Stress axis : x y z
#
# Youngs Moduli (GPa) = 68.50447 72.71208 73.68595
#
# Poissons Ratio (x) = 0.22766 0.18816
# Poissons Ratio (y) = 0.21448 0.47424
# Poissons Ratio (z) = 0.17493 0.46798
#
# Static dielectric constant tensor:
#      x y z
#    x 3.957670 0.000010 0.000080 
#    y 0.000010 4.094240 -0.000010 
#    z 0.000080 -0.000010 4.385620 
# 
# 
# High freq. dielectric constant tensor:
#      x y z
#    x 1.895230 0.000000 0.000000 
#    y 0.000000 1.910480 0.000000 
#    z 0.000000 0.000000 1.933180 
# 
# From -- ./inp_files/959.got.cif
#   From: 2010.06.25/outbox.cif.g09.slc.cpg/sg43_1_cif.got.tgz:959.got - 2010.06.26 16:48:59.
