data_PCOD8187935
_publ_section_title
;
Structure prediction by ZEFSAII (Michael W. Deem and Ramdas Pophale) SiO2 
 PCOD8187935
Probable space group: I M M 2
;
_chemical_formula_sum "Si O2"
_cell_formula_units_Z 64
_cell_length_a 9.367235
_cell_length_b 22.881775
_cell_length_c 19.060374
_cell_angle_alpha 90.000000
_cell_angle_beta 90.000000
_cell_angle_gamma 90.000000
_cell_volume 4085.380810
_symmetry_space_group_name_H-M "I M M 2"
_symmetry_group_IT_number 44
_symmetry_cell_setting 'orthorhombic'
loop_
_space_group_symop_operation_xyz
x,y,z
-x,-y,z
-x,y,z
x,-y,z
1/2+x,1/2+y,1/2+z
1/2-x,1/2-y,1/2+z
1/2-x,1/2+y,1/2+z
1/2+x,1/2-y,1/2+z
loop_
_atom_site_type_symbol
_atom_site_label
_atom_site_fract_x
_atom_site_fract_y
_atom_site_fract_z
Si Si1 0.166906 0.568583 0.198040
Si Si2 0.330875 0.231182 0.208613
Si Si3 0.167263 0.846098 0.786350
Si Si4 0.833613 0.881927 0.566069
Si Si5 0.835349 0.776940 0.922421
Si Si6 0.664917 0.567313 0.917995
Si Si7 0.666218 0.246093 0.054483
Si Si8 0.667558 0.161599 0.338484
O O1 0.194477 0.500000 0.202290
O O2 0.240441 0.597115 0.266634
O O3 0.238733 0.593910 0.128512
O O4 0.000000 0.583755 0.196967
O O5 0.500000 0.235437 0.212654
O O6 0.276204 0.293838 0.236291
O O7 0.279284 0.220192 0.129102
O O8 0.280626 0.178783 0.259714
O O9 0.196118 0.828746 0.867226
O O10 0.000000 0.858851 0.774079
O O11 0.788311 0.917354 0.496904
O O12 0.798456 0.814513 0.552247
O O13 0.000000 0.890844 0.585146
O O14 0.790875 0.714821 0.889539
O O15 0.000000 0.776204 0.943304
O O16 0.746395 0.788223 0.992852
O O17 0.500000 0.583101 0.907895
O O18 0.697598 0.500000 0.903578
O O19 0.752364 0.603313 0.860786
O O20 0.500000 0.234367 0.044072
O O21 0.500000 0.149232 0.340719
#
# Coordination Sequence:
#
# PCOD8187935 Si02
#       8
#     8   8   8   8   8   8   8   8
#     4  11  23  34  45  67  97 125 158 202 241 269
#     4   8  15  29  47  67  90 118 153 190 227 268
#     4   9  17  33  51  66  89 125 161 190 225 278
#     4  10  19  32  48  65  91 130 167 189 216 272
#     4   9  18  30  47  70  96 121 150 191 236 276
#     4  10  20  32  45  64  92 124 159 194 223 259
#     4  10  17  28  49  71  93 123 156 187 224 276
#     4   9  17  30  47  65  89 120 153 191 230 269
#
# _framework density 15.665615000000001
#
# number of rings (size 3 to 8) (size 9 to 14) (size 15 to 20)
#    0.000    2.500    2.500    2.250    0.000    3.250 
#    0.000    2.500    0.000    0.000    0.000    0.875 
#    0.000    1.000    0.000    0.000    0.000    0.000 
#
# Total GULP energy -396746.510930 kJ/mol
# GULP energy per Si atom -12398.328467 kJ/mol
# Density = 1.562996 g / cm^3
# Si number density = 15.665615 Si / 1000 Ang^3
#
#
#
# Elastic Constant Matrix: (Units=GPa)
#
#
# Indices 1 2 3 4 5 6 
#
# 1 55.3552 33.8331 52.2616 0.0000 0.0000 0.0000
# 2 33.8331 48.2380 43.5551 0.0000 0.0000 0.0000
# 3 52.2616 43.5551 126.2836 0.0000 0.0000 0.0000
# 4 0.0000 0.0000 0.0000 22.0155 0.0000 0.0000
# 5 0.0000 0.0000 0.0000 0.0000 28.9061 0.0000
# 6 0.0000 0.0000 0.0000 0.0000 0.0000 24.7232
#
#
#
# Elastic Compliance Matrix: (Units=1/GPa)
#
#
# Indices 1 2 3 4 5 6 
#
# 1 0.038163 -0.018162 -0.009529 0.000000 0.000000 0.000000
# 2 -0.018162 0.038750 -0.005848 0.000000 0.000000 0.000000
# 3 -0.009529 -0.005848 0.013879 0.000000 0.000000 0.000000
# 4 0.000000 0.000000 0.000000 0.045423 0.000000 0.000000
# 5 0.000000 0.000000 0.000000 0.000000 0.034595 0.000000
# 6 0.000000 0.000000 0.000000 0.000000 0.000000 0.040448
#
#
# Mechanical properties :
#
#
# Convention : Reuss Voigt Hill
#
# Bulk Modulus (GPa) = 42.17277 54.35292 48.26285
# Shear Modulus (GPa) = 17.46782 21.81078 19.63930
#
# Velocity S-wave (km/s) = 3.34285 3.73536 3.54454
# Velocity P-wave (km/s) = 6.47136 7.30581 6.90121
#
# Compressibility (1/GPa) = 0.02371198
#
# Stress axis : x y z
#
# Youngs Moduli (GPa) = 26.20368 25.80653 72.04944
#
# Poissons Ratio (x) = 0.46871 0.68657
# Poissons Ratio (y) = 0.47592 0.42138
# Poissons Ratio (z) = 0.24970 0.15093
#
# Static dielectric constant tensor:
#      x y z
#    x 2.849680 0.000000 0.000000 
#    y 0.000000 2.824950 0.000000 
#    z 0.000000 0.000000 3.186400 
# 
# 
# High freq. dielectric constant tensor:
#      x y z
#    x 1.590410 0.000000 0.000000 
#    y 0.000000 1.574650 0.000000 
#    z 0.000000 0.000000 1.602120 
# 
# From -- ./inp_files/20850.got.cif
#   From: 2010.03.12/outbox.cif.g09.slc.cpg/sg44_11_cif.got.tgz:20850.got - 2010.04.14 02:36:11.
