data_PCOD8187360
_publ_section_title
;
Structure prediction by ZEFSAII (Michael W. Deem and Ramdas Pophale) SiO2 
 PCOD8187360
Probable space group: F D D 2
;
_chemical_formula_sum "Si O2"
_cell_formula_units_Z 96
_cell_length_a 26.053531
_cell_length_b 14.984618
_cell_length_c 12.175819
_cell_angle_alpha 90.000000
_cell_angle_beta 90.000000
_cell_angle_gamma 90.000000
_cell_volume 4753.466641
_symmetry_space_group_name_H-M "F D D 2"
_symmetry_group_IT_number 43
_symmetry_cell_setting 'orthorhombic'
loop_
_space_group_symop_operation_xyz
x,y,z
-x,-y,z
1/4-x,1/4+y,1/4+z
1/4+x,1/4-y,1/4+z
x,1/2+y,1/2+z
-x,1/2-y,1/2+z
1/4-x,3/4+y,3/4+z
1/4+x,3/4-y,3/4+z
1/2+x,y,1/2+z
1/2-x,-y,1/2+z
3/4-x,1/4+y,3/4+z
3/4+x,1/4-y,3/4+z
1/2+x,1/2+y,z
1/2-x,1/2-y,z
3/4-x,3/4+y,1/4+z
3/4+x,3/4-y,1/4+z
loop_
_atom_site_type_symbol
_atom_site_label
_atom_site_fract_x
_atom_site_fract_y
_atom_site_fract_z
Si Si1 0.832358 0.159491 0.182990
Si Si2 0.270153 0.916594 0.454578
Si Si3 0.500000 0.000000 0.562757
Si Si4 0.000000 0.000000 0.575589
Si Si5 0.315481 0.376170 0.183508
Si Si6 0.581316 0.227896 0.103110
Si Si7 0.067188 0.646437 0.686656
O O1 0.782047 0.189904 0.244163
O O2 0.857407 0.085319 0.261639
O O3 0.871961 0.240181 0.177622
O O4 0.817168 0.116058 0.067581
O O5 0.283570 0.820589 0.398252
O O6 0.280342 0.908436 0.583524
O O7 0.209568 0.932346 0.434253
O O8 0.301604 0.001492 0.406875
O O9 0.454775 0.033195 0.482206
O O10 0.526338 0.076879 0.636605
O O11 0.305969 0.441626 0.285875
O O12 0.374754 0.369762 0.143901
#
# Coordination Sequence:
#
# PCOD8187360 Si02
#       7
#    16  16   8   8  16  16  16
#     4  10  22  41  63  92 123 165 214 264 308 387
#     4  11  22  45  63  92 130 170 203 267 321 376
#     4  12  24  40  64 102 128 174 210 272 326 386
#     4  10  24  44  60  92 130 164 212 256 324 382
#     4  11  23  41  63  96 131 164 218 264 318 391
#     4  10  22  40  65  90 124 166 211 263 315 376
#     4  11  23  40  70  94 128 168 217 263 324 382
#
# _framework density 20.195785999999998
#
# number of rings (size 3 to 8) (size 9 to 14) (size 15 to 20)
#    0.000    1.333    3.333    2.000    7.000    1.333 
#   12.000    0.000    0.000    0.000    0.000    0.000 
#    0.000    0.000    0.000    0.000    0.000    0.000 
#
# Total GULP energy -297485.691731 kJ/mol
# GULP energy per Si atom -12395.237155 kJ/mol
# Density = 2.014982 g / cm^3
# Si number density = 20.195786 Si / 1000 Ang^3
#
#
#
# Elastic Constant Matrix: (Units=GPa)
#
#
# Indices 1 2 3 4 5 6 
#
# 1 80.4758 33.2884 40.0448 0.0000 0.0000 0.0000
# 2 33.2884 119.1881 30.2893 0.0000 0.0000 0.0000
# 3 40.0448 30.2893 64.0370 0.0000 0.0000 0.0000
# 4 0.0000 0.0000 0.0000 35.2846 0.0000 0.0000
# 5 0.0000 0.0000 0.0000 0.0000 29.0536 0.0000
# 6 0.0000 0.0000 0.0000 0.0000 0.0000 34.1655
#
#
#
# Elastic Compliance Matrix: (Units=1/GPa)
#
#
# Indices 1 2 3 4 5 6 
#
# 1 0.018702 -0.002559 -0.010485 0.000000 0.000000 0.000000
# 2 -0.002559 0.009886 -0.003076 0.000000 0.000000 0.000000
# 3 -0.010485 -0.003076 0.023627 0.000000 0.000000 0.000000
# 4 0.000000 0.000000 0.000000 0.028341 0.000000 0.000000
# 5 0.000000 0.000000 0.000000 0.000000 0.034419 0.000000
# 6 0.000000 0.000000 0.000000 0.000000 0.000000 0.029269
#
#
# Mechanical properties :
#
#
# Convention : Reuss Voigt Hill
#
# Bulk Modulus (GPa) = 50.05883 52.32731 51.19307
# Shear Modulus (GPa) = 27.30111 30.37265 28.83688
#
# Velocity S-wave (km/s) = 3.68070 3.88224 3.78281
# Velocity P-wave (km/s) = 6.55012 6.78689 6.66956
#
# Compressibility (1/GPa) = 0.01997649
#
# Stress axis : x y z
#
# Youngs Moduli (GPa) = 53.47129 101.14808 42.32381
#
# Poissons Ratio (x) = 0.25882 0.44375
# Poissons Ratio (y) = 0.13682 0.13020
# Poissons Ratio (z) = 0.56062 0.31115
#
# Static dielectric constant tensor:
#      x y z
#    x 3.534190 0.000000 0.000000 
#    y 0.000000 4.630370 0.000000 
#    z 0.000000 0.000000 3.605330 
# 
# 
# High freq. dielectric constant tensor:
#      x y z
#    x 1.778060 0.000000 0.000000 
#    y 0.000000 1.806790 0.000000 
#    z 0.000000 0.000000 1.785680 
# 
# From -- ./inp_files/6282.got.cif
#   From: 2010.06.25/outbox.cif.g09.slc.cpg/sg43_4_cif.got.tgz:6282.got - 2010.06.26 16:48:59.
