data_PCOD8187512
_publ_section_title
;
Structure prediction by ZEFSAII (Michael W. Deem and Ramdas Pophale) SiO2 
 PCOD8187512
Probable space group: F D D 2
;
_chemical_formula_sum "Si O2"
_cell_formula_units_Z 128
_cell_length_a 25.302613
_cell_length_b 15.703505
_cell_length_c 16.008565
_cell_angle_alpha 90.000000
_cell_angle_beta 90.000000
_cell_angle_gamma 90.000000
_cell_volume 6360.838571
_symmetry_space_group_name_H-M "F D D 2"
_symmetry_group_IT_number 43
_symmetry_cell_setting 'orthorhombic'
loop_
_space_group_symop_operation_xyz
x,y,z
-x,-y,z
1/4-x,1/4+y,1/4+z
1/4+x,1/4-y,1/4+z
x,1/2+y,1/2+z
-x,1/2-y,1/2+z
1/4-x,3/4+y,3/4+z
1/4+x,3/4-y,3/4+z
1/2+x,y,1/2+z
1/2-x,-y,1/2+z
3/4-x,1/4+y,3/4+z
3/4+x,1/4-y,3/4+z
1/2+x,1/2+y,z
1/2-x,1/2-y,z
3/4-x,3/4+y,1/4+z
3/4+x,3/4-y,1/4+z
loop_
_atom_site_type_symbol
_atom_site_label
_atom_site_fract_x
_atom_site_fract_y
_atom_site_fract_z
Si Si1 0.997253 0.723279 0.266390
Si Si2 0.207336 0.820175 0.434832
Si Si3 0.140362 0.489025 0.265270
Si Si4 0.456433 0.563397 0.040584
Si Si5 0.245174 0.523934 0.708149
Si Si6 0.088333 0.320800 0.678753
Si Si7 0.130864 0.045693 0.954508
Si Si8 0.340959 0.072674 0.803965
O O1 0.019349 0.627291 0.259532
O O2 0.033287 0.786901 0.214007
O O3 0.000400 0.747437 0.362002
O O4 0.938445 0.733530 0.232683
O O5 0.250000 0.750000 0.415412
O O6 0.148377 0.787906 0.452652
O O7 0.203646 0.872947 0.350057
O O8 0.201587 0.511826 0.250587
O O9 0.130524 0.389360 0.243187
O O10 0.126496 0.528839 0.355357
O O11 0.500000 0.500000 0.078092
O O12 0.426216 0.603575 0.117758
O O13 0.488158 0.626839 0.979234
O O14 0.412330 0.517670 0.987839
O O15 0.191004 0.480612 0.736457
O O16 0.116674 0.243772 0.623836
O O17 0.120520 0.361552 0.756030
#
# Coordination Sequence:
#
# PCOD8187512 Si02
#       8
#    16  16  16  16  16  16  16  16
#     4  11  23  43  66  94 132 170 214 265 324 389
#     4  11  23  40  65  95 132 166 212 269 328 385
#     4  12  24  39  65  98 131 170 215 265 330 395
#     4  11  23  40  65  95 132 166 212 269 328 385
#     4  11  23  43  66  94 132 170 214 265 324 389
#     4  10  23  46  67  92 131 176 218 269 325 386
#     4  12  24  39  65  98 131 170 215 265 330 395
#     4  10  23  46  67  92 131 176 218 269 325 386
#
# _framework density 20.123132999999999
#
# number of rings (size 3 to 8) (size 9 to 14) (size 15 to 20)
#    0.000    1.000    2.500    5.250    0.000    2.000 
#    4.500    0.000    0.000    0.000    0.000    0.000 
#    0.000    0.000    0.000    0.000    0.000    0.000 
#
# Total GULP energy -396531.670257 kJ/mol
# GULP energy per Si atom -12391.614696 kJ/mol
# Density = 2.007733 g / cm^3
# Si number density = 20.123133 Si / 1000 Ang^3
#
#
#
# Elastic Constant Matrix: (Units=GPa)
#
#
# Indices 1 2 3 4 5 6 
#
# 1 94.8191 20.9840 8.3201 0.0000 0.0000 0.0000
# 2 20.9840 52.7549 14.7514 0.0000 0.0000 0.0000
# 3 8.3201 14.7514 93.8980 0.0000 0.0000 0.0000
# 4 0.0000 0.0000 0.0000 27.2134 0.0000 0.0000
# 5 0.0000 0.0000 0.0000 0.0000 31.1979 0.0000
# 6 0.0000 0.0000 0.0000 0.0000 0.0000 29.1385
#
#
#
# Elastic Compliance Matrix: (Units=1/GPa)
#
#
# Indices 1 2 3 4 5 6 
#
# 1 0.011573 -0.004515 -0.000316 0.000000 0.000000 0.000000
# 2 -0.004515 0.021588 -0.002991 0.000000 0.000000 0.000000
# 3 -0.000316 -0.002991 0.011148 0.000000 0.000000 0.000000
# 4 0.000000 0.000000 0.000000 0.036747 0.000000 0.000000
# 5 0.000000 0.000000 0.000000 0.000000 0.032053 0.000000
# 6 0.000000 0.000000 0.000000 0.000000 0.000000 0.034319
#
#
# Mechanical properties :
#
#
# Convention : Reuss Voigt Hill
#
# Bulk Modulus (GPa) = 34.88712 36.62034 35.75373
# Shear Modulus (GPa) = 28.96402 30.67107 29.81754
#
# Velocity S-wave (km/s) = 3.79798 3.90830 3.85353
# Velocity P-wave (km/s) = 6.05040 6.21321 6.13235
#
# Compressibility (1/GPa) = 0.02866387
#
# Stress axis : x y z
#
# Youngs Moduli (GPa) = 86.40540 46.32202 89.70365
#
# Poissons Ratio (x) = 0.20915 0.02836
# Poissons Ratio (y) = 0.39013 0.26834
# Poissons Ratio (z) = 0.02732 0.13857
#
# Static dielectric constant tensor:
#      x y z
#    x 3.735320 0.000000 0.000000 
#    y 0.000000 3.843100 0.000000 
#    z 0.000000 0.000000 3.741200 
# 
# 
# High freq. dielectric constant tensor:
#      x y z
#    x 1.792820 0.000000 0.000000 
#    y 0.000000 1.792500 0.000000 
#    z 0.000000 0.000000 1.794590 
# 
# From -- ./inp_files/14903.got.cif
#   From: 2010.06.25/outbox.cif.g09.slc.cpg/sg43_8_cif.got.tgz:14903.got - 2010.06.26 16:48:59.
