data_PCOD8187143
_publ_section_title
;
Structure prediction by ZEFSAII (Michael W. Deem and Ramdas Pophale) SiO2 
 PCOD8187143
Probable space group: F D D 2
;
_chemical_formula_sum "Si O2"
_cell_formula_units_Z 88
_cell_length_a 21.566876
_cell_length_b 23.256800
_cell_length_c 8.641678
_cell_angle_alpha 90.000000
_cell_angle_beta 90.000000
_cell_angle_gamma 90.000000
_cell_volume 4334.462793
_symmetry_space_group_name_H-M "F D D 2"
_symmetry_group_IT_number 43
_symmetry_cell_setting 'orthorhombic'
loop_
_space_group_symop_operation_xyz
x,y,z
-x,-y,z
1/4-x,1/4+y,1/4+z
1/4+x,1/4-y,1/4+z
x,1/2+y,1/2+z
-x,1/2-y,1/2+z
1/4-x,3/4+y,3/4+z
1/4+x,3/4-y,3/4+z
1/2+x,y,1/2+z
1/2-x,-y,1/2+z
3/4-x,1/4+y,3/4+z
3/4+x,1/4-y,3/4+z
1/2+x,1/2+y,z
1/2-x,1/2-y,z
3/4-x,3/4+y,1/4+z
3/4+x,3/4-y,1/4+z
loop_
_atom_site_type_symbol
_atom_site_label
_atom_site_fract_x
_atom_site_fract_y
_atom_site_fract_z
Si Si1 0.415291 0.004751 0.174920
Si Si2 0.440614 0.412439 0.166980
Si Si3 0.552731 0.302930 0.874754
Si Si4 0.238511 0.330151 0.085728
Si Si5 0.000000 0.000000 0.397392
Si Si6 0.797235 0.031682 0.845705
O O1 0.450369 0.043385 0.302152
O O2 0.343711 0.020522 0.199689
O O3 0.433427 0.938034 0.215190
O O4 0.440676 0.018836 0.002801
O O5 0.367939 0.424730 0.188010
O O6 0.480807 0.444407 0.297999
O O7 0.449459 0.344036 0.174934
O O8 0.464959 0.436117 0.005254
O O9 0.505643 0.353120 0.821167
O O10 0.563222 0.262769 0.728819
O O11 0.520403 0.271091 0.020539
#
# Coordination Sequence:
#
# PCOD8187143 Si02
#       6
#    16  16  16  16   8  16
#     4  10  20  41  68  91 125 173 221 258 320 395
#     4  11  22  42  66  94 130 174 218 267 323 398
#     4  11  24  39  65  97 131 171 214 272 327 382
#     4   9  19  39  66  87 118 179 216 248 329 387
#     4  10  24  36  70  98 126 168 230 262 314 394
#     4  11  25  42  65  96 137 168 220 269 330 379
#
# _framework density 20.302399000000001
#
# number of rings (size 3 to 8) (size 9 to 14) (size 15 to 20)
#    0.000    1.818    3.636    1.091    2.545    2.909 
#    0.000    0.000   16.000    0.000    0.000    0.000 
#    0.000    0.000    0.000    0.000    0.000    0.000 
#
# Total GULP energy -272681.170570 kJ/mol
# GULP energy per Si atom -12394.598662 kJ/mol
# Density = 2.025619 g / cm^3
# Si number density = 20.302399 Si / 1000 Ang^3
#
#
#
# Elastic Constant Matrix: (Units=GPa)
#
#
# Indices 1 2 3 4 5 6 
#
# 1 101.9740 28.9709 51.8899 -0.0006 -0.0001 -0.0001
# 2 28.9709 79.3621 40.2315 0.0000 -0.0001 -0.0002
# 3 51.8899 40.2315 103.1373 0.0027 -0.0023 -0.0009
# 4 -0.0006 0.0000 0.0027 25.9329 -0.0013 -0.0007
# 5 -0.0001 -0.0001 -0.0023 -0.0013 29.1276 0.0005
# 6 -0.0001 -0.0002 -0.0009 -0.0007 0.0005 28.2785
#
#
#
# Elastic Compliance Matrix: (Units=1/GPa)
#
#
# Indices 1 2 3 4 5 6 
#
# 1 0.013392 -0.001836 -0.006022 0.000001 0.000000 0.000000
# 2 -0.001836 0.015958 -0.005301 0.000001 0.000000 0.000000
# 3 -0.006022 -0.005301 0.014793 -0.000002 0.000001 0.000000
# 4 0.000001 0.000001 -0.000002 0.038561 0.000002 0.000001
# 5 0.000000 0.000000 0.000001 0.000002 0.034332 -0.000001
# 6 0.000000 0.000000 0.000000 0.000001 -0.000001 0.035363
#
#
# Mechanical properties :
#
#
# Convention : Reuss Voigt Hill
#
# Bulk Modulus (GPa) = 56.09851 58.51754 57.30802
# Shear Modulus (GPa) = 27.07705 27.55988 27.31846
#
# Velocity S-wave (km/s) = 3.65593 3.68838 3.67219
# Velocity P-wave (km/s) = 6.74630 6.85744 6.80209
#
# Compressibility (1/GPa) = 0.01782579
#
# Stress axis : x y z
#
# Youngs Moduli (GPa) = 74.67038 62.66423 67.59885
#
# Poissons Ratio (x) = 0.11507 0.40705
# Poissons Ratio (y) = 0.13711 0.35834
# Poissons Ratio (z) = 0.44963 0.33219
#
# Static dielectric constant tensor:
#      x y z
#    x 3.752970 0.000010 0.000000 
#    y 0.000010 3.757180 -0.000010 
#    z 0.000000 -0.000010 3.582670 
# 
# 
# High freq. dielectric constant tensor:
#      x y z
#    x 1.796560 0.000000 0.000000 
#    y 0.000000 1.789390 0.000000 
#    z 0.000000 0.000000 1.784540 
# 
# From -- ./inp_files/3207.got.cif
#   From: 2010.06.25/outbox.cif.g09.slc.cpg/sg43_2_cif.got.tgz:3207.got - 2010.06.26 16:48:59.
