data_PCOD8187784
_publ_section_title
;
Structure prediction by ZEFSAII (Michael W. Deem and Ramdas Pophale) SiO2 
 PCOD8187784
Probable space group: F D D 2
;
_chemical_formula_sum "Si O2"
_cell_formula_units_Z 88
_cell_length_a 19.215437
_cell_length_b 23.515100
_cell_length_c 8.399291
_cell_angle_alpha 90.000000
_cell_angle_beta 90.000000
_cell_angle_gamma 90.000000
_cell_volume 3795.244186
_symmetry_space_group_name_H-M "F D D 2"
_symmetry_group_IT_number 43
_symmetry_cell_setting 'orthorhombic'
loop_
_space_group_symop_operation_xyz
x,y,z
-x,-y,z
1/4-x,1/4+y,1/4+z
1/4+x,1/4-y,1/4+z
x,1/2+y,1/2+z
-x,1/2-y,1/2+z
1/4-x,3/4+y,3/4+z
1/4+x,3/4-y,3/4+z
1/2+x,y,1/2+z
1/2-x,-y,1/2+z
3/4-x,1/4+y,3/4+z
3/4+x,1/4-y,3/4+z
1/2+x,1/2+y,z
1/2-x,1/2-y,z
3/4-x,3/4+y,1/4+z
3/4+x,3/4-y,1/4+z
loop_
_atom_site_type_symbol
_atom_site_label
_atom_site_fract_x
_atom_site_fract_y
_atom_site_fract_z
Si Si1 0.083792 0.261869 0.853770
Si Si2 0.671343 0.667978 0.968556
Si Si3 0.442590 0.900517 0.013238
Si Si4 0.902636 0.932770 0.154420
Si Si5 0.305598 0.524237 0.270622
Si Si6 0.500000 0.500000 0.940676
O O1 0.147352 0.306274 0.869622
O O2 0.052648 0.263782 0.677932
O O3 0.105877 0.196249 0.879001
O O4 0.023825 0.282234 0.969845
O O5 0.644677 0.615651 0.074090
O O6 0.693618 0.718780 0.083767
O O7 0.729263 0.652671 0.835329
O O8 0.412233 0.837244 0.036915
O O9 0.436219 0.916561 0.825981
O O10 0.967269 0.949104 0.044506
O O11 0.854002 0.988614 0.152294
#
# Coordination Sequence:
#
# PCOD8187784 Si02
#       6
#    16  16  16  16  16   8
#     4  11  27  46  72 108 145 196 245 305 379 452
#     4  12  27  49  74 110 150 201 248 315 386 456
#     4  11  26  48  77 106 153 198 246 318 383 457
#     4  11  29  47  76 112 150 200 256 314 382 461
#     4  11  27  46  73 106 147 190 251 303 374 455
#     4  12  28  48  76 108 154 192 260 318 378 470
#
# _framework density 23.186914000000002
#
# number of rings (size 3 to 8) (size 9 to 14) (size 15 to 20)
#    0.000    0.727    1.818    2.182   20.364    1.455 
#    0.000    0.000    0.000    0.000    0.000    0.000 
#    0.000    0.000    0.000    0.000    0.000    0.000 
#
# Total GULP energy -272781.882952 kJ/mol
# GULP energy per Si atom -12399.176498 kJ/mol
# Density = 2.313414 g / cm^3
# Si number density = 23.186914 Si / 1000 Ang^3
#
#
#
# Elastic Constant Matrix: (Units=GPa)
#
#
# Indices 1 2 3 4 5 6 
#
# 1 69.7789 21.0707 46.6791 0.0002 -0.0002 -0.0001
# 2 21.0707 142.0262 36.7135 0.0002 -0.0002 -0.0002
# 3 46.6791 36.7135 93.0721 0.0013 -0.0014 -0.0005
# 4 0.0002 0.0002 0.0013 38.7597 -0.0005 -0.0003
# 5 -0.0002 -0.0002 -0.0014 -0.0005 32.3212 0.0002
# 6 -0.0001 -0.0002 -0.0005 -0.0003 0.0002 28.6273
#
#
#
# Elastic Compliance Matrix: (Units=1/GPa)
#
#
# Indices 1 2 3 4 5 6 
#
# 1 0.021593 -0.000450 -0.010652 0.000000 0.000000 0.000000
# 2 -0.000450 0.007850 -0.002871 0.000000 0.000000 0.000000
# 3 -0.010652 -0.002871 0.017219 -0.000001 0.000001 0.000000
# 4 0.000000 0.000000 -0.000001 0.025800 0.000000 0.000000
# 5 0.000000 0.000000 0.000001 0.000000 0.030939 0.000000
# 6 0.000000 0.000000 0.000000 0.000000 0.000000 0.034932
#
#
# Mechanical properties :
#
#
# Convention : Reuss Voigt Hill
#
# Bulk Modulus (GPa) = 53.42992 57.08929 55.25960
# Shear Modulus (GPa) = 28.98268 33.30256 31.14262
#
# Velocity S-wave (km/s) = 3.53931 3.79392 3.66883
# Velocity P-wave (km/s) = 6.30836 6.62318 6.46769
#
# Compressibility (1/GPa) = 0.01871610
#
# Stress axis : x y z
#
# Youngs Moduli (GPa) = 46.31223 127.39176 58.07484
#
# Poissons Ratio (x) = 0.05731 0.61861
# Poissons Ratio (y) = 0.02084 0.16672
# Poissons Ratio (z) = 0.49332 0.36572
#
# Static dielectric constant tensor:
#      x y z
#    x 4.061920 0.000000 0.000000 
#    y 0.000000 4.403590 0.000000 
#    z 0.000000 0.000000 4.247470 
# 
# 
# High freq. dielectric constant tensor:
#      x y z
#    x 1.913280 0.000000 0.000000 
#    y 0.000000 1.932220 0.000000 
#    z 0.000000 0.000000 1.929640 
# 
# From -- ./inp_files/3202.got.cif
#   From: 2010.06.25/outbox.cif.g09.slc.cpg/sg43_2_cif.got.tgz:3202.got - 2010.06.26 16:48:59.
