data_PCOD8187524
_publ_section_title
;
Structure prediction by ZEFSAII (Michael W. Deem and Ramdas Pophale) SiO2 
 PCOD8187524
Probable space group: F D D 2
;
_chemical_formula_sum "Si O2"
_cell_formula_units_Z 88
_cell_length_a 17.736889
_cell_length_b 21.196589
_cell_length_c 10.415405
_cell_angle_alpha 90.000000
_cell_angle_beta 90.000000
_cell_angle_gamma 90.000000
_cell_volume 3915.791769
_symmetry_space_group_name_H-M "F D D 2"
_symmetry_group_IT_number 43
_symmetry_cell_setting 'orthorhombic'
loop_
_space_group_symop_operation_xyz
x,y,z
-x,-y,z
1/4-x,1/4+y,1/4+z
1/4+x,1/4-y,1/4+z
x,1/2+y,1/2+z
-x,1/2-y,1/2+z
1/4-x,3/4+y,3/4+z
1/4+x,3/4-y,3/4+z
1/2+x,y,1/2+z
1/2-x,-y,1/2+z
3/4-x,1/4+y,3/4+z
3/4+x,1/4-y,3/4+z
1/2+x,1/2+y,z
1/2-x,1/2-y,z
3/4-x,3/4+y,1/4+z
3/4+x,3/4-y,1/4+z
loop_
_atom_site_type_symbol
_atom_site_label
_atom_site_fract_x
_atom_site_fract_y
_atom_site_fract_z
Si Si1 0.975433 0.899790 0.650640
Si Si2 0.355504 0.767895 0.479728
Si Si3 0.215657 0.486689 0.017633
Si Si4 0.405301 0.424822 0.387059
Si Si5 0.250000 0.750000 0.951342
Si Si6 0.624405 0.949649 0.517803
O O1 0.986708 0.831441 0.712081
O O2 0.941420 0.890919 0.509956
O O3 0.054351 0.937163 0.639543
O O4 0.920831 0.944844 0.734903
O O5 0.437667 0.770647 0.414823
O O6 0.349770 0.794703 0.621469
O O7 0.289120 0.529549 0.027866
O O8 0.151144 0.518918 0.928704
O O9 0.475197 0.444697 0.297317
O O10 0.360153 0.372491 0.307501
O O11 0.177800 0.739637 0.861895
#
# Coordination Sequence:
#
# PCOD8187524 Si02
#       6
#    16  16  16  16   8  16
#     4  10  23  47  74 101 141 193 249 297 374 444
#     4  10  25  45  71 104 146 192 239 315 367 434
#     4  11  26  44  77 107 142 199 252 306 361 455
#     4  11  25  48  73 104 146 195 247 299 369 441
#     4  12  26  46  70 104 150 192 230 312 368 430
#     4  12  28  44  71 110 150 187 244 302 376 435
#
# _framework density 22.473105
#
# number of rings (size 3 to 8) (size 9 to 14) (size 15 to 20)
#    0.000    1.091    0.000    5.455   10.182    4.364 
#    0.000    0.000    0.000    0.000    0.000    0.000 
#    0.000    0.000    0.000    0.000    0.000    0.000 
#
# Total GULP energy -272798.374174 kJ/mol
# GULP energy per Si atom -12399.926099 kJ/mol
# Density = 2.242196 g / cm^3
# Si number density = 22.473105 Si / 1000 Ang^3
#
#
#
# Elastic Constant Matrix: (Units=GPa)
#
#
# Indices 1 2 3 4 5 6 
#
# 1 92.0167 10.6041 24.3082 0.0000 0.0000 0.0000
# 2 10.6041 113.4637 33.7938 0.0000 0.0000 0.0000
# 3 24.3082 33.7938 128.1652 0.0000 0.0000 0.0000
# 4 0.0000 0.0000 0.0000 29.1387 0.0000 0.0000
# 5 0.0000 0.0000 0.0000 0.0000 -23.0793 0.0000
# 6 0.0000 0.0000 0.0000 0.0000 0.0000 29.7343
#
#
#
# Elastic Compliance Matrix: (Units=1/GPa)
#
#
# Indices 1 2 3 4 5 6 
#
# 1 0.011463 -0.000460 -0.002053 0.000000 0.000000 0.000000
# 2 -0.000460 0.009583 -0.002440 0.000000 0.000000 0.000000
# 3 -0.002053 -0.002440 0.008835 0.000000 0.000000 0.000000
# 4 0.000000 0.000000 0.000000 0.034319 0.000000 0.000000
# 5 0.000000 0.000000 0.000000 0.000000 -0.043329 0.000000
# 6 0.000000 0.000000 0.000000 0.000000 0.000000 0.033631
#
#
# Mechanical properties :
#
#
# Convention : Reuss Voigt Hill
#
# Bulk Modulus (GPa) = 50.05923 52.33976 51.19949
# Shear Modulus (GPa) = 70.35800 24.82137 47.58969
#
# Velocity S-wave (km/s) = 5.60139 3.32700 4.60676
# Velocity P-wave (km/s) = 8.00985 6.17244 7.15041
#
# Compressibility (1/GPa) = 0.01997634
#
# Stress axis : x y z
#
# Youngs Moduli (GPa) = 87.23800 104.35185 113.18591
#
# Poissons Ratio (x) = 0.04799 0.23235
# Poissons Ratio (y) = 0.04012 0.27612
# Poissons Ratio (z) = 0.17908 0.25457
#
# Static dielectric constant tensor:
#      x y z
#    x 4.160400 0.000000 0.000000 
#    y 0.000000 4.065780 0.000000 
#    z 0.000000 0.000000 4.119980 
# 
# 
# High freq. dielectric constant tensor:
#      x y z
#    x 1.888870 0.000000 0.000000 
#    y 0.000000 1.889160 0.000000 
#    z 0.000000 0.000000 1.896950 
# 
# From -- ./inp_files/6613.got.cif
#   From: 2010.06.25/outbox.cif.g09.slc.cpg/sg43_4_cif.got.tgz:6613.got - 2010.06.26 16:48:59.
