data_PCOD8187695
_publ_section_title
;
Structure prediction by ZEFSAII (Michael W. Deem and Ramdas Pophale) SiO2 
 PCOD8187695
Probable space group: F D D 2
;
_chemical_formula_sum "Si O2"
_cell_formula_units_Z 104
_cell_length_a 23.330719
_cell_length_b 23.330782
_cell_length_c 9.455230
_cell_angle_alpha 90.000000
_cell_angle_beta 90.000000
_cell_angle_gamma 90.000000
_cell_volume 5146.707848
_symmetry_space_group_name_H-M "F D D 2"
_symmetry_group_IT_number 43
_symmetry_cell_setting 'orthorhombic'
loop_
_space_group_symop_operation_xyz
x,y,z
-x,-y,z
1/4-x,1/4+y,1/4+z
1/4+x,1/4-y,1/4+z
x,1/2+y,1/2+z
-x,1/2-y,1/2+z
1/4-x,3/4+y,3/4+z
1/4+x,3/4-y,3/4+z
1/2+x,y,1/2+z
1/2-x,-y,1/2+z
3/4-x,1/4+y,3/4+z
3/4+x,1/4-y,3/4+z
1/2+x,1/2+y,z
1/2-x,1/2-y,z
3/4-x,3/4+y,1/4+z
3/4+x,3/4-y,1/4+z
loop_
_atom_site_type_symbol
_atom_site_label
_atom_site_fract_x
_atom_site_fract_y
_atom_site_fract_z
Si Si1 0.172274 0.346221 0.041110
Si Si2 0.440737 0.193644 0.933873
Si Si3 0.934361 0.315638 0.529496
Si Si4 0.567594 0.682407 0.529498
Si Si5 0.556356 0.809263 0.625120
Si Si6 0.346221 0.827726 0.767885
Si Si7 0.500000 0.500000 0.904498
O O1 0.186356 0.378191 0.185401
O O2 0.214701 0.291389 0.046484
O O3 0.105451 0.327791 0.048618
O O4 0.178455 0.384846 0.901594
O O5 0.421571 0.171569 0.779496
O O6 0.437905 0.262247 0.923658
O O7 0.504042 0.172340 0.970003
O O8 0.878191 0.313645 0.623594
O O9 0.987753 0.312091 0.635331
O O10 0.577663 0.745958 0.588992
O O11 0.615154 0.678454 0.407400
O O12 0.577790 0.855451 0.510375
O O13 0.291389 0.785299 0.762512
#
# Coordination Sequence:
#
# PCOD8187695 Si02
#       7
#    16  16  16  16  16  16   8
#     4  12  25  44  67  99 139 175 227 281 343 410
#     4  11  23  42  67  97 133 178 227 275 340 404
#     4  11  24  42  66  95 136 178 224 279 332 410
#     4  11  26  42  68  97 132 180 228 275 336 410
#     4  11  23  42  67  97 133 178 227 275 340 404
#     4  12  25  44  67  99 139 175 227 281 343 410
#     4  12  28  44  68 110 140 180 224 294 356 404
#
# _framework density 20.207090999999998
#
# number of rings (size 3 to 8) (size 9 to 14) (size 15 to 20)
#    0.000    0.615    7.692    0.000    4.308    0.000 
#    0.000    0.000    0.000    1.846    0.000    0.000 
#    0.000    0.000    0.000    0.000    0.000    0.000 
#
# Total GULP energy -322295.711264 kJ/mol
# GULP energy per Si atom -12395.988895 kJ/mol
# Density = 2.016110 g / cm^3
# Si number density = 20.207091 Si / 1000 Ang^3
#
#
#
# Elastic Constant Matrix: (Units=GPa)
#
#
# Indices 1 2 3 4 5 6 
#
# 1 117.6140 55.1655 38.6019 0.0000 0.0001 0.0000
# 2 55.1655 117.6193 38.6000 0.0000 0.0011 0.0002
# 3 38.6019 38.6000 92.4390 0.0017 0.0026 0.0004
# 4 0.0000 0.0000 0.0017 12.1405 0.0008 0.0001
# 5 0.0001 0.0011 0.0026 0.0008 12.1348 -0.0009
# 6 0.0000 0.0002 0.0004 0.0001 -0.0009 35.6806
#
#
#
# Elastic Compliance Matrix: (Units=1/GPa)
#
#
# Indices 1 2 3 4 5 6 
#
# 1 0.011564 -0.004449 -0.002972 0.000000 0.000001 0.000000
# 2 -0.004449 0.011563 -0.002971 0.000000 0.000000 0.000000
# 3 -0.002972 -0.002971 0.013299 -0.000002 -0.000003 0.000000
# 4 0.000000 0.000000 -0.000002 0.082369 -0.000005 0.000000
# 5 0.000001 0.000000 -0.000003 -0.000005 0.082408 0.000002
# 6 0.000000 0.000000 0.000000 0.000000 0.000002 0.028026
#
#
# Mechanical properties :
#
#
# Convention : Reuss Voigt Hill
#
# Bulk Modulus (GPa) = 63.91801 65.82301 64.87051
# Shear Modulus (GPa) = 19.59041 25.01151 22.30096
#
# Velocity S-wave (km/s) = 3.11703 3.52200 3.32568
# Velocity P-wave (km/s) = 6.68241 7.01315 6.84978
#
# Compressibility (1/GPa) = 0.01564504
#
# Stress axis : x y z
#
# Youngs Moduli (GPa) = 86.47337 86.47916 75.19144
#
# Poissons Ratio (x) = 0.38472 0.22343
# Poissons Ratio (y) = 0.38469 0.22338
# Poissons Ratio (z) = 0.25696 0.25692
#
# Static dielectric constant tensor:
#      x y z
#    x 3.803910 0.000000 0.000000 
#    y 0.000000 3.803940 0.000000 
#    z 0.000000 0.000000 3.620410 
# 
# 
# High freq. dielectric constant tensor:
#      x y z
#    x 1.800230 0.000000 0.000000 
#    y 0.000000 1.800230 0.000000 
#    z 0.000000 0.000000 1.782720 
# 
# From -- ./inp_files/3389.got.cif
#   From: 2010.06.25/outbox.cif.g09.slc.cpg/sg43_2_cif.got.tgz:3389.got - 2010.06.26 16:48:59.
