data_PCOD8187488
_publ_section_title
;
Structure prediction by ZEFSAII (Michael W. Deem and Ramdas Pophale) SiO2 
 PCOD8187488
Probable space group: F D D 2
;
_chemical_formula_sum "Si O2"
_cell_formula_units_Z 112
_cell_length_a 12.532220
_cell_length_b 30.135781
_cell_length_c 13.923893
_cell_angle_alpha 90.000000
_cell_angle_beta 90.000000
_cell_angle_gamma 90.000000
_cell_volume 5258.612127
_symmetry_space_group_name_H-M "F D D 2"
_symmetry_group_IT_number 43
_symmetry_cell_setting 'orthorhombic'
loop_
_space_group_symop_operation_xyz
x,y,z
-x,-y,z
1/4-x,1/4+y,1/4+z
1/4+x,1/4-y,1/4+z
x,1/2+y,1/2+z
-x,1/2-y,1/2+z
1/4-x,3/4+y,3/4+z
1/4+x,3/4-y,3/4+z
1/2+x,y,1/2+z
1/2-x,-y,1/2+z
3/4-x,1/4+y,3/4+z
3/4+x,1/4-y,3/4+z
1/2+x,1/2+y,z
1/2-x,1/2-y,z
3/4-x,3/4+y,1/4+z
3/4+x,3/4-y,1/4+z
loop_
_atom_site_type_symbol
_atom_site_label
_atom_site_fract_x
_atom_site_fract_y
_atom_site_fract_z
Si Si1 0.622797 0.342242 0.850100
Si Si2 0.321557 0.207860 0.631130
Si Si3 0.811668 0.831267 0.477731
Si Si4 0.285845 0.151610 0.809076
Si Si5 0.564282 0.256500 0.963989
Si Si6 0.334387 0.645228 0.630447
Si Si7 0.339814 0.713377 0.474472
O O1 0.742227 0.353505 0.891328
O O2 0.589669 0.293043 0.883452
O O3 0.620357 0.346173 0.736001
O O4 0.535559 0.377037 0.888719
O O5 0.250000 0.250000 0.640663
O O6 0.267534 0.169528 0.568015
O O7 0.328648 0.190033 0.738427
O O8 0.428399 0.222649 0.572677
O O9 0.913896 0.857207 0.515645
O O10 0.848335 0.782057 0.447800
O O11 0.160171 0.140233 0.822924
O O12 0.328029 0.168934 0.910630
O O13 0.447589 0.238221 0.948293
O O14 0.335972 0.693934 0.581883
O O15 0.250000 0.750000 0.456215
#
# Coordination Sequence:
#
# PCOD8187488 Si02
#       7
#    16  16  16  16  16  16  16
#     4  11  26  44  72 101 144 184 230 297 364 411
#     4   9  21  39  65  94 124 169 231 287 333 392
#     4  10  23  42  71  98 129 181 240 283 336 421
#     4  12  23  42  69  99 135 187 234 282 345 430
#     4  10  23  46  68  99 139 180 237 297 335 423
#     4  12  26  45  68 104 145 184 227 296 361 420
#     4  12  26  42  67 104 146 185 232 290 359 423
#
# _framework density 21.298394999999999
#
# number of rings (size 3 to 8) (size 9 to 14) (size 15 to 20)
#    0.000    1.143    2.857    3.429    4.000    2.286 
#    0.000    0.000    0.000    0.000    0.000    0.000 
#    0.000    0.000    0.000    0.000    0.000    0.000 
#
# Total GULP energy -346985.807821 kJ/mol
# GULP energy per Si atom -12392.350279 kJ/mol
# Density = 2.124992 g / cm^3
# Si number density = 21.298395 Si / 1000 Ang^3
#
#
#
# Elastic Constant Matrix: (Units=GPa)
#
#
# Indices 1 2 3 4 5 6 
#
# 1 107.2997 32.3977 29.6403 0.0000 0.0000 0.0000
# 2 32.3977 82.4332 46.3114 0.0000 0.0000 0.0000
# 3 29.6403 46.3114 97.9887 0.0000 0.0000 0.0000
# 4 0.0000 0.0000 0.0000 44.8222 0.0000 0.0000
# 5 0.0000 0.0000 0.0000 0.0000 28.4594 0.0000
# 6 0.0000 0.0000 0.0000 0.0000 0.0000 27.9715
#
#
#
# Elastic Compliance Matrix: (Units=1/GPa)
#
#
# Indices 1 2 3 4 5 6 
#
# 1 0.010782 -0.003275 -0.001714 0.000000 0.000000 0.000000
# 2 -0.003275 0.017511 -0.007286 0.000000 0.000000 0.000000
# 3 -0.001714 -0.007286 0.014167 0.000000 0.000000 0.000000
# 4 0.000000 0.000000 0.000000 0.022310 0.000000 0.000000
# 5 0.000000 0.000000 0.000000 0.000000 0.035138 0.000000
# 6 0.000000 0.000000 0.000000 0.000000 0.000000 0.035751
#
#
# Mechanical properties :
#
#
# Convention : Reuss Voigt Hill
#
# Bulk Modulus (GPa) = 55.82843 56.04670 55.93757
# Shear Modulus (GPa) = 30.08838 32.20878 31.14858
#
# Velocity S-wave (km/s) = 3.76268 3.89300 3.82839
# Velocity P-wave (km/s) = 6.71911 6.82491 6.77221
#
# Compressibility (1/GPa) = 0.01791202
#
# Stress axis : x y z
#
# Youngs Moduli (GPa) = 92.74873 57.10665 70.58699
#
# Poissons Ratio (x) = 0.18701 0.12096
# Poissons Ratio (y) = 0.30372 0.51426
# Poissons Ratio (z) = 0.15894 0.41605
#
# Static dielectric constant tensor:
#      x y z
#    x 3.908550 0.000000 0.000000 
#    y 0.000000 3.900020 0.000000 
#    z 0.000000 0.000000 4.271950 
# 
# 
# High freq. dielectric constant tensor:
#      x y z
#    x 1.837110 0.000000 0.000000 
#    y 0.000000 1.839080 0.000000 
#    z 0.000000 0.000000 1.836890 
# 
# From -- ./inp_files/9781.got.cif
#   From: 2010.06.25/outbox.cif.g09.slc.cpg/sg43_5_cif.got.tgz:9781.got - 2010.06.26 16:48:59.
