data_PCOD8187279
_publ_section_title
;
Structure prediction by ZEFSAII (Michael W. Deem and Ramdas Pophale) SiO2 
 PCOD8187279
Probable space group: F D D 2
;
_chemical_formula_sum "Si O2"
_cell_formula_units_Z 88
_cell_length_a 15.131815
_cell_length_b 24.570640
_cell_length_c 11.245902
_cell_angle_alpha 90.000000
_cell_angle_beta 90.000000
_cell_angle_gamma 90.000000
_cell_volume 4181.208133
_symmetry_space_group_name_H-M "F D D 2"
_symmetry_group_IT_number 43
_symmetry_cell_setting 'orthorhombic'
loop_
_space_group_symop_operation_xyz
x,y,z
-x,-y,z
1/4-x,1/4+y,1/4+z
1/4+x,1/4-y,1/4+z
x,1/2+y,1/2+z
-x,1/2-y,1/2+z
1/4-x,3/4+y,3/4+z
1/4+x,3/4-y,3/4+z
1/2+x,y,1/2+z
1/2-x,-y,1/2+z
3/4-x,1/4+y,3/4+z
3/4+x,1/4-y,3/4+z
1/2+x,1/2+y,z
1/2-x,1/2-y,z
3/4-x,3/4+y,1/4+z
3/4+x,3/4-y,1/4+z
loop_
_atom_site_type_symbol
_atom_site_label
_atom_site_fract_x
_atom_site_fract_y
_atom_site_fract_z
Si Si1 0.019560 0.591976 0.041220
Si Si2 0.697288 0.065781 0.159039
Si Si3 0.374998 0.296781 0.950241
Si Si4 0.716738 0.848791 0.298712
Si Si5 0.750000 0.250000 0.645234
Si Si6 0.664638 0.867827 0.551918
O O1 0.941845 0.552495 0.088253
O O2 0.099337 0.589513 0.134608
O O3 0.981809 0.654152 0.030156
O O4 0.055072 0.575821 0.907971
O O5 0.694796 0.000870 0.172063
O O6 0.765644 0.081256 0.053052
O O7 0.427925 0.351751 0.972251
O O8 0.321693 0.281994 0.068380
O O9 0.699854 0.793983 0.225728
O O10 0.666356 0.839829 0.423467
O O11 0.818794 0.858390 0.328593
#
# Coordination Sequence:
#
# PCOD8187279 Si02
#       6
#    16  16  16  16   8  16
#     4  10  21  42  72  98 139 177 236 291 340 420
#     4  10  21  43  68 102 136 177 234 286 347 416
#     4  12  24  44  72 105 139 186 237 290 355 425
#     4  12  25  47  69 100 147 181 231 292 355 426
#     4  12  26  44  70 102 144 182 232 292 358 420
#     4  10  22  46  66 100 140 178 229 293 344 421
#
# _framework density 21.046548000000001
#
# number of rings (size 3 to 8) (size 9 to 14) (size 15 to 20)
#    1.091    0.000    5.455    1.091    0.000    1.455 
#    6.545    0.000    0.000    0.000    0.000    0.000 
#    0.000    0.000    0.000    0.000    0.000    0.000 
#
# Total GULP energy -272663.177749 kJ/mol
# GULP energy per Si atom -12393.780807 kJ/mol
# Density = 2.099865 g / cm^3
# Si number density = 21.046548 Si / 1000 Ang^3
#
#
#
# Elastic Constant Matrix: (Units=GPa)
#
#
# Indices 1 2 3 4 5 6 
#
# 1 75.5174 23.3147 5.2526 0.0000 0.0000 0.0000
# 2 23.3147 118.2982 37.8040 0.0000 0.0000 0.0000
# 3 5.2526 37.8040 86.3270 0.0000 0.0000 0.0000
# 4 0.0000 0.0000 0.0000 38.4866 0.0000 0.0000
# 5 0.0000 0.0000 0.0000 0.0000 27.2366 0.0000
# 6 0.0000 0.0000 0.0000 0.0000 0.0000 32.4600
#
#
#
# Elastic Compliance Matrix: (Units=1/GPa)
#
#
# Indices 1 2 3 4 5 6 
#
# 1 0.014113 -0.002915 0.000418 0.000000 0.000000 0.000000
# 2 -0.002915 0.010431 -0.004390 0.000000 0.000000 0.000000
# 3 0.000418 -0.004390 0.013481 0.000000 0.000000 0.000000
# 4 0.000000 0.000000 0.000000 0.025983 0.000000 0.000000
# 5 0.000000 0.000000 0.000000 0.000000 0.036715 0.000000
# 6 0.000000 0.000000 0.000000 0.000000 0.000000 0.030807
#
#
# Mechanical properties :
#
#
# Convention : Reuss Voigt Hill
#
# Bulk Modulus (GPa) = 41.23791 45.87613 43.55702
# Shear Modulus (GPa) = 32.59698 33.88806 33.24252
#
# Velocity S-wave (km/s) = 3.93975 4.01702 3.97857
# Velocity P-wave (km/s) = 6.35073 6.58483 6.46884
#
# Compressibility (1/GPa) = 0.02424953
#
# Stress axis : x y z
#
# Youngs Moduli (GPa) = 70.85738 95.87057 74.17807
#
# Poissons Ratio (x) = 0.27946 -0.03099
# Poissons Ratio (y) = 0.20654 0.32567
# Poissons Ratio (z) = -0.02960 0.42091
#
# Static dielectric constant tensor:
#      x y z
#    x 3.863840 0.000000 0.000000 
#    y 0.000000 3.580810 0.000000 
#    z 0.000000 0.000000 3.794950 
# 
# 
# High freq. dielectric constant tensor:
#      x y z
#    x 1.833800 0.000000 0.000000 
#    y 0.000000 1.800910 0.000000 
#    z 0.000000 0.000000 1.822900 
# 
# From -- ./inp_files/6220.got.cif
#   From: 2010.06.25/outbox.cif.g09.slc.cpg/sg43_4_cif.got.tgz:6220.got - 2010.06.26 16:48:59.
