data_PCOD8187291
_publ_section_title
;
Structure prediction by ZEFSAII (Michael W. Deem and Ramdas Pophale) SiO2 
 PCOD8187291
Probable space group: F D D 2
;
_chemical_formula_sum "Si O2"
_cell_formula_units_Z 64
_cell_length_a 13.353671
_cell_length_b 17.152231
_cell_length_c 11.548185
_cell_angle_alpha 90.000000
_cell_angle_beta 90.000000
_cell_angle_gamma 90.000000
_cell_volume 2645.056917
_symmetry_space_group_name_H-M "F D D 2"
_symmetry_group_IT_number 43
_symmetry_cell_setting 'orthorhombic'
loop_
_space_group_symop_operation_xyz
x,y,z
-x,-y,z
1/4-x,1/4+y,1/4+z
1/4+x,1/4-y,1/4+z
x,1/2+y,1/2+z
-x,1/2-y,1/2+z
1/4-x,3/4+y,3/4+z
1/4+x,3/4-y,3/4+z
1/2+x,y,1/2+z
1/2-x,-y,1/2+z
3/4-x,1/4+y,3/4+z
3/4+x,1/4-y,3/4+z
1/2+x,1/2+y,z
1/2-x,1/2-y,z
3/4-x,3/4+y,1/4+z
3/4+x,3/4-y,1/4+z
loop_
_atom_site_type_symbol
_atom_site_label
_atom_site_fract_x
_atom_site_fract_y
_atom_site_fract_z
Si Si1 0.861358 0.367675 0.233940
Si Si2 0.250000 0.750000 0.507427
Si Si3 0.323331 0.095383 0.244672
Si Si4 0.670997 0.463844 0.266751
Si Si5 0.250000 0.750000 0.849786
O O1 0.892204 0.340003 0.361587
O O2 0.747604 0.396136 0.231256
O O3 0.877158 0.296790 0.145869
O O4 0.931397 0.438999 0.186981
O O5 0.335111 0.805382 0.572142
O O6 0.307604 0.186304 0.271857
O O7 0.220848 0.049095 0.264619
O O8 0.580578 0.455934 0.177541
#
# Coordination Sequence:
#
# PCOD8187291 Si02
#       5
#    16   8  16  16   8
#     4  11  23  50  75 111 151 206 251 315 395 470
#     4  10  21  43  72 106 142 200 251 301 378 474
#     4  11  25  48  80 107 155 208 257 317 390 471
#     4  11  28  46  79 112 155 197 258 326 387 460
#     4  12  29  51  74 118 154 200 267 331 380 460
#
# _framework density 24.196076000000001
#
# number of rings (size 3 to 8) (size 9 to 14) (size 15 to 20)
#    0.000    1.000    2.500    2.250    3.500    7.000 
#    0.000    0.000    0.000    0.000    0.000    0.000 
#    0.000    0.000    0.000    0.000    0.000    0.000 
#
# Total GULP energy -198255.763791 kJ/mol
# GULP energy per Si atom -12390.985237 kJ/mol
# Density = 2.414100 g / cm^3
# Si number density = 24.196076 Si / 1000 Ang^3
#
#
#
# Elastic Constant Matrix: (Units=GPa)
#
#
# Indices 1 2 3 4 5 6 
#
# 1 132.4728 43.6160 43.6136 0.0000 0.0000 0.0000
# 2 43.6160 133.7633 50.1105 0.0000 0.0000 0.0000
# 3 43.6136 50.1105 123.9454 0.0000 0.0000 0.0000
# 4 0.0000 0.0000 0.0000 18.9971 0.0000 0.0000
# 5 0.0000 0.0000 0.0000 0.0000 24.2120 0.0000
# 6 0.0000 0.0000 0.0000 0.0000 0.0000 56.0992
#
#
#
# Elastic Compliance Matrix: (Units=1/GPa)
#
#
# Indices 1 2 3 4 5 6 
#
# 1 0.008995 -0.002059 -0.002333 0.000000 0.000000 0.000000
# 2 -0.002059 0.009282 -0.003028 0.000000 0.000000 0.000000
# 3 -0.002333 -0.003028 0.010113 0.000000 0.000000 0.000000
# 4 0.000000 0.000000 0.000000 0.052640 0.000000 0.000000
# 5 0.000000 0.000000 0.000000 0.000000 0.041302 0.000000
# 6 0.000000 0.000000 0.000000 0.000000 0.000000 0.017826
#
#
# Mechanical properties :
#
#
# Convention : Reuss Voigt Hill
#
# Bulk Modulus (GPa) = 73.80003 73.87352 73.83678
# Shear Modulus (GPa) = 31.34560 36.71776 34.03168
#
# Velocity S-wave (km/s) = 3.60319 3.89975 3.75440
# Velocity P-wave (km/s) = 6.91937 7.13266 7.02682
#
# Compressibility (1/GPa) = 0.01355013
#
# Stress axis : x y z
#
# Youngs Moduli (GPa) = 111.17813 107.73981 98.88230
#
# Poissons Ratio (x) = 0.22184 0.23065
# Poissons Ratio (y) = 0.22892 0.29941
# Poissons Ratio (z) = 0.25933 0.32623
#
# Static dielectric constant tensor:
#      x y z
#    x 4.795050 0.000000 0.000000 
#    y 0.000000 4.553040 0.000000 
#    z 0.000000 0.000000 4.002620 
# 
# 
# High freq. dielectric constant tensor:
#      x y z
#    x 1.986600 0.000000 0.000000 
#    y 0.000000 1.970030 0.000000 
#    z 0.000000 0.000000 1.927280 
# 
# From -- ./inp_files/5490.got.cif
#   From: 2010.06.25/outbox.cif.g09.slc.cpg/sg43_3_cif.got.tgz:5490.got - 2010.06.26 16:48:59.
