data_PCOD8187198
_publ_section_title
;
Structure prediction by ZEFSAII (Michael W. Deem and Ramdas Pophale) SiO2 
 PCOD8187198
Probable space group: F D D 2
;
_chemical_formula_sum "Si O2"
_cell_formula_units_Z 96
_cell_length_a 23.055564
_cell_length_b 9.205649
_cell_length_c 23.424704
_cell_angle_alpha 90.000000
_cell_angle_beta 90.000000
_cell_angle_gamma 90.000000
_cell_volume 4971.692667
_symmetry_space_group_name_H-M "F D D 2"
_symmetry_group_IT_number 43
_symmetry_cell_setting 'orthorhombic'
loop_
_space_group_symop_operation_xyz
x,y,z
-x,-y,z
1/4-x,1/4+y,1/4+z
1/4+x,1/4-y,1/4+z
x,1/2+y,1/2+z
-x,1/2-y,1/2+z
1/4-x,3/4+y,3/4+z
1/4+x,3/4-y,3/4+z
1/2+x,y,1/2+z
1/2-x,-y,1/2+z
3/4-x,1/4+y,3/4+z
3/4+x,1/4-y,3/4+z
1/2+x,1/2+y,z
1/2-x,1/2-y,z
3/4-x,3/4+y,1/4+z
3/4+x,3/4-y,1/4+z
loop_
_atom_site_type_symbol
_atom_site_label
_atom_site_fract_x
_atom_site_fract_y
_atom_site_fract_z
Si Si1 0.832692 0.068459 0.457810
Si Si2 0.828036 0.386890 0.486840
Si Si3 0.233824 0.087134 0.874076
Si Si4 0.516922 0.835708 0.794027
Si Si5 0.711097 0.113763 0.173510
Si Si6 0.708705 0.886509 0.267113
O O1 0.813050 0.215813 0.490422
O O2 0.791444 0.026032 0.404810
O O3 0.896828 0.079661 0.434807
O O4 0.824401 0.945147 0.506140
O O5 0.819305 0.422186 0.419431
O O6 0.785490 0.479666 0.526452
O O7 0.893203 0.419495 0.507703
O O8 0.250000 0.250000 0.853126
O O9 0.213627 0.989304 0.821899
O O10 0.532196 0.808140 0.859457
O O11 0.500000 0.000000 0.782333
O O12 0.750000 0.250000 0.188474
O O13 0.729017 0.978772 0.212622
O O14 0.750000 0.750000 0.275184
#
# Coordination Sequence:
#
# PCOD8187198 Si02
#       6
#    16  16  16  16  16  16
#     4   9  20  39  61  82 111 156 193 221 279 352
#     4   9  21  40  59  81 113 156 192 221 282 353
#     4   9  19  39  61  80 111 154 192 225 278 352
#     4  10  21  38  61  86 111 148 194 234 280 335
#     4  10  23  38  56  85 117 152 189 231 286 336
#     4  11  24  36  56  90 116 144 190 244 288 318
#
# _framework density 19.309318999999999
#
# number of rings (size 3 to 8) (size 9 to 14) (size 15 to 20)
#    0.000    2.333    0.000    2.000    0.000   18.667 
#    0.000    0.000    0.000    0.000    0.000    0.000 
#    0.000    0.000    0.000    0.000    0.000    0.000 
#
# Total GULP energy -297508.453503 kJ/mol
# GULP energy per Si atom -12396.185563 kJ/mol
# Density = 1.926537 g / cm^3
# Si number density = 19.309319 Si / 1000 Ang^3
#
#
#
# Elastic Constant Matrix: (Units=GPa)
#
#
# Indices 1 2 3 4 5 6 
#
# 1 126.6109 58.5003 75.0262 0.0000 0.0000 0.0000
# 2 58.5003 88.8406 91.2365 0.0000 0.0000 0.0000
# 3 75.0262 91.2365 145.4106 0.0000 0.0000 0.0000
# 4 0.0000 0.0000 0.0000 38.7546 0.0000 0.0000
# 5 0.0000 0.0000 0.0000 0.0000 22.9101 0.0000
# 6 0.0000 0.0000 0.0000 0.0000 0.0000 32.6541
#
#
#
# Elastic Compliance Matrix: (Units=1/GPa)
#
#
# Indices 1 2 3 4 5 6 
#
# 1 0.011938 -0.004317 -0.003451 0.000000 0.000000 0.000000
# 2 -0.004317 0.033212 -0.018611 0.000000 0.000000 0.000000
# 3 -0.003451 -0.018611 0.020335 0.000000 0.000000 0.000000
# 4 0.000000 0.000000 0.000000 0.025803 0.000000 0.000000
# 5 0.000000 0.000000 0.000000 0.000000 0.043649 0.000000
# 6 0.000000 0.000000 0.000000 0.000000 0.000000 0.030624
#
#
# Mechanical properties :
#
#
# Convention : Reuss Voigt Hill
#
# Bulk Modulus (GPa) = 78.57450 90.04314 84.30882
# Shear Modulus (GPa) = 22.46585 27.93703 25.20144
#
# Velocity S-wave (km/s) = 3.41467 3.80783 3.61660
# Velocity P-wave (km/s) = 7.50517 8.12810 7.82283
#
# Compressibility (1/GPa) = 0.01272678
#
# Stress axis : x y z
#
# Youngs Moduli (GPa) = 83.76831 30.10988 49.17695
#
# Poissons Ratio (x) = 0.12999 0.16969
# Poissons Ratio (y) = 0.36163 0.91523
# Poissons Ratio (z) = 0.28906 0.56037
#
# Static dielectric constant tensor:
#      x y z
#    x 3.639610 0.000000 0.000000 
#    y 0.000000 3.661650 0.000000 
#    z 0.000000 0.000000 3.587360 
# 
# 
# High freq. dielectric constant tensor:
#      x y z
#    x 1.755170 0.000000 0.000000 
#    y 0.000000 1.748220 0.000000 
#    z 0.000000 0.000000 1.757400 
# 
# From -- ./inp_files/18824.got.cif
#   From: 2010.06.25/outbox.cif.g09.slc.cpg/sg43_10_cif.got.tgz:18824.got - 2010.06.26 16:48:59.
