data_PCOD8187944
_publ_section_title
;
Structure prediction by ZEFSAII (Michael W. Deem and Ramdas Pophale) SiO2 
 PCOD8187944
Probable space group: I M M 2
;
_chemical_formula_sum "Si O2"
_cell_formula_units_Z 64
_cell_length_a 8.824234
_cell_length_b 20.952284
_cell_length_c 19.910138
_cell_angle_alpha 90.000000
_cell_angle_beta 90.000000
_cell_angle_gamma 90.000000
_cell_volume 3681.142744
_symmetry_space_group_name_H-M "I M M 2"
_symmetry_group_IT_number 44
_symmetry_cell_setting 'orthorhombic'
loop_
_space_group_symop_operation_xyz
x,y,z
-x,-y,z
-x,y,z
x,-y,z
1/2+x,1/2+y,1/2+z
1/2-x,1/2-y,1/2+z
1/2-x,1/2+y,1/2+z
1/2+x,1/2-y,1/2+z
loop_
_atom_site_type_symbol
_atom_site_label
_atom_site_fract_x
_atom_site_fract_y
_atom_site_fract_z
Si Si1 0.174234 0.122173 0.976920
Si Si2 0.818379 0.689737 0.124989
Si Si3 0.319647 0.229675 0.337145
Si Si4 0.819952 0.186192 0.206309
Si Si5 0.823607 0.365179 0.341677
Si Si6 0.173652 0.271265 0.983916
Si Si7 0.678070 0.069869 0.705793
Si Si8 0.679915 0.429225 0.616474
O O1 0.273135 0.103614 0.912042
O O2 0.192351 0.196141 0.994799
O O3 0.000000 0.105161 0.961236
O O4 0.238216 0.083385 0.040730
O O5 0.761831 0.750613 0.167832
O O6 0.752424 0.624917 0.157896
O O7 0.000000 0.690895 0.124870
O O8 0.751985 0.694065 0.048768
O O9 0.500000 0.226520 0.334530
O O10 0.248572 0.183821 0.281143
O O11 0.270283 0.302103 0.324264
O O12 0.257708 0.208250 0.411353
O O13 0.756415 0.123538 0.168045
O O14 0.000000 0.185346 0.211623
O O15 0.787455 0.415832 0.283571
O O16 0.000000 0.346861 0.343617
O O17 0.000000 0.291156 0.982887
O O18 0.500000 0.068598 0.693394
O O19 0.747392 0.000000 0.688281
O O20 0.500000 0.423199 0.615081
O O21 0.732522 0.500000 0.639209
#
# Coordination Sequence:
#
# PCOD8187944 Si02
#       8
#     8   8   8   8   8   8   8   8
#     4   9  16  28  45  66  94 125 158 192 232 279
#     4   9  14  25  46  67  85 114 156 192 225 269
#     4  10  19  30  47  71  98 123 154 195 244 287
#     4  10  17  29  51  73  92 122 163 200 237 280
#     4  10  18  29  45  67  96 127 160 192 231 281
#     4   8  14  25  43  65  87 116 149 187 230 274
#     4   9  17  27  41  65  94 120 149 189 233 272
#     4   9  17  29  48  73  98 126 165 207 241 284
#
# _framework density 17.385904
#
# number of rings (size 3 to 8) (size 9 to 14) (size 15 to 20)
#    0.000    2.750    2.500    1.500    0.000    0.500 
#    0.000    0.625    0.000    3.000    0.000    1.750 
#    0.000    0.000    0.000    0.000    0.000    0.000 
#
# Total GULP energy -396567.800065 kJ/mol
# GULP energy per Si atom -12392.743752 kJ/mol
# Density = 1.734633 g / cm^3
# Si number density = 17.385904 Si / 1000 Ang^3
#
#
#
# Elastic Constant Matrix: (Units=GPa)
#
#
# Indices 1 2 3 4 5 6 
#
# 1 20.9305 15.6041 21.0289 0.0000 0.0000 0.0000
# 2 15.6041 112.6959 77.1187 0.0000 0.0000 0.0000
# 3 21.0289 77.1187 148.1681 0.0000 0.0000 0.0000
# 4 0.0000 0.0000 0.0000 23.2223 0.0000 0.0000
# 5 0.0000 0.0000 0.0000 0.0000 24.6253 0.0000
# 6 0.0000 0.0000 0.0000 0.0000 0.0000 8.3593
#
#
#
# Elastic Compliance Matrix: (Units=1/GPa)
#
#
# Indices 1 2 3 4 5 6 
#
# 1 0.056668 -0.003639 -0.006149 0.000000 0.000000 0.000000
# 2 -0.003639 0.014016 -0.006779 0.000000 0.000000 0.000000
# 3 -0.006149 -0.006779 0.011150 0.000000 0.000000 0.000000
# 4 0.000000 0.000000 0.000000 0.043062 0.000000 0.000000
# 5 0.000000 0.000000 0.000000 0.000000 0.040609 0.000000
# 6 0.000000 0.000000 0.000000 0.000000 0.000000 0.119627
#
#
# Mechanical properties :
#
#
# Convention : Reuss Voigt Hill
#
# Bulk Modulus (GPa) = 20.53333 56.58868 38.56101
# Shear Modulus (GPa) = 14.94783 22.44424 18.69604
#
# Velocity S-wave (km/s) = 2.93536 3.59687 3.28282
# Velocity P-wave (km/s) = 4.82954 7.06181 6.04953
#
# Compressibility (1/GPa) = 0.04870130
#
# Stress axis : x y z
#
# Youngs Moduli (GPa) = 17.64679 71.34757 89.68706
#
# Poissons Ratio (x) = 0.25961 0.55146
# Poissons Ratio (y) = 0.06421 0.60795
# Poissons Ratio (z) = 0.10851 0.48364
#
# Static dielectric constant tensor:
#      x y z
#    x 2.806970 0.000000 0.000000 
#    y 0.000000 3.248360 0.000000 
#    z 0.000000 0.000000 3.626770 
# 
# 
# High freq. dielectric constant tensor:
#      x y z
#    x 1.621760 0.000000 0.000000 
#    y 0.000000 1.646890 0.000000 
#    z 0.000000 0.000000 1.684820 
# 
# From -- ./inp_files/23438.got.cif
#   From: 2010.03.12/outbox.cif.g09.slc.cpg/sg44_12_cif.got.tgz:23438.got - 2010.04.14 02:36:11.
