data_PCOD8187523
_publ_section_title
;
Structure prediction by ZEFSAII (Michael W. Deem and Ramdas Pophale) SiO2 
 PCOD8187523
Probable space group: F D D 2
;
_chemical_formula_sum "Si O2"
_cell_formula_units_Z 80
_cell_length_a 15.806751
_cell_length_b 18.331612
_cell_length_c 10.425348
_cell_angle_alpha 90.000000
_cell_angle_beta 90.000000
_cell_angle_gamma 90.000000
_cell_volume 3020.882472
_symmetry_space_group_name_H-M "F D D 2"
_symmetry_group_IT_number 43
_symmetry_cell_setting 'orthorhombic'
loop_
_space_group_symop_operation_xyz
x,y,z
-x,-y,z
1/4-x,1/4+y,1/4+z
1/4+x,1/4-y,1/4+z
x,1/2+y,1/2+z
-x,1/2-y,1/2+z
1/4-x,3/4+y,3/4+z
1/4+x,3/4-y,3/4+z
1/2+x,y,1/2+z
1/2-x,-y,1/2+z
3/4-x,1/4+y,3/4+z
3/4+x,1/4-y,3/4+z
1/2+x,1/2+y,z
1/2-x,1/2-y,z
3/4-x,3/4+y,1/4+z
3/4+x,3/4-y,1/4+z
loop_
_atom_site_type_symbol
_atom_site_label
_atom_site_fract_x
_atom_site_fract_y
_atom_site_fract_z
Si Si1 0.144267 0.563318 0.580970
Si Si2 0.534058 0.846298 0.005522
Si Si3 0.156424 0.734133 0.571019
Si Si4 0.932037 0.293652 0.246078
Si Si5 0.928278 0.944244 0.354576
O O1 0.134553 0.649938 0.570310
O O2 0.102758 0.521107 0.461496
O O3 0.242234 0.538589 0.600727
O O4 0.093621 0.542436 0.707687
O O5 0.601903 0.909534 0.043609
O O6 0.469105 0.865174 0.888666
O O7 0.589955 0.773651 0.973055
O O8 0.476867 0.837186 0.129906
O O9 0.250000 0.750000 0.520016
O O10 0.902758 0.213576 0.194602
O O11 0.000000 0.000000 0.394724
#
# Coordination Sequence:
#
# PCOD8187523 Si02
#       5
#    16  16  16  16  16
#     4  11  25  46  76 117 158 209 263 339 400 482
#     4  10  23  48  70 108 147 200 257 321 391 475
#     4  11  24  48  76 112 156 209 271 333 402 483
#     4  10  23  47  72 110 146 207 256 322 391 468
#     4  10  24  48  75 109 155 201 260 327 398 481
#
# _framework density 26.482329
#
# number of rings (size 3 to 8) (size 9 to 14) (size 15 to 20)
#    0.000    1.600    2.000    0.600    2.800    4.800 
#   32.400    0.000    0.000    0.000    0.000    0.000 
#    0.000    0.000    0.000    0.000    0.000    0.000 
#
# Total GULP energy -247896.703201 kJ/mol
# GULP energy per Si atom -12394.835160 kJ/mol
# Density = 2.642205 g / cm^3
# Si number density = 26.482329 Si / 1000 Ang^3
#
#
#
# Elastic Constant Matrix: (Units=GPa)
#
#
# Indices 1 2 3 4 5 6 
#
# 1 163.4061 58.8720 67.4186 0.0000 0.0000 0.0000
# 2 58.8720 117.5891 19.6463 0.0000 0.0000 0.0000
# 3 67.4186 19.6463 79.8069 0.0000 0.0000 0.0000
# 4 0.0000 0.0000 0.0000 21.1598 0.0000 0.0000
# 5 0.0000 0.0000 0.0000 0.0000 59.6873 0.0000
# 6 0.0000 0.0000 0.0000 0.0000 0.0000 58.7664
#
#
#
# Elastic Compliance Matrix: (Units=1/GPa)
#
#
# Indices 1 2 3 4 5 6 
#
# 1 0.011037 -0.004138 -0.008305 0.000000 0.000000 0.000000
# 2 -0.004138 0.010421 0.000931 0.000000 0.000000 0.000000
# 3 -0.008305 0.000931 0.019317 0.000000 0.000000 0.000000
# 4 0.000000 0.000000 0.000000 0.047259 0.000000 0.000000
# 5 0.000000 0.000000 0.000000 0.000000 0.016754 0.000000
# 6 0.000000 0.000000 0.000000 0.000000 0.000000 0.017017
#
#
# Mechanical properties :
#
#
# Convention : Reuss Voigt Hill
#
# Bulk Modulus (GPa) = 56.34039 72.51952 64.42995
# Shear Modulus (GPa) = 33.16814 42.24706 37.70760
#
# Velocity S-wave (km/s) = 3.54286 3.99844 3.77752
# Velocity P-wave (km/s) = 6.16901 6.98286 6.58851
#
# Compressibility (1/GPa) = 0.01774926
#
# Stress axis : x y z
#
# Youngs Moduli (GPa) = 90.60218 95.96397 51.76748
#
# Poissons Ratio (x) = 0.39713 0.42994
# Poissons Ratio (y) = 0.37494 -0.04818
# Poissons Ratio (z) = 0.75247 -0.08931
#
# Static dielectric constant tensor:
#      x y z
#    x 5.928790 0.000000 0.000000 
#    y 0.000000 5.057120 0.000000 
#    z 0.000000 0.000000 4.734170 
# 
# 
# High freq. dielectric constant tensor:
#      x y z
#    x 2.083630 0.000000 0.000000 
#    y 0.000000 2.066010 0.000000 
#    z 0.000000 0.000000 2.064100 
# 
# From -- ./inp_files/6080.got.cif
#   From: 2010.06.25/outbox.cif.g09.slc.cpg/sg43_4_cif.got.tgz:6080.got - 2010.06.26 16:48:59.
