data_PCOD8187681
_publ_section_title
;
Structure prediction by ZEFSAII (Michael W. Deem and Ramdas Pophale) SiO2 
 PCOD8187681
Probable space group: F D D 2
;
_chemical_formula_sum "Si O2"
_cell_formula_units_Z 72
_cell_length_a 23.739881
_cell_length_b 9.118625
_cell_length_c 14.880862
_cell_angle_alpha 90.000000
_cell_angle_beta 90.000000
_cell_angle_gamma 90.000000
_cell_volume 3221.335679
_symmetry_space_group_name_H-M "F D D 2"
_symmetry_group_IT_number 43
_symmetry_cell_setting 'orthorhombic'
loop_
_space_group_symop_operation_xyz
x,y,z
-x,-y,z
1/4-x,1/4+y,1/4+z
1/4+x,1/4-y,1/4+z
x,1/2+y,1/2+z
-x,1/2-y,1/2+z
1/4-x,3/4+y,3/4+z
1/4+x,3/4-y,3/4+z
1/2+x,y,1/2+z
1/2-x,-y,1/2+z
3/4-x,1/4+y,3/4+z
3/4+x,1/4-y,3/4+z
1/2+x,1/2+y,z
1/2-x,1/2-y,z
3/4-x,3/4+y,1/4+z
3/4+x,3/4-y,1/4+z
loop_
_atom_site_type_symbol
_atom_site_label
_atom_site_fract_x
_atom_site_fract_y
_atom_site_fract_z
Si Si1 0.322591 0.013297 0.370110
Si Si2 0.440332 0.942703 0.795543
Si Si3 0.750000 0.250000 0.322309
Si Si4 0.911757 0.310341 0.975249
Si Si5 0.437457 0.986573 0.456406
O O1 0.301409 0.110318 0.452068
O O2 0.314660 0.102367 0.277286
O O3 0.281800 0.873252 0.379168
O O4 0.388383 0.965102 0.381539
O O5 0.411373 0.831711 0.867333
O O6 0.500000 0.000000 0.832140
O O7 0.399404 0.081586 0.772797
O O8 0.796999 0.182084 0.259783
O O9 0.927829 0.144269 0.003317
O O10 0.500000 0.000000 0.412062
#
# Coordination Sequence:
#
# PCOD8187681 Si02
#       5
#    16  16   8  16  16
#     4  11  25  44  71 107 136 191 234 291 359 409
#     4  11  24  44  71  99 138 186 230 281 355 417
#     4  12  26  44  66 108 146 176 236 302 346 420
#     4  11  24  44  69 102 136 183 233 290 352 414
#     4  11  22  46  72  97 143 186 233 288 349 427
#
# _framework density 22.350974999999998
#
# number of rings (size 3 to 8) (size 9 to 14) (size 15 to 20)
#    0.000    0.889    3.333    6.000    3.111    3.556 
#    8.000    0.000    0.000    0.000    0.000    0.000 
#    0.000    0.000    0.000    0.000    0.000    0.000 
#
# Total GULP energy -223036.573197 kJ/mol
# GULP energy per Si atom -12390.920733 kJ/mol
# Density = 2.230010 g / cm^3
# Si number density = 22.350975 Si / 1000 Ang^3
#
#
#
# Elastic Constant Matrix: (Units=GPa)
#
#
# Indices 1 2 3 4 5 6 
#
# 1 187.7510 57.8376 47.5528 0.0000 0.0000 0.0000
# 2 57.8376 99.3721 31.6308 0.0000 0.0000 0.0000
# 3 47.5528 31.6308 60.7090 0.0000 0.0000 0.0000
# 4 0.0000 0.0000 0.0000 10.2957 0.0000 0.0000
# 5 0.0000 0.0000 0.0000 0.0000 39.1666 0.0000
# 6 0.0000 0.0000 0.0000 0.0000 0.0000 53.8519
#
#
#
# Elastic Compliance Matrix: (Units=1/GPa)
#
#
# Indices 1 2 3 4 5 6 
#
# 1 0.007282 -0.002905 -0.004191 0.000000 0.000000 0.000000
# 2 -0.002905 0.013222 -0.004614 0.000000 0.000000 0.000000
# 3 -0.004191 -0.004614 0.022159 0.000000 0.000000 0.000000
# 4 0.000000 0.000000 0.000000 0.097128 0.000000 0.000000
# 5 0.000000 0.000000 0.000000 0.000000 0.025532 0.000000
# 6 0.000000 0.000000 0.000000 0.000000 0.000000 0.018569
#
#
# Mechanical properties :
#
#
# Convention : Reuss Voigt Hill
#
# Bulk Modulus (GPa) = 51.96287 69.09718 60.53002
# Shear Modulus (GPa) = 23.39436 34.71690 29.05563
#
# Velocity S-wave (km/s) = 3.23876 3.94542 3.60942
# Velocity P-wave (km/s) = 6.10615 7.19283 6.67165
#
# Compressibility (1/GPa) = 0.01924451
#
# Stress axis : x y z
#
# Youngs Moduli (GPa) = 137.31670 75.62899 45.12889
#
# Poissons Ratio (x) = 0.21967 0.18913
# Poissons Ratio (y) = 0.39885 0.20823
# Poissons Ratio (z) = 0.57548 0.34896
#
# Static dielectric constant tensor:
#      x y z
#    x 4.647280 0.000000 0.000000 
#    y 0.000000 3.982530 0.000000 
#    z 0.000000 0.000000 3.681810 
# 
# 
# High freq. dielectric constant tensor:
#      x y z
#    x 1.908130 0.000000 0.000000 
#    y 0.000000 1.873540 0.000000 
#    z 0.000000 0.000000 1.858430 
# 
# From -- ./inp_files/9074.got.cif
#   From: 2010.06.25/outbox.cif.g09.slc.cpg/sg43_5_cif.got.tgz:9074.got - 2010.06.26 16:48:59.
