data_PCOD8187119
_publ_section_title
;
Structure prediction by ZEFSAII (Michael W. Deem and Ramdas Pophale) SiO2 
 PCOD8187119
Probable space group: F D D 2
;
_chemical_formula_sum "Si O2"
_cell_formula_units_Z 88
_cell_length_a 7.571524
_cell_length_b 20.703911
_cell_length_c 25.659394
_cell_angle_alpha 90.000000
_cell_angle_beta 90.000000
_cell_angle_gamma 90.000000
_cell_volume 4022.370684
_symmetry_space_group_name_H-M "F D D 2"
_symmetry_group_IT_number 43
_symmetry_cell_setting 'orthorhombic'
loop_
_space_group_symop_operation_xyz
x,y,z
-x,-y,z
1/4-x,1/4+y,1/4+z
1/4+x,1/4-y,1/4+z
x,1/2+y,1/2+z
-x,1/2-y,1/2+z
1/4-x,3/4+y,3/4+z
1/4+x,3/4-y,3/4+z
1/2+x,y,1/2+z
1/2-x,-y,1/2+z
3/4-x,1/4+y,3/4+z
3/4+x,1/4-y,3/4+z
1/2+x,1/2+y,z
1/2-x,1/2-y,z
3/4-x,3/4+y,1/4+z
3/4+x,3/4-y,1/4+z
loop_
_atom_site_type_symbol
_atom_site_label
_atom_site_fract_x
_atom_site_fract_y
_atom_site_fract_z
Si Si1 0.266992 0.369823 0.345880
Si Si2 0.250000 0.750000 0.423690
Si Si3 0.946929 0.746301 0.656121
Si Si4 0.844945 0.624679 0.141101
Si Si5 0.148138 0.904740 0.982885
Si Si6 0.637465 0.946870 0.697368
O O1 0.314664 0.444382 0.358788
O O2 0.331325 0.341882 0.291258
O O3 0.356898 0.320908 0.386707
O O4 0.053577 0.370536 0.346517
O O5 0.294138 0.809431 0.385727
O O6 0.415268 0.723929 0.458444
O O7 0.750000 0.750000 0.678249
O O8 0.027450 0.813338 0.634671
O O9 0.069316 0.723980 0.704861
O O10 0.750334 0.619939 0.197640
O O11 0.336653 0.866552 0.981113
O O12 0.500000 0.000000 0.716121
#
# Coordination Sequence:
#
# PCOD8187119 Si02
#       6
#    16   8  16  16  16  16
#     4  10  21  40  66  95 131 168 227 284 326 406
#     4  12  20  42  68  92 134 178 222 264 346 400
#     4  10  21  43  65  95 135 180 221 279 345 403
#     4  10  21  41  65  95 130 185 218 275 348 395
#     4  10  21  40  66  96 129 170 227 282 330 400
#     4  10  20  40  63  91 129 173 210 268 338 386
#
# _framework density 21.877647
#
# number of rings (size 3 to 8) (size 9 to 14) (size 15 to 20)
#    0.000    2.182    3.636    4.364    0.000    2.182 
#    4.909    3.636    0.000    0.000    0.000    0.000 
#    0.000    0.000    0.000    0.000    0.000    0.000 
#
# Total GULP energy -272562.220400 kJ/mol
# GULP energy per Si atom -12389.191836 kJ/mol
# Density = 2.182785 g / cm^3
# Si number density = 21.877647 Si / 1000 Ang^3
#
#
#
# Elastic Constant Matrix: (Units=GPa)
#
#
# Indices 1 2 3 4 5 6 
#
# 1 150.8464 40.5762 20.7746 0.0000 0.0000 0.0000
# 2 40.5762 116.3290 -2.3037 0.0000 0.0000 0.0000
# 3 20.7746 -2.3037 88.2534 0.0000 0.0000 0.0000
# 4 0.0000 0.0000 0.0000 8.2278 0.0000 0.0000
# 5 0.0000 0.0000 0.0000 0.0000 14.4266 0.0000
# 6 0.0000 0.0000 0.0000 0.0000 0.0000 45.3868
#
#
#
# Elastic Compliance Matrix: (Units=1/GPa)
#
#
# Indices 1 2 3 4 5 6 
#
# 1 0.007610 -0.002691 -0.001862 0.000000 0.000000 0.000000
# 2 -0.002691 0.009552 0.000883 0.000000 0.000000 0.000000
# 3 -0.001862 0.000883 0.011792 0.000000 0.000000 0.000000
# 4 0.000000 0.000000 0.000000 0.121539 0.000000 0.000000
# 5 0.000000 0.000000 0.000000 0.000000 0.069316 0.000000
# 6 0.000000 0.000000 0.000000 0.000000 0.000000 0.022033
#
#
# Mechanical properties :
#
#
# Convention : Reuss Voigt Hill
#
# Bulk Modulus (GPa) = 46.26488 52.61366 49.43927
# Shear Modulus (GPa) = 19.50180 33.36704 26.43442
#
# Velocity S-wave (km/s) = 2.98888 3.90957 3.47981
# Velocity P-wave (km/s) = 5.75362 6.66940 6.22837
#
# Compressibility (1/GPa) = 0.02161467
#
# Stress axis : x y z
#
# Youngs Moduli (GPa) = 131.41451 104.68502 84.80149
#
# Poissons Ratio (x) = 0.28172 0.15786
# Poissons Ratio (y) = 0.35365 -0.07487
# Poissons Ratio (z) = 0.24463 -0.09242
#
# Static dielectric constant tensor:
#      x y z
#    x 4.201380 0.000000 0.000000 
#    y 0.000000 4.241620 0.000000 
#    z 0.000000 0.000000 3.288600 
# 
# 
# High freq. dielectric constant tensor:
#      x y z
#    x 1.873450 0.000000 0.000000 
#    y 0.000000 1.878490 0.000000 
#    z 0.000000 0.000000 1.798690 
# 
# From -- ./inp_files/20217.got.cif
#   From: 2010.06.25/outbox.cif.g09.slc.cpg/sg43_11_cif.got.tgz:20217.got - 2010.06.26 16:48:59.
