data_PCOD8187892
_publ_section_title
;
Structure prediction by ZEFSAII (Michael W. Deem and Ramdas Pophale) SiO2 
 PCOD8187892
Probable space group: I M M 2
;
_chemical_formula_sum "Si O2"
_cell_formula_units_Z 64
_cell_length_a 8.938001
_cell_length_b 24.776626
_cell_length_c 19.948538
_cell_angle_alpha 90.000000
_cell_angle_beta 90.000000
_cell_angle_gamma 90.000000
_cell_volume 4417.673719
_symmetry_space_group_name_H-M "I M M 2"
_symmetry_group_IT_number 44
_symmetry_cell_setting 'orthorhombic'
loop_
_space_group_symop_operation_xyz
x,y,z
-x,-y,z
-x,y,z
x,-y,z
1/2+x,1/2+y,1/2+z
1/2-x,1/2-y,1/2+z
1/2-x,1/2+y,1/2+z
1/2+x,1/2-y,1/2+z
loop_
_atom_site_type_symbol
_atom_site_label
_atom_site_fract_x
_atom_site_fract_y
_atom_site_fract_z
Si Si1 0.176736 0.765293 0.311800
Si Si2 0.326367 0.197017 0.053861
Si Si3 0.168289 0.754700 0.940499
Si Si4 0.328424 0.411244 0.511833
Si Si5 0.827753 0.560166 0.379317
Si Si6 0.672787 0.834183 0.200857
Si Si7 0.669963 0.559591 0.659521
Si Si8 0.667850 0.338327 0.333298
O O1 0.244926 0.781668 0.384907
O O2 0.225278 0.809866 0.258663
O O3 0.240170 0.706075 0.289549
O O4 0.000000 0.762898 0.316713
O O5 0.500000 0.192099 0.036119
O O6 0.239198 0.146543 0.026064
O O7 0.300776 0.201448 0.133621
O O8 0.254807 0.247089 0.012083
O O9 0.165350 0.816258 0.910341
O O10 0.000000 0.732559 0.950384
O O11 0.500000 0.405645 0.488941
O O12 0.238644 0.441288 0.453773
O O13 0.312790 0.445583 0.579567
O O14 0.809395 0.500000 0.348557
O O15 0.743879 0.602952 0.331434
O O16 0.000000 0.577461 0.383291
O O17 0.500000 0.832188 0.222401
O O18 0.717590 0.896487 0.190189
O O19 0.500000 0.576760 0.677555
O O20 0.706977 0.500000 0.689159
O O21 0.500000 0.342852 0.304073
#
# Coordination Sequence:
#
# PCOD8187892 Si02
#       8
#     8   8   8   8   8   8   8   8
#     4  10  18  30  47  62  78 104 138 173 211 255
#     4  10  18  27  41  60  83 109 138 175 211 245
#     4   9  17  28  43  60  79 104 135 171 210 250
#     4  10  17  26  38  52  73 104 140 174 206 239
#     4  11  21  28  36  54  79 106 139 176 208 241
#     4  10  20  31  43  62  85 108 140 177 211 249
#     4   9  18  30  41  54  75 105 139 173 208 245
#     4   9  18  30  43  57  75 102 135 171 209 247
#
# _framework density 14.487263
#
# number of rings (size 3 to 8) (size 9 to 14) (size 15 to 20)
#    0.750    1.500    1.250    3.375    0.000    3.750 
#    0.000    0.000    0.000    0.000    0.000    0.000 
#    0.000    0.000    0.000    1.125    0.000   16.250 
#
# Total GULP energy -396531.463647 kJ/mol
# GULP energy per Si atom -12391.608239 kJ/mol
# Density = 1.445429 g / cm^3
# Si number density = 14.487263 Si / 1000 Ang^3
#
#
#
# Elastic Constant Matrix: (Units=GPa)
#
#
# Indices 1 2 3 4 5 6 
#
# 1 148.5521 36.1499 50.6091 0.0000 0.0000 0.0000
# 2 36.1499 49.7563 28.0434 0.0000 0.0000 0.0000
# 3 50.6091 28.0434 58.9651 0.0001 0.0000 0.0000
# 4 0.0000 0.0000 0.0001 18.6587 0.0000 0.0000
# 5 0.0000 0.0000 0.0000 0.0000 21.9052 0.0000
# 6 0.0000 0.0000 0.0000 0.0000 0.0000 20.0651
#
#
#
# Elastic Compliance Matrix: (Units=1/GPa)
#
#
# Indices 1 2 3 4 5 6 
#
# 1 0.009890 -0.003281 -0.006929 0.000000 0.000000 0.000000
# 2 -0.003281 0.028546 -0.010761 0.000000 0.000000 0.000000
# 3 -0.006929 -0.010761 0.028024 0.000000 0.000000 0.000000
# 4 0.000000 0.000000 0.000000 0.053594 0.000000 0.000000
# 5 0.000000 0.000000 0.000000 0.000000 0.045651 0.000000
# 6 0.000000 0.000000 0.000000 0.000000 0.000000 0.049838
#
#
# Mechanical properties :
#
#
# Convention : Reuss Voigt Hill
#
# Bulk Modulus (GPa) = 40.78219 54.09761 47.43990
# Shear Modulus (GPa) = 18.82124 21.62387 20.22256
#
# Velocity S-wave (km/s) = 3.60829 3.86763 3.74021
# Velocity P-wave (km/s) = 6.75064 7.57412 7.17421
#
# Compressibility (1/GPa) = 0.02452051
#
# Stress axis : x y z
#
# Youngs Moduli (GPa) = 101.10753 35.03069 35.68419
#
# Poissons Ratio (x) = 0.11493 0.24724
# Poissons Ratio (y) = 0.33171 0.38399
# Poissons Ratio (z) = 0.70053 0.37695
#
# Static dielectric constant tensor:
#      x y z
#    x 2.933740 0.000000 0.000000 
#    y 0.000000 2.538410 0.000000 
#    z 0.000000 0.000000 2.565270 
# 
# 
# High freq. dielectric constant tensor:
#      x y z
#    x 1.575070 0.000000 0.000000 
#    y 0.000000 1.520400 0.000000 
#    z 0.000000 0.000000 1.512280 
# 
# From -- ./inp_files/25263.got.cif
#   From: 2010.03.12/outbox.cif.g09.slc.cpg/sg44_13_cif.got.tgz:25263.got - 2010.04.14 02:36:11.
