data_PCOD8187836
_publ_section_title
;
Structure prediction by ZEFSAII (Michael W. Deem and Ramdas Pophale) SiO2 
 PCOD8187836
Probable space group: F D D 2
;
_chemical_formula_sum "Si O2"
_cell_formula_units_Z 104
_cell_length_a 24.349640
_cell_length_b 21.491702
_cell_length_c 8.508036
_cell_angle_alpha 90.000000
_cell_angle_beta 90.000000
_cell_angle_gamma 90.000000
_cell_volume 4452.384618
_symmetry_space_group_name_H-M "F D D 2"
_symmetry_group_IT_number 43
_symmetry_cell_setting 'orthorhombic'
loop_
_space_group_symop_operation_xyz
x,y,z
-x,-y,z
1/4-x,1/4+y,1/4+z
1/4+x,1/4-y,1/4+z
x,1/2+y,1/2+z
-x,1/2-y,1/2+z
1/4-x,3/4+y,3/4+z
1/4+x,3/4-y,3/4+z
1/2+x,y,1/2+z
1/2-x,-y,1/2+z
3/4-x,1/4+y,3/4+z
3/4+x,1/4-y,3/4+z
1/2+x,1/2+y,z
1/2-x,1/2-y,z
3/4-x,3/4+y,1/4+z
3/4+x,3/4-y,1/4+z
loop_
_atom_site_type_symbol
_atom_site_label
_atom_site_fract_x
_atom_site_fract_y
_atom_site_fract_z
Si Si1 0.500000 0.000000 0.605590
Si Si2 0.423077 0.573986 0.319232
Si Si3 0.068805 0.103674 0.569146
Si Si4 0.350359 0.283068 0.898288
Si Si5 0.256558 0.080132 0.576335
Si Si6 0.472716 0.288794 0.994230
Si Si7 0.487648 0.595752 0.853047
O O1 0.446755 0.017675 0.712395
O O2 0.517702 0.056765 0.491568
O O3 0.357985 0.585389 0.306234
O O4 0.433087 0.563100 0.504314
O O5 0.450763 0.638511 0.263700
O O6 0.039080 0.109816 0.398962
O O7 0.024995 0.109051 0.705186
O O8 0.100742 0.040322 0.609013
O O9 0.413681 0.303151 0.913837
O O10 0.317353 0.307580 0.052925
O O11 0.286205 0.046419 0.431156
O O12 0.243650 0.030709 0.713265
O O13 0.519778 0.335676 0.928270
#
# Coordination Sequence:
#
# PCOD8187836 Si02
#       7
#     8  16  16  16  16  16  16
#     4  12  26  46  72 112 150 194 252 318 364 456
#     4  12  26  47  74 109 149 193 256 302 383 448
#     4  12  25  46  76 107 144 201 246 312 381 441
#     4  12  26  47  79 107 151 200 251 311 380 458
#     4  12  27  47  74 110 153 196 252 316 376 451
#     4  12  28  49  73 112 155 198 253 312 385 450
#     4  12  25  47  74 108 150 194 256 316 377 448
#
# _framework density 23.358267999999999
#
# number of rings (size 3 to 8) (size 9 to 14) (size 15 to 20)
#    0.000    0.000    7.692    1.846    2.154    0.000 
#    2.769    0.000    0.000    0.000    0.000    0.000 
#    0.000    0.000    0.000    0.000    0.000    0.000 
#
# Total GULP energy -322117.895949 kJ/mol
# GULP energy per Si atom -12389.149844 kJ/mol
# Density = 2.330510 g / cm^3
# Si number density = 23.358268 Si / 1000 Ang^3
#
#
#
# Elastic Constant Matrix: (Units=GPa)
#
#
# Indices 1 2 3 4 5 6 
#
# 1 63.8590 21.1479 29.4723 0.0059 -0.0014 -0.0041
# 2 21.1479 95.6685 26.6498 0.0059 -0.0012 -0.0016
# 3 29.4723 26.6498 125.8932 0.0092 -0.0005 -0.0034
# 4 0.0059 0.0059 0.0092 50.2382 -0.0016 -0.0018
# 5 -0.0014 -0.0012 -0.0005 -0.0016 26.4252 -0.0004
# 6 -0.0041 -0.0016 -0.0034 -0.0018 -0.0004 29.1061
#
#
#
# Elastic Compliance Matrix: (Units=1/GPa)
#
#
# Indices 1 2 3 4 5 6 
#
# 1 0.018352 -0.003039 -0.003653 -0.000001 0.000001 0.000002
# 2 -0.003039 0.011611 -0.001746 -0.000001 0.000000 0.000000
# 3 -0.003653 -0.001746 0.009168 -0.000001 0.000000 0.000000
# 4 -0.000001 -0.000001 -0.000001 0.019905 0.000001 0.000001
# 5 0.000001 0.000000 0.000000 0.000001 0.037843 0.000000
# 6 0.000002 0.000000 0.000000 0.000001 0.000000 0.034357
#
#
# Mechanical properties :
#
#
# Convention : Reuss Voigt Hill
#
# Bulk Modulus (GPa) = 44.93571 48.88452 46.91012
# Shear Modulus (GPa) = 32.14793 35.03060 33.58926
#
# Velocity S-wave (km/s) = 3.71387 3.87681 3.79622
# Velocity P-wave (km/s) = 6.13758 6.40415 6.27228
#
# Compressibility (1/GPa) = 0.02225401
#
# Stress axis : x y z
#
# Youngs Moduli (GPa) = 54.49040 86.12463 109.07383
#
# Poissons Ratio (x) = 0.26175 0.39844
# Poissons Ratio (y) = 0.16561 0.19049
# Poissons Ratio (z) = 0.19905 0.15041
#
# Static dielectric constant tensor:
#      x y z
#    x 3.920340 0.000000 -0.000010 
#    y 0.000000 4.257200 -0.000020 
#    z -0.000010 -0.000020 4.355970 
# 
# 
# High freq. dielectric constant tensor:
#      x y z
#    x 1.903230 0.000000 0.000000 
#    y 0.000000 1.930460 0.000000 
#    z 0.000000 0.000000 1.937250 
# 
# From -- ./inp_files/3351.got.cif
#   From: 2010.06.25/outbox.cif.g09.slc.cpg/sg43_2_cif.got.tgz:3351.got - 2010.06.26 16:48:59.
