data_PCOD8187211
_publ_section_title
;
Structure prediction by ZEFSAII (Michael W. Deem and Ramdas Pophale) SiO2 
 PCOD8187211
Probable space group: F D D 2
;
_chemical_formula_sum "Si O2"
_cell_formula_units_Z 104
_cell_length_a 16.141206
_cell_length_b 21.370115
_cell_length_c 13.778807
_cell_angle_alpha 90.000000
_cell_angle_beta 90.000000
_cell_angle_gamma 90.000000
_cell_volume 4752.853811
_symmetry_space_group_name_H-M "F D D 2"
_symmetry_group_IT_number 43
_symmetry_cell_setting 'orthorhombic'
loop_
_space_group_symop_operation_xyz
x,y,z
-x,-y,z
1/4-x,1/4+y,1/4+z
1/4+x,1/4-y,1/4+z
x,1/2+y,1/2+z
-x,1/2-y,1/2+z
1/4-x,3/4+y,3/4+z
1/4+x,3/4-y,3/4+z
1/2+x,y,1/2+z
1/2-x,-y,1/2+z
3/4-x,1/4+y,3/4+z
3/4+x,1/4-y,3/4+z
1/2+x,1/2+y,z
1/2-x,1/2-y,z
3/4-x,3/4+y,1/4+z
3/4+x,3/4-y,1/4+z
loop_
_atom_site_type_symbol
_atom_site_label
_atom_site_fract_x
_atom_site_fract_y
_atom_site_fract_z
Si Si1 0.023545 0.690399 0.413910
Si Si2 0.165032 0.280346 0.939104
Si Si3 0.373111 0.668241 0.240349
Si Si4 0.250000 0.250000 0.631911
Si Si5 0.248120 0.020163 0.951914
Si Si6 0.815668 0.197294 0.654648
Si Si7 0.407888 0.284770 0.516576
O O1 0.101666 0.724277 0.461878
O O2 0.030350 0.694364 0.297309
O O3 0.031853 0.618354 0.448974
O O4 0.940566 0.726112 0.452270
O O5 0.250000 0.250000 0.901798
O O6 0.127220 0.326625 0.857963
O O7 0.176460 0.316540 0.039986
O O8 0.289437 0.698869 0.201563
O O9 0.458870 0.700274 0.200828
O O10 0.360801 0.597053 0.203663
O O11 0.319452 0.273215 0.560604
O O12 0.149022 0.025209 0.952989
O O13 0.278043 0.053081 0.852805
O O14 0.750000 0.250000 0.678891
#
# Coordination Sequence:
#
# PCOD8187211 Si02
#       7
#    16  16  16   8  16  16  16
#     4  11  25  42  67 102 132 178 226 281 348 396
#     4  10  21  38  66 100 128 170 217 288 340 394
#     4  10  22  40  68 100 131 170 225 282 342 389
#     4  10  24  42  64 102 128 180 224 270 338 412
#     4  10  24  43  66 102 134 175 230 282 326 415
#     4  11  25  43  67  96 138 184 224 280 341 410
#     4  11  24  43  68  96 139 176 220 287 334 406
#
# _framework density 21.881589999999999
#
# number of rings (size 3 to 8) (size 9 to 14) (size 15 to 20)
#    0.000    1.538    2.308    0.923   10.769    1.231 
#    4.154    0.000    0.000    0.000    0.000    0.000 
#    0.000    0.000    0.000    0.000    0.000    0.000 
#
# Total GULP energy -322166.348135 kJ/mol
# GULP energy per Si atom -12391.013390 kJ/mol
# Density = 2.183179 g / cm^3
# Si number density = 21.881590 Si / 1000 Ang^3
#
#
#
# Elastic Constant Matrix: (Units=GPa)
#
#
# Indices 1 2 3 4 5 6 
#
# 1 137.2418 73.7056 12.2842 0.0000 0.0000 0.0000
# 2 73.7056 172.1428 28.7641 0.0000 0.0000 0.0000
# 3 12.2842 28.7641 47.7089 0.0000 0.0000 0.0000
# 4 0.0000 0.0000 0.0000 21.3231 0.0000 0.0000
# 5 0.0000 0.0000 0.0000 0.0000 45.2924 0.0000
# 6 0.0000 0.0000 0.0000 0.0000 0.0000 23.4794
#
#
#
# Elastic Compliance Matrix: (Units=1/GPa)
#
#
# Indices 1 2 3 4 5 6 
#
# 1 0.009462 -0.004053 0.000007 0.000000 0.000000 0.000000
# 2 -0.004053 0.008196 -0.003898 0.000000 0.000000 0.000000
# 3 0.000007 -0.003898 0.023309 0.000000 0.000000 0.000000
# 4 0.000000 0.000000 0.000000 0.046897 0.000000 0.000000
# 5 0.000000 0.000000 0.000000 0.000000 0.022079 0.000000
# 6 0.000000 0.000000 0.000000 0.000000 0.000000 0.042590
#
#
# Mechanical properties :
#
#
# Convention : Reuss Voigt Hill
#
# Bulk Modulus (GPa) = 39.87273 65.17790 52.52532
# Shear Modulus (GPa) = 28.28380 34.17496 31.22938
#
# Velocity S-wave (km/s) = 3.59915 3.95627 3.78193
# Velocity P-wave (km/s) = 5.96100 7.12185 6.56712
#
# Compressibility (1/GPa) = 0.02507980
#
# Stress axis : x y z
#
# Youngs Moduli (GPa) = 105.68355 122.01692 42.90259
#
# Poissons Ratio (x) = 0.49448 -0.00030
# Poissons Ratio (y) = 0.42829 0.16722
# Poissons Ratio (z) = -0.00074 0.47559
#
# Static dielectric constant tensor:
#      x y z
#    x 3.949020 0.000000 0.000000 
#    y 0.000000 3.896560 0.000000 
#    z 0.000000 0.000000 3.865430 
# 
# 
# High freq. dielectric constant tensor:
#      x y z
#    x 1.865730 0.000000 0.000000 
#    y 0.000000 1.848920 0.000000 
#    z 0.000000 0.000000 1.849420 
# 
# From -- ./inp_files/10623.got.cif
#   From: 2010.06.25/outbox.cif.g09.slc.cpg/sg43_6_cif.got.tgz:10623.got - 2010.06.26 16:48:59.
