data_PCOD8187049
_publ_section_title
;
Structure prediction by ZEFSAII (Michael W. Deem and Ramdas Pophale) SiO2 
 PCOD8187049
Probable space group: F D D 2
;
_chemical_formula_sum "Si O2"
_cell_formula_units_Z 120
_cell_length_a 22.637985
_cell_length_b 14.194165
_cell_length_c 18.013464
_cell_angle_alpha 90.000000
_cell_angle_beta 90.000000
_cell_angle_gamma 90.000000
_cell_volume 5788.217649
_symmetry_space_group_name_H-M "F D D 2"
_symmetry_group_IT_number 43
_symmetry_cell_setting 'orthorhombic'
loop_
_space_group_symop_operation_xyz
x,y,z
-x,-y,z
1/4-x,1/4+y,1/4+z
1/4+x,1/4-y,1/4+z
x,1/2+y,1/2+z
-x,1/2-y,1/2+z
1/4-x,3/4+y,3/4+z
1/4+x,3/4-y,3/4+z
1/2+x,y,1/2+z
1/2-x,-y,1/2+z
3/4-x,1/4+y,3/4+z
3/4+x,1/4-y,3/4+z
1/2+x,1/2+y,z
1/2-x,1/2-y,z
3/4-x,3/4+y,1/4+z
3/4+x,3/4-y,1/4+z
loop_
_atom_site_type_symbol
_atom_site_label
_atom_site_fract_x
_atom_site_fract_y
_atom_site_fract_z
Si Si1 0.038841 0.084354 0.041910
Si Si2 0.959447 0.916217 0.554912
Si Si3 0.830004 0.908472 0.025794
Si Si4 0.210799 0.022262 0.875179
Si Si5 0.765477 0.581327 0.135441
Si Si6 0.092277 0.852899 0.384491
Si Si7 0.899691 0.440272 0.282709
Si Si8 0.250000 0.250000 0.663291
O O1 0.104828 0.047154 0.026757
O O2 0.038294 0.162157 0.106474
O O3 0.011014 0.118919 0.964538
O O4 0.000000 0.000000 0.073687
O O5 0.889125 0.921371 0.569960
O O6 0.981367 0.817521 0.587986
O O7 0.968348 0.921378 0.465892
O O8 0.000000 0.000000 0.592011
O O9 0.800975 0.932503 0.105412
O O10 0.836278 0.797159 0.009236
O O11 0.790525 0.959760 0.963084
O O12 0.152532 0.070189 0.841847
O O13 0.799641 0.484854 0.146185
O O14 0.793285 0.645963 0.070721
O O15 0.129648 0.868549 0.460146
O O16 0.050862 0.944802 0.366271
#
# Coordination Sequence:
#
# PCOD8187049 Si02
#       8
#    16  16  16  16  16  16  16   8
#     4  11  24  41  66  92 130 178 217 265 322 393
#     4  10  20  35  61  90 124 160 207 271 330 382
#     4  11  23  36  66  98 130 161 214 281 331 395
#     4  11  20  40  60  95 132 166 213 266 335 387
#     4  12  22  38  66 103 131 165 215 273 343 391
#     4  12  21  38  62  89 133 176 210 272 325 399
#     4  11  18  36  62 100 128 156 205 280 340 378
#     4  10  22  38  58  92 126 170 220 260 324 398
#
# _framework density 20.731770000000001
#
# number of rings (size 3 to 8) (size 9 to 14) (size 15 to 20)
#    0.400    0.533    5.333    4.400    1.867    0.000 
#    2.400    0.000    4.400    0.000    0.000    0.000 
#    0.000    0.000    0.000    0.000    0.000    0.000 
#
# Total GULP energy -371984.623303 kJ/mol
# GULP energy per Si atom -12399.487443 kJ/mol
# Density = 2.068458 g / cm^3
# Si number density = 20.731770 Si / 1000 Ang^3
#
#
#
# Elastic Constant Matrix: (Units=GPa)
#
#
# Indices 1 2 3 4 5 6 
#
# 1 79.8350 34.5515 26.3044 0.0000 0.0000 0.0000
# 2 34.5515 71.5871 10.7666 0.0000 0.0000 0.0000
# 3 26.3044 10.7666 62.3329 0.0000 0.0000 0.0000
# 4 0.0000 0.0000 0.0000 20.1195 0.0000 0.0000
# 5 0.0000 0.0000 0.0000 0.0000 26.4755 0.0000
# 6 0.0000 0.0000 0.0000 0.0000 0.0000 43.2553
#
#
#
# Elastic Compliance Matrix: (Units=1/GPa)
#
#
# Indices 1 2 3 4 5 6 
#
# 1 0.017915 -0.007710 -0.006228 0.000000 0.000000 0.000000
# 2 -0.007710 0.017660 0.000203 0.000000 0.000000 0.000000
# 3 -0.006228 0.000203 0.018636 0.000000 0.000000 0.000000
# 4 0.000000 0.000000 0.000000 0.049703 0.000000 0.000000
# 5 0.000000 0.000000 0.000000 0.000000 0.037771 0.000000
# 6 0.000000 0.000000 0.000000 0.000000 0.000000 0.023119
#
#
# Mechanical properties :
#
#
# Convention : Reuss Voigt Hill
#
# Bulk Modulus (GPa) = 37.39624 39.66669 38.53146
# Shear Modulus (GPa) = 24.85265 27.44557 26.14911
#
# Velocity S-wave (km/s) = 3.46608 3.64241 3.55534
# Velocity P-wave (km/s) = 5.83914 6.07160 5.95651
#
# Compressibility (1/GPa) = 0.02674066
#
# Stress axis : x y z
#
# Youngs Moduli (GPa) = 55.82021 56.62653 53.65929
#
# Poissons Ratio (x) = 0.43658 0.33420
# Poissons Ratio (y) = 0.43036 -0.01091
# Poissons Ratio (z) = 0.34766 -0.01151
#
# Static dielectric constant tensor:
#      x y z
#    x 3.959080 0.000000 0.000000 
#    y 0.000000 3.592830 0.000000 
#    z 0.000000 0.000000 3.489610 
# 
# 
# High freq. dielectric constant tensor:
#      x y z
#    x 1.815900 0.000000 0.000000 
#    y 0.000000 1.791520 0.000000 
#    z 0.000000 0.000000 1.785530 
# 
# From -- ./inp_files/18396.got.cif
#   From: 2010.06.25/outbox.cif.g09.slc.cpg/sg43_10_cif.got.tgz:18396.got - 2010.06.26 16:48:59.
