data_PCOD8187432
_publ_section_title
;
Structure prediction by ZEFSAII (Michael W. Deem and Ramdas Pophale) SiO2 
 PCOD8187432
Probable space group: F D D 2
;
_chemical_formula_sum "Si O2"
_cell_formula_units_Z 120
_cell_length_a 15.589900
_cell_length_b 21.282377
_cell_length_c 16.859676
_cell_angle_alpha 90.000000
_cell_angle_beta 90.000000
_cell_angle_gamma 90.000000
_cell_volume 5593.874078
_symmetry_space_group_name_H-M "F D D 2"
_symmetry_group_IT_number 43
_symmetry_cell_setting 'orthorhombic'
loop_
_space_group_symop_operation_xyz
x,y,z
-x,-y,z
1/4-x,1/4+y,1/4+z
1/4+x,1/4-y,1/4+z
x,1/2+y,1/2+z
-x,1/2-y,1/2+z
1/4-x,3/4+y,3/4+z
1/4+x,3/4-y,3/4+z
1/2+x,y,1/2+z
1/2-x,-y,1/2+z
3/4-x,1/4+y,3/4+z
3/4+x,1/4-y,3/4+z
1/2+x,1/2+y,z
1/2-x,1/2-y,z
3/4-x,3/4+y,1/4+z
3/4+x,3/4-y,1/4+z
loop_
_atom_site_type_symbol
_atom_site_label
_atom_site_fract_x
_atom_site_fract_y
_atom_site_fract_z
Si Si1 0.813273 0.085794 0.311780
Si Si2 0.256454 0.374255 0.517108
Si Si3 0.263560 0.018069 0.403920
Si Si4 0.494996 0.813205 0.304169
Si Si5 0.926654 0.293088 0.890023
Si Si6 0.178073 0.699516 0.546575
Si Si7 0.939609 0.557472 0.112665
Si Si8 0.250000 0.750000 0.939361
O O1 0.792557 0.077521 0.219309
O O2 0.744824 0.129152 0.356328
O O3 0.907384 0.116026 0.319427
O O4 0.808838 0.016557 0.351034
O O5 0.275136 0.417185 0.439125
O O6 0.185326 0.408151 0.568787
O O7 0.217465 0.307086 0.494059
O O8 0.346012 0.033688 0.349852
O O9 0.284690 0.969643 0.475910
O O10 0.518088 0.769734 0.379259
O O11 0.535801 0.881049 0.318446
O O12 0.390969 0.814888 0.302962
O O13 0.826957 0.275301 0.886639
O O14 0.250000 0.750000 0.568370
O O15 0.156959 0.702114 0.452766
O O16 0.000000 0.500000 0.084863
#
# Coordination Sequence:
#
# PCOD8187432 Si02
#       8
#    16  16  16  16  16  16  16   8
#     4  11  23  41  69  98 133 176 222 284 339 403
#     4  10  24  43  66 100 136 172 229 277 338 407
#     4  11  23  43  65 101 135 172 229 282 337 409
#     4  11  23  42  67  97 138 179 226 283 343 408
#     4  10  23  42  64  95 132 177 222 276 334 408
#     4  11  24  42  69  99 138 178 233 282 347 409
#     4  11  23  42  69 104 135 179 227 288 343 402
#     4  10  22  44  66  92 132 176 226 272 336 400
#
# _framework density 21.452037000000001
#
# number of rings (size 3 to 8) (size 9 to 14) (size 15 to 20)
#    0.000    1.333    1.333    4.000    1.867    6.400 
#    6.000    6.667    0.000    0.000    0.000    0.000 
#    0.000    0.000    0.000    0.000    0.000    0.000 
#
# Total GULP energy -371930.822223 kJ/mol
# GULP energy per Si atom -12397.694074 kJ/mol
# Density = 2.140321 g / cm^3
# Si number density = 21.452037 Si / 1000 Ang^3
#
#
#
# Elastic Constant Matrix: (Units=GPa)
#
#
# Indices 1 2 3 4 5 6 
#
# 1 129.1741 60.3803 58.3809 0.0000 0.0000 0.0000
# 2 60.3803 161.9670 49.2026 0.0000 0.0000 0.0000
# 3 58.3809 49.2026 90.8675 0.0000 0.0000 0.0000
# 4 0.0000 0.0000 0.0000 32.5903 0.0000 0.0000
# 5 0.0000 0.0000 0.0000 0.0000 35.4485 0.0000
# 6 0.0000 0.0000 0.0000 0.0000 0.0000 42.7282
#
#
#
# Elastic Compliance Matrix: (Units=1/GPa)
#
#
# Indices 1 2 3 4 5 6 
#
# 1 0.011689 -0.002485 -0.006165 0.000000 0.000000 0.000000
# 2 -0.002485 0.007918 -0.002691 0.000000 0.000000 0.000000
# 3 -0.006165 -0.002691 0.016423 0.000000 0.000000 0.000000
# 4 0.000000 0.000000 0.000000 0.030684 0.000000 0.000000
# 5 0.000000 0.000000 0.000000 0.000000 0.028210 0.000000
# 6 0.000000 0.000000 0.000000 0.000000 0.000000 0.023404
#
#
# Mechanical properties :
#
#
# Convention : Reuss Voigt Hill
#
# Bulk Modulus (GPa) = 74.91149 79.77068 77.34109
# Shear Modulus (GPa) = 34.37427 36.42306 35.39867
#
# Velocity S-wave (km/s) = 4.00731 4.12501 4.06659
# Velocity P-wave (km/s) = 7.51051 7.74299 7.62763
#
# Compressibility (1/GPa) = 0.01334909
#
# Stress axis : x y z
#
# Youngs Moduli (GPa) = 85.54950 126.29624 60.89145
#
# Poissons Ratio (x) = 0.31384 0.37537
# Poissons Ratio (y) = 0.21259 0.16385
# Poissons Ratio (z) = 0.52737 0.33984
#
# Static dielectric constant tensor:
#      x y z
#    x 3.711090 0.000000 0.000000 
#    y 0.000000 4.205960 0.000000 
#    z 0.000000 0.000000 3.903890 
# 
# 
# High freq. dielectric constant tensor:
#      x y z
#    x 1.831300 0.000000 0.000000 
#    y 0.000000 1.867050 0.000000 
#    z 0.000000 0.000000 1.839420 
# 
# From -- ./inp_files/13957.got.cif
#   From: 2010.06.25/outbox.cif.g09.slc.cpg/sg43_7_cif.got.tgz:13957.got - 2010.06.26 16:48:59.
