data_PCOD8187293
_publ_section_title
;
Structure prediction by ZEFSAII (Michael W. Deem and Ramdas Pophale) SiO2 
 PCOD8187293
Probable space group: F D D 2
;
_chemical_formula_sum "Si O2"
_cell_formula_units_Z 88
_cell_length_a 11.906374
_cell_length_b 21.305778
_cell_length_c 15.491118
_cell_angle_alpha 90.000000
_cell_angle_beta 90.000000
_cell_angle_gamma 90.000000
_cell_volume 3929.702562
_symmetry_space_group_name_H-M "F D D 2"
_symmetry_group_IT_number 43
_symmetry_cell_setting 'orthorhombic'
loop_
_space_group_symop_operation_xyz
x,y,z
-x,-y,z
1/4-x,1/4+y,1/4+z
1/4+x,1/4-y,1/4+z
x,1/2+y,1/2+z
-x,1/2-y,1/2+z
1/4-x,3/4+y,3/4+z
1/4+x,3/4-y,3/4+z
1/2+x,y,1/2+z
1/2-x,-y,1/2+z
3/4-x,1/4+y,3/4+z
3/4+x,1/4-y,3/4+z
1/2+x,1/2+y,z
1/2-x,1/2-y,z
3/4-x,3/4+y,1/4+z
3/4+x,3/4-y,1/4+z
loop_
_atom_site_type_symbol
_atom_site_label
_atom_site_fract_x
_atom_site_fract_y
_atom_site_fract_z
Si Si1 0.500000 0.000000 0.529270
Si Si2 0.596762 0.816980 0.141889
Si Si3 0.903238 0.816980 0.416652
Si Si4 0.516091 0.570546 0.321610
Si Si5 0.516091 0.929454 0.236931
Si Si6 1.000000 0.281532 0.529271
O O1 0.577950 0.044465 0.471362
O O2 0.422050 0.044465 0.587179
O O3 0.515213 0.875767 0.163936
O O4 0.676704 0.835068 0.061571
O O5 0.510580 0.762372 0.114309
O O6 0.823295 0.835068 0.496970
O O7 0.984787 0.875767 0.394605
O O8 0.989420 0.762372 0.444232
O O9 0.500000 0.500000 0.359194
O O10 0.641588 0.575501 0.282793
O O11 0.500000 0.000000 0.199346
O O12 0.641587 0.924499 0.275749
#
# Coordination Sequence:
#
# PCOD8187293 Si02
#       6
#     8  16  16  16  16  16
#     4  12  22  40  64 108 114 176 216 270 312 384
#     4  11  24  40  67  94 132 166 219 257 329 375
#     4  11  24  40  67  94 132 166 219 257 329 375
#     4  10  23  43  61  97 129 172 208 271 313 386
#     4  10  23  43  61  97 129 172 208 271 313 386
#     4  10  21  44  61  93 134 167 208 274 312 390
#
# _framework density 22.393553000000001
#
# number of rings (size 3 to 8) (size 9 to 14) (size 15 to 20)
#    0.000    1.455    5.455    1.091    5.091    8.727 
#    0.000    4.545    0.000    0.000    0.000    0.000 
#    0.000    0.000    0.000    0.000    0.000    0.000 
#
# Total GULP energy -272690.965232 kJ/mol
# GULP energy per Si atom -12395.043874 kJ/mol
# Density = 2.234258 g / cm^3
# Si number density = 22.393553 Si / 1000 Ang^3
#
#
#
# Elastic Constant Matrix: (Units=GPa)
#
#
# Indices 1 2 3 4 5 6 
#
# 1 67.4190 -4.8702 20.7121 0.0000 0.0000 0.0000
# 2 -4.8702 76.6653 34.1221 0.0000 0.0000 0.0000
# 3 20.7121 34.1221 88.0043 0.0000 0.0000 0.0000
# 4 0.0000 0.0000 0.0000 20.1700 0.0000 0.0000
# 5 0.0000 0.0000 0.0000 0.0000 36.8470 0.0000
# 6 0.0000 0.0000 0.0000 0.0000 0.0000 24.4261
#
#
#
# Elastic Compliance Matrix: (Units=1/GPa)
#
#
# Indices 1 2 3 4 5 6 
#
# 1 0.016689 0.003394 -0.005244 0.000000 0.000000 0.000000
# 2 0.003394 0.016454 -0.007179 0.000000 0.000000 0.000000
# 3 -0.005244 -0.007179 0.015381 0.000000 0.000000 0.000000
# 4 0.000000 0.000000 0.000000 0.049579 0.000000 0.000000
# 5 0.000000 0.000000 0.000000 0.000000 0.027139 0.000000
# 6 0.000000 0.000000 0.000000 0.000000 0.000000 0.040940
#
#
# Mechanical properties :
#
#
# Convention : Reuss Voigt Hill
#
# Bulk Modulus (GPa) = 32.82243 36.89075 34.85659
# Shear Modulus (GPa) = 25.72098 28.43026 27.07562
#
# Velocity S-wave (km/s) = 3.39276 3.56697 3.48096
# Velocity P-wave (km/s) = 5.48057 5.78567 5.63519
#
# Compressibility (1/GPa) = 0.03046697
#
# Stress axis : x y z
#
# Youngs Moduli (GPa) = 59.92060 60.77404 65.01689
#
# Poissons Ratio (x) = -0.20627 0.34093
# Poissons Ratio (y) = -0.20337 0.46674
# Poissons Ratio (z) = 0.31421 0.43628
#
# Static dielectric constant tensor:
#      x y z
#    x 4.491940 0.000000 0.000000 
#    y 0.000000 4.126370 0.000000 
#    z 0.000000 0.000000 3.878160 
# 
# 
# High freq. dielectric constant tensor:
#      x y z
#    x 1.900870 0.000000 0.000000 
#    y 0.000000 1.884730 0.000000 
#    z 0.000000 0.000000 1.855090 
# 
# From -- ./inp_files/6134.got.cif
#   From: 2010.06.25/outbox.cif.g09.slc.cpg/sg43_4_cif.got.tgz:6134.got - 2010.06.26 16:48:59.
