data_PCOD8187455
_publ_section_title
;
Structure prediction by ZEFSAII (Michael W. Deem and Ramdas Pophale) SiO2 
 PCOD8187455
Probable space group: F D D 2
;
_chemical_formula_sum "Si O2"
_cell_formula_units_Z 72
_cell_length_a 21.751050
_cell_length_b 7.490253
_cell_length_c 18.163692
_cell_angle_alpha 90.000000
_cell_angle_beta 90.000000
_cell_angle_gamma 90.000000
_cell_volume 2959.244458
_symmetry_space_group_name_H-M "F D D 2"
_symmetry_group_IT_number 43
_symmetry_cell_setting 'orthorhombic'
loop_
_space_group_symop_operation_xyz
x,y,z
-x,-y,z
1/4-x,1/4+y,1/4+z
1/4+x,1/4-y,1/4+z
x,1/2+y,1/2+z
-x,1/2-y,1/2+z
1/4-x,3/4+y,3/4+z
1/4+x,3/4-y,3/4+z
1/2+x,y,1/2+z
1/2-x,-y,1/2+z
3/4-x,1/4+y,3/4+z
3/4+x,1/4-y,3/4+z
1/2+x,1/2+y,z
1/2-x,1/2-y,z
3/4-x,3/4+y,1/4+z
3/4+x,3/4-y,1/4+z
loop_
_atom_site_type_symbol
_atom_site_label
_atom_site_fract_x
_atom_site_fract_y
_atom_site_fract_z
Si Si1 0.259194 0.549602 0.503450
Si Si2 0.146824 0.530115 0.401054
Si Si3 0.117888 0.188501 0.650815
Si Si4 0.427341 0.018251 0.542595
Si Si5 0.750000 0.750000 0.621265
O O1 0.250000 0.750000 0.532284
O O2 0.213754 0.504007 0.436704
O O3 0.328229 0.519889 0.473498
O O4 0.245331 0.424465 0.571357
O O5 0.136945 0.732966 0.375635
O O6 0.143721 0.402543 0.329941
O O7 0.094103 0.472351 0.458283
O O8 0.094069 0.301727 0.581990
O O9 0.188743 0.237066 0.670892
O O10 0.500000 0.000000 0.545245
#
# Coordination Sequence:
#
# PCOD8187455 Si02
#       5
#    16  16  16  16   8
#     4  10  22  45  68  98 141 190 234 296 371 434
#     4  11  26  46  74 108 149 195 246 314 372 451
#     4  11  26  43  71 107 142 193 246 300 369 443
#     4  12  26  48  75 109 152 200 252 310 383 454
#     4  12  24  44  74 100 142 190 240 300 366 446
#
# _framework density 24.330535999999999
#
# number of rings (size 3 to 8) (size 9 to 14) (size 15 to 20)
#    0.000    0.889    4.444    1.333    6.222    1.778 
#    0.000    0.000    0.000    0.000    0.000    0.000 
#    0.000    0.000    0.000    0.000    0.000    0.000 
#
# Total GULP energy -223316.912840 kJ/mol
# GULP energy per Si atom -12406.495158 kJ/mol
# Density = 2.427516 g / cm^3
# Si number density = 24.330536 Si / 1000 Ang^3
#
#
#
# Elastic Constant Matrix: (Units=GPa)
#
#
# Indices 1 2 3 4 5 6 
#
# 1 191.6751 41.8503 40.2553 0.0000 0.0000 0.0001
# 2 41.8503 121.3256 31.0392 0.0001 0.0000 0.0001
# 3 40.2553 31.0392 45.9481 0.0000 0.0000 0.0000
# 4 0.0000 0.0001 0.0000 19.4952 0.0000 0.0000
# 5 0.0000 0.0000 0.0000 0.0000 7.4035 0.0000
# 6 0.0001 0.0001 0.0000 0.0000 0.0000 31.2970
#
#
#
# Elastic Compliance Matrix: (Units=1/GPa)
#
#
# Indices 1 2 3 4 5 6 
#
# 1 0.006482 -0.000947 -0.005040 0.000000 0.000000 0.000000
# 2 -0.000947 0.010103 -0.005995 0.000000 0.000000 0.000000
# 3 -0.005040 -0.005995 0.030229 0.000000 0.000000 0.000000
# 4 0.000000 0.000000 0.000000 0.051295 0.000000 0.000000
# 5 0.000000 0.000000 0.000000 0.000000 0.135071 0.000000
# 6 0.000000 0.000000 0.000000 0.000000 0.000000 0.031952
#
#
# Mechanical properties :
#
#
# Convention : Reuss Voigt Hill
#
# Bulk Modulus (GPa) = 43.76231 65.02648 54.39440
# Shear Modulus (GPa) = 16.85138 28.02607 22.43873
#
# Velocity S-wave (km/s) = 2.63459 3.39763 3.04014
# Velocity P-wave (km/s) = 5.22306 6.49432 5.89307
#
# Compressibility (1/GPa) = 0.02285071
#
# Stress axis : x y z
#
# Youngs Moduli (GPa) = 154.26681 98.98428 33.08100
#
# Poissons Ratio (x) = 0.09371 0.16672
# Poissons Ratio (y) = 0.14605 0.19833
# Poissons Ratio (z) = 0.77745 0.59343
#
# Static dielectric constant tensor:
#      x y z
#    x 5.147840 0.000000 0.000000 
#    y 0.000000 4.719160 0.000000 
#    z 0.000000 0.000000 3.931400 
# 
# 
# High freq. dielectric constant tensor:
#      x y z
#    x 1.988740 0.000000 0.000000 
#    y 0.000000 1.984130 0.000000 
#    z 0.000000 0.000000 1.941680 
# 
# From -- ./inp_files/12568.got.cif
#   From: 2010.06.25/outbox.cif.g09.slc.cpg/sg43_7_cif.got.tgz:12568.got - 2010.06.26 16:48:59.
