data_PCOD8187489
_publ_section_title
;
Structure prediction by ZEFSAII (Michael W. Deem and Ramdas Pophale) SiO2 
 PCOD8187489
Probable space group: F D D 2
;
_chemical_formula_sum "Si O2"
_cell_formula_units_Z 112
_cell_length_a 13.328175
_cell_length_b 33.788156
_cell_length_c 11.446608
_cell_angle_alpha 90.000000
_cell_angle_beta 90.000000
_cell_angle_gamma 90.000000
_cell_volume 5154.801988
_symmetry_space_group_name_H-M "F D D 2"
_symmetry_group_IT_number 43
_symmetry_cell_setting 'orthorhombic'
loop_
_space_group_symop_operation_xyz
x,y,z
-x,-y,z
1/4-x,1/4+y,1/4+z
1/4+x,1/4-y,1/4+z
x,1/2+y,1/2+z
-x,1/2-y,1/2+z
1/4-x,3/4+y,3/4+z
1/4+x,3/4-y,3/4+z
1/2+x,y,1/2+z
1/2-x,-y,1/2+z
3/4-x,1/4+y,3/4+z
3/4+x,1/4-y,3/4+z
1/2+x,1/2+y,z
1/2-x,1/2-y,z
3/4-x,3/4+y,1/4+z
3/4+x,3/4-y,1/4+z
loop_
_atom_site_type_symbol
_atom_site_label
_atom_site_fract_x
_atom_site_fract_y
_atom_site_fract_z
Si Si1 0.515268 0.250000 0.973140
Si Si2 0.587134 0.171863 0.434471
Si Si3 0.306030 0.787216 0.852251
Si Si4 0.474084 0.902635 0.043442
Si Si5 0.974084 0.597365 0.402838
Si Si6 0.587134 0.828137 0.011809
Si Si7 0.693970 0.287216 0.094029
O O1 0.443595 0.282836 0.917424
O O2 0.580759 0.227204 0.875954
O O3 0.443595 0.217164 0.028856
O O4 0.580759 0.272796 0.070326
O O5 0.664274 0.165944 0.328835
O O6 0.486593 0.144635 0.423648
O O7 0.640727 0.162078 0.556921
O O8 0.250000 0.750000 0.790893
O O9 0.308018 0.825600 0.771272
O O10 0.250000 0.797981 0.973140
O O11 0.390727 0.912078 0.139359
O O12 0.486593 0.855365 0.022632
O O13 0.441982 0.924400 0.925008
O O14 0.085726 0.584056 0.367445
O O15 0.750000 0.250000 0.155387
#
# Coordination Sequence:
#
# PCOD8187489 Si02
#       7
#    16  16  16  16  16  16  16
#     4  10  23  43  60 100 124 164 222 263 313 396
#     4  10  24  42  67  97 127 167 225 256 331 375
#     4   9  22  42  63  92 128 169 209 265 322 380
#     4  10  23  44  65  93 130 177 205 277 312 392
#     4  10  23  44  65  93 130 177 205 277 312 392
#     4  10  24  42  67  97 127 167 225 256 331 375
#     4   9  22  42  63  92 128 169 209 265 322 380
#
# _framework density 21.727314
#
# number of rings (size 3 to 8) (size 9 to 14) (size 15 to 20)
#    0.000    2.571    0.000    0.000   12.000    3.429 
#    5.143    0.000    0.000    0.000    0.000    0.000 
#    0.000    0.000    0.000    0.000    0.000    0.000 
#
# Total GULP energy -347140.437275 kJ/mol
# GULP energy per Si atom -12397.872760 kJ/mol
# Density = 2.167786 g / cm^3
# Si number density = 21.727314 Si / 1000 Ang^3
#
#
#
# Elastic Constant Matrix: (Units=GPa)
#
#
# Indices 1 2 3 4 5 6 
#
# 1 73.4639 38.4855 23.1184 0.0000 0.0000 0.0000
# 2 38.4855 148.7742 45.7474 0.0000 0.0000 0.0000
# 3 23.1184 45.7474 90.7816 0.0000 0.0000 0.0000
# 4 0.0000 0.0000 0.0000 27.1172 0.0000 0.0000
# 5 0.0000 0.0000 0.0000 0.0000 20.4444 0.0000
# 6 0.0000 0.0000 0.0000 0.0000 0.0000 36.5520
#
#
#
# Elastic Compliance Matrix: (Units=1/GPa)
#
#
# Indices 1 2 3 4 5 6 
#
# 1 0.016169 -0.003451 -0.002378 0.000000 0.000000 0.000000
# 2 -0.003451 0.008691 -0.003501 0.000000 0.000000 0.000000
# 3 -0.002378 -0.003501 0.013385 0.000000 0.000000 0.000000
# 4 0.000000 0.000000 0.000000 0.036877 0.000000 0.000000
# 5 0.000000 0.000000 0.000000 0.000000 0.048913 0.000000
# 6 0.000000 0.000000 0.000000 0.000000 0.000000 0.027358
#
#
# Mechanical properties :
#
#
# Convention : Reuss Voigt Hill
#
# Bulk Modulus (GPa) = 51.06167 58.63582 54.84875
# Shear Modulus (GPa) = 28.31557 30.53395 29.42476
#
# Velocity S-wave (km/s) = 3.61394 3.75283 3.68404
# Velocity P-wave (km/s) = 6.40049 6.76935 6.58750
#
# Compressibility (1/GPa) = 0.01958416
#
# Stress axis : x y z
#
# Youngs Moduli (GPa) = 61.84851 115.06413 74.70945
#
# Poissons Ratio (x) = 0.39711 0.17768
# Poissons Ratio (y) = 0.21345 0.26153
# Poissons Ratio (z) = 0.14710 0.40280
#
# Static dielectric constant tensor:
#      x y z
#    x 3.888710 0.000000 0.000000 
#    y 0.000000 4.074050 0.000000 
#    z 0.000000 0.000000 3.595390 
# 
# 
# High freq. dielectric constant tensor:
#      x y z
#    x 1.853680 0.000000 0.000000 
#    y 0.000000 1.863120 0.000000 
#    z 0.000000 0.000000 1.834210 
# 
# From -- ./inp_files/6313.got.cif
#   From: 2010.06.25/outbox.cif.g09.slc.cpg/sg43_4_cif.got.tgz:6313.got - 2010.06.26 16:48:59.
