data_PCOD8187096
_publ_section_title
;
Structure prediction by ZEFSAII (Michael W. Deem and Ramdas Pophale) SiO2 
 PCOD8187096
Probable space group: F D D 2
;
_chemical_formula_sum "Si O2"
_cell_formula_units_Z 112
_cell_length_a 13.453642
_cell_length_b 25.605590
_cell_length_c 14.614296
_cell_angle_alpha 90.000000
_cell_angle_beta 90.000000
_cell_angle_gamma 90.000000
_cell_volume 5034.456046
_symmetry_space_group_name_H-M "F D D 2"
_symmetry_group_IT_number 43
_symmetry_cell_setting 'orthorhombic'
loop_
_space_group_symop_operation_xyz
x,y,z
-x,-y,z
1/4-x,1/4+y,1/4+z
1/4+x,1/4-y,1/4+z
x,1/2+y,1/2+z
-x,1/2-y,1/2+z
1/4-x,3/4+y,3/4+z
1/4+x,3/4-y,3/4+z
1/2+x,y,1/2+z
1/2-x,-y,1/2+z
3/4-x,1/4+y,3/4+z
3/4+x,1/4-y,3/4+z
1/2+x,1/2+y,z
1/2-x,1/2-y,z
3/4-x,3/4+y,1/4+z
3/4+x,3/4-y,1/4+z
loop_
_atom_site_type_symbol
_atom_site_label
_atom_site_fract_x
_atom_site_fract_y
_atom_site_fract_z
Si Si1 0.172315 0.169445 0.800860
Si Si2 0.962092 0.773061 0.933529
Si Si3 0.921061 0.556551 0.332731
Si Si4 0.500000 0.000000 0.497819
Si Si5 0.750000 0.750000 0.666606
Si Si6 0.616955 0.571179 0.277762
Si Si7 0.964859 0.397801 0.604351
Si Si8 0.091987 0.073610 0.695219
O O1 0.080093 0.181085 0.868270
O O2 0.178729 0.217638 0.732401
O O3 0.154461 0.120260 0.737039
O O4 0.270987 0.159668 0.861382
O O5 0.924222 0.715965 0.901428
O O6 0.916814 0.775976 0.034589
O O7 0.078124 0.782599 0.953337
O O8 0.888948 0.617456 0.335353
O O9 0.923198 0.531138 0.433234
O O10 0.024880 0.549488 0.277443
O O11 0.450763 0.954807 0.558851
O O12 0.680517 0.787909 0.608100
O O13 0.529018 0.596303 0.215412
O O14 0.689074 0.616099 0.318500
#
# Coordination Sequence:
#
# PCOD8187096 Si02
#       8
#    16  16  16   8   8  16  16  16
#     4  11  24  44  69  99 138 186 230 289 345 422
#     4  10  21  44  67 101 139 178 228 293 344 404
#     4  10  20  38  68 106 142 176 234 294 341 416
#     4  12  21  39  72  98 142 192 228 291 357 400
#     4  12  27  51  64  96 148 186 222 291 361 426
#     4  11  26  47  73  98 145 179 242 290 351 426
#     4  11  24  46  68 107 138 188 238 297 347 427
#     4  11  22  39  69 102 142 178 238 285 356 414
#
# _framework density 22.246693
#
# number of rings (size 3 to 8) (size 9 to 14) (size 15 to 20)
#    0.000    1.143    4.286    2.143    6.000    1.143 
#   10.286    0.000    0.000    0.000    0.000    0.000 
#    0.000    0.000    0.000    0.000    0.000    0.000 
#
# Total GULP energy -346937.604186 kJ/mol
# GULP energy per Si atom -12390.628721 kJ/mol
# Density = 2.219606 g / cm^3
# Si number density = 22.246693 Si / 1000 Ang^3
#
#
#
# Elastic Constant Matrix: (Units=GPa)
#
#
# Indices 1 2 3 4 5 6 
#
# 1 58.9055 34.8427 44.5747 0.0000 0.0000 0.0000
# 2 34.8427 126.5510 45.4568 0.0000 0.0000 0.0000
# 3 44.5747 45.4568 123.6177 0.0000 0.0000 0.0000
# 4 0.0000 0.0000 0.0000 53.4741 0.0000 0.0000
# 5 0.0000 0.0000 0.0000 0.0000 38.2442 0.0000
# 6 0.0000 0.0000 0.0000 0.0000 0.0000 35.2598
#
#
#
# Elastic Compliance Matrix: (Units=1/GPa)
#
#
# Indices 1 2 3 4 5 6 
#
# 1 0.025168 -0.004228 -0.007520 0.000000 0.000000 0.000000
# 2 -0.004228 0.009815 -0.002085 0.000000 0.000000 0.000000
# 3 -0.007520 -0.002085 0.011568 0.000000 0.000000 0.000000
# 4 0.000000 0.000000 0.000000 0.018701 0.000000 0.000000
# 5 0.000000 0.000000 0.000000 0.000000 0.026148 0.000000
# 6 0.000000 0.000000 0.000000 0.000000 0.000000 0.028361
#
#
# Mechanical properties :
#
#
# Convention : Reuss Voigt Hill
#
# Bulk Modulus (GPa) = 52.95352 62.09140 57.52246
# Shear Modulus (GPa) = 32.52644 37.67562 35.10103
#
# Velocity S-wave (km/s) = 3.82786 4.11973 3.97647
# Velocity P-wave (km/s) = 6.58720 7.11340 6.85535
#
# Compressibility (1/GPa) = 0.01888448
#
# Stress axis : x y z
#
# Youngs Moduli (GPa) = 39.73277 101.88682 86.44718
#
# Poissons Ratio (x) = 0.43079 0.65013
# Poissons Ratio (y) = 0.16799 0.18020
# Poissons Ratio (z) = 0.29881 0.21239
#
# Static dielectric constant tensor:
#      x y z
#    x 3.587420 0.000000 0.000000 
#    y 0.000000 3.807690 0.000000 
#    z 0.000000 0.000000 4.155620 
# 
# 
# High freq. dielectric constant tensor:
#      x y z
#    x 1.849470 0.000000 0.000000 
#    y 0.000000 1.884750 0.000000 
#    z 0.000000 0.000000 1.885820 
# 
# From -- ./inp_files/10226.got.cif
#   From: 2010.06.25/outbox.cif.g09.slc.cpg/sg43_6_cif.got.tgz:10226.got - 2010.06.26 16:48:59.
