data_PCOD8187673
_publ_section_title
;
Structure prediction by ZEFSAII (Michael W. Deem and Ramdas Pophale) SiO2 
 PCOD8187673
Probable space group: F D D 2
;
_chemical_formula_sum "Si O2"
_cell_formula_units_Z 104
_cell_length_a 33.214750
_cell_length_b 17.086584
_cell_length_c 8.134080
_cell_angle_alpha 90.000000
_cell_angle_beta 90.000000
_cell_angle_gamma 90.000000
_cell_volume 4616.306896
_symmetry_space_group_name_H-M "F D D 2"
_symmetry_group_IT_number 43
_symmetry_cell_setting 'orthorhombic'
loop_
_space_group_symop_operation_xyz
x,y,z
-x,-y,z
1/4-x,1/4+y,1/4+z
1/4+x,1/4-y,1/4+z
x,1/2+y,1/2+z
-x,1/2-y,1/2+z
1/4-x,3/4+y,3/4+z
1/4+x,3/4-y,3/4+z
1/2+x,y,1/2+z
1/2-x,-y,1/2+z
3/4-x,1/4+y,3/4+z
3/4+x,1/4-y,3/4+z
1/2+x,1/2+y,z
1/2-x,1/2-y,z
3/4-x,3/4+y,1/4+z
3/4+x,3/4-y,1/4+z
loop_
_atom_site_type_symbol
_atom_site_label
_atom_site_fract_x
_atom_site_fract_y
_atom_site_fract_z
Si Si1 0.750000 0.250000 0.952030
Si Si2 0.923679 0.462404 0.495820
Si Si3 0.321805 0.746263 0.385785
Si Si4 0.467152 0.126869 0.946309
Si Si5 0.404763 0.228032 0.752380
Si Si6 0.865969 0.607141 0.503440
Si Si7 0.052313 0.662708 0.004335
O O1 0.784865 0.213050 0.842852
O O2 0.770402 0.318984 0.052432
O O3 0.935284 0.450223 0.306306
O O4 0.901044 0.544944 0.485187
O O5 0.896517 0.393732 0.576610
O O6 0.296810 0.826483 0.356484
O O7 0.368723 0.767020 0.356219
O O8 0.305692 0.681901 0.256773
O O9 0.430959 0.180303 0.883238
O O10 0.504921 0.183066 0.990622
O O11 0.384660 0.174646 0.614984
O O12 0.430615 0.295388 0.665990
O O13 0.827952 0.564232 0.592084
#
# Coordination Sequence:
#
# PCOD8187673 Si02
#       7
#     8  16  16  16  16  16  16
#     4  12  22  44  72  96 132 178 238 276 348 424
#     4  12  26  41  69 105 135 177 229 297 341 420
#     4  11  25  44  72  97 133 184 240 279 349 426
#     4  12  23  47  71  97 136 193 232 289 358 424
#     4  11  24  45  68  98 132 186 228 286 347 421
#     4  11  22  44  70  94 135 177 230 275 352 412
#     4  11  23  45  68  98 135 183 227 287 348 420
#
# _framework density 22.528831
#
# number of rings (size 3 to 8) (size 9 to 14) (size 15 to 20)
#    0.000    0.615    6.154    2.769    6.462    0.000 
#    8.308    0.000    0.000    0.000    0.000    0.000 
#    0.000    0.000    0.000    0.000    0.000    0.000 
#
# Total GULP energy -322342.800881 kJ/mol
# GULP energy per Si atom -12397.800034 kJ/mol
# Density = 2.247755 g / cm^3
# Si number density = 22.528831 Si / 1000 Ang^3
#
#
#
# Elastic Constant Matrix: (Units=GPa)
#
#
# Indices 1 2 3 4 5 6 
#
# 1 119.5061 16.5420 21.6417 0.0000 0.0000 0.0000
# 2 16.5420 55.8907 7.4125 0.0000 0.0000 0.0000
# 3 21.6417 7.4125 90.1883 0.0000 0.0000 0.0000
# 4 0.0000 0.0000 0.0000 39.0150 0.0000 0.0000
# 5 0.0000 0.0000 0.0000 0.0000 36.9107 0.0000
# 6 0.0000 0.0000 0.0000 0.0000 0.0000 24.9901
#
#
#
# Elastic Compliance Matrix: (Units=1/GPa)
#
#
# Indices 1 2 3 4 5 6 
#
# 1 0.009060 -0.002420 -0.001975 0.000000 0.000000 0.000000
# 2 -0.002420 0.018735 -0.000959 0.000000 0.000000 0.000000
# 3 -0.001975 -0.000959 0.011641 0.000000 0.000000 0.000000
# 4 0.000000 0.000000 0.000000 0.025631 0.000000 0.000000
# 5 0.000000 0.000000 0.000000 0.000000 0.027092 0.000000
# 6 0.000000 0.000000 0.000000 0.000000 0.000000 0.040016
#
#
# Mechanical properties :
#
#
# Convention : Reuss Voigt Hill
#
# Bulk Modulus (GPa) = 34.80892 39.64196 37.22544
# Shear Modulus (GPa) = 32.79540 34.84909 33.82225
#
# Velocity S-wave (km/s) = 3.81951 3.93729 3.87885
# Velocity P-wave (km/s) = 5.91066 6.18902 6.05144
#
# Compressibility (1/GPa) = 0.02872827
#
# Stress axis : x y z
#
# Youngs Moduli (GPa) = 110.37029 53.37482 85.90521
#
# Poissons Ratio (x) = 0.12915 0.16969
# Poissons Ratio (y) = 0.26706 0.08240
# Poissons Ratio (z) = 0.21801 0.05120
#
# Static dielectric constant tensor:
#      x y z
#    x 3.460100 0.000000 0.000000 
#    y 0.000000 3.826180 0.000000 
#    z 0.000000 0.000000 4.165370 
# 
# 
# High freq. dielectric constant tensor:
#      x y z
#    x 1.904870 0.000000 0.000000 
#    y 0.000000 1.871440 0.000000 
#    z 0.000000 0.000000 1.886040 
# 
# From -- ./inp_files/4756.got.cif
#   From: 2010.06.25/outbox.cif.g09.slc.cpg/sg43_3_cif.got.tgz:4756.got - 2010.06.26 16:48:59.
