data_PCOD8187313
_publ_section_title
;
Structure prediction by ZEFSAII (Michael W. Deem and Ramdas Pophale) SiO2 
 PCOD8187313
Probable space group: F D D 2
;
_chemical_formula_sum "Si O2"
_cell_formula_units_Z 96
_cell_length_a 18.170655
_cell_length_b 8.102202
_cell_length_c 27.060396
_cell_angle_alpha 90.000000
_cell_angle_beta 90.000000
_cell_angle_gamma 90.000000
_cell_volume 3983.894206
_symmetry_space_group_name_H-M "F D D 2"
_symmetry_group_IT_number 43
_symmetry_cell_setting 'orthorhombic'
loop_
_space_group_symop_operation_xyz
x,y,z
-x,-y,z
1/4-x,1/4+y,1/4+z
1/4+x,1/4-y,1/4+z
x,1/2+y,1/2+z
-x,1/2-y,1/2+z
1/4-x,3/4+y,3/4+z
1/4+x,3/4-y,3/4+z
1/2+x,y,1/2+z
1/2-x,-y,1/2+z
3/4-x,1/4+y,3/4+z
3/4+x,1/4-y,3/4+z
1/2+x,1/2+y,z
1/2-x,1/2-y,z
3/4-x,3/4+y,1/4+z
3/4+x,3/4-y,1/4+z
loop_
_atom_site_type_symbol
_atom_site_label
_atom_site_fract_x
_atom_site_fract_y
_atom_site_fract_z
Si Si1 0.000000 0.500000 0.723230
Si Si2 0.827988 0.015830 0.896714
Si Si3 0.250000 0.250000 0.260753
Si Si4 0.922529 0.748715 0.939523
Si Si5 0.633019 0.320666 0.248429
Si Si6 0.815865 0.989252 0.333585
Si Si7 0.178491 0.950252 0.148561
O O1 0.952305 0.376339 0.690747
O O2 0.950964 0.620224 0.757110
O O3 0.763529 0.991207 0.857791
O O4 0.897901 0.125051 0.876846
O O5 0.853888 0.831669 0.910995
O O6 0.294462 0.132641 0.225297
O O7 0.189021 0.161045 0.294974
O O8 0.891226 0.611062 0.976558
O O9 0.981888 0.686875 0.897293
O O10 0.670477 0.342660 0.302176
O O11 0.667656 0.443199 0.207853
O O12 0.882253 0.950528 0.372689
#
# Coordination Sequence:
#
# PCOD8187313 Si02
#       7
#     8  16   8  16  16  16  16
#     4  10  21  50  74 106 158 206 252 340 400 465
#     4  11  20  44  78 112 148 201 264 318 402 475
#     4  12  21  42  76 106 152 206 264 322 392 483
#     4  12  25  45  79 114 157 209 258 338 410 474
#     4  11  25  47  75 105 157 201 266 323 401 467
#     4  12  23  45  78 110 152 217 270 319 396 489
#     4  11  21  46  73 109 153 201 249 329 392 468
#
# _framework density 24.097027000000001
#
# number of rings (size 3 to 8) (size 9 to 14) (size 15 to 20)
#    0.000    0.667    8.333    1.500    0.000    0.667 
#    9.000    0.000    0.000    0.000    0.000    0.000 
#    0.000    0.000    0.000    0.000    0.000    0.000 
#
# Total GULP energy -297345.594656 kJ/mol
# GULP energy per Si atom -12389.399777 kJ/mol
# Density = 2.404218 g / cm^3
# Si number density = 24.097027 Si / 1000 Ang^3
#
#
#
# Elastic Constant Matrix: (Units=GPa)
#
#
# Indices 1 2 3 4 5 6 
#
# 1 139.9709 72.3751 55.3476 0.0000 0.0000 -0.0001
# 2 72.3751 132.5607 41.9139 -0.0001 0.0000 -0.0001
# 3 55.3476 41.9139 108.6826 0.0000 0.0000 0.0000
# 4 0.0000 -0.0001 0.0000 97.6102 0.0000 0.0000
# 5 0.0000 0.0000 0.0000 0.0000 78.3598 0.0000
# 6 -0.0001 -0.0001 0.0000 0.0000 0.0000 43.4734
#
#
#
# Elastic Compliance Matrix: (Units=1/GPa)
#
#
# Indices 1 2 3 4 5 6 
#
# 1 0.011184 -0.004903 -0.003805 0.000000 0.000000 0.000000
# 2 -0.004903 0.010741 -0.001645 0.000000 0.000000 0.000000
# 3 -0.003805 -0.001645 0.011773 0.000000 0.000000 0.000000
# 4 0.000000 0.000000 0.000000 0.010245 0.000000 0.000000
# 5 0.000000 0.000000 0.000000 0.000000 0.012762 0.000000
# 6 0.000000 0.000000 0.000000 0.000000 0.000000 0.023003
#
#
# Mechanical properties :
#
#
# Convention : Reuss Voigt Hill
#
# Bulk Modulus (GPa) = 76.97112 80.05414 78.51263
# Shear Modulus (GPa) = 47.73521 57.99385 52.86453
#
# Velocity S-wave (km/s) = 4.45562 4.91112 4.68890
# Velocity P-wave (km/s) = 7.64733 8.09027 7.87191
#
# Compressibility (1/GPa) = 0.01299189
#
# Stress axis : x y z
#
# Youngs Moduli (GPa) = 89.41224 93.10101 84.93895
#
# Poissons Ratio (x) = 0.45650 0.32316
# Poissons Ratio (y) = 0.43842 0.13975
# Poissons Ratio (z) = 0.34018 0.15318
#
# Static dielectric constant tensor:
#      x y z
#    x 4.960860 0.000000 0.000000 
#    y 0.000000 4.054030 0.000000 
#    z 0.000000 0.000000 4.296430 
# 
# 
# High freq. dielectric constant tensor:
#      x y z
#    x 1.963900 0.000000 0.000000 
#    y 0.000000 1.959040 0.000000 
#    z 0.000000 0.000000 1.936390 
# 
# From -- ./inp_files/26326.got.cif
#   From: 2010.06.25/outbox.cif.g09.slc.cpg/sg43_14_cif.got.tgz:26326.got - 2010.06.26 16:48:59.
