data_PCOD8187502
_publ_section_title
;
Structure prediction by ZEFSAII (Michael W. Deem and Ramdas Pophale) SiO2 
 PCOD8187502
Probable space group: F D D 2
;
_chemical_formula_sum "Si O2"
_cell_formula_units_Z 96
_cell_length_a 17.809918
_cell_length_b 8.490065
_cell_length_c 29.462731
_cell_angle_alpha 90.000000
_cell_angle_beta 90.000000
_cell_angle_gamma 90.000000
_cell_volume 4454.981816
_symmetry_space_group_name_H-M "F D D 2"
_symmetry_group_IT_number 43
_symmetry_cell_setting 'orthorhombic'
loop_
_space_group_symop_operation_xyz
x,y,z
-x,-y,z
1/4-x,1/4+y,1/4+z
1/4+x,1/4-y,1/4+z
x,1/2+y,1/2+z
-x,1/2-y,1/2+z
1/4-x,3/4+y,3/4+z
1/4+x,3/4-y,3/4+z
1/2+x,y,1/2+z
1/2-x,-y,1/2+z
3/4-x,1/4+y,3/4+z
3/4+x,1/4-y,3/4+z
1/2+x,1/2+y,z
1/2-x,1/2-y,z
3/4-x,3/4+y,1/4+z
3/4+x,3/4-y,1/4+z
loop_
_atom_site_type_symbol
_atom_site_label
_atom_site_fract_x
_atom_site_fract_y
_atom_site_fract_z
Si Si1 0.805904 0.615039 0.726710
Si Si2 0.071049 0.094969 0.373813
Si Si3 0.225667 0.927769 0.385081
Si Si4 0.974672 0.673260 0.729478
Si Si5 0.307384 0.881360 0.553572
Si Si6 0.277339 0.579430 0.796810
O O1 0.750000 0.750000 0.741862
O O2 0.803862 0.580074 0.673110
O O3 0.886909 0.678860 0.740519
O O4 0.778539 0.463802 0.755157
O O5 0.084260 0.243160 0.341272
O O6 0.137971 0.965820 0.374762
O O7 0.000000 0.000000 0.355028
O O8 0.250000 0.750000 0.397656
O O9 0.247500 0.035946 0.427906
O O10 0.272053 0.967630 0.340429
O O11 0.000000 0.500000 0.741327
O O12 0.014531 0.795760 0.761553
O O13 0.250000 0.750000 0.574222
O O14 0.385203 0.814527 0.532838
O O15 0.250000 0.750000 0.812645
#
# Coordination Sequence:
#
# PCOD8187502 Si02
#       6
#    16  16  16  16  16  16
#     4  10  23  44  68  94 131 178 222 269 337 410
#     4  10  24  44  67  99 136 179 225 281 345 405
#     4  11  25  44  70  98 134 182 226 278 344 415
#     4  11  24  44  71  98 133 176 224 280 339 405
#     4  12  26  42  67 102 138 175 229 280 338 410
#     4  12  24  43  66 100 137 175 223 281 340 405
#
# _framework density 21.548908999999998
#
# number of rings (size 3 to 8) (size 9 to 14) (size 15 to 20)
#    0.000    1.000    1.667    4.000    7.000    3.333 
#    0.000    0.000    0.000    0.000    0.000    0.000 
#    0.000    0.000    0.000    0.000    0.000    0.000 
#
# Total GULP energy -297580.275059 kJ/mol
# GULP energy per Si atom -12399.178127 kJ/mol
# Density = 2.149986 g / cm^3
# Si number density = 21.548909 Si / 1000 Ang^3
#
#
#
# Elastic Constant Matrix: (Units=GPa)
#
#
# Indices 1 2 3 4 5 6 
#
# 1 156.1123 42.4045 51.1111 0.0000 0.0000 0.0000
# 2 42.4045 83.8804 29.0174 0.0000 0.0000 0.0000
# 3 51.1111 29.0174 95.6740 0.0000 0.0000 0.0000
# 4 0.0000 0.0000 0.0000 31.3704 0.0000 0.0000
# 5 0.0000 0.0000 0.0000 0.0000 33.4954 0.0000
# 6 0.0000 0.0000 0.0000 0.0000 0.0000 38.9030
#
#
#
# Elastic Compliance Matrix: (Units=1/GPa)
#
#
# Indices 1 2 3 4 5 6 
#
# 1 0.008392 -0.003007 -0.003571 0.000000 0.000000 0.000000
# 2 -0.003007 0.014397 -0.002760 0.000000 0.000000 0.000000
# 3 -0.003571 -0.002760 0.013197 0.000000 0.000000 0.000000
# 4 0.000000 0.000000 0.000000 0.031877 0.000000 0.000000
# 5 0.000000 0.000000 0.000000 0.000000 0.029855 0.000000
# 6 0.000000 0.000000 0.000000 0.000000 0.000000 0.025705
#
#
# Mechanical properties :
#
#
# Convention : Reuss Voigt Hill
#
# Bulk Modulus (GPa) = 57.77248 64.52584 61.14916
# Shear Modulus (GPa) = 33.81400 34.96266 34.38833
#
# Velocity S-wave (km/s) = 3.96558 4.03237 3.99911
# Velocity P-wave (km/s) = 6.91635 7.18950 7.05425
#
# Compressibility (1/GPa) = 0.01730928
#
# Stress axis : x y z
#
# Youngs Moduli (GPa) = 119.16774 69.46069 75.77501
#
# Poissons Ratio (x) = 0.20886 0.27059
# Poissons Ratio (y) = 0.35832 0.20914
# Poissons Ratio (z) = 0.42554 0.19172
#
# Static dielectric constant tensor:
#      x y z
#    x 4.329240 0.000000 0.000000 
#    y 0.000000 3.868070 0.000000 
#    z 0.000000 0.000000 3.833820 
# 
# 
# High freq. dielectric constant tensor:
#      x y z
#    x 1.863750 0.000000 0.000000 
#    y 0.000000 1.842570 0.000000 
#    z 0.000000 0.000000 1.850970 
# 
# From -- ./inp_files/26311.got.cif
#   From: 2010.06.25/outbox.cif.g09.slc.cpg/sg43_14_cif.got.tgz:26311.got - 2010.06.26 16:48:59.
