data_PCOD8187553
_publ_section_title
;
Structure prediction by ZEFSAII (Michael W. Deem and Ramdas Pophale) SiO2 
 PCOD8187553
Probable space group: F D D 2
;
_chemical_formula_sum "Si O2"
_cell_formula_units_Z 96
_cell_length_a 14.824240
_cell_length_b 20.954923
_cell_length_c 14.238739
_cell_angle_alpha 90.000000
_cell_angle_beta 90.000000
_cell_angle_gamma 90.000000
_cell_volume 4423.133384
_symmetry_space_group_name_H-M "F D D 2"
_symmetry_group_IT_number 43
_symmetry_cell_setting 'orthorhombic'
loop_
_space_group_symop_operation_xyz
x,y,z
-x,-y,z
1/4-x,1/4+y,1/4+z
1/4+x,1/4-y,1/4+z
x,1/2+y,1/2+z
-x,1/2-y,1/2+z
1/4-x,3/4+y,3/4+z
1/4+x,3/4-y,3/4+z
1/2+x,y,1/2+z
1/2-x,-y,1/2+z
3/4-x,1/4+y,3/4+z
3/4+x,1/4-y,3/4+z
1/2+x,1/2+y,z
1/2-x,1/2-y,z
3/4-x,3/4+y,1/4+z
3/4+x,3/4-y,1/4+z
loop_
_atom_site_type_symbol
_atom_site_label
_atom_site_fract_x
_atom_site_fract_y
_atom_site_fract_z
Si Si1 0.986816 0.396675 0.422160
Si Si2 0.422192 0.260846 0.902660
Si Si3 0.000000 0.500000 0.565700
Si Si4 0.809345 0.406791 0.009661
Si Si5 0.500000 0.000000 0.271621
Si Si6 0.627318 0.344112 0.055989
Si Si7 0.386326 0.281349 0.472483
O O1 0.920179 0.338261 0.393801
O O2 0.014377 0.435902 0.330845
O O3 0.949186 0.446578 0.501052
O O4 0.077144 0.365725 0.461988
O O5 0.411824 0.225117 0.802029
O O6 0.509994 0.236218 0.957161
O O7 0.337429 0.237591 0.960630
O O8 0.078265 0.464167 0.624794
O O9 0.810547 0.410665 0.896053
O O10 0.879784 0.348580 0.028525
O O11 0.714975 0.389514 0.062046
O O12 0.662039 0.272671 0.034974
#
# Coordination Sequence:
#
# PCOD8187553 Si02
#       7
#    16  16   8  16   8  16  16
#     4  10  24  43  73  98 134 180 238 294 352 418
#     4  11  27  44  66 101 142 191 234 285 360 433
#     4  11  18  42  73 104 136 166 235 304 342 421
#     4  12  22  44  67 104 145 181 235 286 361 434
#     4  11  28  48  65  98 142 190 237 288 360 423
#     4  11  22  39  71 103 136 179 234 300 351 421
#     4  11  22  39  69 105 134 177 233 287 361 411
#
# _framework density 21.704070999999999
#
# number of rings (size 3 to 8) (size 9 to 14) (size 15 to 20)
#    0.000    1.000    5.000    0.000    9.333    2.667 
#    3.000    0.000    0.000    0.000    0.000    0.000 
#    0.000    0.000    0.000    0.000    0.000    0.000 
#
# Total GULP energy -297377.493293 kJ/mol
# GULP energy per Si atom -12390.728887 kJ/mol
# Density = 2.165467 g / cm^3
# Si number density = 21.704071 Si / 1000 Ang^3
#
#
#
# Elastic Constant Matrix: (Units=GPa)
#
#
# Indices 1 2 3 4 5 6 
#
# 1 99.3306 24.2826 42.9041 0.0000 0.0000 0.0000
# 2 24.2826 170.8481 57.0070 0.0000 0.0000 0.0000
# 3 42.9041 57.0070 97.7238 0.0000 0.0000 0.0000
# 4 0.0000 0.0000 0.0000 43.0648 0.0000 0.0000
# 5 0.0000 0.0000 0.0000 0.0000 35.7050 0.0000
# 6 0.0000 0.0000 0.0000 0.0000 0.0000 27.5831
#
#
#
# Elastic Compliance Matrix: (Units=1/GPa)
#
#
# Indices 1 2 3 4 5 6 
#
# 1 0.012424 0.000067 -0.005494 0.000000 0.000000 0.000000
# 2 0.000067 0.007268 -0.004269 0.000000 0.000000 0.000000
# 3 -0.005494 -0.004269 0.015135 0.000000 0.000000 0.000000
# 4 0.000000 0.000000 0.000000 0.023221 0.000000 0.000000
# 5 0.000000 0.000000 0.000000 0.000000 0.028007 0.000000
# 6 0.000000 0.000000 0.000000 0.000000 0.000000 0.036254
#
#
# Mechanical properties :
#
#
# Convention : Reuss Voigt Hill
#
# Bulk Modulus (GPa) = 64.78487 68.47666 66.63077
# Shear Modulus (GPa) = 34.04913 37.51785 35.78349
#
# Velocity S-wave (km/s) = 3.96509 4.16216 4.06482
# Velocity P-wave (km/s) = 7.13278 7.39708 7.26613
#
# Compressibility (1/GPa) = 0.01543570
#
# Stress axis : x y z
#
# Youngs Moduli (GPa) = 80.49021 137.58629 66.07013
#
# Poissons Ratio (x) = -0.00926 0.36297
# Poissons Ratio (y) = -0.00542 0.28208
# Poissons Ratio (z) = 0.44219 0.58741
#
# Static dielectric constant tensor:
#      x y z
#    x 3.500250 0.000000 0.000000 
#    y 0.000000 4.597370 0.000000 
#    z 0.000000 0.000000 3.751460 
# 
# 
# High freq. dielectric constant tensor:
#      x y z
#    x 1.826470 0.000000 0.000000 
#    y 0.000000 1.885120 0.000000 
#    z 0.000000 0.000000 1.834770 
# 
# From -- ./inp_files/10162.got.cif
#   From: 2010.06.25/outbox.cif.g09.slc.cpg/sg43_6_cif.got.tgz:10162.got - 2010.06.26 16:48:59.
