data_PCOD8187991
_publ_section_title
;
Structure prediction by ZEFSAII (Michael W. Deem and Ramdas Pophale) SiO2 
 PCOD8187991
Probable space group: I M M 2
;
_chemical_formula_sum "Si O2"
_cell_formula_units_Z 52
_cell_length_a 7.817408
_cell_length_b 17.267155
_cell_length_c 24.511638
_cell_angle_alpha 90.000000
_cell_angle_beta 90.000000
_cell_angle_gamma 90.000000
_cell_volume 3308.688641
_symmetry_space_group_name_H-M "I M M 2"
_symmetry_group_IT_number 44
_symmetry_cell_setting 'orthorhombic'
loop_
_space_group_symop_operation_xyz
x,y,z
-x,-y,z
-x,y,z
x,-y,z
1/2+x,1/2+y,1/2+z
1/2-x,1/2-y,1/2+z
1/2-x,1/2+y,1/2+z
1/2+x,1/2-y,1/2+z
loop_
_atom_site_type_symbol
_atom_site_label
_atom_site_fract_x
_atom_site_fract_y
_atom_site_fract_z
Si Si1 0.000000 0.408708 0.055120
Si Si2 0.811698 0.727028 0.408322
Si Si3 0.189930 0.911204 0.630032
Si Si4 0.000000 0.315985 0.944996
Si Si5 0.308956 0.681745 0.795806
Si Si6 0.801397 0.089053 0.843296
Si Si7 0.194279 0.333106 0.234849
Si Si8 0.500000 0.909184 0.332469
O O1 0.830051 0.380989 0.087016
O O2 0.000000 0.500000 0.046432
O O3 0.000000 0.371723 0.996056
O O4 0.668173 0.761678 0.448378
O O5 0.808059 0.774319 0.352705
O O6 0.774150 0.637609 0.393905
O O7 0.000000 0.733492 0.435796
O O8 0.189356 0.860956 0.685090
O O9 0.000000 0.903833 0.604038
O O10 0.231208 0.000000 0.645755
O O11 0.000000 0.367380 0.890642
O O12 0.500000 0.647725 0.784695
O O13 0.257159 0.744517 0.749792
O O14 0.168576 0.613692 0.797508
O O15 0.713224 0.110755 0.786531
O O16 0.000000 0.108717 0.837200
O O17 0.765902 0.000000 0.856861
O O18 0.000000 0.337998 0.214838
O O19 0.500000 0.000000 0.342460
#
# Coordination Sequence:
#
# PCOD8187991 Si02
#       8
#     4   8   8   4   8   8   8   4
#     4  10  21  36  50  67  93 124 161 204 239 270
#     4   9  17  30  46  65  90 122 157 194 234 273
#     4  10  20  32  46  67  96 127 159 196 229 262
#     4  10  19  34  51  64  88 122 160 204 239 274
#     4   8  17  29  42  65  93 119 151 188 224 271
#     4  10  18  26  40  67 101 132 160 187 220 272
#     4  10  18  28  44  66  95 133 163 184 222 273
#     4  10  19  30  48  69  89 120 155 188 235 282
#
# _framework density 15.716196
#
# number of rings (size 3 to 8) (size 9 to 14) (size 15 to 20)
#    0.000    2.462    1.538    2.538    4.308    4.000 
#    0.000    0.000    0.000    2.769    0.000    0.000 
#    0.000    2.462    0.308    0.000    0.000    0.000 
#
# Total GULP energy -322326.001200 kJ/mol
# GULP energy per Si atom -12397.153892 kJ/mol
# Density = 1.568043 g / cm^3
# Si number density = 15.716196 Si / 1000 Ang^3
#
#
#
# Elastic Constant Matrix: (Units=GPa)
#
#
# Indices 1 2 3 4 5 6 
#
# 1 117.6725 44.4128 33.2361 0.0000 0.0000 0.0000
# 2 44.4128 68.0157 22.4484 0.0000 0.0000 0.0000
# 3 33.2361 22.4484 54.0501 0.0000 0.0000 0.0000
# 4 0.0000 0.0000 0.0000 24.2136 0.0000 0.0000
# 5 0.0000 0.0000 0.0000 0.0000 15.1559 0.0000
# 6 0.0000 0.0000 0.0000 0.0000 0.0000 19.5061
#
#
#
# Elastic Compliance Matrix: (Units=1/GPa)
#
#
# Indices 1 2 3 4 5 6 
#
# 1 0.012304 -0.006417 -0.004901 0.000000 0.000000 0.000000
# 2 -0.006417 0.020385 -0.004520 0.000000 0.000000 0.000000
# 3 -0.004901 -0.004520 0.023392 0.000000 0.000000 0.000000
# 4 0.000000 0.000000 0.000000 0.041299 0.000000 0.000000
# 5 0.000000 0.000000 0.000000 0.000000 0.065981 0.000000
# 6 0.000000 0.000000 0.000000 0.000000 0.000000 0.051266
#
#
# Mechanical properties :
#
#
# Convention : Reuss Voigt Hill
#
# Bulk Modulus (GPa) = 40.97556 48.88143 44.92849
# Shear Modulus (GPa) = 19.65108 21.08452 20.36780
#
# Velocity S-wave (km/s) = 3.53990 3.66673 3.60387
# Velocity P-wave (km/s) = 6.54497 7.00690 6.77987
#
# Compressibility (1/GPa) = 0.02440479
#
# Stress axis : x y z
#
# Youngs Moduli (GPa) = 81.27213 49.05684 42.74879
#
# Poissons Ratio (x) = 0.31479 0.20951
# Poissons Ratio (y) = 0.52152 0.19324
# Poissons Ratio (z) = 0.39831 0.22175
#
# Static dielectric constant tensor:
#      x y z
#    x 3.395120 0.000000 0.000000 
#    y 0.000000 2.858450 0.000000 
#    z 0.000000 0.000000 2.594010 
# 
# 
# High freq. dielectric constant tensor:
#      x y z
#    x 1.628440 0.000000 0.000000 
#    y 0.000000 1.583520 0.000000 
#    z 0.000000 0.000000 1.553150 
# 
# From -- ./inp_files/22980.got.cif
#   From: 2010.03.12/outbox.cif.g09.slc.cpg/sg44_12_cif.got.tgz:22980.got - 2010.04.14 02:36:11.
