data_PCOD8187957
_publ_section_title
;
Structure prediction by ZEFSAII (Michael W. Deem and Ramdas Pophale) SiO2 
 PCOD8187957
Probable space group: I M M 2
;
_chemical_formula_sum "Si O2"
_cell_formula_units_Z 48
_cell_length_a 13.285139
_cell_length_b 19.270815
_cell_length_c 9.425246
_cell_angle_alpha 90.000000
_cell_angle_beta 90.000000
_cell_angle_gamma 90.000000
_cell_volume 2413.008652
_symmetry_space_group_name_H-M "I M M 2"
_symmetry_group_IT_number 44
_symmetry_cell_setting 'orthorhombic'
loop_
_space_group_symop_operation_xyz
x,y,z
-x,-y,z
-x,y,z
x,-y,z
1/2+x,1/2+y,1/2+z
1/2-x,1/2-y,1/2+z
1/2-x,1/2+y,1/2+z
1/2+x,1/2-y,1/2+z
loop_
_atom_site_type_symbol
_atom_site_label
_atom_site_fract_x
_atom_site_fract_y
_atom_site_fract_z
Si Si1 0.115442 0.850081 0.655830
Si Si2 0.115054 0.000000 0.709901
Si Si3 0.885201 0.500000 0.695595
Si Si4 0.113795 0.787776 0.355129
Si Si5 0.615054 0.000000 0.857028
Si Si6 0.258830 0.614995 0.662248
Si Si7 0.882873 0.000000 0.025047
Si Si8 0.795835 0.353650 0.355486
O O1 0.138082 0.931369 0.617812
O O2 0.137594 0.803262 0.519861
O O3 0.189404 0.831348 0.785298
O O4 0.000000 0.840068 0.707928
O O5 0.169814 0.000000 0.866986
O O6 0.000000 0.000000 0.755587
O O7 0.876994 0.500000 0.525894
O O8 0.826791 0.430387 0.745507
O O9 0.000000 0.500000 0.751267
O O10 0.197137 0.828277 0.266613
O O11 0.123436 0.706245 0.319357
O O12 0.000000 0.811490 0.318342
O O13 0.666457 0.070991 0.798297
O O14 0.500000 0.000000 0.805878
O O15 0.349813 0.567294 0.610019
O O16 0.211105 0.651095 0.525173
O O17 0.000000 0.000000 0.014970
#
# Coordination Sequence:
#
# PCOD8187957 Si02
#       8
#     8   4   4   8   4   8   4   8
#     4  10  21  36  56  82 113 148 184 227 284 342
#     4   9  16  30  54  80 105 140 182 225 267 327
#     4   8  17  34  58  85 110 139 186 237 276 323
#     4  11  24  38  52  80 120 152 181 233 294 344
#     4   9  18  34  60  87 106 138 190 244 285 326
#     4  10  20  34  58  85 110 145 189 234 282 330
#     4  10  17  30  55  84 109 139 185 236 273 320
#     4  11  20  37  59  82 108 147 195 235 279 339
#
# _framework density 19.892178999999999
#
# number of rings (size 3 to 8) (size 9 to 14) (size 15 to 20)
#    0.000    2.000    1.667    3.000    0.000    2.667 
#    0.000    3.333    0.000    3.000    0.000    0.000 
#    0.000    0.000    0.000    0.000    0.000    0.000 
#
# Total GULP energy -297451.899662 kJ/mol
# GULP energy per Si atom -12393.829153 kJ/mol
# Density = 1.984690 g / cm^3
# Si number density = 19.892179 Si / 1000 Ang^3
#
#
#
# Elastic Constant Matrix: (Units=GPa)
#
#
# Indices 1 2 3 4 5 6 
#
# 1 112.6882 52.8537 33.1335 0.0000 0.0000 0.0000
# 2 52.8537 130.3197 33.2878 -0.0001 0.0000 0.0000
# 3 33.1335 33.2878 43.9067 -0.0003 -0.0002 -0.0001
# 4 0.0000 -0.0001 -0.0003 21.7260 -0.0001 0.0000
# 5 0.0000 0.0000 -0.0002 -0.0001 21.7937 0.0000
# 6 0.0000 0.0000 -0.0001 0.0000 0.0000 26.5519
#
#
#
# Elastic Compliance Matrix: (Units=1/GPa)
#
#
# Indices 1 2 3 4 5 6 
#
# 1 0.012443 -0.003284 -0.006900 0.000000 0.000000 0.000000
# 2 -0.003284 0.010383 -0.005394 0.000000 0.000000 0.000000
# 3 -0.006900 -0.005394 0.032072 0.000000 0.000000 0.000000
# 4 0.000000 0.000000 0.000000 0.046028 0.000000 0.000000
# 5 0.000000 0.000000 0.000000 0.000000 0.045885 0.000000
# 6 0.000000 0.000000 0.000000 0.000000 0.000000 0.037662
#
#
# Mechanical properties :
#
#
# Convention : Reuss Voigt Hill
#
# Bulk Modulus (GPa) = 42.11901 58.38496 50.25198
# Shear Modulus (GPa) = 22.36708 25.19030 23.77869
#
# Velocity S-wave (km/s) = 3.35687 3.56243 3.46118
# Velocity P-wave (km/s) = 6.02033 6.80703 6.42573
#
# Compressibility (1/GPa) = 0.02374225
#
# Stress axis : x y z
#
# Youngs Moduli (GPa) = 80.36501 96.31078 31.17995
#
# Poissons Ratio (x) = 0.31629 0.21515
# Poissons Ratio (y) = 0.26392 0.16817
# Poissons Ratio (z) = 0.55454 0.51946
#
# Static dielectric constant tensor:
#      x y z
#    x 3.740390 0.000000 0.000000 
#    y 0.000000 3.774460 0.000000 
#    z 0.000000 0.000000 3.170270 
# 
# 
# High freq. dielectric constant tensor:
#      x y z
#    x 1.784060 0.000000 0.000000 
#    y 0.000000 1.783090 0.000000 
#    z 0.000000 0.000000 1.728650 
# 
# From -- ./inp_files/7179.got.cif
#   From: 2010.03.12/outbox.cif.g09.slc.cpg/sg44_4_cif.got.tgz:7179.got - 2010.04.14 02:36:11.
