data_PCOD8187850
_publ_section_title
;
Structure prediction by ZEFSAII (Michael W. Deem and Ramdas Pophale) SiO2 
 PCOD8187850
Probable space group: F D D 2
;
_chemical_formula_sum "Si O2"
_cell_formula_units_Z 112
_cell_length_a 23.112338
_cell_length_b 13.780619
_cell_length_c 14.509498
_cell_angle_alpha 90.000000
_cell_angle_beta 90.000000
_cell_angle_gamma 90.000000
_cell_volume 4621.308836
_symmetry_space_group_name_H-M "F D D 2"
_symmetry_group_IT_number 43
_symmetry_cell_setting 'orthorhombic'
loop_
_space_group_symop_operation_xyz
x,y,z
-x,-y,z
1/4-x,1/4+y,1/4+z
1/4+x,1/4-y,1/4+z
x,1/2+y,1/2+z
-x,1/2-y,1/2+z
1/4-x,3/4+y,3/4+z
1/4+x,3/4-y,3/4+z
1/2+x,y,1/2+z
1/2-x,-y,1/2+z
3/4-x,1/4+y,3/4+z
3/4+x,1/4-y,3/4+z
1/2+x,1/2+y,z
1/2-x,1/2-y,z
3/4-x,3/4+y,1/4+z
3/4+x,3/4-y,1/4+z
loop_
_atom_site_type_symbol
_atom_site_label
_atom_site_fract_x
_atom_site_fract_y
_atom_site_fract_z
Si Si1 0.009325 0.895694 0.940220
Si Si2 0.689904 0.973385 0.448856
Si Si3 0.356104 0.347569 0.051244
Si Si4 0.893896 0.402431 0.001129
Si Si5 0.810096 0.473385 0.853516
Si Si6 0.661300 0.000000 0.151186
Si Si7 0.740675 0.854306 0.612153
O O1 0.043783 0.912467 0.846002
O O2 0.949600 0.846791 0.909665
O O3 0.045847 0.830406 0.008875
O O4 0.000000 0.000000 0.987932
O O5 0.656488 0.898993 0.379901
O O6 0.750000 0.008674 0.401186
O O7 0.704153 0.919594 0.543498
O O8 0.647082 0.060762 0.480162
O O9 0.370393 0.250968 0.991422
O O10 0.897082 0.310762 0.072210
O O11 0.879607 0.499032 0.060950
O O12 0.843512 0.398993 0.922472
O O13 0.956217 0.412467 0.956371
O O14 0.699600 0.096791 0.142707
O O15 0.750000 0.750000 0.564441
#
# Coordination Sequence:
#
# PCOD8187850 Si02
#       7
#    16  16  16  16  16  16  16
#     4  12  26  49  77 112 157 200 262 325 393 475
#     4  12  26  51  79 113 157 201 264 325 397 474
#     4  12  26  47  80 108 156 206 254 326 391 467
#     4  12  26  47  80 108 156 206 254 326 391 467
#     4  12  26  51  79 113 157 201 264 325 397 474
#     4  12  26  52  71 114 153 198 268 312 394 472
#     4  12  26  49  77 112 157 200 262 325 393 475
#
# _framework density 24.235557
#
# number of rings (size 3 to 8) (size 9 to 14) (size 15 to 20)
#    0.000    0.000    5.714    2.571    0.000    9.714 
#    0.000    0.000    0.000    0.000    0.000    0.000 
#    0.000    0.000    0.000    0.000    0.000    0.000 
#
# Total GULP energy -347061.368377 kJ/mol
# GULP energy per Si atom -12395.048871 kJ/mol
# Density = 2.418040 g / cm^3
# Si number density = 24.235557 Si / 1000 Ang^3
#
#
#
# Elastic Constant Matrix: (Units=GPa)
#
#
# Indices 1 2 3 4 5 6 
#
# 1 112.3685 40.2617 69.8781 0.0000 0.0000 0.0000
# 2 40.2617 119.8555 50.8838 0.0000 0.0000 0.0000
# 3 69.8781 50.8838 155.5208 0.0000 0.0000 0.0000
# 4 0.0000 0.0000 0.0000 22.2117 0.0000 0.0000
# 5 0.0000 0.0000 0.0000 0.0000 17.8945 0.0000
# 6 0.0000 0.0000 0.0000 0.0000 0.0000 33.2407
#
#
#
# Elastic Compliance Matrix: (Units=1/GPa)
#
#
# Indices 1 2 3 4 5 6 
#
# 1 0.012814 -0.002160 -0.005051 0.000000 0.000000 0.000000
# 2 -0.002160 0.010053 -0.002319 0.000000 0.000000 0.000000
# 3 -0.005051 -0.002319 0.009458 0.000000 0.000000 0.000000
# 4 0.000000 0.000000 0.000000 0.045021 0.000000 0.000000
# 5 0.000000 0.000000 0.000000 0.000000 0.055883 0.000000
# 6 0.000000 0.000000 0.000000 0.000000 0.000000 0.030084
#
#
# Mechanical properties :
#
#
# Convention : Reuss Voigt Hill
#
# Bulk Modulus (GPa) = 75.37959 78.86578 77.12269
# Shear Modulus (GPa) = 26.76727 29.78414 28.27571
#
# Velocity S-wave (km/s) = 3.32695 3.50943 3.41941
# Velocity P-wave (km/s) = 6.77706 7.00239 6.89065
#
# Compressibility (1/GPa) = 0.01326619
#
# Stress axis : x y z
#
# Youngs Moduli (GPa) = 78.03799 99.46859 105.72964
#
# Poissons Ratio (x) = 0.21488 0.53403
# Poissons Ratio (y) = 0.16858 0.24515
# Poissons Ratio (z) = 0.39416 0.23064
#
# Static dielectric constant tensor:
#      x y z
#    x 4.520960 0.000000 0.000000 
#    y 0.000000 4.698850 0.000000 
#    z 0.000000 0.000000 4.636280 
# 
# 
# High freq. dielectric constant tensor:
#      x y z
#    x 1.979230 0.000000 0.000000 
#    y 0.000000 1.943860 0.000000 
#    z 0.000000 0.000000 1.977100 
# 
# From -- ./inp_files/11276.got.cif
#   From: 2010.06.25/outbox.cif.g09.slc.cpg/sg43_6_cif.got.tgz:11276.got - 2010.06.26 16:48:59.
