data_PCOD8187811
_publ_section_title
;
Structure prediction by ZEFSAII (Michael W. Deem and Ramdas Pophale) SiO2 
 PCOD8187811
Probable space group: F D D 2
;
_chemical_formula_sum "Si O2"
_cell_formula_units_Z 120
_cell_length_a 19.400331
_cell_length_b 12.759430
_cell_length_c 21.689071
_cell_angle_alpha 90.000000
_cell_angle_beta 90.000000
_cell_angle_gamma 90.000000
_cell_volume 5368.851155
_symmetry_space_group_name_H-M "F D D 2"
_symmetry_group_IT_number 43
_symmetry_cell_setting 'orthorhombic'
loop_
_space_group_symop_operation_xyz
x,y,z
-x,-y,z
1/4-x,1/4+y,1/4+z
1/4+x,1/4-y,1/4+z
x,1/2+y,1/2+z
-x,1/2-y,1/2+z
1/4-x,3/4+y,3/4+z
1/4+x,3/4-y,3/4+z
1/2+x,y,1/2+z
1/2-x,-y,1/2+z
3/4-x,1/4+y,3/4+z
3/4+x,1/4-y,3/4+z
1/2+x,1/2+y,z
1/2-x,1/2-y,z
3/4-x,3/4+y,1/4+z
3/4+x,3/4-y,1/4+z
loop_
_atom_site_type_symbol
_atom_site_label
_atom_site_fract_x
_atom_site_fract_y
_atom_site_fract_z
Si Si1 0.148232 0.090855 0.548850
Si Si2 0.876680 0.684464 0.581609
Si Si3 0.960162 0.313778 0.737437
Si Si4 0.000000 0.500000 0.358313
Si Si5 0.522338 0.613665 0.107381
Si Si6 0.441930 0.790722 0.411596
Si Si7 0.458942 0.895877 0.943878
Si Si8 0.353743 0.853180 0.521885
O O1 0.144410 0.194943 0.589695
O O2 0.212164 0.097679 0.502205
O O3 0.159637 0.995753 0.596367
O O4 0.077989 0.083508 0.509380
O O5 0.844676 0.640212 0.518945
O O6 0.847342 0.622869 0.640766
O O7 0.958672 0.674979 0.577171
O O8 0.947613 0.320572 0.664481
O O9 0.950346 0.195331 0.759572
O O10 0.016736 0.600232 0.401528
O O11 0.066328 0.481710 0.314817
O O12 0.500000 0.500000 0.131522
O O13 0.579739 0.599355 0.055519
O O14 0.492393 0.705923 0.443387
O O15 0.377403 0.803366 0.457403
O O16 0.500000 0.000000 0.926430
#
# Coordination Sequence:
#
# PCOD8187811 Si02
#       8
#    16  16  16   8  16  16  16  16
#     4  12  25  45  74 107 144 196 246 313 384 449
#     4  12  23  45  74 105 147 192 247 316 377 444
#     4  12  24  46  72 106 148 192 250 313 382 444
#     4  12  28  52  78 104 164 206 252 312 390 472
#     4  12  26  44  74 113 148 197 259 316 376 456
#     4  12  28  49  75 112 153 204 256 312 386 469
#     4  12  25  47  75 109 151 191 251 317 380 450
#     4  12  28  48  74 108 153 203 252 309 387 463
#
# _framework density 22.351151000000002
#
# number of rings (size 3 to 8) (size 9 to 14) (size 15 to 20)
#    0.000    0.000    6.667    2.800    2.800    3.200 
#    3.600    0.000    0.000    0.000    0.000    0.000 
#    0.000    0.000    0.000    0.000    0.000    0.000 
#
# Total GULP energy -372207.926309 kJ/mol
# GULP energy per Si atom -12406.930877 kJ/mol
# Density = 2.230028 g / cm^3
# Si number density = 22.351151 Si / 1000 Ang^3
#
#
#
# Elastic Constant Matrix: (Units=GPa)
#
#
# Indices 1 2 3 4 5 6 
#
# 1 111.0821 41.7798 44.8424 0.0000 0.0000 0.0000
# 2 41.7798 122.3828 23.0974 0.0000 0.0000 0.0000
# 3 44.8424 23.0974 101.4639 0.0000 0.0000 0.0000
# 4 0.0000 0.0000 0.0000 28.6580 0.0000 0.0000
# 5 0.0000 0.0000 0.0000 0.0000 46.5960 0.0000
# 6 0.0000 0.0000 0.0000 0.0000 0.0000 35.6400
#
#
#
# Elastic Compliance Matrix: (Units=1/GPa)
#
#
# Indices 1 2 3 4 5 6 
#
# 1 0.012084 -0.003257 -0.004599 0.000000 0.000000 0.000000
# 2 -0.003257 0.009416 -0.000704 0.000000 0.000000 0.000000
# 3 -0.004599 -0.000704 0.012049 0.000000 0.000000 0.000000
# 4 0.000000 0.000000 0.000000 0.034894 0.000000 0.000000
# 5 0.000000 0.000000 0.000000 0.000000 0.021461 0.000000
# 6 0.000000 0.000000 0.000000 0.000000 0.000000 0.028058
#
#
# Mechanical properties :
#
#
# Convention : Reuss Voigt Hill
#
# Bulk Modulus (GPa) = 60.87190 61.59645 61.23418
# Shear Modulus (GPa) = 35.57230 37.19277 36.38253
#
# Velocity S-wave (km/s) = 3.99371 4.08367 4.03894
# Velocity P-wave (km/s) = 6.96849 7.06070 7.01474
#
# Compressibility (1/GPa) = 0.01642794
#
# Stress axis : x y z
#
# Youngs Moduli (GPa) = 82.75347 106.20296 82.99764
#
# Poissons Ratio (x) = 0.34594 0.38171
# Poissons Ratio (y) = 0.26956 0.05842
# Poissons Ratio (z) = 0.38059 0.07475
#
# Static dielectric constant tensor:
#      x y z
#    x 4.018350 0.000000 0.000000 
#    y 0.000000 3.957110 0.000000 
#    z 0.000000 0.000000 3.921330 
# 
# 
# High freq. dielectric constant tensor:
#      x y z
#    x 1.885400 0.000000 0.000000 
#    y 0.000000 1.882730 0.000000 
#    z 0.000000 0.000000 1.886570 
# 
# From -- ./inp_files/22461.got.cif
#   From: 2010.06.25/outbox.cif.g09.slc.cpg/sg43_12_cif.got.tgz:22461.got - 2010.06.26 16:48:59.
