data_PCOD8187817
_publ_section_title
;
Structure prediction by ZEFSAII (Michael W. Deem and Ramdas Pophale) SiO2 
 PCOD8187817
Probable space group: F D D 2
;
_chemical_formula_sum "Si O2"
_cell_formula_units_Z 88
_cell_length_a 19.301974
_cell_length_b 14.916918
_cell_length_c 13.252534
_cell_angle_alpha 90.000000
_cell_angle_beta 90.000000
_cell_angle_gamma 90.000000
_cell_volume 3815.748619
_symmetry_space_group_name_H-M "F D D 2"
_symmetry_group_IT_number 43
_symmetry_cell_setting 'orthorhombic'
loop_
_space_group_symop_operation_xyz
x,y,z
-x,-y,z
1/4-x,1/4+y,1/4+z
1/4+x,1/4-y,1/4+z
x,1/2+y,1/2+z
-x,1/2-y,1/2+z
1/4-x,3/4+y,3/4+z
1/4+x,3/4-y,3/4+z
1/2+x,y,1/2+z
1/2-x,-y,1/2+z
3/4-x,1/4+y,3/4+z
3/4+x,1/4-y,3/4+z
1/2+x,1/2+y,z
1/2-x,1/2-y,z
3/4-x,3/4+y,1/4+z
3/4+x,3/4-y,1/4+z
loop_
_atom_site_type_symbol
_atom_site_label
_atom_site_fract_x
_atom_site_fract_y
_atom_site_fract_z
Si Si1 0.250000 0.250000 0.584641
Si Si2 0.124983 0.468512 0.950029
Si Si3 0.545940 0.883292 0.657437
Si Si4 0.671895 0.024370 0.152142
Si Si5 0.090548 0.160565 0.095774
Si Si6 0.422722 0.261384 0.320931
O O1 0.188271 0.279485 0.659063
O O2 0.230805 0.163746 0.517822
O O3 0.191983 0.525199 0.913056
O O4 0.115771 0.371130 0.901739
O O5 0.129357 0.464366 0.071500
O O6 0.481143 0.897226 0.581246
O O7 0.613718 0.938640 0.633873
O O8 0.657228 0.986477 0.262058
O O9 0.753310 0.027844 0.124138
O O10 0.156212 0.095005 0.082667
O O11 0.085340 0.207145 0.205445
#
# Coordination Sequence:
#
# PCOD8187817 Si02
#       6
#     8  16  16  16  16  16
#     4  12  24  46  76 112 144 202 260 322 378 444
#     4  12  25  48  71 114 151 193 262 309 385 453
#     4  12  24  44  79 111 143 194 258 325 369 451
#     4  12  28  47  76 112 157 207 250 318 397 463
#     4  12  25  48  71 112 155 199 254 314 391 465
#     4  12  26  47  78 110 152 201 258 316 385 464
#
# _framework density 23.062317
#
# number of rings (size 3 to 8) (size 9 to 14) (size 15 to 20)
#    0.000    0.000    5.455    4.364    2.545    1.455 
#    3.273    1.818    0.000    0.000    0.000    0.000 
#    0.000    0.000    0.000    0.000    0.000    0.000 
#
# Total GULP energy -272565.871057 kJ/mol
# GULP energy per Si atom -12389.357775 kJ/mol
# Density = 2.300983 g / cm^3
# Si number density = 23.062317 Si / 1000 Ang^3
#
#
#
# Elastic Constant Matrix: (Units=GPa)
#
#
# Indices 1 2 3 4 5 6 
#
# 1 95.9699 47.7482 29.3761 0.0000 0.0000 0.0000
# 2 47.7482 111.9576 27.8534 0.0000 0.0000 0.0000
# 3 29.3761 27.8534 107.0373 0.0000 0.0000 0.0000
# 4 0.0000 0.0000 0.0000 32.9228 0.0000 0.0000
# 5 0.0000 0.0000 0.0000 0.0000 39.2821 0.0000
# 6 0.0000 0.0000 0.0000 0.0000 0.0000 45.5095
#
#
#
# Elastic Compliance Matrix: (Units=1/GPa)
#
#
# Indices 1 2 3 4 5 6 
#
# 1 0.013784 -0.005279 -0.002409 0.000000 0.000000 0.000000
# 2 -0.005279 0.011572 -0.001562 0.000000 0.000000 0.000000
# 3 -0.002409 -0.001562 0.010410 0.000000 0.000000 0.000000
# 4 0.000000 0.000000 0.000000 0.030374 0.000000 0.000000
# 5 0.000000 0.000000 0.000000 0.000000 0.025457 0.000000
# 6 0.000000 0.000000 0.000000 0.000000 0.000000 0.021973
#
#
# Mechanical properties :
#
#
# Convention : Reuss Voigt Hill
#
# Bulk Modulus (GPa) = 57.92183 58.32447 58.12315
# Shear Modulus (GPa) = 36.27716 37.54200 36.90958
#
# Velocity S-wave (km/s) = 3.97042 4.03904 4.00488
# Velocity P-wave (km/s) = 6.79624 6.86270 6.82955
#
# Compressibility (1/GPa) = 0.01726465
#
# Stress axis : x y z
#
# Youngs Moduli (GPa) = 72.54784 86.41395 96.05854
#
# Poissons Ratio (x) = 0.45620 0.23142
# Poissons Ratio (y) = 0.38300 0.15009
# Poissons Ratio (z) = 0.17478 0.13502
#
# Static dielectric constant tensor:
#      x y z
#    x 4.600040 0.000000 0.000000 
#    y 0.000000 4.219050 0.000000 
#    z 0.000000 0.000000 4.279960 
# 
# 
# High freq. dielectric constant tensor:
#      x y z
#    x 1.918470 0.000000 0.000000 
#    y 0.000000 1.917070 0.000000 
#    z 0.000000 0.000000 1.914770 
# 
# From -- ./inp_files/10885.got.cif
#   From: 2010.06.25/outbox.cif.g09.slc.cpg/sg43_6_cif.got.tgz:10885.got - 2010.06.26 16:48:59.
