data_PCOD8187405
_publ_section_title
;
Structure prediction by ZEFSAII (Michael W. Deem and Ramdas Pophale) SiO2 
 PCOD8187405
Probable space group: F D D 2
;
_chemical_formula_sum "Si O2"
_cell_formula_units_Z 88
_cell_length_a 11.580087
_cell_length_b 25.746705
_cell_length_c 11.987994
_cell_angle_alpha 90.000000
_cell_angle_beta 90.000000
_cell_angle_gamma 90.000000
_cell_volume 3574.209428
_symmetry_space_group_name_H-M "F D D 2"
_symmetry_group_IT_number 43
_symmetry_cell_setting 'orthorhombic'
loop_
_space_group_symop_operation_xyz
x,y,z
-x,-y,z
1/4-x,1/4+y,1/4+z
1/4+x,1/4-y,1/4+z
x,1/2+y,1/2+z
-x,1/2-y,1/2+z
1/4-x,3/4+y,3/4+z
1/4+x,3/4-y,3/4+z
1/2+x,y,1/2+z
1/2-x,-y,1/2+z
3/4-x,1/4+y,3/4+z
3/4+x,1/4-y,3/4+z
1/2+x,1/2+y,z
1/2-x,1/2-y,z
3/4-x,3/4+y,1/4+z
3/4+x,3/4-y,1/4+z
loop_
_atom_site_type_symbol
_atom_site_label
_atom_site_fract_x
_atom_site_fract_y
_atom_site_fract_z
Si Si1 0.014592 0.367000 0.066000
Si Si2 0.370349 0.731727 0.520474
Si Si3 0.545658 0.593806 0.129318
Si Si4 0.029350 0.437790 0.868694
Si Si5 0.286231 0.080592 0.198527
Si Si6 0.750000 0.750000 0.234836
O O1 0.098740 0.327952 0.995148
O O2 0.092114 0.395101 0.159358
O O3 0.915777 0.328819 0.118296
O O4 0.970668 0.410485 0.977329
O O5 0.250000 0.750000 0.463826
O O6 0.465376 0.768657 0.464949
O O7 0.361273 0.740126 0.655196
O O8 0.520771 0.589436 0.259406
O O9 0.684285 0.591402 0.111724
O O10 0.477697 0.549166 0.062829
O O11 0.506538 0.647196 0.072169
O O12 0.000000 0.500000 0.870841
#
# Coordination Sequence:
#
# PCOD8187405 Si02
#       6
#    16  16  16  16  16   8
#     4  12  26  46  75 108 148 195 252 310 380 463
#     4  10  22  42  69 104 140 184 246 307 369 444
#     4  12  23  46  71 106 146 197 250 311 377 461
#     4  12  28  48  70 108 155 197 248 316 394 453
#     4  12  24  45  76 105 144 198 253 307 377 455
#     4  10  22  42  74  98 144 188 246 308 368 452
#
# _framework density 24.620830000000002
#
# number of rings (size 3 to 8) (size 9 to 14) (size 15 to 20)
#    0.545    0.000    2.727    6.545    0.000    2.182 
#    0.000    1.818    0.000    0.000    0.000    0.000 
#    0.000    0.000    0.000    0.000    0.000    0.000 
#
# Total GULP energy -272565.360785 kJ/mol
# GULP energy per Si atom -12389.334581 kJ/mol
# Density = 2.456479 g / cm^3
# Si number density = 24.620830 Si / 1000 Ang^3
#
#
#
# Elastic Constant Matrix: (Units=GPa)
#
#
# Indices 1 2 3 4 5 6 
#
# 1 65.4825 13.5819 11.0252 0.0000 0.0000 0.0000
# 2 13.5819 148.4443 35.8066 0.0000 0.0000 0.0000
# 3 11.0252 35.8066 75.8216 0.0000 0.0000 0.0000
# 4 0.0000 0.0000 0.0000 37.4738 0.0000 0.0000
# 5 0.0000 0.0000 0.0000 0.0000 33.4413 0.0000
# 6 0.0000 0.0000 0.0000 0.0000 0.0000 35.9239
#
#
#
# Elastic Compliance Matrix: (Units=1/GPa)
#
#
# Indices 1 2 3 4 5 6 
#
# 1 0.015786 -0.001005 -0.001821 0.000000 0.000000 0.000000
# 2 -0.001005 0.007667 -0.003474 0.000000 0.000000 0.000000
# 3 -0.001821 -0.003474 0.015094 0.000000 0.000000 0.000000
# 4 0.000000 0.000000 0.000000 0.026685 0.000000 0.000000
# 5 0.000000 0.000000 0.000000 0.000000 0.029903 0.000000
# 6 0.000000 0.000000 0.000000 0.000000 0.000000 0.027837
#
#
# Mechanical properties :
#
#
# Convention : Reuss Voigt Hill
#
# Bulk Modulus (GPa) = 38.54071 45.61953 42.08012
# Shear Modulus (GPa) = 34.66881 36.65677 35.66279
#
# Velocity S-wave (km/s) = 3.75655 3.86275 3.81002
# Velocity P-wave (km/s) = 5.87394 6.20190 6.04015
#
# Compressibility (1/GPa) = 0.02594659
#
# Stress axis : x y z
#
# Youngs Moduli (GPa) = 63.34605 130.43665 66.24986
#
# Poissons Ratio (x) = 0.13111 0.12063
# Poissons Ratio (y) = 0.06367 0.23018
# Poissons Ratio (z) = 0.11534 0.45318
#
# Static dielectric constant tensor:
#      x y z
#    x 4.588440 0.000000 0.000000 
#    y 0.000000 4.555710 0.000000 
#    z 0.000000 0.000000 4.214110 
# 
# 
# High freq. dielectric constant tensor:
#      x y z
#    x 1.969370 0.000000 0.000000 
#    y 0.000000 1.987180 0.000000 
#    z 0.000000 0.000000 1.972730 
# 
# From -- ./inp_files/9690.got.cif
#   From: 2010.06.25/outbox.cif.g09.slc.cpg/sg43_5_cif.got.tgz:9690.got - 2010.06.26 16:48:59.
