data_PCOD8187698
_publ_section_title
;
Structure prediction by ZEFSAII (Michael W. Deem and Ramdas Pophale) SiO2 
 PCOD8187698
Probable space group: F D D 2
;
_chemical_formula_sum "Si O2"
_cell_formula_units_Z 80
_cell_length_a 12.107313
_cell_length_b 25.246496
_cell_length_c 10.585627
_cell_angle_alpha 90.000000
_cell_angle_beta 90.000000
_cell_angle_gamma 90.000000
_cell_volume 3235.679275
_symmetry_space_group_name_H-M "F D D 2"
_symmetry_group_IT_number 43
_symmetry_cell_setting 'orthorhombic'
loop_
_space_group_symop_operation_xyz
x,y,z
-x,-y,z
1/4-x,1/4+y,1/4+z
1/4+x,1/4-y,1/4+z
x,1/2+y,1/2+z
-x,1/2-y,1/2+z
1/4-x,3/4+y,3/4+z
1/4+x,3/4-y,3/4+z
1/2+x,y,1/2+z
1/2-x,-y,1/2+z
3/4-x,1/4+y,3/4+z
3/4+x,1/4-y,3/4+z
1/2+x,1/2+y,z
1/2-x,1/2-y,z
3/4-x,3/4+y,1/4+z
3/4+x,3/4-y,1/4+z
loop_
_atom_site_type_symbol
_atom_site_label
_atom_site_fract_x
_atom_site_fract_y
_atom_site_fract_z
Si Si1 0.009583 0.558005 0.728040
Si Si2 0.130226 0.739955 0.498205
Si Si3 0.354144 0.810874 0.244914
Si Si4 0.990873 0.140505 0.032106
Si Si5 0.427640 0.159756 0.132258
O O1 0.951056 0.547036 0.862359
O O2 0.948818 0.605077 0.650900
O O3 0.000000 0.500000 0.660577
O O4 0.135816 0.578184 0.728745
O O5 0.250000 0.750000 0.557955
O O6 0.139829 0.737796 0.344344
O O7 0.059719 0.791027 0.536414
O O8 0.080032 0.686849 0.562184
O O9 0.480742 0.831111 0.239184
O O10 0.282748 0.857699 0.307221
O O11 0.054813 0.099067 0.940081
#
# Coordination Sequence:
#
# PCOD8187698 Si02
#       5
#    16  16  16  16  16
#     4  12  26  45  68 102 143 184 237 301 363 431
#     4  11  23  42  68  99 137 184 238 297 360 434
#     4  11  24  42  68 101 139 188 240 295 363 437
#     4  11  25  45  71 104 138 185 241 293 363 440
#     4  11  23  44  69 100 141 187 239 298 361 436
#
# _framework density 24.724329000000001
#
# number of rings (size 3 to 8) (size 9 to 14) (size 15 to 20)
#    0.000    0.800    0.000    9.000    0.000    5.600 
#    0.000    2.000    0.000    0.000    0.000    0.000 
#    0.000    0.000    0.000    0.000    0.000    0.000 
#
# Total GULP energy -247826.520531 kJ/mol
# GULP energy per Si atom -12391.326027 kJ/mol
# Density = 2.466806 g / cm^3
# Si number density = 24.724329 Si / 1000 Ang^3
#
#
#
# Elastic Constant Matrix: (Units=GPa)
#
#
# Indices 1 2 3 4 5 6 
#
# 1 109.1528 42.9364 13.3521 0.0000 0.0000 0.0000
# 2 42.9364 147.4174 48.6053 0.0000 0.0000 0.0000
# 3 13.3521 48.6053 73.8304 0.0000 0.0000 0.0000
# 4 0.0000 0.0000 0.0000 50.2204 0.0000 0.0000
# 5 0.0000 0.0000 0.0000 0.0000 34.2724 0.0000
# 6 0.0000 0.0000 0.0000 0.0000 0.0000 43.0507
#
#
#
# Elastic Compliance Matrix: (Units=1/GPa)
#
#
# Indices 1 2 3 4 5 6 
#
# 1 0.010348 -0.003061 0.000144 0.000000 0.000000 0.000000
# 2 -0.003061 0.009570 -0.005747 0.000000 0.000000 0.000000
# 3 0.000144 -0.005747 0.017302 0.000000 0.000000 0.000000
# 4 0.000000 0.000000 0.000000 0.019912 0.000000 0.000000
# 5 0.000000 0.000000 0.000000 0.000000 0.029178 0.000000
# 6 0.000000 0.000000 0.000000 0.000000 0.000000 0.023228
#
#
# Mechanical properties :
#
#
# Convention : Reuss Voigt Hill
#
# Bulk Modulus (GPa) = 50.27222 60.02092 55.14657
# Shear Modulus (GPa) = 37.45412 40.54248 38.99830
#
# Velocity S-wave (km/s) = 3.89635 4.05381 3.97586
# Velocity P-wave (km/s) = 6.37333 6.80000 6.59012
#
# Compressibility (1/GPa) = 0.01989170
#
# Stress axis : x y z
#
# Youngs Moduli (GPa) = 96.63610 104.49514 57.79798
#
# Poissons Ratio (x) = 0.31991 -0.00832
# Poissons Ratio (y) = 0.29585 0.33214
# Poissons Ratio (z) = -0.01392 0.60048
#
# Static dielectric constant tensor:
#      x y z
#    x 4.338140 0.000000 0.000000 
#    y 0.000000 4.730500 0.000000 
#    z 0.000000 0.000000 4.273760 
# 
# 
# High freq. dielectric constant tensor:
#      x y z
#    x 1.982180 0.000000 0.000000 
#    y 0.000000 1.999640 0.000000 
#    z 0.000000 0.000000 1.968090 
# 
# From -- ./inp_files/6076.got.cif
#   From: 2010.06.25/outbox.cif.g09.slc.cpg/sg43_4_cif.got.tgz:6076.got - 2010.06.26 16:48:59.
