data_PCOD8187255
_publ_section_title
;
Structure prediction by ZEFSAII (Michael W. Deem and Ramdas Pophale) SiO2 
 PCOD8187255
Probable space group: F D D 2
;
_chemical_formula_sum "Si O2"
_cell_formula_units_Z 120
_cell_length_a 18.376269
_cell_length_b 13.318822
_cell_length_c 24.826609
_cell_angle_alpha 90.000000
_cell_angle_beta 90.000000
_cell_angle_gamma 90.000000
_cell_volume 6076.318904
_symmetry_space_group_name_H-M "F D D 2"
_symmetry_group_IT_number 43
_symmetry_cell_setting 'orthorhombic'
loop_
_space_group_symop_operation_xyz
x,y,z
-x,-y,z
1/4-x,1/4+y,1/4+z
1/4+x,1/4-y,1/4+z
x,1/2+y,1/2+z
-x,1/2-y,1/2+z
1/4-x,3/4+y,3/4+z
1/4+x,3/4-y,3/4+z
1/2+x,y,1/2+z
1/2-x,-y,1/2+z
3/4-x,1/4+y,3/4+z
3/4+x,1/4-y,3/4+z
1/2+x,1/2+y,z
1/2-x,1/2-y,z
3/4-x,3/4+y,1/4+z
3/4+x,3/4-y,1/4+z
loop_
_atom_site_type_symbol
_atom_site_label
_atom_site_fract_x
_atom_site_fract_y
_atom_site_fract_z
Si Si1 0.347432 0.053207 0.861610
Si Si2 0.230454 0.858879 0.749408
Si Si3 0.085786 0.980899 0.583353
Si Si4 0.577874 0.529982 0.464121
Si Si5 0.111580 0.750987 0.994777
Si Si6 0.209584 0.439737 0.359451
Si Si7 0.922321 0.449612 0.389276
Si Si8 0.750000 0.750000 0.422014
O O1 0.372375 0.169331 0.859339
O O2 0.380596 0.997638 0.808765
O O3 0.367316 0.999844 0.917202
O O4 0.259450 0.040103 0.858586
O O5 0.250000 0.750000 0.772101
O O6 0.189241 0.916796 0.797151
O O7 0.178513 0.849653 0.697839
O O8 0.304507 0.912401 0.730870
O O9 0.132732 0.885169 0.603016
O O10 0.097025 0.972161 0.519180
O O11 0.000000 0.000000 0.596958
O O12 0.500000 0.500000 0.441222
O O13 0.575903 0.646999 0.476997
O O14 0.182649 0.769088 0.960490
O O15 0.134660 0.458195 0.391153
O O16 0.256336 0.348695 0.384957
O O17 0.000000 0.500000 0.370189
#
# Coordination Sequence:
#
# PCOD8187255 Si02
#       8
#    16  16  16  16  16  16  16   8
#     4  10  21  41  62  92 123 160 217 255 323 396
#     4  10  22  43  61  89 129 172 208 258 340 389
#     4  10  21  41  65  90 128 171 203 265 337 391
#     4  10  22  39  62  90 125 163 207 263 321 392
#     4  10  23  38  61  91 120 164 204 264 318 383
#     4  11  22  41  65  87 123 171 212 260 329 397
#     4  11  24  43  63  96 128 168 223 274 317 394
#     4  12  20  38  62  88 118 154 210 262 304 374
#
# _framework density 19.748798000000001
#
# number of rings (size 3 to 8) (size 9 to 14) (size 15 to 20)
#    0.000    1.600    3.333    1.600    4.667    0.000 
#    2.400    2.667    0.000    0.000    0.000    0.000 
#    0.000    0.000    0.000    0.000    0.000    0.000 
#
# Total GULP energy -371721.343384 kJ/mol
# GULP energy per Si atom -12390.711446 kJ/mol
# Density = 1.970385 g / cm^3
# Si number density = 19.748798 Si / 1000 Ang^3
#
#
#
# Elastic Constant Matrix: (Units=GPa)
#
#
# Indices 1 2 3 4 5 6 
#
# 1 97.5129 42.5720 59.2423 0.0000 0.0000 0.0000
# 2 42.5720 90.3134 40.9618 0.0000 0.0000 0.0000
# 3 59.2423 40.9618 126.5889 0.0000 0.0000 0.0000
# 4 0.0000 0.0000 0.0000 15.9417 0.0000 0.0000
# 5 0.0000 0.0000 0.0000 0.0000 29.9188 0.0000
# 6 0.0000 0.0000 0.0000 0.0000 0.0000 38.5662
#
#
#
# Elastic Compliance Matrix: (Units=1/GPa)
#
#
# Indices 1 2 3 4 5 6 
#
# 1 0.015954 -0.004845 -0.005898 0.000000 0.000000 0.000000
# 2 -0.004845 0.014448 -0.002408 0.000000 0.000000 0.000000
# 3 -0.005898 -0.002408 0.011439 0.000000 0.000000 0.000000
# 4 0.000000 0.000000 0.000000 0.062729 0.000000 0.000000
# 5 0.000000 0.000000 0.000000 0.000000 0.033424 0.000000
# 6 0.000000 0.000000 0.000000 0.000000 0.000000 0.025929
#
#
# Mechanical properties :
#
#
# Convention : Reuss Voigt Hill
#
# Bulk Modulus (GPa) = 64.35521 66.66306 65.50913
# Shear Modulus (GPa) = 25.58781 28.32794 26.95788
#
# Velocity S-wave (km/s) = 3.60344 3.79147 3.69865
# Velocity P-wave (km/s) = 7.06899 7.27982 7.17518
#
# Compressibility (1/GPa) = 0.01553876
#
# Stress axis : x y z
#
# Youngs Moduli (GPa) = 62.68100 69.21140 87.41930
#
# Poissons Ratio (x) = 0.33533 0.51564
# Poissons Ratio (y) = 0.30369 0.21049
# Poissons Ratio (z) = 0.36972 0.16665
#
# Static dielectric constant tensor:
#      x y z
#    x 3.399450 0.000000 0.000000 
#    y 0.000000 3.765960 0.000000 
#    z 0.000000 0.000000 3.594330 
# 
# 
# High freq. dielectric constant tensor:
#      x y z
#    x 1.753830 0.000000 0.000000 
#    y 0.000000 1.784760 0.000000 
#    z 0.000000 0.000000 1.774010 
# 
# From -- ./inp_files/21822.got.cif
#   From: 2010.06.25/outbox.cif.g09.slc.cpg/sg43_11_cif.got.tgz:21822.got - 2010.06.26 16:48:59.
