data_PCOD8187045
_publ_section_title
;
Structure prediction by ZEFSAII (Michael W. Deem and Ramdas Pophale) SiO2 
 PCOD8187045
Probable space group: F D D 2
;
_chemical_formula_sum "Si O2"
_cell_formula_units_Z 88
_cell_length_a 19.872696
_cell_length_b 8.099188
_cell_length_c 29.721274
_cell_angle_alpha 90.000000
_cell_angle_beta 90.000000
_cell_angle_gamma 90.000000
_cell_volume 4783.719327
_symmetry_space_group_name_H-M "F D D 2"
_symmetry_group_IT_number 43
_symmetry_cell_setting 'orthorhombic'
loop_
_space_group_symop_operation_xyz
x,y,z
-x,-y,z
1/4-x,1/4+y,1/4+z
1/4+x,1/4-y,1/4+z
x,1/2+y,1/2+z
-x,1/2-y,1/2+z
1/4-x,3/4+y,3/4+z
1/4+x,3/4-y,3/4+z
1/2+x,y,1/2+z
1/2-x,-y,1/2+z
3/4-x,1/4+y,3/4+z
3/4+x,1/4-y,3/4+z
1/2+x,1/2+y,z
1/2-x,1/2-y,z
3/4-x,3/4+y,1/4+z
3/4+x,3/4-y,1/4+z
loop_
_atom_site_type_symbol
_atom_site_label
_atom_site_fract_x
_atom_site_fract_y
_atom_site_fract_z
Si Si1 0.394368 0.813247 0.231370
Si Si2 0.970083 0.826361 0.203652
Si Si3 0.250000 0.750000 0.689978
Si Si4 0.905722 0.226627 0.992196
Si Si5 0.621297 0.413880 0.658523
Si Si6 0.171831 0.285927 0.815589
O O1 0.474561 0.780177 0.230349
O O2 0.357222 0.645896 0.213468
O O3 0.367527 0.843179 0.282514
O O4 0.376024 0.969634 0.201882
O O5 0.908760 0.856713 0.238353
O O6 0.940499 0.717238 0.162349
O O7 0.000000 0.000000 0.185189
O O8 0.277684 0.892876 0.722727
O O9 0.308037 0.682253 0.657118
O O10 0.913764 0.278478 0.044883
O O11 0.611845 0.524894 0.614436
O O12 0.250000 0.250000 0.818552
#
# Coordination Sequence:
#
# PCOD8187045 Si02
#       6
#    16  16   8  16  16  16
#     4   9  19  35  60  82 112 154 187 243 294 349
#     4   9  17  36  59  84 112 151 190 237 303 350
#     4  10  20  38  58  86 118 162 186 244 306 352
#     4   8  19  35  60  79 119 147 188 240 294 356
#     4  11  21  36  62  83 117 156 202 242 293 362
#     4  10  20  35  58  83 112 151 201 242 290 360
#
# _framework density 18.395727000000001
#
# number of rings (size 3 to 8) (size 9 to 14) (size 15 to 20)
#    1.091    1.455    0.000    2.727    0.000    0.000 
#    3.273    3.636   50.000    0.000    0.000    0.000 
#    0.000    0.000    0.000    0.000    0.000    0.000 
#
# Total GULP energy -272560.739132 kJ/mol
# GULP energy per Si atom -12389.124506 kJ/mol
# Density = 1.835386 g / cm^3
# Si number density = 18.395727 Si / 1000 Ang^3
#
#
#
# Elastic Constant Matrix: (Units=GPa)
#
#
# Indices 1 2 3 4 5 6 
#
# 1 111.0396 30.6332 34.2626 0.0000 0.0000 0.0000
# 2 30.6332 64.1305 22.4114 -0.0001 0.0000 0.0002
# 3 34.2626 22.4114 87.2710 0.0000 0.0000 0.0000
# 4 0.0000 -0.0001 0.0000 29.2866 0.0000 0.0001
# 5 0.0000 0.0000 0.0000 0.0000 19.6117 0.0000
# 6 0.0000 0.0002 0.0000 0.0001 0.0000 26.5407
#
#
#
# Elastic Compliance Matrix: (Units=1/GPa)
#
#
# Indices 1 2 3 4 5 6 
#
# 1 0.011183 -0.004183 -0.003316 0.000000 0.000000 0.000000
# 2 -0.004183 0.018695 -0.003159 0.000000 0.000000 0.000000
# 3 -0.003316 -0.003159 0.013572 0.000000 0.000000 0.000000
# 4 0.000000 0.000000 0.000000 0.034145 0.000000 0.000000
# 5 0.000000 0.000000 0.000000 0.000000 0.050990 0.000000
# 6 0.000000 0.000000 0.000000 0.000000 0.000000 0.037678
#
#
# Mechanical properties :
#
#
# Convention : Reuss Voigt Hill
#
# Bulk Modulus (GPa) = 45.17930 48.56172 46.87051
# Shear Modulus (GPa) = 25.64670 26.76340 26.20505
#
# Velocity S-wave (km/s) = 3.73790 3.81841 3.77837
# Velocity P-wave (km/s) = 6.57588 6.77466 6.67601
#
# Compressibility (1/GPa) = 0.02213403
#
# Stress axis : x y z
#
# Youngs Moduli (GPa) = 89.42119 53.48997 73.68270
#
# Poissons Ratio (x) = 0.22374 0.24435
# Poissons Ratio (y) = 0.37404 0.23275
# Poissons Ratio (z) = 0.29655 0.16896
#
# Static dielectric constant tensor:
#      x y z
#    x 3.535280 0.000000 0.000000 
#    y 0.000000 3.447680 0.000000 
#    z 0.000000 0.000000 3.015640 
# 
# 
# High freq. dielectric constant tensor:
#      x y z
#    x 1.732760 0.000000 0.000000 
#    y 0.000000 1.711160 0.000000 
#    z 0.000000 0.000000 1.668950 
# 
# From -- ./inp_files/27978.got.cif
#   From: 2010.06.25/outbox.cif.g09.slc.cpg/sg43_14_cif.got.tgz:27978.got - 2010.06.26 16:48:59.
