data_PCOD8187549
_publ_section_title
;
Structure prediction by ZEFSAII (Michael W. Deem and Ramdas Pophale) SiO2 
 PCOD8187549
Probable space group: F D D 2
;
_chemical_formula_sum "Si O2"
_cell_formula_units_Z 104
_cell_length_a 10.724529
_cell_length_b 17.766183
_cell_length_c 24.582774
_cell_angle_alpha 90.000000
_cell_angle_beta 90.000000
_cell_angle_gamma 90.000000
_cell_volume 4683.852904
_symmetry_space_group_name_H-M "F D D 2"
_symmetry_group_IT_number 43
_symmetry_cell_setting 'orthorhombic'
loop_
_space_group_symop_operation_xyz
x,y,z
-x,-y,z
1/4-x,1/4+y,1/4+z
1/4+x,1/4-y,1/4+z
x,1/2+y,1/2+z
-x,1/2-y,1/2+z
1/4-x,3/4+y,3/4+z
1/4+x,3/4-y,3/4+z
1/2+x,y,1/2+z
1/2-x,-y,1/2+z
3/4-x,1/4+y,3/4+z
3/4+x,1/4-y,3/4+z
1/2+x,1/2+y,z
1/2-x,1/2-y,z
3/4-x,3/4+y,1/4+z
3/4+x,3/4-y,1/4+z
loop_
_atom_site_type_symbol
_atom_site_label
_atom_site_fract_x
_atom_site_fract_y
_atom_site_fract_z
Si Si1 0.250000 0.250000 0.884570
Si Si2 0.260740 0.533351 0.920561
Si Si3 0.841164 0.098903 0.134321
Si Si4 0.388602 0.863553 0.191945
Si Si5 0.951476 0.636493 0.775421
Si Si6 0.750000 0.750000 0.454726
Si Si7 0.916760 0.626250 0.060403
Si Si8 0.250000 0.250000 0.120919
O O1 0.333880 0.198213 0.922500
O O2 0.340817 0.302026 0.847924
O O3 0.205074 0.592665 0.876925
O O4 0.223773 0.445977 0.908559
O O5 0.408768 0.544952 0.912023
O O6 0.207471 0.546742 0.981414
O O7 0.754854 0.147503 0.175519
O O8 0.776078 0.082374 0.077306
O O9 0.885003 0.021951 0.164526
O O10 0.408662 0.856335 0.255961
O O11 0.813603 0.609558 0.794847
O O12 0.027115 0.569486 0.745120
O O13 0.842402 0.697445 0.085289
#
# Coordination Sequence:
#
# PCOD8187549 Si02
#       8
#     8  16  16  16  16   8  16   8
#     4  12  25  42  75 110 143 190 249 312 362 452
#     4  11  25  48  69 107 147 189 244 309 374 456
#     4  11  24  43  75 102 142 191 244 307 363 436
#     4  12  24  45  74 106 144 190 250 303 363 445
#     4  11  24  46  77 103 140 201 248 301 370 453
#     4  10  24  43  67 110 141 173 252 294 356 444
#     4  12  25  48  74 110 143 200 251 303 377 455
#     4  12  27  49  68 112 158 183 239 318 390 430
#
# _framework density 22.203941
#
# number of rings (size 3 to 8) (size 9 to 14) (size 15 to 20)
#    0.000    0.615    6.154    1.846    4.308    3.077 
#    2.769    0.000    0.000    0.000    0.000    0.000 
#    0.000    0.000    0.000    0.000    0.000    0.000 
#
# Total GULP energy -322136.627575 kJ/mol
# GULP energy per Si atom -12389.870291 kJ/mol
# Density = 2.215340 g / cm^3
# Si number density = 22.203941 Si / 1000 Ang^3
#
#
#
# Elastic Constant Matrix: (Units=GPa)
#
#
# Indices 1 2 3 4 5 6 
#
# 1 139.7399 47.9802 50.4121 0.0000 0.0000 0.0000
# 2 47.9802 113.6399 28.0637 0.0000 0.0000 0.0000
# 3 50.4121 28.0637 106.4855 0.0000 0.0000 0.0000
# 4 0.0000 0.0000 0.0000 37.7941 0.0000 0.0000
# 5 0.0000 0.0000 0.0000 0.0000 35.7939 0.0000
# 6 0.0000 0.0000 0.0000 0.0000 0.0000 41.1223
#
#
#
# Elastic Compliance Matrix: (Units=1/GPa)
#
#
# Indices 1 2 3 4 5 6 
#
# 1 0.009565 -0.003124 -0.003705 0.000000 0.000000 0.000000
# 2 -0.003124 0.010432 -0.001271 0.000000 0.000000 0.000000
# 3 -0.003705 -0.001271 0.011480 0.000000 0.000000 0.000000
# 4 0.000000 0.000000 0.000000 0.026459 0.000000 0.000000
# 5 0.000000 0.000000 0.000000 0.000000 0.027938 0.000000
# 6 0.000000 0.000000 0.000000 0.000000 0.000000 0.024318
#
#
# Mechanical properties :
#
#
# Convention : Reuss Voigt Hill
#
# Bulk Modulus (GPa) = 65.45028 68.08635 66.76832
# Shear Modulus (GPa) = 38.02747 38.50267 38.26507
#
# Velocity S-wave (km/s) = 4.14290 4.16871 4.15582
# Velocity P-wave (km/s) = 7.24056 7.34176 7.29134
#
# Compressibility (1/GPa) = 0.01527877
#
# Stress axis : x y z
#
# Youngs Moduli (GPa) = 104.54435 95.85581 87.10865
#
# Poissons Ratio (x) = 0.29941 0.32275
# Poissons Ratio (y) = 0.32655 0.11068
# Poissons Ratio (z) = 0.38736 0.12180
#
# Static dielectric constant tensor:
#      x y z
#    x 4.069990 0.000000 0.000000 
#    y 0.000000 4.020290 0.000000 
#    z 0.000000 0.000000 4.142580 
# 
# 
# High freq. dielectric constant tensor:
#      x y z
#    x 1.864110 0.000000 0.000000 
#    y 0.000000 1.874780 0.000000 
#    z 0.000000 0.000000 1.885400 
# 
# From -- ./inp_files/25166.got.cif
#   From: 2010.06.25/outbox.cif.g09.slc.cpg/sg43_13_cif.got.tgz:25166.got - 2010.06.26 16:48:59.
