data_PCOD8187595
_publ_section_title
;
Structure prediction by ZEFSAII (Michael W. Deem and Ramdas Pophale) SiO2 
 PCOD8187595
Probable space group: F D D 2
;
_chemical_formula_sum "Si O2"
_cell_formula_units_Z 88
_cell_length_a 15.758988
_cell_length_b 11.457903
_cell_length_c 24.006522
_cell_angle_alpha 90.000000
_cell_angle_beta 90.000000
_cell_angle_gamma 90.000000
_cell_volume 4334.736586
_symmetry_space_group_name_H-M "F D D 2"
_symmetry_group_IT_number 43
_symmetry_cell_setting 'orthorhombic'
loop_
_space_group_symop_operation_xyz
x,y,z
-x,-y,z
1/4-x,1/4+y,1/4+z
1/4+x,1/4-y,1/4+z
x,1/2+y,1/2+z
-x,1/2-y,1/2+z
1/4-x,3/4+y,3/4+z
1/4+x,3/4-y,3/4+z
1/2+x,y,1/2+z
1/2-x,-y,1/2+z
3/4-x,1/4+y,3/4+z
3/4+x,1/4-y,3/4+z
1/2+x,1/2+y,z
1/2-x,1/2-y,z
3/4-x,3/4+y,1/4+z
3/4+x,3/4-y,1/4+z
loop_
_atom_site_type_symbol
_atom_site_label
_atom_site_fract_x
_atom_site_fract_y
_atom_site_fract_z
Si Si1 0.909637 0.291816 0.304770
Si Si2 0.553369 0.880339 0.240034
Si Si3 0.239742 0.378058 0.624426
Si Si4 0.096990 0.518674 0.392467
Si Si5 0.000000 0.000000 0.481786
Si Si6 0.594564 0.547567 0.090833
O O1 0.929694 0.204149 0.355605
O O2 0.905568 0.421162 0.331440
O O3 0.826752 0.253782 0.273698
O O4 0.984212 0.284325 0.258849
O O5 0.596663 0.851062 0.181581
O O6 0.628211 0.869360 0.285724
O O7 0.500000 0.000000 0.235443
O O8 0.250000 0.250000 0.596654
O O9 0.243729 0.364829 0.692088
O O10 0.152207 0.435662 0.604737
O O11 0.143431 0.392876 0.389942
O O12 0.000000 0.500000 0.413740
O O13 0.500000 0.500000 0.085291
#
# Coordination Sequence:
#
# PCOD8187595 Si02
#       6
#    16  16  16  16   8  16
#     4  11  23  45  66  99 136 176 232 291 331 424
#     4  11  24  44  70  98 133 179 231 283 349 408
#     4   9  23  46  62  95 144 172 233 281 327 418
#     4  12  24  44  71 102 138 180 230 291 342 412
#     4  10  26  40  66 100 130 186 226 274 354 396
#     4  11  23  46  66  99 141 179 228 285 343 409
#
# _framework density 20.301117999999999
#
# number of rings (size 3 to 8) (size 9 to 14) (size 15 to 20)
#    0.545    0.727    5.455    0.545    6.364    1.455 
#    9.818    0.000    0.000    0.000    0.000    0.000 
#    0.000    0.000    0.000    0.000    0.000    0.000 
#
# Total GULP energy -272600.589641 kJ/mol
# GULP energy per Si atom -12390.935893 kJ/mol
# Density = 2.025491 g / cm^3
# Si number density = 20.301118 Si / 1000 Ang^3
#
#
#
# Elastic Constant Matrix: (Units=GPa)
#
#
# Indices 1 2 3 4 5 6 
#
# 1 180.4264 72.5692 78.4011 0.0000 0.0000 0.0000
# 2 72.5692 133.1993 41.3308 0.0000 0.0000 0.0000
# 3 78.4011 41.3308 94.6164 0.0000 0.0000 0.0000
# 4 0.0000 0.0000 0.0000 4.4479 0.0000 0.0000
# 5 0.0000 0.0000 0.0000 0.0000 38.4410 0.0000
# 6 0.0000 0.0000 0.0000 0.0000 0.0000 37.4510
#
#
#
# Elastic Compliance Matrix: (Units=1/GPa)
#
#
# Indices 1 2 3 4 5 6 
#
# 1 0.009736 -0.003240 -0.006652 0.000000 0.000000 0.000000
# 2 -0.003240 0.009763 -0.001580 0.000000 0.000000 0.000000
# 3 -0.006652 -0.001580 0.016771 0.000000 0.000000 0.000000
# 4 0.000000 0.000000 0.000000 0.224827 0.000000 0.000000
# 5 0.000000 0.000000 0.000000 0.000000 0.026014 0.000000
# 6 0.000000 0.000000 0.000000 0.000000 0.000000 0.026702
#
#
# Mechanical properties :
#
#
# Convention : Reuss Voigt Hill
#
# Bulk Modulus (GPa) = 75.04128 88.09380 81.56754
# Shear Modulus (GPa) = 14.65417 30.46405 22.55911
#
# Velocity S-wave (km/s) = 2.68962 3.87797 3.33712
# Velocity P-wave (km/s) = 6.83299 7.97116 7.42392
#
# Compressibility (1/GPa) = 0.01332600
#
# Stress axis : x y z
#
# Youngs Moduli (GPa) = 102.70775 102.42607 59.62579
#
# Poissons Ratio (x) = 0.33190 0.39665
# Poissons Ratio (y) = 0.33281 0.09419
# Poissons Ratio (z) = 0.68324 0.16181
#
# Static dielectric constant tensor:
#      x y z
#    x 3.690510 0.000000 0.000000 
#    y 0.000000 3.833620 0.000000 
#    z 0.000000 0.000000 3.587470 
# 
# 
# High freq. dielectric constant tensor:
#      x y z
#    x 1.796050 0.000000 0.000000 
#    y 0.000000 1.794960 0.000000 
#    z 0.000000 0.000000 1.784690 
# 
# From -- ./inp_files/21666.got.cif
#   From: 2010.06.25/outbox.cif.g09.slc.cpg/sg43_11_cif.got.tgz:21666.got - 2010.06.26 16:48:59.
