data_PCOD8187110
_publ_section_title
;
Structure prediction by ZEFSAII (Michael W. Deem and Ramdas Pophale) SiO2 
 PCOD8187110
Probable space group: F D D 2
;
_chemical_formula_sum "Si O2"
_cell_formula_units_Z 96
_cell_length_a 22.736697
_cell_length_b 8.492236
_cell_length_c 22.122157
_cell_angle_alpha 90.000000
_cell_angle_beta 90.000000
_cell_angle_gamma 90.000000
_cell_volume 4271.465462
_symmetry_space_group_name_H-M "F D D 2"
_symmetry_group_IT_number 43
_symmetry_cell_setting 'orthorhombic'
loop_
_space_group_symop_operation_xyz
x,y,z
-x,-y,z
1/4-x,1/4+y,1/4+z
1/4+x,1/4-y,1/4+z
x,1/2+y,1/2+z
-x,1/2-y,1/2+z
1/4-x,3/4+y,3/4+z
1/4+x,3/4-y,3/4+z
1/2+x,y,1/2+z
1/2-x,-y,1/2+z
3/4-x,1/4+y,3/4+z
3/4+x,1/4-y,3/4+z
1/2+x,1/2+y,z
1/2-x,1/2-y,z
3/4-x,3/4+y,1/4+z
3/4+x,3/4-y,1/4+z
loop_
_atom_site_type_symbol
_atom_site_label
_atom_site_fract_x
_atom_site_fract_y
_atom_site_fract_z
Si Si1 0.843961 0.500091 0.785900
Si Si2 0.536855 0.656458 0.253047
Si Si3 0.867455 0.597973 0.015236
Si Si4 0.219397 0.910026 0.407882
Si Si5 0.523881 0.658679 0.854532
Si Si6 0.765555 0.429237 0.223491
O O1 0.894045 0.372009 0.768601
O O2 0.868891 0.663332 0.760619
O O3 0.821372 0.508659 0.855800
O O4 0.785692 0.456343 0.747446
O O5 0.500000 0.500000 0.266813
O O6 0.519679 0.720079 0.185317
O O7 0.517465 0.791815 0.299168
O O8 0.839136 0.628814 0.080442
O O9 0.823719 0.642962 0.961232
O O10 0.924397 0.710152 0.010471
O O11 0.250000 0.750000 0.381894
O O12 0.500000 0.500000 0.885234
O O13 0.526862 0.797299 0.902837
O O14 0.750000 0.250000 0.235112
#
# Coordination Sequence:
#
# PCOD8187110 Si02
#       6
#    16  16  16  16  16  16
#     4  11  23  42  67 105 131 186 231 282 348 425
#     4  11  22  41  70  99 136 186 228 285 351 423
#     4  10  20  39  71  95 130 176 229 278 341 418
#     4  11  23  42  71 103 140 182 238 292 354 420
#     4  11  23  42  65  98 133 176 226 277 343 403
#     4  10  23  41  67  99 131 173 227 277 339 419
#
# _framework density 22.474722
#
# number of rings (size 3 to 8) (size 9 to 14) (size 15 to 20)
#    0.000    1.333    3.333    5.000    4.667    0.000 
#   12.000    0.833    3.667    0.000    0.000    0.000 
#    0.000    0.000    0.000    0.000    0.000    0.000 
#
# Total GULP energy -297409.893560 kJ/mol
# GULP energy per Si atom -12392.078898 kJ/mol
# Density = 2.242357 g / cm^3
# Si number density = 22.474722 Si / 1000 Ang^3
#
#
#
# Elastic Constant Matrix: (Units=GPa)
#
#
# Indices 1 2 3 4 5 6 
#
# 1 182.2720 34.4971 61.6172 0.0000 0.0000 0.0000
# 2 34.4971 50.4809 6.4747 0.0000 0.0000 0.0000
# 3 61.6172 6.4747 102.9762 0.0000 0.0000 0.0000
# 4 0.0000 0.0000 0.0000 19.7743 0.0000 0.0000
# 5 0.0000 0.0000 0.0000 0.0000 32.8403 0.0000
# 6 0.0000 0.0000 0.0000 0.0000 0.0000 29.1145
#
#
#
# Elastic Compliance Matrix: (Units=1/GPa)
#
#
# Indices 1 2 3 4 5 6 
#
# 1 0.007894 -0.004828 -0.004420 0.000000 0.000000 0.000000
# 2 -0.004828 0.022923 0.001447 0.000000 0.000000 0.000000
# 3 -0.004420 0.001447 0.012265 0.000000 0.000000 0.000000
# 4 0.000000 0.000000 0.000000 0.050571 0.000000 0.000000
# 5 0.000000 0.000000 0.000000 0.000000 0.030450 0.000000
# 6 0.000000 0.000000 0.000000 0.000000 0.000000 0.034347
#
#
# Mechanical properties :
#
#
# Convention : Reuss Voigt Hill
#
# Bulk Modulus (GPa) = 36.38846 60.10076 48.24461
# Shear Modulus (GPa) = 27.29087 31.88849 29.58968
#
# Velocity S-wave (km/s) = 3.48845 3.77086 3.63240
# Velocity P-wave (km/s) = 5.69664 6.76452 6.25342
#
# Compressibility (1/GPa) = 0.02748124
#
# Stress axis : x y z
#
# Youngs Moduli (GPa) = 126.67502 43.62441 81.53432
#
# Poissons Ratio (x) = 0.21061 0.36039
# Poissons Ratio (y) = 0.61155 -0.11802
# Poissons Ratio (z) = 0.55991 -0.06314
#
# Static dielectric constant tensor:
#      x y z
#    x 4.833370 0.000000 0.000000 
#    y 0.000000 3.705650 0.000000 
#    z 0.000000 0.000000 3.912830 
# 
# 
# High freq. dielectric constant tensor:
#      x y z
#    x 1.903400 0.000000 0.000000 
#    y 0.000000 1.857810 0.000000 
#    z 0.000000 0.000000 1.880200 
# 
# From -- ./inp_files/20291.got.cif
#   From: 2010.06.25/outbox.cif.g09.slc.cpg/sg43_11_cif.got.tgz:20291.got - 2010.06.26 16:48:59.
