data_PCOD8187930
_publ_section_title
;
Structure prediction by ZEFSAII (Michael W. Deem and Ramdas Pophale) SiO2 
 PCOD8187930
Probable space group: I M M 2
;
_chemical_formula_sum "Si O2"
_cell_formula_units_Z 64
_cell_length_a 14.274491
_cell_length_b 17.089038
_cell_length_c 15.560573
_cell_angle_alpha 90.000000
_cell_angle_beta 90.000000
_cell_angle_gamma 90.000000
_cell_volume 3795.804462
_symmetry_space_group_name_H-M "I M M 2"
_symmetry_group_IT_number 44
_symmetry_cell_setting 'orthorhombic'
loop_
_space_group_symop_operation_xyz
x,y,z
-x,-y,z
-x,y,z
x,-y,z
1/2+x,1/2+y,1/2+z
1/2-x,1/2-y,1/2+z
1/2-x,1/2+y,1/2+z
1/2+x,1/2-y,1/2+z
loop_
_atom_site_type_symbol
_atom_site_label
_atom_site_fract_x
_atom_site_fract_y
_atom_site_fract_z
Si Si1 0.894476 0.590091 0.899650
Si Si2 0.395128 0.407057 0.827491
Si Si3 0.291179 0.411046 0.662671
Si Si4 0.608667 0.676816 0.151188
Si Si5 0.711381 0.591926 0.998171
Si Si6 0.888538 0.086260 0.815740
Si Si7 0.395412 0.851913 0.213659
Si Si8 0.895199 0.906431 0.000762
O O1 0.878514 0.500000 0.869120
O O2 0.878427 0.645995 0.816848
O O3 0.000000 0.601706 0.935974
O O4 0.820708 0.609280 0.975765
O O5 0.500000 0.373298 0.824518
O O6 0.394536 0.500000 0.821712
O O7 0.337591 0.371134 0.746879
O O8 0.347808 0.381185 0.915795
O O9 0.324608 0.500000 0.659277
O O10 0.179017 0.407200 0.666633
O O11 0.328936 0.371062 0.575272
O O12 0.500000 0.654479 0.131329
O O13 0.675890 0.646865 0.075229
O O14 0.648153 0.637374 0.237379
O O15 0.618895 0.767961 0.170261
O O16 0.695762 0.500000 0.020796
O O17 0.858268 0.123849 0.907704
O O18 0.000000 0.081912 0.815244
O O19 0.845237 0.000000 0.804187
O O20 0.500000 0.883361 0.194765
O O21 0.000000 0.876176 0.019828
O O22 0.894308 0.000000 0.996228
#
# Coordination Sequence:
#
# PCOD8187930 Si02
#       8
#     8   8   8   8   8   8   8   8
#     4   9  17  32  54  76  97 125 167 215 251 282
#     4   9  16  25  41  68  99 124 148 186 241 300
#     4  10  17  28  45  66  90 121 161 201 243 287
#     4  10  20  32  46  68 100 131 158 192 239 295
#     4  10  18  30  50  76  99 125 160 199 246 296
#     4   8  14  27  46  66  88 117 152 187 224 271
#     4  10  20  33  46  64  94 128 163 200 240 284
#     4   8  14  25  43  67  93 117 146 189 237 284
#
# _framework density 16.860721000000002
#
# number of rings (size 3 to 8) (size 9 to 14) (size 15 to 20)
#    0.000    2.750    1.250    2.250    0.000    3.500 
#    2.250    0.000    0.000    0.750    0.000    0.875 
#    0.000    3.000    0.000    0.000    0.000    0.000 
#
# Total GULP energy -396513.240542 kJ/mol
# GULP energy per Si atom -12391.038767 kJ/mol
# Density = 1.682235 g / cm^3
# Si number density = 16.860721 Si / 1000 Ang^3
#
#
#
# Elastic Constant Matrix: (Units=GPa)
#
#
# Indices 1 2 3 4 5 6 
#
# 1 108.2302 17.6873 62.7723 0.0000 0.0000 0.0000
# 2 17.6873 24.0296 27.2072 0.0000 0.0000 0.0000
# 3 62.7723 27.2072 139.9268 0.0000 0.0000 0.0000
# 4 0.0000 0.0000 0.0000 5.2298 0.0000 0.0000
# 5 0.0000 0.0000 0.0000 0.0000 23.0200 0.0000
# 6 0.0000 0.0000 0.0000 0.0000 0.0000 13.9582
#
#
#
# Elastic Compliance Matrix: (Units=1/GPa)
#
#
# Indices 1 2 3 4 5 6 
#
# 1 0.012744 -0.003728 -0.004992 0.000000 0.000000 0.000000
# 2 -0.003728 0.054454 -0.008916 0.000000 0.000000 0.000000
# 3 -0.004992 -0.008916 0.011120 0.000000 0.000000 0.000000
# 4 0.000000 0.000000 0.000000 0.191213 0.000000 0.000000
# 5 0.000000 0.000000 0.000000 0.000000 0.043440 0.000000
# 6 0.000000 0.000000 0.000000 0.000000 0.000000 0.071642
#
#
# Mechanical properties :
#
#
# Convention : Reuss Voigt Hill
#
# Bulk Modulus (GPa) = 23.23090 54.16893 38.69991
# Shear Modulus (GPa) = 11.51451 19.40958 15.46205
#
# Velocity S-wave (km/s) = 2.61611 3.39657 3.03156
# Velocity P-wave (km/s) = 4.78888 6.89778 5.93771
#
# Compressibility (1/GPa) = 0.04304612
#
# Stress axis : x y z
#
# Youngs Moduli (GPa) = 78.46638 18.36410 89.93044
#
# Poissons Ratio (x) = 0.06846 0.44896
# Poissons Ratio (y) = 0.29254 0.80178
# Poissons Ratio (z) = 0.39173 0.16373
#
# Static dielectric constant tensor:
#      x y z
#    x 3.188650 0.000000 0.000000 
#    y 0.000000 2.817110 0.000000 
#    z 0.000000 0.000000 3.373440 
# 
# 
# High freq. dielectric constant tensor:
#      x y z
#    x 1.639460 0.000000 0.000000 
#    y 0.000000 1.605050 0.000000 
#    z 0.000000 0.000000 1.651500 
# 
# From -- ./inp_files/18599.got.cif
#   From: 2010.03.12/outbox.cif.g09.slc.cpg/sg44_10_cif.got.tgz:18599.got - 2010.04.14 02:36:11.
