data_PCOD8187483
_publ_section_title
;
Structure prediction by ZEFSAII (Michael W. Deem and Ramdas Pophale) SiO2 
 PCOD8187483
Probable space group: F D D 2
;
_chemical_formula_sum "Si O2"
_cell_formula_units_Z 104
_cell_length_a 25.180584
_cell_length_b 15.418839
_cell_length_c 12.541854
_cell_angle_alpha 90.000000
_cell_angle_beta 90.000000
_cell_angle_gamma 90.000000
_cell_volume 4869.442173
_symmetry_space_group_name_H-M "F D D 2"
_symmetry_group_IT_number 43
_symmetry_cell_setting 'orthorhombic'
loop_
_space_group_symop_operation_xyz
x,y,z
-x,-y,z
1/4-x,1/4+y,1/4+z
1/4+x,1/4-y,1/4+z
x,1/2+y,1/2+z
-x,1/2-y,1/2+z
1/4-x,3/4+y,3/4+z
1/4+x,3/4-y,3/4+z
1/2+x,y,1/2+z
1/2-x,-y,1/2+z
3/4-x,1/4+y,3/4+z
3/4+x,1/4-y,3/4+z
1/2+x,1/2+y,z
1/2-x,1/2-y,z
3/4-x,3/4+y,1/4+z
3/4+x,3/4-y,1/4+z
loop_
_atom_site_type_symbol
_atom_site_label
_atom_site_fract_x
_atom_site_fract_y
_atom_site_fract_z
Si Si1 0.171906 0.320885 0.002870
Si Si2 0.070971 0.921211 0.909116
Si Si3 0.750000 0.750000 0.339530
Si Si4 0.719754 0.488363 0.162345
Si Si5 0.413851 0.758385 0.351595
Si Si6 0.944091 0.844939 0.205293
Si Si7 0.032791 0.221652 0.647917
O O1 0.194154 0.239492 0.067153
O O2 0.147176 0.389360 0.090014
O O3 0.131117 0.295866 0.909544
O O4 0.219729 0.372154 0.941963
O O5 0.133566 0.919437 0.925245
O O6 0.052517 0.828453 0.866021
O O7 0.040308 0.943625 0.018191
O O8 0.784565 0.687000 0.414038
O O9 0.783169 0.496855 0.172130
O O10 0.702158 0.410947 0.083263
O O11 0.694429 0.471411 0.278373
O O12 0.427344 0.725684 0.229497
O O13 0.975314 0.765651 0.149943
#
# Coordination Sequence:
#
# PCOD8187483 Si02
#       7
#    16  16   8  16  16  16  16
#     4  10  23  42  69 101 132 190 227 289 352 416
#     4  12  25  42  76 103 135 190 243 283 357 420
#     4  12  26  48  68 112 144 182 242 302 354 436
#     4  11  22  45  68  99 141 182 228 292 349 421
#     4   9  22  43  67  98 139 178 231 292 342 418
#     4  11  25  45  71 102 144 185 233 299 353 426
#     4   9  22  44  67  95 143 180 226 293 350 409
#
# _framework density 21.357682
#
# number of rings (size 3 to 8) (size 9 to 14) (size 15 to 20)
#    0.923    0.615    1.538    2.769    4.308    1.231 
#    5.538    0.000    0.000    0.000    0.000    0.000 
#    0.000    0.000    0.000    0.000    0.000    0.000 
#
# Total GULP energy -322155.196503 kJ/mol
# GULP energy per Si atom -12390.584481 kJ/mol
# Density = 2.130907 g / cm^3
# Si number density = 21.357682 Si / 1000 Ang^3
#
#
#
# Elastic Constant Matrix: (Units=GPa)
#
#
# Indices 1 2 3 4 5 6 
#
# 1 67.9030 28.3861 14.8208 0.0000 0.0000 0.0000
# 2 28.3861 82.3455 31.4541 0.0000 0.0000 0.0000
# 3 14.8208 31.4541 110.5705 0.0000 0.0000 0.0000
# 4 0.0000 0.0000 0.0000 34.7592 0.0000 0.0000
# 5 0.0000 0.0000 0.0000 0.0000 15.6124 0.0000
# 6 0.0000 0.0000 0.0000 0.0000 0.0000 24.7574
#
#
#
# Elastic Compliance Matrix: (Units=1/GPa)
#
#
# Indices 1 2 3 4 5 6 
#
# 1 0.017254 -0.005682 -0.000696 0.000000 0.000000 0.000000
# 2 -0.005682 0.015495 -0.003646 0.000000 0.000000 0.000000
# 3 -0.000696 -0.003646 0.010175 0.000000 0.000000 0.000000
# 4 0.000000 0.000000 0.000000 0.028769 0.000000 0.000000
# 5 0.000000 0.000000 0.000000 0.000000 0.064052 0.000000
# 6 0.000000 0.000000 0.000000 0.000000 0.000000 0.040392
#
#
# Mechanical properties :
#
#
# Convention : Reuss Voigt Hill
#
# Bulk Modulus (GPa) = 43.71604 45.57123 44.64363
# Shear Modulus (GPa) = 24.53248 27.43632 25.98440
#
# Velocity S-wave (km/s) = 3.39285 3.58804 3.49181
# Velocity P-wave (km/s) = 5.98845 6.20877 6.09960
#
# Compressibility (1/GPa) = 0.02287490
#
# Stress axis : x y z
#
# Youngs Moduli (GPa) = 57.95724 64.53521 98.28348
#
# Poissons Ratio (x) = 0.36668 0.06845
# Poissons Ratio (y) = 0.32930 0.35838
# Poissons Ratio (z) = 0.04036 0.23532
#
# Static dielectric constant tensor:
#      x y z
#    x 3.687220 0.000000 0.000000 
#    y 0.000000 3.787020 0.000000 
#    z 0.000000 0.000000 3.988990 
# 
# 
# High freq. dielectric constant tensor:
#      x y z
#    x 1.824550 0.000000 0.000000 
#    y 0.000000 1.827080 0.000000 
#    z 0.000000 0.000000 1.848700 
# 
# From -- ./inp_files/7958.got.cif
#   From: 2010.06.25/outbox.cif.g09.slc.cpg/sg43_4_cif.got.tgz:7958.got - 2010.06.26 16:48:59.
