data_PCOD8187294
_publ_section_title
;
Structure prediction by ZEFSAII (Michael W. Deem and Ramdas Pophale) SiO2 
 PCOD8187294
Probable space group: F D D 2
;
_chemical_formula_sum "Si O2"
_cell_formula_units_Z 88
_cell_length_a 13.843912
_cell_length_b 23.059031
_cell_length_c 13.258516
_cell_angle_alpha 90.000000
_cell_angle_beta 90.000000
_cell_angle_gamma 90.000000
_cell_volume 4232.478885
_symmetry_space_group_name_H-M "F D D 2"
_symmetry_group_IT_number 43
_symmetry_cell_setting 'orthorhombic'
loop_
_space_group_symop_operation_xyz
x,y,z
-x,-y,z
1/4-x,1/4+y,1/4+z
1/4+x,1/4-y,1/4+z
x,1/2+y,1/2+z
-x,1/2-y,1/2+z
1/4-x,3/4+y,3/4+z
1/4+x,3/4-y,3/4+z
1/2+x,y,1/2+z
1/2-x,-y,1/2+z
3/4-x,1/4+y,3/4+z
3/4+x,1/4-y,3/4+z
1/2+x,1/2+y,z
1/2-x,1/2-y,z
3/4-x,3/4+y,1/4+z
3/4+x,3/4-y,1/4+z
loop_
_atom_site_type_symbol
_atom_site_label
_atom_site_fract_x
_atom_site_fract_y
_atom_site_fract_z
Si Si1 0.000000 0.500000 0.812361
Si Si2 0.736581 0.642705 0.927071
Si Si3 0.595192 0.306371 0.931240
Si Si4 0.837369 0.823572 0.719280
Si Si5 0.168654 0.917548 0.825867
Si Si6 0.777933 0.981672 0.974091
O O1 0.094030 0.511623 0.746696
O O2 0.016022 0.441288 0.877636
O O3 0.726250 0.673276 0.819795
O O4 0.850820 0.633193 0.952461
O O5 0.685126 0.579186 0.925321
O O6 0.681106 0.679048 0.014001
O O7 0.662568 0.357393 0.887126
O O8 0.557743 0.265667 0.840978
O O9 0.507178 0.333008 0.996605
O O10 0.910695 0.768538 0.724381
O O11 0.178334 0.966666 0.909978
#
# Coordination Sequence:
#
# PCOD8187294 Si02
#       6
#     8  16  16  16  16  16
#     4  12  26  44  58  98 142 166 218 272 340 406
#     4   9  19  42  66  93 127 167 223 267 326 400
#     4  11  24  40  67  98 129 174 225 267 334 406
#     4  10  21  44  63  91 135 167 211 279 323 402
#     4  11  20  43  67  95 128 174 219 283 325 396
#     4   9  21  41  66  89 131 168 219 271 329 385
#
# _framework density 20.791598
#
# number of rings (size 3 to 8) (size 9 to 14) (size 15 to 20)
#    1.091    0.727    3.636    0.000    2.545    1.455 
#    6.545    0.000    0.000    0.000    0.000    0.000 
#    0.000    0.000    0.000    0.000    0.000    0.000 
#
# Total GULP energy -272608.440136 kJ/mol
# GULP energy per Si atom -12391.292733 kJ/mol
# Density = 2.074428 g / cm^3
# Si number density = 20.791598 Si / 1000 Ang^3
#
#
#
# Elastic Constant Matrix: (Units=GPa)
#
#
# Indices 1 2 3 4 5 6 
#
# 1 66.4701 7.4816 33.3578 0.0000 0.0000 0.0000
# 2 7.4816 42.0793 37.8029 0.0000 0.0000 0.0000
# 3 33.3578 37.8029 143.7567 0.0000 0.0000 0.0000
# 4 0.0000 0.0000 0.0000 36.4077 0.0000 0.0000
# 5 0.0000 0.0000 0.0000 0.0000 28.8422 0.0000
# 6 0.0000 0.0000 0.0000 0.0000 0.0000 34.2276
#
#
#
# Elastic Compliance Matrix: (Units=1/GPa)
#
#
# Indices 1 2 3 4 5 6 
#
# 1 0.017042 0.000684 -0.004134 0.000000 0.000000 0.000000
# 2 0.000684 0.031143 -0.008348 0.000000 0.000000 0.000000
# 3 -0.004134 -0.008348 0.010111 0.000000 0.000000 0.000000
# 4 0.000000 0.000000 0.000000 0.027467 0.000000 0.000000
# 5 0.000000 0.000000 0.000000 0.000000 0.034671 0.000000
# 6 0.000000 0.000000 0.000000 0.000000 0.000000 0.029216
#
#
# Mechanical properties :
#
#
# Convention : Reuss Voigt Hill
#
# Bulk Modulus (GPa) = 28.81931 45.51008 37.16470
# Shear Modulus (GPa) = 27.05433 31.47310 29.26372
#
# Velocity S-wave (km/s) = 3.61115 3.89490 3.75571
# Velocity P-wave (km/s) = 5.59270 6.49332 6.05977
#
# Compressibility (1/GPa) = 0.03469895
#
# Stress axis : x y z
#
# Youngs Moduli (GPa) = 58.67785 32.11020 98.90365
#
# Poissons Ratio (x) = -0.02197 0.40891
# Poissons Ratio (y) = -0.04015 0.82567
# Poissons Ratio (z) = 0.24260 0.26806
#
# Static dielectric constant tensor:
#      x y z
#    x 3.620510 0.000000 0.000000 
#    y 0.000000 3.344650 0.000000 
#    z 0.000000 0.000000 3.814070 
# 
# 
# High freq. dielectric constant tensor:
#      x y z
#    x 1.806630 0.000000 0.000000 
#    y 0.000000 1.782310 0.000000 
#    z 0.000000 0.000000 1.831470 
# 
# From -- ./inp_files/6208.got.cif
#   From: 2010.06.25/outbox.cif.g09.slc.cpg/sg43_4_cif.got.tgz:6208.got - 2010.06.26 16:48:59.
