data_PCOD8187658
_publ_section_title
;
Structure prediction by ZEFSAII (Michael W. Deem and Ramdas Pophale) SiO2 
 PCOD8187658
Probable space group: F D D 2
;
_chemical_formula_sum "Si O2"
_cell_formula_units_Z 96
_cell_length_a 11.842441
_cell_length_b 21.063318
_cell_length_c 17.220240
_cell_angle_alpha 90.000000
_cell_angle_beta 90.000000
_cell_angle_gamma 90.000000
_cell_volume 4295.435620
_symmetry_space_group_name_H-M "F D D 2"
_symmetry_group_IT_number 43
_symmetry_cell_setting 'orthorhombic'
loop_
_space_group_symop_operation_xyz
x,y,z
-x,-y,z
1/4-x,1/4+y,1/4+z
1/4+x,1/4-y,1/4+z
x,1/2+y,1/2+z
-x,1/2-y,1/2+z
1/4-x,3/4+y,3/4+z
1/4+x,3/4-y,3/4+z
1/2+x,y,1/2+z
1/2-x,-y,1/2+z
3/4-x,1/4+y,3/4+z
3/4+x,1/4-y,3/4+z
1/2+x,1/2+y,z
1/2-x,1/2-y,z
3/4-x,3/4+y,1/4+z
3/4+x,3/4-y,1/4+z
loop_
_atom_site_type_symbol
_atom_site_label
_atom_site_fract_x
_atom_site_fract_y
_atom_site_fract_z
Si Si1 0.753425 0.892954 0.743040
Si Si2 0.877895 0.370531 0.617826
Si Si3 0.051948 0.168265 0.661488
Si Si4 0.873153 0.978843 0.226390
Si Si5 0.439728 0.936297 0.466110
Si Si6 0.902000 0.692919 0.639505
O O1 0.886159 0.878652 0.723422
O O2 0.721123 0.878397 0.832377
O O3 0.689107 0.846209 0.686113
O O4 0.720432 0.965431 0.725278
O O5 0.860011 0.442329 0.646102
O O6 0.760574 0.335092 0.639102
O O7 0.918565 0.379101 0.528508
O O8 0.974475 0.332308 0.665231
O O9 0.125321 0.231988 0.648676
O O10 0.936131 0.200373 0.688623
O O11 0.854598 0.929701 0.297202
O O12 0.000000 0.000000 0.234318
O O13 0.500000 0.000000 0.500736
#
# Coordination Sequence:
#
# PCOD8187658 Si02
#       6
#    16  16  16  16  16  16
#     4  11  24  42  71 104 144 181 240 294 356 430
#     4  12  24  42  68 102 135 182 237 294 349 430
#     4  11  25  46  68 102 139 191 231 293 365 421
#     4  11  22  40  66 105 138 183 234 296 357 422
#     4  12  26  45  70  98 142 186 237 292 364 431
#     4  11  22  41  69  97 139 179 233 293 349 417
#
# _framework density 22.349305000000001
#
# number of rings (size 3 to 8) (size 9 to 14) (size 15 to 20)
#    0.000    0.667    5.000    4.000    0.000    1.333 
#    0.000    2.500    0.000    0.000    0.000    0.000 
#    0.000    0.000    0.000    0.000    0.000    0.000 
#
# Total GULP energy -297331.107807 kJ/mol
# GULP energy per Si atom -12388.796159 kJ/mol
# Density = 2.229844 g / cm^3
# Si number density = 22.349305 Si / 1000 Ang^3
#
#
#
# Elastic Constant Matrix: (Units=GPa)
#
#
# Indices 1 2 3 4 5 6 
#
# 1 82.9462 18.7833 3.2794 0.0000 0.0000 0.0000
# 2 18.7833 70.9923 29.9679 0.0000 0.0000 0.0000
# 3 3.2794 29.9679 79.1659 0.0000 0.0000 0.0000
# 4 0.0000 0.0000 0.0000 26.9292 0.0000 0.0000
# 5 0.0000 0.0000 0.0000 0.0000 9.4945 0.0000
# 6 0.0000 0.0000 0.0000 0.0000 0.0000 41.7170
#
#
#
# Elastic Compliance Matrix: (Units=1/GPa)
#
#
# Indices 1 2 3 4 5 6 
#
# 1 0.012878 -0.003787 0.000900 0.000000 0.000000 0.000000
# 2 -0.003787 0.017879 -0.006611 0.000000 0.000000 0.000000
# 3 0.000900 -0.006611 0.015097 0.000000 0.000000 0.000000
# 4 0.000000 0.000000 0.000000 0.037134 0.000000 0.000000
# 5 0.000000 0.000000 0.000000 0.000000 0.105324 0.000000
# 6 0.000000 0.000000 0.000000 0.000000 0.000000 0.023971
#
#
# Mechanical properties :
#
#
# Convention : Reuss Voigt Hill
#
# Bulk Modulus (GPa) = 37.23347 37.46282 37.34815
# Shear Modulus (GPa) = 20.81317 27.69973 24.25645
#
# Velocity S-wave (km/s) = 3.05498 3.52433 3.29801
# Velocity P-wave (km/s) = 5.39813 5.77581 5.59016
#
# Compressibility (1/GPa) = 0.02685756
#
# Stress axis : x y z
#
# Youngs Moduli (GPa) = 77.65145 55.93224 66.23839
#
# Poissons Ratio (x) = 0.21183 -0.05963
# Poissons Ratio (y) = 0.29409 0.43790
# Poissons Ratio (z) = -0.06990 0.36977
#
# Static dielectric constant tensor:
#      x y z
#    x 4.482280 0.000000 0.000000 
#    y 0.000000 4.409320 0.000000 
#    z 0.000000 0.000000 4.011290 
# 
# 
# High freq. dielectric constant tensor:
#      x y z
#    x 1.894830 0.000000 0.000000 
#    y 0.000000 1.873560 0.000000 
#    z 0.000000 0.000000 1.869180 
# 
# From -- ./inp_files/13305.got.cif
#   From: 2010.06.25/outbox.cif.g09.slc.cpg/sg43_7_cif.got.tgz:13305.got - 2010.06.26 16:48:59.
