data_PCOD8187411
_publ_section_title
;
Structure prediction by ZEFSAII (Michael W. Deem and Ramdas Pophale) SiO2 
 PCOD8187411
Probable space group: F D D 2
;
_chemical_formula_sum "Si O2"
_cell_formula_units_Z 88
_cell_length_a 20.129673
_cell_length_b 12.733724
_cell_length_c 14.259024
_cell_angle_alpha 90.000000
_cell_angle_beta 90.000000
_cell_angle_gamma 90.000000
_cell_volume 3654.954311
_symmetry_space_group_name_H-M "F D D 2"
_symmetry_group_IT_number 43
_symmetry_cell_setting 'orthorhombic'
loop_
_space_group_symop_operation_xyz
x,y,z
-x,-y,z
1/4-x,1/4+y,1/4+z
1/4+x,1/4-y,1/4+z
x,1/2+y,1/2+z
-x,1/2-y,1/2+z
1/4-x,3/4+y,3/4+z
1/4+x,3/4-y,3/4+z
1/2+x,y,1/2+z
1/2-x,-y,1/2+z
3/4-x,1/4+y,3/4+z
3/4+x,1/4-y,3/4+z
1/2+x,1/2+y,z
1/2-x,1/2-y,z
3/4-x,3/4+y,1/4+z
3/4+x,3/4-y,1/4+z
loop_
_atom_site_type_symbol
_atom_site_label
_atom_site_fract_x
_atom_site_fract_y
_atom_site_fract_z
Si Si1 0.262086 0.551373 0.473550
Si Si2 0.397540 0.287652 0.420918
Si Si3 0.363948 0.690647 0.726087
Si Si4 0.750000 0.250000 0.602619
Si Si5 0.111605 0.475406 0.871059
Si Si6 0.295853 0.978805 0.162689
O O1 0.187443 0.532393 0.436160
O O2 0.261251 0.655271 0.534638
O O3 0.309966 0.551267 0.384288
O O4 0.293353 0.470185 0.548468
O O5 0.363221 0.223782 0.335615
O O6 0.349106 0.275557 0.509488
O O7 0.409637 0.410145 0.402412
O O8 0.471108 0.243416 0.445316
O O9 0.314100 0.766212 0.669376
O O10 0.344135 0.568014 0.708003
O O11 0.072414 0.388803 0.934651
#
# Coordination Sequence:
#
# PCOD8187411 Si02
#       6
#    16  16  16   8  16  16
#     4  10  22  42  71 104 140 192 242 304 373 445
#     4  11  27  46  73 110 146 195 248 308 387 444
#     4  10  24  45  74 107 141 188 255 316 368 447
#     4  10  22  44  70 106 142 188 260 308 370 450
#     4  12  24  49  70 107 152 195 244 303 383 462
#     4  10  23  48  69 102 147 192 244 302 367 454
#
# _framework density 24.076910000000002
#
# number of rings (size 3 to 8) (size 9 to 14) (size 15 to 20)
#    0.000    1.455    1.818    1.636    7.636    4.364 
#   13.091    0.000    0.000    0.000    0.000    0.000 
#    0.000    0.000    0.000    0.000    0.000    0.000 
#
# Total GULP energy -272587.673360 kJ/mol
# GULP energy per Si atom -12390.348789 kJ/mol
# Density = 2.402211 g / cm^3
# Si number density = 24.076910 Si / 1000 Ang^3
#
#
#
# Elastic Constant Matrix: (Units=GPa)
#
#
# Indices 1 2 3 4 5 6 
#
# 1 114.9116 27.5864 31.2370 0.0000 0.0000 0.0000
# 2 27.5864 86.4353 20.9414 0.0000 0.0000 0.0000
# 3 31.2370 20.9414 79.9483 0.0000 0.0000 0.0000
# 4 0.0000 0.0000 0.0000 37.6587 0.0000 0.0000
# 5 0.0000 0.0000 0.0000 0.0000 27.8852 0.0000
# 6 0.0000 0.0000 0.0000 0.0000 0.0000 34.4965
#
#
#
# Elastic Compliance Matrix: (Units=1/GPa)
#
#
# Indices 1 2 3 4 5 6 
#
# 1 0.010198 -0.002445 -0.003344 0.000000 0.000000 0.000000
# 2 -0.002445 0.012939 -0.002434 0.000000 0.000000 0.000000
# 3 -0.003344 -0.002434 0.014452 0.000000 0.000000 0.000000
# 4 0.000000 0.000000 0.000000 0.026554 0.000000 0.000000
# 5 0.000000 0.000000 0.000000 0.000000 0.035861 0.000000
# 6 0.000000 0.000000 0.000000 0.000000 0.000000 0.028988
#
#
# Mechanical properties :
#
#
# Convention : Reuss Voigt Hill
#
# Bulk Modulus (GPa) = 47.29503 48.98052 48.13778
# Shear Modulus (GPa) = 32.78948 33.44346 33.11647
#
# Velocity S-wave (km/s) = 3.69435 3.73101 3.71272
# Velocity P-wave (km/s) = 6.15496 6.24084 6.19805
#
# Compressibility (1/GPa) = 0.02114387
#
# Stress axis : x y z
#
# Youngs Moduli (GPa) = 98.05547 77.28396 69.19298
#
# Poissons Ratio (x) = 0.18893 0.23140
# Poissons Ratio (y) = 0.23971 0.16842
# Poissons Ratio (z) = 0.32793 0.18812
#
# Static dielectric constant tensor:
#      x y z
#    x 4.566940 0.000000 0.000000 
#    y 0.000000 3.560420 0.000000 
#    z 0.000000 0.000000 4.387270 
# 
# 
# High freq. dielectric constant tensor:
#      x y z
#    x 1.955940 0.000000 0.000000 
#    y 0.000000 1.964620 0.000000 
#    z 0.000000 0.000000 1.948540 
# 
# From -- ./inp_files/10037.got.cif
#   From: 2010.06.25/outbox.cif.g09.slc.cpg/sg43_6_cif.got.tgz:10037.got - 2010.06.26 16:48:59.
