data_PCOD8187043
_publ_section_title
;
Structure prediction by ZEFSAII (Michael W. Deem and Ramdas Pophale) SiO2 
 PCOD8187043
Probable space group: F D D 2
;
_chemical_formula_sum "Si O2"
_cell_formula_units_Z 128
_cell_length_a 22.394428
_cell_length_b 23.558483
_cell_length_c 11.559569
_cell_angle_alpha 90.000000
_cell_angle_beta 90.000000
_cell_angle_gamma 90.000000
_cell_volume 6098.582979
_symmetry_space_group_name_H-M "F D D 2"
_symmetry_group_IT_number 43
_symmetry_cell_setting 'orthorhombic'
loop_
_space_group_symop_operation_xyz
x,y,z
-x,-y,z
1/4-x,1/4+y,1/4+z
1/4+x,1/4-y,1/4+z
x,1/2+y,1/2+z
-x,1/2-y,1/2+z
1/4-x,3/4+y,3/4+z
1/4+x,3/4-y,3/4+z
1/2+x,y,1/2+z
1/2-x,-y,1/2+z
3/4-x,1/4+y,3/4+z
3/4+x,1/4-y,3/4+z
1/2+x,1/2+y,z
1/2-x,1/2-y,z
3/4-x,3/4+y,1/4+z
3/4+x,3/4-y,1/4+z
loop_
_atom_site_type_symbol
_atom_site_label
_atom_site_fract_x
_atom_site_fract_y
_atom_site_fract_z
Si Si1 0.245023 0.416554 0.271860
Si Si2 0.261920 0.814698 0.410801
Si Si3 0.443511 0.271529 0.428522
Si Si4 0.357652 0.054385 0.101362
Si Si5 0.836068 0.517728 0.420704
Si Si6 0.159728 0.398837 0.868812
Si Si7 0.032095 0.944468 0.920596
Si Si8 0.573971 0.806581 0.954829
O O1 0.296713 0.461713 0.242165
O O2 0.190600 0.415398 0.182003
O O3 0.215614 0.435461 0.393730
O O4 0.274356 0.354262 0.268241
O O5 0.250000 0.750000 0.372481
O O6 0.327485 0.833889 0.367079
O O7 0.215832 0.857264 0.348719
O O8 0.251865 0.822449 0.548516
O O9 0.414402 0.254863 0.306508
O O10 0.400339 0.313664 0.502519
O O11 0.506240 0.303637 0.411715
O O12 0.364717 0.989026 0.137464
O O13 0.329922 0.056751 0.972724
O O14 0.899422 0.544764 0.389810
O O15 0.826922 0.460399 0.342680
O O16 0.100761 0.366258 0.914272
O O17 0.000000 0.000000 0.972406
#
# Coordination Sequence:
#
# PCOD8187043 Si02
#       8
#    16  16  16  16  16  16  16  16
#     4  10  23  37  60  91 123 164 203 264 316 385
#     4  11  19  36  60  96 122 150 204 266 321 360
#     4  10  25  40  62  92 122 167 207 261 327 388
#     4  10  20  34  58  91 120 155 201 254 315 374
#     4  10  22  43  59  91 127 162 211 262 327 389
#     4  12  22  38  65  92 121 166 209 264 324 384
#     4  11  21  37  62  92 124 162 206 261 319 377
#     4  10  22  40  61  91 127 159 211 272 317 382
#
# _framework density 20.988482000000001
#
# number of rings (size 3 to 8) (size 9 to 14) (size 15 to 20)
#    0.000    1.750    5.000    1.500    7.000    3.000 
#    0.000    0.000    0.000    1.500    0.000    0.000 
#    0.000    0.000    0.000    0.000    0.000    0.000 
#
# Total GULP energy -396603.640784 kJ/mol
# GULP energy per Si atom -12393.863775 kJ/mol
# Density = 2.094071 g / cm^3
# Si number density = 20.988482 Si / 1000 Ang^3
#
#
#
# Elastic Constant Matrix: (Units=GPa)
#
#
# Indices 1 2 3 4 5 6 
#
# 1 39.9234 21.7296 10.6639 0.0000 0.0000 0.0000
# 2 21.7296 108.3494 41.7150 0.0000 0.0000 0.0000
# 3 10.6639 41.7150 93.0015 0.0000 0.0000 0.0000
# 4 0.0000 0.0000 0.0000 19.9571 0.0000 0.0000
# 5 0.0000 0.0000 0.0000 0.0000 18.1767 0.0000
# 6 0.0000 0.0000 0.0000 0.0000 0.0000 17.0477
#
#
#
# Elastic Compliance Matrix: (Units=1/GPa)
#
#
# Indices 1 2 3 4 5 6 
#
# 1 0.028172 -0.005326 -0.000841 0.000000 0.000000 0.000000
# 2 -0.005326 0.012163 -0.004845 0.000000 0.000000 0.000000
# 3 -0.000841 -0.004845 0.013022 0.000000 0.000000 0.000000
# 4 0.000000 0.000000 0.000000 0.050108 0.000000 0.000000
# 5 0.000000 0.000000 0.000000 0.000000 0.055015 0.000000
# 6 0.000000 0.000000 0.000000 0.000000 0.000000 0.058659
#
#
# Mechanical properties :
#
#
# Convention : Reuss Voigt Hill
#
# Bulk Modulus (GPa) = 31.91602 43.27681 37.59642
# Shear Modulus (GPa) = 20.03153 22.18069 21.10611
#
# Velocity S-wave (km/s) = 3.09270 3.25438 3.17457
# Velocity P-wave (km/s) = 5.29079 5.89791 5.60258
#
# Compressibility (1/GPa) = 0.03133223
#
# Stress axis : x y z
#
# Youngs Moduli (GPa) = 35.49683 82.21793 76.79256
#
# Poissons Ratio (x) = 0.43788 0.06461
# Poissons Ratio (y) = 0.18905 0.37205
# Poissons Ratio (z) = 0.02987 0.39833
#
# Static dielectric constant tensor:
#      x y z
#    x 3.642600 0.000000 0.000000 
#    y 0.000000 3.841160 0.000000 
#    z 0.000000 0.000000 3.606520 
# 
# 
# High freq. dielectric constant tensor:
#      x y z
#    x 1.816510 0.000000 0.000000 
#    y 0.000000 1.815520 0.000000 
#    z 0.000000 0.000000 1.795460 
# 
# From -- ./inp_files/7673.got.cif
#   From: 2010.06.25/outbox.cif.g09.slc.cpg/sg43_4_cif.got.tgz:7673.got - 2010.06.26 16:48:59.
