data_PCOD8187608
_publ_section_title
;
Structure prediction by ZEFSAII (Michael W. Deem and Ramdas Pophale) SiO2 
 PCOD8187608
Probable space group: F D D 2
;
_chemical_formula_sum "Si O2"
_cell_formula_units_Z 72
_cell_length_a 30.154345
_cell_length_b 20.116245
_cell_length_c 4.869782
_cell_angle_alpha 90.000000
_cell_angle_beta 90.000000
_cell_angle_gamma 90.000000
_cell_volume 2953.971737
_symmetry_space_group_name_H-M "F D D 2"
_symmetry_group_IT_number 43
_symmetry_cell_setting 'orthorhombic'
loop_
_space_group_symop_operation_xyz
x,y,z
-x,-y,z
1/4-x,1/4+y,1/4+z
1/4+x,1/4-y,1/4+z
x,1/2+y,1/2+z
-x,1/2-y,1/2+z
1/4-x,3/4+y,3/4+z
1/4+x,3/4-y,3/4+z
1/2+x,y,1/2+z
1/2-x,-y,1/2+z
3/4-x,1/4+y,3/4+z
3/4+x,1/4-y,3/4+z
1/2+x,1/2+y,z
1/2-x,1/2-y,z
3/4-x,3/4+y,1/4+z
3/4+x,3/4-y,1/4+z
loop_
_atom_site_type_symbol
_atom_site_label
_atom_site_fract_x
_atom_site_fract_y
_atom_site_fract_z
Si Si1 0.701791 0.571881 0.390590
Si Si2 0.409787 0.821605 0.116432
Si Si3 0.068082 0.406080 0.143453
Si Si4 0.043287 0.626931 0.597815
Si Si5 0.750000 0.750000 0.171155
O O1 0.680730 0.500169 0.402523
O O2 0.704705 0.603139 0.693648
O O3 0.753838 0.568852 0.312816
O O4 0.672348 0.616426 0.178450
O O5 0.359346 0.815389 0.219035
O O6 0.432734 0.876166 0.306494
O O7 0.418870 0.850394 0.813126
O O8 0.035907 0.466642 0.220210
O O9 0.022532 0.553147 0.631050
#
# Coordination Sequence:
#
# PCOD8187608 Si02
#       5
#    16  16  16  16   8
#     4  11  24  47  71 106 145 188 253 299 366 449
#     4  12  25  45  75 106 148 189 250 312 365 436
#     4  11  26  46  72 109 146 198 244 310 368 441
#     4  11  24  45  75 107 142 199 237 307 376 445
#     4  10  26  50  78 108 158 196 256 302 390 458
#
# _framework density 24.373964000000001
#
# number of rings (size 3 to 8) (size 9 to 14) (size 15 to 20)
#    0.000    0.889    0.000    6.667    3.111    8.000 
#   12.000    0.000    0.000    0.000    0.000    0.000 
#    0.000    0.000    0.000    0.000    0.000    0.000 
#
# Total GULP energy -223069.716030 kJ/mol
# GULP energy per Si atom -12392.762002 kJ/mol
# Density = 2.431849 g / cm^3
# Si number density = 24.373964 Si / 1000 Ang^3
#
#
#
# Elastic Constant Matrix: (Units=GPa)
#
#
# Indices 1 2 3 4 5 6 
#
# 1 125.3360 51.3287 30.4269 0.0316 0.0005 0.0058
# 2 51.3287 118.7974 41.7823 0.0133 0.0138 0.0129
# 3 30.4269 41.7823 109.1138 0.0771 0.0189 0.0196
# 4 0.0316 0.0133 0.0771 38.5861 0.0118 0.0188
# 5 0.0005 0.0138 0.0189 0.0118 48.8003 -0.0022
# 6 0.0058 0.0129 0.0196 0.0188 -0.0022 26.9153
#
#
#
# Elastic Compliance Matrix: (Units=1/GPa)
#
#
# Indices 1 2 3 4 5 6 
#
# 1 0.009849 -0.003801 -0.001291 -0.000004 0.000001 0.000001
# 2 -0.003801 0.011195 -0.003227 0.000006 -0.000002 -0.000002
# 3 -0.001291 -0.003227 0.010760 -0.000019 -0.000003 -0.000006
# 4 -0.000004 0.000006 -0.000019 0.025916 -0.000006 -0.000018
# 5 0.000001 -0.000002 -0.000003 -0.000006 0.020492 0.000002
# 6 0.000001 -0.000002 -0.000006 -0.000018 0.000002 0.037154
#
#
# Mechanical properties :
#
#
# Convention : Reuss Voigt Hill
#
# Bulk Modulus (GPa) = 65.93596 66.70256 66.31926
# Shear Modulus (GPa) = 36.48076 38.17429 37.32752
#
# Velocity S-wave (km/s) = 3.87293 3.96181 3.91762
# Velocity P-wave (km/s) = 6.86367 6.95368 6.90882
#
# Compressibility (1/GPa) = 0.01516623
#
# Stress axis : x y z
#
# Youngs Moduli (GPa) = 101.53679 89.32530 92.93410
#
# Poissons Ratio (x) = 0.33956 0.11995
# Poissons Ratio (y) = 0.38598 0.29988
# Poissons Ratio (z) = 0.13106 0.28824
#
# Static dielectric constant tensor:
#      x y z
#    x 4.570050 -0.000030 -0.000060 
#    y -0.000030 4.199000 -0.000110 
#    z -0.000060 -0.000110 4.548150 
# 
# 
# High freq. dielectric constant tensor:
#      x y z
#    x 1.972190 0.000000 0.000000 
#    y 0.000000 1.964960 0.000000 
#    z 0.000000 0.000000 1.983440 
# 
# From -- ./inp_files/1335.got.cif
#   From: 2010.06.25/outbox.cif.g09.slc.cpg/sg43_1_cif.got.tgz:1335.got - 2010.06.26 16:48:59.
