data_PCOD8187677
_publ_section_title
;
Structure prediction by ZEFSAII (Michael W. Deem and Ramdas Pophale) SiO2 
 PCOD8187677
Probable space group: F D D 2
;
_chemical_formula_sum "Si O2"
_cell_formula_units_Z 120
_cell_length_a 24.569737
_cell_length_b 25.887769
_cell_length_c 8.841574
_cell_angle_alpha 90.000000
_cell_angle_beta 90.000000
_cell_angle_gamma 90.000000
_cell_volume 5623.733326
_symmetry_space_group_name_H-M "F D D 2"
_symmetry_group_IT_number 43
_symmetry_cell_setting 'orthorhombic'
loop_
_space_group_symop_operation_xyz
x,y,z
-x,-y,z
1/4-x,1/4+y,1/4+z
1/4+x,1/4-y,1/4+z
x,1/2+y,1/2+z
-x,1/2-y,1/2+z
1/4-x,3/4+y,3/4+z
1/4+x,3/4-y,3/4+z
1/2+x,y,1/2+z
1/2-x,-y,1/2+z
3/4-x,1/4+y,3/4+z
3/4+x,1/4-y,3/4+z
1/2+x,1/2+y,z
1/2-x,1/2-y,z
3/4-x,3/4+y,1/4+z
3/4+x,3/4-y,1/4+z
loop_
_atom_site_type_symbol
_atom_site_label
_atom_site_fract_x
_atom_site_fract_y
_atom_site_fract_z
Si Si1 0.592732 0.526596 0.179050
Si Si2 0.311422 0.046163 0.690263
Si Si3 0.829378 0.918982 0.976289
Si Si4 0.235989 0.986851 0.495102
Si Si5 0.250000 0.250000 0.199734
Si Si6 0.792016 0.809700 0.937493
Si Si7 0.365892 0.475452 0.674697
Si Si8 0.058840 0.081776 0.478913
O O1 0.626158 0.472973 0.200381
O O2 0.563223 0.547636 0.327673
O O3 0.632884 0.571664 0.121233
O O4 0.550057 0.515212 0.050888
O O5 0.306466 0.107199 0.702320
O O6 0.281210 0.031023 0.532905
O O7 0.280327 0.013338 0.819712
O O8 0.831201 0.859198 0.934283
O O9 0.848907 0.955971 0.839486
O O10 0.766871 0.932226 0.022783
O O11 0.183416 0.993434 0.599554
O O12 0.237986 0.199235 0.097537
O O13 0.830803 0.760810 0.918016
O O14 0.747263 0.813580 0.805975
O O15 0.385931 0.426408 0.576352
#
# Coordination Sequence:
#
# PCOD8187677 Si02
#       8
#    16  16  16  16   8  16  16  16
#     4  11  27  46  69 104 148 177 232 297 348 421
#     4  11  25  47  70 102 140 185 236 289 347 416
#     4  11  25  46  70 104 135 190 239 280 358 419
#     4  11  22  45  67  98 139 181 233 292 336 419
#     4  12  26  48  70 102 146 184 226 294 368 412
#     4  12  25  46  73  99 140 188 234 291 349 431
#     4  12  24  43  69 100 143 181 231 294 354 413
#     4  12  25  45  69 108 137 188 239 282 357 415
#
# _framework density 21.338138000000001
#
# number of rings (size 3 to 8) (size 9 to 14) (size 15 to 20)
#    0.000    0.533    6.667    0.000    5.600    1.067 
#    7.200    0.000    0.000    0.000    0.000    0.000 
#    0.000    0.000    0.000    0.000    0.000    0.000 
#
# Total GULP energy -371879.317936 kJ/mol
# GULP energy per Si atom -12395.977265 kJ/mol
# Density = 2.128957 g / cm^3
# Si number density = 21.338138 Si / 1000 Ang^3
#
#
#
# Elastic Constant Matrix: (Units=GPa)
#
#
# Indices 1 2 3 4 5 6 
#
# 1 109.9090 48.8526 49.9194 -0.0150 0.0131 0.0106
# 2 48.8526 116.6682 43.9219 -0.0238 0.0152 0.0117
# 3 49.9194 43.9219 98.9580 -0.0438 0.0311 0.0263
# 4 -0.0150 -0.0238 -0.0438 24.1544 0.0157 0.0143
# 5 0.0131 0.0152 0.0311 0.0157 43.1350 -0.0117
# 6 0.0106 0.0117 0.0263 0.0143 -0.0117 27.6867
#
#
#
# Elastic Compliance Matrix: (Units=1/GPa)
#
#
# Indices 1 2 3 4 5 6 
#
# 1 0.012921 -0.003550 -0.004943 -0.000004 0.000001 0.000001
# 2 -0.003550 0.011266 -0.003210 0.000003 -0.000001 0.000000
# 3 -0.004943 -0.003210 0.014023 0.000019 -0.000007 -0.000010
# 4 -0.000004 0.000003 0.000019 0.041400 -0.000015 -0.000021
# 5 0.000001 -0.000001 -0.000007 -0.000015 0.023183 0.000010
# 6 0.000001 0.000000 -0.000010 -0.000021 0.000010 0.036118
#
#
# Mechanical properties :
#
#
# Convention : Reuss Voigt Hill
#
# Bulk Modulus (GPa) = 67.53844 67.88033 67.70938
# Shear Modulus (GPa) = 29.89507 31.18462 30.53985
#
# Velocity S-wave (km/s) = 3.74708 3.82704 3.78727
# Velocity P-wave (km/s) = 7.10218 7.17001 7.13618
#
# Compressibility (1/GPa) = 0.01480638
#
# Stress axis : x y z
#
# Youngs Moduli (GPa) = 77.39297 88.76214 71.31058
#
# Poissons Ratio (x) = 0.31508 0.35245
# Poissons Ratio (y) = 0.27473 0.22889
# Poissons Ratio (z) = 0.38251 0.28490
#
# Static dielectric constant tensor:
#      x y z
#    x 4.396880 -0.000490 0.000010 
#    y -0.000490 3.874230 -0.000010 
#    z 0.000010 -0.000010 4.011660 
# 
# 
# High freq. dielectric constant tensor:
#      x y z
#    x 1.857900 0.000000 0.000000 
#    y 0.000000 1.826670 0.000000 
#    z 0.000000 0.000000 1.843680 
# 
# From -- ./inp_files/3895.got.cif
#   From: 2010.06.25/outbox.cif.g09.slc.cpg/sg43_2_cif.got.tgz:3895.got - 2010.06.26 16:48:59.
