data_PCOD8187197
_publ_section_title
;
Structure prediction by ZEFSAII (Michael W. Deem and Ramdas Pophale) SiO2 
 PCOD8187197
Probable space group: F D D 2
;
_chemical_formula_sum "Si O2"
_cell_formula_units_Z 64
_cell_length_a 7.187574
_cell_length_b 17.473735
_cell_length_c 18.734508
_cell_angle_alpha 90.000000
_cell_angle_beta 90.000000
_cell_angle_gamma 90.000000
_cell_volume 2352.937365
_symmetry_space_group_name_H-M "F D D 2"
_symmetry_group_IT_number 43
_symmetry_cell_setting 'orthorhombic'
loop_
_space_group_symop_operation_xyz
x,y,z
-x,-y,z
1/4-x,1/4+y,1/4+z
1/4+x,1/4-y,1/4+z
x,1/2+y,1/2+z
-x,1/2-y,1/2+z
1/4-x,3/4+y,3/4+z
1/4+x,3/4-y,3/4+z
1/2+x,y,1/2+z
1/2-x,-y,1/2+z
3/4-x,1/4+y,3/4+z
3/4+x,1/4-y,3/4+z
1/2+x,1/2+y,z
1/2-x,1/2-y,z
3/4-x,3/4+y,1/4+z
3/4+x,3/4-y,1/4+z
loop_
_atom_site_type_symbol
_atom_site_label
_atom_site_fract_x
_atom_site_fract_y
_atom_site_fract_z
Si Si1 0.100626 0.814038 0.511640
Si Si2 0.591045 0.832853 0.502332
Si Si3 0.159775 0.062011 0.921415
Si Si4 0.854441 0.667853 0.663022
O O1 0.250000 0.750000 0.496262
O O2 0.914565 0.760295 0.501091
O O3 0.106106 0.848153 0.591783
O O4 0.084978 0.883192 0.452820
O O5 0.383248 0.871943 0.482397
O O6 0.727368 0.870278 0.446110
O O7 0.651137 0.858555 0.581310
O O8 0.353787 0.009716 0.923607
O O9 0.000000 0.000000 0.931446
#
# Coordination Sequence:
#
# PCOD8187197 Si02
#       4
#    16  16  16  16
#     4  10  21  38  60  91 128 161 204 264 319 371
#     4  10  21  40  64  89 122 167 212 256 313 380
#     4   8  18  38  61  86 123 166 205 255 317 376
#     4  10  21  38  64  92 121 164 214 259 312 377
#
# _framework density 27.200043000000001
#
# number of rings (size 3 to 8) (size 9 to 14) (size 15 to 20)
#    0.000    2.500    0.000    2.250    0.000    8.000 
#    0.000    3.750    0.000   12.000    0.000    0.000 
#    0.000    0.000    0.000    0.000    0.000    0.000 
#
# Total GULP energy -198382.444696 kJ/mol
# GULP energy per Si atom -12398.902794 kJ/mol
# Density = 2.713813 g / cm^3
# Si number density = 27.200043 Si / 1000 Ang^3
#
#
#
# Elastic Constant Matrix: (Units=GPa)
#
#
# Indices 1 2 3 4 5 6 
#
# 1 116.2133 30.4641 28.0864 0.0000 0.0000 0.0000
# 2 30.4641 160.3250 110.3222 0.0000 0.0000 0.0000
# 3 28.0864 110.3222 165.3180 0.0000 0.0000 0.0000
# 4 0.0000 0.0000 0.0000 49.8826 0.0000 0.0000
# 5 0.0000 0.0000 0.0000 0.0000 36.0759 0.0000
# 6 0.0000 0.0000 0.0000 0.0000 0.0000 34.9247
#
#
#
# Elastic Compliance Matrix: (Units=1/GPa)
#
#
# Indices 1 2 3 4 5 6 
#
# 1 0.009103 -0.001231 -0.000725 0.000000 0.000000 0.000000
# 2 -0.001231 0.011700 -0.007599 0.000000 0.000000 0.000000
# 3 -0.000725 -0.007599 0.011243 0.000000 0.000000 0.000000
# 4 0.000000 0.000000 0.000000 0.020047 0.000000 0.000000
# 5 0.000000 0.000000 0.000000 0.000000 0.027719 0.000000
# 6 0.000000 0.000000 0.000000 0.000000 0.000000 0.028633
#
#
# Mechanical properties :
#
#
# Convention : Reuss Voigt Hill
#
# Bulk Modulus (GPa) = 77.30011 86.62245 81.96128
# Shear Modulus (GPa) = 37.91715 42.37554 40.14635
#
# Velocity S-wave (km/s) = 3.73770 3.95133 3.84600
# Velocity P-wave (km/s) = 6.86352 7.26175 7.06544
#
# Compressibility (1/GPa) = 0.01293659
#
# Stress axis : x y z
#
# Youngs Moduli (GPa) = 109.85708 85.47055 88.94399
#
# Poissons Ratio (x) = 0.10518 0.06451
# Poissons Ratio (y) = 0.13519 0.67586
# Poissons Ratio (z) = 0.07968 0.64946
#
# Static dielectric constant tensor:
#      x y z
#    x 7.901780 0.000000 0.000000 
#    y 0.000000 6.182120 0.000000 
#    z 0.000000 0.000000 4.678680 
# 
# 
# High freq. dielectric constant tensor:
#      x y z
#    x 2.210040 0.000000 0.000000 
#    y 0.000000 2.137510 0.000000 
#    z 0.000000 0.000000 2.066160 
# 
# From -- ./inp_files/12497.got.cif
#   From: 2010.06.25/outbox.cif.g09.slc.cpg/sg43_7_cif.got.tgz:12497.got - 2010.06.26 16:48:59.
