data_PCOD8187259
_publ_section_title
;
Structure prediction by ZEFSAII (Michael W. Deem and Ramdas Pophale) SiO2 
 PCOD8187259
Probable space group: F D D 2
;
_chemical_formula_sum "Si O2"
_cell_formula_units_Z 104
_cell_length_a 8.143104
_cell_length_b 22.458676
_cell_length_c 25.831237
_cell_angle_alpha 90.000000
_cell_angle_beta 90.000000
_cell_angle_gamma 90.000000
_cell_volume 4724.102753
_symmetry_space_group_name_H-M "F D D 2"
_symmetry_group_IT_number 43
_symmetry_cell_setting 'orthorhombic'
loop_
_space_group_symop_operation_xyz
x,y,z
-x,-y,z
1/4-x,1/4+y,1/4+z
1/4+x,1/4-y,1/4+z
x,1/2+y,1/2+z
-x,1/2-y,1/2+z
1/4-x,3/4+y,3/4+z
1/4+x,3/4-y,3/4+z
1/2+x,y,1/2+z
1/2-x,-y,1/2+z
3/4-x,1/4+y,3/4+z
3/4+x,1/4-y,3/4+z
1/2+x,1/2+y,z
1/2-x,1/2-y,z
3/4-x,3/4+y,1/4+z
3/4+x,3/4-y,1/4+z
loop_
_atom_site_type_symbol
_atom_site_label
_atom_site_fract_x
_atom_site_fract_y
_atom_site_fract_z
Si Si1 0.806244 0.817642 0.144460
Si Si2 0.336217 0.545449 0.288115
Si Si3 0.003631 0.836972 0.042732
Si Si4 0.250000 0.250000 0.720315
Si Si5 0.693073 0.912723 0.901164
Si Si6 0.285926 0.187674 0.972544
Si Si7 0.488694 0.152948 0.743969
O O1 0.750000 0.750000 0.137646
O O2 0.636839 0.852225 0.152014
O O3 0.933307 0.828426 0.190084
O O4 0.903783 0.840670 0.095001
O O5 0.374270 0.473383 0.291231
O O6 0.370135 0.578807 0.342808
O O7 0.142722 0.547483 0.274106
O O8 0.416722 0.585349 0.242247
O O9 0.118183 0.896296 0.037759
O O10 0.884111 0.839962 0.993446
O O11 0.111322 0.220069 0.684229
O O12 0.345932 0.201710 0.756544
O O13 0.621075 0.855167 0.931278
O O14 0.250000 0.250000 0.943526
#
# Coordination Sequence:
#
# PCOD8187259 Si02
#       7
#    16  16  16   8  16  16  16
#     4  12  22  43  73 102 129 179 236 294 346 418
#     4  11  23  40  67  98 134 175 232 286 339 420
#     4  11  22  41  71 101 125 182 242 290 343 411
#     4  12  26  42  64 104 142 186 220 292 364 420
#     4  12  23  43  70  96 136 178 234 283 345 430
#     4  10  21  41  66  97 132 176 225 282 355 408
#     4  12  26  39  66 102 143 173 233 288 352 413
#
# _framework density 22.014762999999999
#
# number of rings (size 3 to 8) (size 9 to 14) (size 15 to 20)
#    0.000    0.615    7.692    0.923    4.308    0.000 
#    1.385    0.000    0.000    3.692    0.000    0.000 
#    0.000    0.000    0.000    0.000    0.000    0.000 
#
# Total GULP energy -322110.902796 kJ/mol
# GULP energy per Si atom -12388.880877 kJ/mol
# Density = 2.196466 g / cm^3
# Si number density = 22.014763 Si / 1000 Ang^3
#
#
#
# Elastic Constant Matrix: (Units=GPa)
#
#
# Indices 1 2 3 4 5 6 
#
# 1 92.9055 50.9785 41.3656 0.0000 0.0000 0.0000
# 2 50.9785 113.1691 67.8018 0.0000 0.0000 0.0000
# 3 41.3656 67.8018 106.0928 0.0000 0.0000 0.0000
# 4 0.0000 0.0000 0.0000 23.5827 0.0000 0.0000
# 5 0.0000 0.0000 0.0000 0.0000 31.0977 0.0000
# 6 0.0000 0.0000 0.0000 0.0000 0.0000 52.7689
#
#
#
# Elastic Compliance Matrix: (Units=1/GPa)
#
#
# Indices 1 2 3 4 5 6 
#
# 1 0.014673 -0.005156 -0.002426 0.000000 0.000000 0.000000
# 2 -0.005156 0.016131 -0.008298 0.000000 0.000000 0.000000
# 3 -0.002426 -0.008298 0.015675 0.000000 0.000000 0.000000
# 4 0.000000 0.000000 0.000000 0.042404 0.000000 0.000000
# 5 0.000000 0.000000 0.000000 0.000000 0.032157 0.000000
# 6 0.000000 0.000000 0.000000 0.000000 0.000000 0.018951
#
#
# Mechanical properties :
#
#
# Convention : Reuss Voigt Hill
#
# Bulk Modulus (GPa) = 67.94522 70.27324 69.10923
# Shear Modulus (GPa) = 28.30346 31.62462 29.96404
#
# Velocity S-wave (km/s) = 3.58950 3.79426 3.69330
# Velocity P-wave (km/s) = 6.93612 7.15440 7.04611
#
# Compressibility (1/GPa) = 0.01471774
#
# Stress axis : x y z
#
# Youngs Moduli (GPa) = 68.15230 61.99301 63.79648
#
# Poissons Ratio (x) = 0.31966 0.15475
# Poissons Ratio (y) = 0.35142 0.52941
# Poissons Ratio (z) = 0.16531 0.51444
#
# Static dielectric constant tensor:
#      x y z
#    x 4.876520 0.000000 0.000000 
#    y 0.000000 4.001800 0.000000 
#    z 0.000000 0.000000 3.612350 
# 
# 
# High freq. dielectric constant tensor:
#      x y z
#    x 1.904690 0.000000 0.000000 
#    y 0.000000 1.853600 0.000000 
#    z 0.000000 0.000000 1.837430 
# 
# From -- ./inp_files/24421.got.cif
#   From: 2010.06.25/outbox.cif.g09.slc.cpg/sg43_13_cif.got.tgz:24421.got - 2010.06.26 16:48:59.
