data_PCOD8187642
_publ_section_title
;
Structure prediction by ZEFSAII (Michael W. Deem and Ramdas Pophale) SiO2 
 PCOD8187642
Probable space group: F D D 2
;
_chemical_formula_sum "Si O2"
_cell_formula_units_Z 120
_cell_length_a 21.733752
_cell_length_b 8.881062
_cell_length_c 29.555903
_cell_angle_alpha 90.000000
_cell_angle_beta 90.000000
_cell_angle_gamma 90.000000
_cell_volume 5704.844901
_symmetry_space_group_name_H-M "F D D 2"
_symmetry_group_IT_number 43
_symmetry_cell_setting 'orthorhombic'
loop_
_space_group_symop_operation_xyz
x,y,z
-x,-y,z
1/4-x,1/4+y,1/4+z
1/4+x,1/4-y,1/4+z
x,1/2+y,1/2+z
-x,1/2-y,1/2+z
1/4-x,3/4+y,3/4+z
1/4+x,3/4-y,3/4+z
1/2+x,y,1/2+z
1/2-x,-y,1/2+z
3/4-x,1/4+y,3/4+z
3/4+x,1/4-y,3/4+z
1/2+x,1/2+y,z
1/2-x,1/2-y,z
3/4-x,3/4+y,1/4+z
3/4+x,3/4-y,1/4+z
loop_
_atom_site_type_symbol
_atom_site_label
_atom_site_fract_x
_atom_site_fract_y
_atom_site_fract_z
Si Si1 0.572839 0.253935 0.294700
Si Si2 0.250000 0.250000 0.664750
Si Si3 0.111967 0.527977 0.368058
Si Si4 0.333809 0.391517 0.739483
Si Si5 0.016819 0.844922 0.577976
Si Si6 0.352993 0.444392 0.293838
Si Si7 0.451849 0.767511 0.841790
Si Si8 0.180131 0.274265 0.215410
O O1 0.594836 0.153587 0.251282
O O2 0.602802 0.415155 0.286549
O O3 0.499056 0.272030 0.299033
O O4 0.592816 0.182821 0.343111
O O5 0.307274 0.311560 0.694601
O O6 0.272576 0.111217 0.634439
O O7 0.182619 0.493917 0.354239
O O8 0.061433 0.403168 0.355485
O O9 0.112618 0.544022 0.421821
O O10 0.294936 0.333028 0.782025
O O11 0.327551 0.570785 0.742252
O O12 0.960122 0.735844 0.568507
O O13 0.000000 0.000000 0.605382
O O14 0.386365 0.330339 0.327142
O O15 0.340495 0.367347 0.245478
O O16 0.250000 0.250000 0.200025
#
# Coordination Sequence:
#
# PCOD8187642 Si02
#       8
#    16   8  16  16  16  16  16  16
#     4  11  22  45  67  97 136 184 225 285 362 426
#     4  12  22  42  68 108 134 188 246 304 352 436
#     4  11  25  41  69 104 137 177 232 299 351 420
#     4  11  22  38  71 100 129 178 240 282 353 423
#     4  11  21  43  71  99 134 181 229 281 349 428
#     4  12  23  42  70  96 133 188 228 280 350 429
#     4  12  26  42  67 100 143 179 235 292 360 423
#     4  12  25  40  68 105 140 177 240 303 348 424
#
# _framework density 21.034752999999998
#
# number of rings (size 3 to 8) (size 9 to 14) (size 15 to 20)
#    0.000    0.533    6.000    4.400    1.867    0.000 
#    0.000    2.667    2.933    0.000    0.000    0.000 
#    0.000    0.000    0.000    0.000    0.000    0.000 
#
# Total GULP energy -371916.161687 kJ/mol
# GULP energy per Si atom -12397.205390 kJ/mol
# Density = 2.098688 g / cm^3
# Si number density = 21.034753 Si / 1000 Ang^3
#
#
#
# Elastic Constant Matrix: (Units=GPa)
#
#
# Indices 1 2 3 4 5 6 
#
# 1 115.2480 40.9104 53.7775 0.0000 0.0000 0.0001
# 2 40.9104 112.6031 33.7347 0.0001 0.0000 0.0004
# 3 53.7775 33.7347 103.6336 0.0000 0.0000 0.0000
# 4 0.0000 0.0001 0.0000 14.6097 0.0000 0.0000
# 5 0.0000 0.0000 0.0000 0.0000 29.3226 0.0000
# 6 0.0001 0.0004 0.0000 0.0000 0.0000 41.3206
#
#
#
# Elastic Compliance Matrix: (Units=1/GPa)
#
#
# Indices 1 2 3 4 5 6 
#
# 1 0.012202 -0.002810 -0.005417 0.000000 0.000000 0.000000
# 2 -0.002810 0.010488 -0.001956 0.000000 0.000000 0.000000
# 3 -0.005417 -0.001956 0.013097 0.000000 0.000000 0.000000
# 4 0.000000 0.000000 0.000000 0.068448 0.000000 0.000000
# 5 0.000000 0.000000 0.000000 0.000000 0.034103 0.000000
# 6 0.000000 0.000000 0.000000 0.000000 0.000000 0.024201
#
#
# Mechanical properties :
#
#
# Convention : Reuss Voigt Hill
#
# Bulk Modulus (GPa) = 64.84763 65.37000 65.10882
# Shear Modulus (GPa) = 26.58928 30.58806 28.58867
#
# Velocity S-wave (km/s) = 3.55923 3.81749 3.69062
# Velocity P-wave (km/s) = 6.91278 7.11165 7.01292
#
# Compressibility (1/GPa) = 0.01542076
#
# Stress axis : x y z
#
# Youngs Moduli (GPa) = 81.95139 95.35009 76.35303
#
# Poissons Ratio (x) = 0.26797 0.41362
# Poissons Ratio (y) = 0.23031 0.14931
# Poissons Ratio (z) = 0.44395 0.18646
#
# Static dielectric constant tensor:
#      x y z
#    x 4.175690 0.000000 0.000000 
#    y 0.000000 3.963810 0.000000 
#    z 0.000000 0.000000 3.645630 
# 
# 
# High freq. dielectric constant tensor:
#      x y z
#    x 1.827830 0.000000 0.000000 
#    y 0.000000 1.841720 0.000000 
#    z 0.000000 0.000000 1.799670 
# 
# From -- ./inp_files/26586.got.cif
#   From: 2010.06.25/outbox.cif.g09.slc.cpg/sg43_14_cif.got.tgz:26586.got - 2010.06.26 16:48:59.
