data_PCOD8187215
_publ_section_title
;
Structure prediction by ZEFSAII (Michael W. Deem and Ramdas Pophale) SiO2 
 PCOD8187215
Probable space group: F D D 2
;
_chemical_formula_sum "Si O2"
_cell_formula_units_Z 112
_cell_length_a 22.542527
_cell_length_b 10.065502
_cell_length_c 21.115278
_cell_angle_alpha 90.000000
_cell_angle_beta 90.000000
_cell_angle_gamma 90.000000
_cell_volume 4791.095654
_symmetry_space_group_name_H-M "F D D 2"
_symmetry_group_IT_number 43
_symmetry_cell_setting 'orthorhombic'
loop_
_space_group_symop_operation_xyz
x,y,z
-x,-y,z
1/4-x,1/4+y,1/4+z
1/4+x,1/4-y,1/4+z
x,1/2+y,1/2+z
-x,1/2-y,1/2+z
1/4-x,3/4+y,3/4+z
1/4+x,3/4-y,3/4+z
1/2+x,y,1/2+z
1/2-x,-y,1/2+z
3/4-x,1/4+y,3/4+z
3/4+x,1/4-y,3/4+z
1/2+x,1/2+y,z
1/2-x,1/2-y,z
3/4-x,3/4+y,1/4+z
3/4+x,3/4-y,1/4+z
loop_
_atom_site_type_symbol
_atom_site_label
_atom_site_fract_x
_atom_site_fract_y
_atom_site_fract_z
Si Si1 0.250000 0.250000 0.392370
Si Si2 0.274955 0.466602 0.846681
Si Si3 0.924732 0.663262 0.860103
Si Si4 0.750000 0.250000 0.671983
Si Si5 0.264092 0.536958 0.213005
Si Si6 0.663170 0.300525 0.574252
Si Si7 0.185087 0.868207 0.441227
Si Si8 0.600112 0.413648 0.227015
O O1 0.250936 0.117848 0.350095
O O2 0.192233 0.258113 0.436629
O O3 0.249639 0.403367 0.782185
O O4 0.344813 0.460086 0.841051
O O5 0.250252 0.382406 0.907668
O O6 0.976750 0.626442 0.910846
O O7 0.942600 0.804940 0.832261
O O8 0.860501 0.687251 0.890285
O O9 0.915691 0.559529 0.801657
O O10 0.759037 0.117165 0.713568
O O11 0.695263 0.208574 0.625878
O O12 0.334191 0.548797 0.204025
O O13 0.681502 0.266640 0.501308
O O14 0.159920 0.010353 0.461954
#
# Coordination Sequence:
#
# PCOD8187215 Si02
#       8
#     8  16  16   8  16  16  16  16
#     4  10  23  40  60  90 125 160 206 250 314 376
#     4  11  21  39  64  90 121 163 205 258 313 367
#     4  10  21  39  58  89 122 156 207 255 306 368
#     4  10  23  40  60  90 125 160 206 250 314 376
#     4  11  21  39  64  90 121 163 205 258 313 367
#     4  10  22  39  61  88 123 159 205 257 305 372
#     4  10  21  39  58  89 122 156 207 255 306 368
#     4  10  22  39  61  88 123 159 205 257 305 372
#
# _framework density 23.376698999999999
#
# number of rings (size 3 to 8) (size 9 to 14) (size 15 to 20)
#    0.000    1.714    2.857    1.286    0.000    3.429 
#    0.000    0.000    0.000    0.000    0.000    0.000 
#    0.000    0.000    0.000    0.000    0.000    0.000 
#
# Total GULP energy -346998.550803 kJ/mol
# GULP energy per Si atom -12392.805386 kJ/mol
# Density = 2.332349 g / cm^3
# Si number density = 23.376699 Si / 1000 Ang^3
#
#
#
# Elastic Constant Matrix: (Units=GPa)
#
#
# Indices 1 2 3 4 5 6 
#
# 1 176.6115 -12.5869 59.5760 0.0000 0.0000 0.0000
# 2 -12.5869 24.3147 2.1914 0.0000 0.0000 0.0000
# 3 59.5760 2.1914 142.8069 0.0000 0.0000 0.0000
# 4 0.0000 0.0000 0.0000 14.1876 0.0000 0.0000
# 5 0.0000 0.0000 0.0000 0.0000 43.2668 0.0000
# 6 0.0000 0.0000 0.0000 0.0000 0.0000 25.1007
#
#
#
# Elastic Compliance Matrix: (Units=1/GPa)
#
#
# Indices 1 2 3 4 5 6 
#
# 1 0.006932 0.003855 -0.002951 0.000000 0.000000 0.000000
# 2 0.003855 0.043328 -0.002273 0.000000 0.000000 0.000000
# 3 -0.002951 -0.002273 0.008269 0.000000 0.000000 0.000000
# 4 0.000000 0.000000 0.000000 0.070484 0.000000 0.000000
# 5 0.000000 0.000000 0.000000 0.000000 0.023112 0.000000
# 6 0.000000 0.000000 0.000000 0.000000 0.000000 0.039840
#
#
# Mechanical properties :
#
#
# Convention : Reuss Voigt Hill
#
# Bulk Modulus (GPa) = 17.92449 49.12156 33.52302
# Shear Modulus (GPa) = 23.44117 36.14786 29.79451
#
# Velocity S-wave (km/s) = 3.17007 3.93659 3.57394
# Velocity P-wave (km/s) = 4.59167 6.45918 5.60377
#
# Compressibility (1/GPa) = 0.05578959
#
# Stress axis : x y z
#
# Youngs Moduli (GPa) = 144.25067 23.07993 120.94075
#
# Poissons Ratio (x) = -0.08896 0.35692
# Poissons Ratio (y) = -0.55603 0.27489
# Poissons Ratio (z) = 0.42571 0.05246
#
# Static dielectric constant tensor:
#      x y z
#    x 4.127350 0.000000 0.000000 
#    y 0.000000 3.852860 0.000000 
#    z 0.000000 0.000000 4.649130 
# 
# 
# High freq. dielectric constant tensor:
#      x y z
#    x 1.929050 0.000000 0.000000 
#    y 0.000000 1.897100 0.000000 
#    z 0.000000 0.000000 1.942380 
# 
# From -- ./inp_files/17244.got.cif
#   From: 2010.06.25/outbox.cif.g09.slc.cpg/sg43_9_cif.got.tgz:17244.got - 2010.06.26 16:48:59.
