data_PCOD8187704
_publ_section_title
;
Structure prediction by ZEFSAII (Michael W. Deem and Ramdas Pophale) SiO2 
 PCOD8187704
Probable space group: F D D 2
;
_chemical_formula_sum "Si O2"
_cell_formula_units_Z 112
_cell_length_a 24.222495
_cell_length_b 14.635303
_cell_length_c 13.822929
_cell_angle_alpha 90.000000
_cell_angle_beta 90.000000
_cell_angle_gamma 90.000000
_cell_volume 4900.277454
_symmetry_space_group_name_H-M "F D D 2"
_symmetry_group_IT_number 43
_symmetry_cell_setting 'orthorhombic'
loop_
_space_group_symop_operation_xyz
x,y,z
-x,-y,z
1/4-x,1/4+y,1/4+z
1/4+x,1/4-y,1/4+z
x,1/2+y,1/2+z
-x,1/2-y,1/2+z
1/4-x,3/4+y,3/4+z
1/4+x,3/4-y,3/4+z
1/2+x,y,1/2+z
1/2-x,-y,1/2+z
3/4-x,1/4+y,3/4+z
3/4+x,1/4-y,3/4+z
1/2+x,1/2+y,z
1/2-x,1/2-y,z
3/4-x,3/4+y,1/4+z
3/4+x,3/4-y,1/4+z
loop_
_atom_site_type_symbol
_atom_site_label
_atom_site_fract_x
_atom_site_fract_y
_atom_site_fract_z
Si Si1 0.524665 0.906244 0.525850
Si Si2 0.847827 0.382824 0.322624
Si Si3 0.132422 0.932190 0.383149
Si Si4 0.363453 0.861413 0.917970
Si Si5 0.824618 0.441951 0.608250
Si Si6 0.589929 0.671441 0.002304
Si Si7 0.498273 0.393205 0.708765
O O1 0.553603 0.924821 0.630056
O O2 0.571986 0.867360 0.455700
O O3 0.474964 0.832504 0.526743
O O4 0.500000 0.000000 0.484425
O O5 0.839039 0.335289 0.218729
O O6 0.864296 0.487787 0.301505
O O7 0.896241 0.334855 0.387046
O O8 0.788717 0.372166 0.369914
O O9 0.113352 0.883361 0.284374
O O10 0.188929 0.888544 0.423113
O O11 0.133125 0.040135 0.367406
O O12 0.415277 0.798781 0.883288
O O13 0.878725 0.414310 0.548475
O O14 0.768853 0.421885 0.547063
O O15 0.500000 0.500000 0.740293
#
# Coordination Sequence:
#
# PCOD8187704 Si02
#       7
#    16  16  16  16  16  16  16
#     4  12  23  44  69 101 137 183 232 291 365 419
#     4  11  24  43  74 103 135 187 237 295 359 422
#     4  12  25  49  68 100 153 189 236 291 362 430
#     4  12  26  45  65 101 147 192 228 291 354 442
#     4  11  24  43  71 105 138 175 240 297 358 424
#     4  11  23  43  72 106 136 177 239 301 357 419
#     4  11  24  46  76 107 133 180 243 303 357 419
#
# _framework density 22.855848000000002
#
# number of rings (size 3 to 8) (size 9 to 14) (size 15 to 20)
#    0.000    0.571    2.857    6.429    2.000    0.000 
#    2.571    0.714    0.000    0.000    0.000    0.000 
#    0.000    0.000    0.000    0.000    0.000    0.000 
#
# Total GULP energy -347148.593170 kJ/mol
# GULP energy per Si atom -12398.164042 kJ/mol
# Density = 2.280383 g / cm^3
# Si number density = 22.855848 Si / 1000 Ang^3
#
#
#
# Elastic Constant Matrix: (Units=GPa)
#
#
# Indices 1 2 3 4 5 6 
#
# 1 65.4049 28.0985 51.9030 0.0000 0.0000 0.0000
# 2 28.0985 110.5924 16.7865 0.0000 0.0000 0.0000
# 3 51.9030 16.7865 138.3204 0.0000 0.0000 0.0000
# 4 0.0000 0.0000 0.0000 37.8204 0.0000 0.0000
# 5 0.0000 0.0000 0.0000 0.0000 33.0729 0.0000
# 6 0.0000 0.0000 0.0000 0.0000 0.0000 35.6058
#
#
#
# Elastic Compliance Matrix: (Units=1/GPa)
#
#
# Indices 1 2 3 4 5 6 
#
# 1 0.024067 -0.004833 -0.008444 0.000000 0.000000 0.000000
# 2 -0.004833 0.010182 0.000578 0.000000 0.000000 0.000000
# 3 -0.008444 0.000578 0.010328 0.000000 0.000000 0.000000
# 4 0.000000 0.000000 0.000000 0.026441 0.000000 0.000000
# 5 0.000000 0.000000 0.000000 0.000000 0.030236 0.000000
# 6 0.000000 0.000000 0.000000 0.000000 0.000000 0.028085
#
#
# Mechanical properties :
#
#
# Convention : Reuss Voigt Hill
#
# Bulk Modulus (GPa) = 52.14202 56.43263 54.28733
# Shear Modulus (GPa) = 31.03066 35.80180 33.41623
#
# Velocity S-wave (km/s) = 3.68865 3.96209 3.82782
# Velocity P-wave (km/s) = 6.40348 6.75834 6.58330
#
# Compressibility (1/GPa) = 0.01917839
#
# Stress axis : x y z
#
# Youngs Moduli (GPa) = 41.55130 98.20829 96.82373
#
# Poissons Ratio (x) = 0.47464 0.81760
# Poissons Ratio (y) = 0.20082 -0.05594
# Poissons Ratio (z) = 0.35087 -0.05674
#
# Static dielectric constant tensor:
#      x y z
#    x 4.013670 0.000000 0.000000 
#    y 0.000000 4.141430 0.000000 
#    z 0.000000 0.000000 4.305330 
# 
# 
# High freq. dielectric constant tensor:
#      x y z
#    x 1.890060 0.000000 0.000000 
#    y 0.000000 1.905390 0.000000 
#    z 0.000000 0.000000 1.913770 
# 
# From -- ./inp_files/11275.got.cif
#   From: 2010.06.25/outbox.cif.g09.slc.cpg/sg43_6_cif.got.tgz:11275.got - 2010.06.26 16:48:59.
