data_PCOD8187803
_publ_section_title
;
Structure prediction by ZEFSAII (Michael W. Deem and Ramdas Pophale) SiO2 
 PCOD8187803
Probable space group: F D D 2
;
_chemical_formula_sum "Si O2"
_cell_formula_units_Z 112
_cell_length_a 22.778453
_cell_length_b 15.824507
_cell_length_c 13.824801
_cell_angle_alpha 90.000000
_cell_angle_beta 90.000000
_cell_angle_gamma 90.000000
_cell_volume 4983.257201
_symmetry_space_group_name_H-M "F D D 2"
_symmetry_group_IT_number 43
_symmetry_cell_setting 'orthorhombic'
loop_
_space_group_symop_operation_xyz
x,y,z
-x,-y,z
1/4-x,1/4+y,1/4+z
1/4+x,1/4-y,1/4+z
x,1/2+y,1/2+z
-x,1/2-y,1/2+z
1/4-x,3/4+y,3/4+z
1/4+x,3/4-y,3/4+z
1/2+x,y,1/2+z
1/2-x,-y,1/2+z
3/4-x,1/4+y,3/4+z
3/4+x,1/4-y,3/4+z
1/2+x,1/2+y,z
1/2-x,1/2-y,z
3/4-x,3/4+y,1/4+z
3/4+x,3/4-y,1/4+z
loop_
_atom_site_type_symbol
_atom_site_label
_atom_site_fract_x
_atom_site_fract_y
_atom_site_fract_z
Si Si1 0.879219 0.345024 0.311150
Si Si2 0.092822 0.087079 0.602850
Si Si3 0.500008 0.209033 0.374522
Si Si4 0.767704 0.938143 0.802583
Si Si5 0.087755 0.415985 0.692499
Si Si6 0.773224 0.072766 0.944872
Si Si7 0.860715 0.402163 0.729785
O O1 0.886072 0.356555 0.194637
O O2 0.846954 0.263972 0.359240
O O3 0.943995 0.352632 0.357626
O O4 0.833451 0.418358 0.340965
O O5 0.135457 0.095872 0.511560
O O6 0.026435 0.112077 0.575446
O O7 0.517164 0.290583 0.438922
O O8 0.477740 0.251502 0.276985
O O9 0.449782 0.149341 0.420182
O O10 0.746562 0.025757 0.851085
O O11 0.115483 0.502080 0.733519
O O12 0.105598 0.393759 0.583080
O O13 0.017296 0.406369 0.708553
O O14 0.839420 0.100725 0.922682
#
# Coordination Sequence:
#
# PCOD8187803 Si02
#       7
#    16  16  16  16  16  16  16
#     4  12  25  44  70 108 143 192 247 300 376 435
#     4  12  22  43  74 104 144 188 239 306 371 436
#     4  12  24  46  70 100 146 186 242 306 364 436
#     4  12  24  45  71 100 144 191 242 307 371 441
#     4  12  22  43  74 104 144 188 239 306 371 436
#     4  12  24  45  71 100 144 191 242 307 371 441
#     4  12  25  44  70 108 143 192 247 300 376 435
#
# _framework density 22.475259999999999
#
# number of rings (size 3 to 8) (size 9 to 14) (size 15 to 20)
#    0.000    0.000    8.571    1.714    0.000    1.143 
#    0.000    5.000    0.000    0.000    0.000    0.000 
#    0.000    0.000    0.000    0.000    0.000    0.000 
#
# Total GULP energy -346919.679741 kJ/mol
# GULP energy per Si atom -12389.988562 kJ/mol
# Density = 2.242410 g / cm^3
# Si number density = 22.475260 Si / 1000 Ang^3
#
#
#
# Elastic Constant Matrix: (Units=GPa)
#
#
# Indices 1 2 3 4 5 6 
#
# 1 169.4096 21.6154 28.5170 0.0000 0.0000 0.0000
# 2 21.6154 47.1333 13.5641 0.0000 0.0000 0.0000
# 3 28.5170 13.5641 77.5598 0.0000 0.0000 0.0000
# 4 0.0000 0.0000 0.0000 25.8046 0.0000 0.0000
# 5 0.0000 0.0000 0.0000 0.0000 32.1460 0.0000
# 6 0.0000 0.0000 0.0000 0.0000 0.0000 44.6764
#
#
#
# Elastic Compliance Matrix: (Units=1/GPa)
#
#
# Indices 1 2 3 4 5 6 
#
# 1 0.006547 -0.002432 -0.001982 0.000000 0.000000 0.000000
# 2 -0.002432 0.023244 -0.003171 0.000000 0.000000 0.000000
# 3 -0.001982 -0.003171 0.014176 0.000000 0.000000 0.000000
# 4 0.000000 0.000000 0.000000 0.038753 0.000000 0.000000
# 5 0.000000 0.000000 0.000000 0.000000 0.031108 0.000000
# 6 0.000000 0.000000 0.000000 0.000000 0.000000 0.022383
#
#
# Mechanical properties :
#
#
# Convention : Reuss Voigt Hill
#
# Bulk Modulus (GPa) = 34.72448 46.83286 40.77867
# Shear Modulus (GPa) = 31.05969 35.88580 33.47275
#
# Velocity S-wave (km/s) = 3.72149 4.00018 3.86335
# Velocity P-wave (km/s) = 5.82663 6.49754 6.17121
#
# Compressibility (1/GPa) = 0.02879812
#
# Stress axis : x y z
#
# Youngs Moduli (GPa) = 152.74737 43.02136 70.53945
#
# Poissons Ratio (x) = 0.10463 0.13979
# Poissons Ratio (y) = 0.37149 0.22367
# Poissons Ratio (z) = 0.30271 0.13642
#
# Static dielectric constant tensor:
#      x y z
#    x 4.334010 0.000000 0.000000 
#    y 0.000000 3.834230 0.000000 
#    z 0.000000 0.000000 4.036790 
# 
# 
# High freq. dielectric constant tensor:
#      x y z
#    x 1.908790 0.000000 0.000000 
#    y 0.000000 1.867240 0.000000 
#    z 0.000000 0.000000 1.884380 
# 
# From -- ./inp_files/11256.got.cif
#   From: 2010.06.25/outbox.cif.g09.slc.cpg/sg43_6_cif.got.tgz:11256.got - 2010.06.26 16:48:59.
