data_PCOD8187816
_publ_section_title
;
Structure prediction by ZEFSAII (Michael W. Deem and Ramdas Pophale) SiO2 
 PCOD8187816
Probable space group: F D D 2
;
_chemical_formula_sum "Si O2"
_cell_formula_units_Z 120
_cell_length_a 8.745309
_cell_length_b 22.374430
_cell_length_c 26.674772
_cell_angle_alpha 90.000000
_cell_angle_beta 90.000000
_cell_angle_gamma 90.000000
_cell_volume 5219.487422
_symmetry_space_group_name_H-M "F D D 2"
_symmetry_group_IT_number 43
_symmetry_cell_setting 'orthorhombic'
loop_
_space_group_symop_operation_xyz
x,y,z
-x,-y,z
1/4-x,1/4+y,1/4+z
1/4+x,1/4-y,1/4+z
x,1/2+y,1/2+z
-x,1/2-y,1/2+z
1/4-x,3/4+y,3/4+z
1/4+x,3/4-y,3/4+z
1/2+x,y,1/2+z
1/2-x,-y,1/2+z
3/4-x,1/4+y,3/4+z
3/4+x,1/4-y,3/4+z
1/2+x,1/2+y,z
1/2-x,1/2-y,z
3/4-x,3/4+y,1/4+z
3/4+x,3/4-y,1/4+z
loop_
_atom_site_type_symbol
_atom_site_label
_atom_site_fract_x
_atom_site_fract_y
_atom_site_fract_z
Si Si1 0.687719 0.184627 0.862910
Si Si2 0.244851 0.902516 0.020337
Si Si3 0.994897 0.625467 0.361176
Si Si4 0.806744 0.131654 0.503982
Si Si5 0.252630 0.417837 0.219100
Si Si6 0.585521 0.199690 0.974682
Si Si7 0.579440 0.244142 0.204193
Si Si8 0.000000 0.500000 0.402125
O O1 0.750000 0.250000 0.849019
O O2 0.545134 0.168442 0.827572
O O3 0.816628 0.136387 0.850487
O O4 0.645209 0.177818 0.920860
O O5 0.097219 0.891310 0.984640
O O6 0.336284 0.839661 0.018701
O O7 0.344525 0.957779 0.999460
O O8 0.042805 0.664671 0.409963
O O9 0.091820 0.640811 0.310955
O O10 0.028108 0.556322 0.367637
O O11 0.645338 0.165927 0.503435
O O12 0.809280 0.074004 0.469426
O O13 0.909522 0.183347 0.480173
O O14 0.353952 0.478152 0.229399
O O15 0.750000 0.250000 0.176519
O O16 0.415632 0.260383 0.179133
#
# Coordination Sequence:
#
# PCOD8187816 Si02
#       8
#    16  16  16  16  16  16  16   8
#     4  12  24  45  77 108 141 199 262 300 378 476
#     4  12  24  44  75 106 140 191 250 317 368 445
#     4  12  25  44  73 107 140 199 250 301 374 461
#     4  12  27  46  71 108 150 188 245 309 381 447
#     4  12  24  47  74 100 143 194 246 300 378 459
#     4  12  26  47  69 109 150 188 243 320 378 449
#     4  12  24  48  76 107 150 194 251 318 374 446
#     4  12  26  48  78 104 150 202 254 304 388 452
#
# _framework density 22.990762
#
# number of rings (size 3 to 8) (size 9 to 14) (size 15 to 20)
#    0.000    0.000    8.000    1.600    2.800    1.067 
#    0.000    0.000    2.933    0.000    0.000    0.000 
#    0.000    0.000    0.000    0.000    0.000    0.000 
#
# Total GULP energy -371680.624849 kJ/mol
# GULP energy per Si atom -12389.354162 kJ/mol
# Density = 2.293843 g / cm^3
# Si number density = 22.990762 Si / 1000 Ang^3
#
#
#
# Elastic Constant Matrix: (Units=GPa)
#
#
# Indices 1 2 3 4 5 6 
#
# 1 99.1316 20.9517 15.2934 0.0000 0.0000 0.0000
# 2 20.9517 92.8868 22.0346 0.0000 0.0000 0.0000
# 3 15.2934 22.0346 69.8501 0.0000 0.0000 0.0000
# 4 0.0000 0.0000 0.0000 24.0840 0.0000 0.0000
# 5 0.0000 0.0000 0.0000 0.0000 28.3907 0.0000
# 6 0.0000 0.0000 0.0000 0.0000 0.0000 44.2192
#
#
#
# Elastic Compliance Matrix: (Units=1/GPa)
#
#
# Indices 1 2 3 4 5 6 
#
# 1 0.010781 -0.002023 -0.001722 0.000000 0.000000 0.000000
# 2 -0.002023 0.012016 -0.003348 0.000000 0.000000 0.000000
# 3 -0.001722 -0.003348 0.015749 0.000000 0.000000 0.000000
# 4 0.000000 0.000000 0.000000 0.041521 0.000000 0.000000
# 5 0.000000 0.000000 0.000000 0.000000 0.035223 0.000000
# 6 0.000000 0.000000 0.000000 0.000000 0.000000 0.022615
#
#
# Mechanical properties :
#
#
# Convention : Reuss Voigt Hill
#
# Bulk Modulus (GPa) = 41.04997 42.04755 41.54876
# Shear Modulus (GPa) = 31.20871 32.91136 32.06003
#
# Velocity S-wave (km/s) = 3.68835 3.78763 3.73832
# Velocity P-wave (km/s) = 6.00269 6.12019 6.06173
#
# Compressibility (1/GPa) = 0.02436055
#
# Stress axis : x y z
#
# Youngs Moduli (GPa) = 92.75658 83.22048 63.49425
#
# Poissons Ratio (x) = 0.16837 0.10935
# Poissons Ratio (y) = 0.18767 0.21255
# Poissons Ratio (z) = 0.15975 0.27859
#
# Static dielectric constant tensor:
#      x y z
#    x 4.514410 0.000000 0.000000 
#    y 0.000000 4.199920 0.000000 
#    z 0.000000 0.000000 4.006780 
# 
# 
# High freq. dielectric constant tensor:
#      x y z
#    x 1.917970 0.000000 0.000000 
#    y 0.000000 1.921380 0.000000 
#    z 0.000000 0.000000 1.884390 
# 
# From -- ./inp_files/24483.got.cif
#   From: 2010.06.25/outbox.cif.g09.slc.cpg/sg43_13_cif.got.tgz:24483.got - 2010.06.26 16:48:59.
