data_PCOD8187884
_publ_section_title
;
Structure prediction by ZEFSAII (Michael W. Deem and Ramdas Pophale) SiO2 
 PCOD8187884
Probable space group: I M M 2
;
_chemical_formula_sum "Si O2"
_cell_formula_units_Z 64
_cell_length_a 8.556941
_cell_length_b 18.573233
_cell_length_c 26.841597
_cell_angle_alpha 90.000000
_cell_angle_beta 90.000000
_cell_angle_gamma 90.000000
_cell_volume 4265.936594
_symmetry_space_group_name_H-M "I M M 2"
_symmetry_group_IT_number 44
_symmetry_cell_setting 'orthorhombic'
loop_
_space_group_symop_operation_xyz
x,y,z
-x,-y,z
-x,y,z
x,-y,z
1/2+x,1/2+y,1/2+z
1/2-x,1/2-y,1/2+z
1/2-x,1/2+y,1/2+z
1/2+x,1/2-y,1/2+z
loop_
_atom_site_type_symbol
_atom_site_label
_atom_site_fract_x
_atom_site_fract_y
_atom_site_fract_z
Si Si1 0.682920 0.582601 0.396260
Si Si2 0.318433 0.203480 0.839241
Si Si3 0.684448 0.833331 0.989075
Si Si4 0.685658 0.830478 0.285878
Si Si5 0.317137 0.078864 0.379933
Si Si6 0.317833 0.784168 0.431425
Si Si7 0.814280 0.580465 0.582828
Si Si8 0.685728 0.080836 0.193122
O O1 0.500000 0.592160 0.405576
O O2 0.730398 0.500000 0.388220
O O3 0.733799 0.626100 0.346308
O O4 0.772500 0.612742 0.444474
O O5 0.500000 0.189897 0.831035
O O6 0.252031 0.249540 0.792659
O O7 0.287058 0.247710 0.889318
O O8 0.500000 0.823108 0.991045
O O9 0.764956 0.754157 0.982700
O O10 0.751032 0.865616 0.040821
O O11 0.500000 0.825633 0.286604
O O12 0.747558 0.882242 0.330293
O O13 0.750998 0.863421 0.234168
O O14 0.500000 0.068030 0.372902
O O15 0.284170 0.129766 0.428485
O O16 0.238146 0.000000 0.387291
O O17 0.500000 0.768957 0.420354
O O18 0.750270 0.500000 0.572265
O O19 0.759198 0.605781 0.637945
O O20 0.000000 0.578861 0.580431
O O21 0.500000 0.079654 0.195921
O O22 0.747861 0.000000 0.204252
#
# Coordination Sequence:
#
# PCOD8187884 Si02
#       8
#     8   8   8   8   8   8   8   8
#     4  10  19  29  41  57  77 100 129 164 195 225
#     4  10  18  27  39  54  76 103 128 154 186 228
#     4  10  17  25  39  56  78 107 134 159 191 232
#     4   9  15  24  40  58  76  99 127 158 190 223
#     4   8  13  21  35  55  74  93 121 155 188 222
#     4   9  16  26  39  54  74  98 127 162 193 225
#     4   8  14  23  35  55  80 102 129 165 196 221
#     4   8  13  22  38  59  79 100 131 168 197 221
#
# _framework density 15.002567000000001
#
# number of rings (size 3 to 8) (size 9 to 14) (size 15 to 20)
#    0.000    3.000    0.000    6.000    0.000    3.000 
#    0.000    0.000    0.000   14.250    0.000    3.500 
#    0.000    1.000    0.000    9.250    0.000    1.875 
#
# Total GULP energy -396445.331265 kJ/mol
# GULP energy per Si atom -12388.916602 kJ/mol
# Density = 1.496842 g / cm^3
# Si number density = 15.002567 Si / 1000 Ang^3
#
#
#
# Elastic Constant Matrix: (Units=GPa)
#
#
# Indices 1 2 3 4 5 6 
#
# 1 28.8304 17.9532 11.7771 0.0000 0.0000 0.0000
# 2 17.9532 118.4481 63.4641 0.0000 0.0000 0.0000
# 3 11.7771 63.4641 96.6845 0.0000 0.0000 0.0000
# 4 0.0000 0.0000 0.0000 29.8318 0.0000 0.0000
# 5 0.0000 0.0000 0.0000 0.0000 12.5072 0.0000
# 6 0.0000 0.0000 0.0000 0.0000 0.0000 11.5589
#
#
#
# Elastic Compliance Matrix: (Units=1/GPa)
#
#
# Indices 1 2 3 4 5 6 
#
# 1 0.038410 -0.005113 -0.001322 0.000000 0.000000 0.000000
# 2 -0.005113 0.013703 -0.008372 0.000000 0.000000 0.000000
# 3 -0.001322 -0.008372 0.015999 0.000000 0.000000 0.000000
# 4 0.000000 0.000000 0.000000 0.033521 0.000000 0.000000
# 5 0.000000 0.000000 0.000000 0.000000 0.079954 0.000000
# 6 0.000000 0.000000 0.000000 0.000000 0.000000 0.086513
#
#
# Mechanical properties :
#
#
# Convention : Reuss Voigt Hill
#
# Bulk Modulus (GPa) = 25.97583 47.81687 36.89635
# Shear Modulus (GPa) = 16.10054 20.83083 18.46569
#
# Velocity S-wave (km/s) = 3.27951 3.73028 3.51213
# Velocity P-wave (km/s) = 5.62957 7.10598 6.41042
#
# Compressibility (1/GPa) = 0.03849733
#
# Stress axis : x y z
#
# Youngs Moduli (GPa) = 26.03492 72.97551 62.50234
#
# Poissons Ratio (x) = 0.37315 0.08265
# Poissons Ratio (y) = 0.13312 0.52327
# Poissons Ratio (z) = 0.03443 0.61095
#
# Static dielectric constant tensor:
#      x y z
#    x 2.644840 0.000000 0.000000 
#    y 0.000000 3.289310 0.000000 
#    z 0.000000 0.000000 2.987540 
# 
# 
# High freq. dielectric constant tensor:
#      x y z
#    x 1.555050 0.000000 0.000000 
#    y 0.000000 1.568400 0.000000 
#    z 0.000000 0.000000 1.540170 
# 
# From -- ./inp_files/26307.got.cif
#   From: 2010.03.12/outbox.cif.g09.slc.cpg/sg44_14_cif.got.tgz:26307.got - 2010.04.14 02:36:11.
