data_PCOD8187225
_publ_section_title
;
Structure prediction by ZEFSAII (Michael W. Deem and Ramdas Pophale) SiO2 
 PCOD8187225
Probable space group: F D D 2
;
_chemical_formula_sum "Si O2"
_cell_formula_units_Z 72
_cell_length_a 9.558240
_cell_length_b 12.712982
_cell_length_c 26.117423
_cell_angle_alpha 90.000000
_cell_angle_beta 90.000000
_cell_angle_gamma 90.000000
_cell_volume 3173.625567
_symmetry_space_group_name_H-M "F D D 2"
_symmetry_group_IT_number 43
_symmetry_cell_setting 'orthorhombic'
loop_
_space_group_symop_operation_xyz
x,y,z
-x,-y,z
1/4-x,1/4+y,1/4+z
1/4+x,1/4-y,1/4+z
x,1/2+y,1/2+z
-x,1/2-y,1/2+z
1/4-x,3/4+y,3/4+z
1/4+x,3/4-y,3/4+z
1/2+x,y,1/2+z
1/2-x,-y,1/2+z
3/4-x,1/4+y,3/4+z
3/4+x,1/4-y,3/4+z
1/2+x,1/2+y,z
1/2-x,1/2-y,z
3/4-x,3/4+y,1/4+z
3/4+x,3/4-y,1/4+z
loop_
_atom_site_type_symbol
_atom_site_label
_atom_site_fract_x
_atom_site_fract_y
_atom_site_fract_z
Si Si1 0.000000 0.500000 0.206780
Si Si2 0.295955 0.041445 0.730554
Si Si3 0.953582 0.345350 0.768612
Si Si4 0.404969 0.717766 0.676391
Si Si5 0.144109 0.844142 0.127722
O O1 0.870383 0.460981 0.242712
O O2 0.942103 0.594086 0.169924
O O3 0.381781 0.119505 0.768419
O O4 0.308799 0.078147 0.672073
O O5 0.362189 0.926443 0.734745
O O6 0.936656 0.237485 0.737232
O O7 0.891712 0.337277 0.825565
O O8 0.250000 0.750000 0.660603
O O9 0.495936 0.791729 0.639522
O O10 0.250000 0.750000 0.119118
#
# Coordination Sequence:
#
# PCOD8187225 Si02
#       5
#     8  16  16  16  16
#     4  12  22  40  68 100 134 184 228 294 358 414
#     4  10  21  39  68  93 134 179 229 288 345 420
#     4  10  22  45  67  96 139 184 232 291 361 427
#     4  11  24  44  68  99 144 182 236 302 350 426
#     4  11  21  42  72  97 130 190 233 281 361 425
#
# _framework density 22.686986999999998
#
# number of rings (size 3 to 8) (size 9 to 14) (size 15 to 20)
#    0.000    1.333    6.667    0.000    0.000    0.000 
#   10.000    4.444    7.333    0.000    0.000    0.000 
#    0.000    0.000    0.000    0.000    0.000    0.000 
#
# Total GULP energy -223112.952508 kJ/mol
# GULP energy per Si atom -12395.164028 kJ/mol
# Density = 2.263535 g / cm^3
# Si number density = 22.686987 Si / 1000 Ang^3
#
#
#
# Elastic Constant Matrix: (Units=GPa)
#
#
# Indices 1 2 3 4 5 6 
#
# 1 193.5586 24.4698 26.9290 0.0000 0.0000 0.0000
# 2 24.4698 79.9945 25.9860 0.0000 0.0000 0.0000
# 3 26.9290 25.9860 137.6669 0.0000 0.0000 0.0000
# 4 0.0000 0.0000 0.0000 9.6497 0.0000 0.0000
# 5 0.0000 0.0000 0.0000 0.0000 13.2477 0.0000
# 6 0.0000 0.0000 0.0000 0.0000 0.0000 26.1283
#
#
#
# Elastic Compliance Matrix: (Units=1/GPa)
#
#
# Indices 1 2 3 4 5 6 
#
# 1 0.005456 -0.001409 -0.000801 0.000000 0.000000 0.000000
# 2 -0.001409 0.013681 -0.002307 0.000000 0.000000 0.000000
# 3 -0.000801 -0.002307 0.007856 0.000000 0.000000 0.000000
# 4 0.000000 0.000000 0.000000 0.103630 0.000000 0.000000
# 5 0.000000 0.000000 0.000000 0.000000 0.075485 0.000000
# 6 0.000000 0.000000 0.000000 0.000000 0.000000 0.038273
#
#
# Mechanical properties :
#
#
# Convention : Reuss Voigt Hill
#
# Bulk Modulus (GPa) = 55.68099 62.88772 59.28435
# Shear Modulus (GPa) = 19.27518 32.06082 25.66800
#
# Velocity S-wave (km/s) = 2.91798 3.76331 3.36727
# Velocity P-wave (km/s) = 5.99576 6.83105 6.42699
#
# Compressibility (1/GPa) = 0.01795945
#
# Stress axis : x y z
#
# Youngs Moduli (GPa) = 183.28569 73.09332 127.28944
#
# Poissons Ratio (x) = 0.10296 0.10200
# Poissons Ratio (y) = 0.25818 0.29364
# Poissons Ratio (z) = 0.14688 0.16862
#
# Static dielectric constant tensor:
#      x y z
#    x 4.496770 0.000000 0.000000 
#    y 0.000000 4.246900 0.000000 
#    z 0.000000 0.000000 3.777450 
# 
# 
# High freq. dielectric constant tensor:
#      x y z
#    x 1.914170 0.000000 0.000000 
#    y 0.000000 1.893910 0.000000 
#    z 0.000000 0.000000 1.853870 
# 
# From -- ./inp_files/23953.got.cif
#   From: 2010.06.25/outbox.cif.g09.slc.cpg/sg43_12_cif.got.tgz:23953.got - 2010.06.26 16:48:59.
