data_PCOD8187714
_publ_section_title
;
Structure prediction by ZEFSAII (Michael W. Deem and Ramdas Pophale) SiO2 
 PCOD8187714
Probable space group: F D D 2
;
_chemical_formula_sum "Si O2"
_cell_formula_units_Z 120
_cell_length_a 25.549075
_cell_length_b 17.377637
_cell_length_c 11.739057
_cell_angle_alpha 90.000000
_cell_angle_beta 90.000000
_cell_angle_gamma 90.000000
_cell_volume 5211.936474
_symmetry_space_group_name_H-M "F D D 2"
_symmetry_group_IT_number 43
_symmetry_cell_setting 'orthorhombic'
loop_
_space_group_symop_operation_xyz
x,y,z
-x,-y,z
1/4-x,1/4+y,1/4+z
1/4+x,1/4-y,1/4+z
x,1/2+y,1/2+z
-x,1/2-y,1/2+z
1/4-x,3/4+y,3/4+z
1/4+x,3/4-y,3/4+z
1/2+x,y,1/2+z
1/2-x,-y,1/2+z
3/4-x,1/4+y,3/4+z
3/4+x,1/4-y,3/4+z
1/2+x,1/2+y,z
1/2-x,1/2-y,z
3/4-x,3/4+y,1/4+z
3/4+x,3/4-y,1/4+z
loop_
_atom_site_type_symbol
_atom_site_label
_atom_site_fract_x
_atom_site_fract_y
_atom_site_fract_z
Si Si1 0.079208 0.661403 0.937200
Si Si2 0.212530 0.146522 0.725502
Si Si3 0.688380 0.141500 0.468447
Si Si4 0.686429 0.508949 0.593341
Si Si5 0.884636 0.500070 0.892580
Si Si6 0.434769 0.872057 0.502676
Si Si7 0.786630 0.029470 0.971020
Si Si8 0.000000 0.000000 0.892263
O O1 0.116398 0.592547 0.892754
O O2 0.075710 0.716696 0.828629
O O3 0.023199 0.625366 0.969875
O O4 0.101429 0.712703 0.039987
O O5 0.198210 0.182997 0.848475
O O6 0.174389 0.073889 0.689963
O O7 0.193841 0.215490 0.640341
O O8 0.627777 0.131461 0.498152
O O9 0.717680 0.188905 0.566868
O O10 0.712972 0.058845 0.434198
O O11 0.639123 0.478249 0.516464
O O12 0.709657 0.435278 0.659267
O O13 0.728268 0.549612 0.510826
O O14 0.450506 0.843210 0.627343
O O15 0.458621 0.955886 0.474376
#
# Coordination Sequence:
#
# PCOD8187714 Si02
#       8
#    16  16  16  16  16  16  16   8
#     4  11  28  45  72 108 144 200 245 309 372 455
#     4  11  24  44  71 106 145 187 247 306 368 440
#     4  12  25  44  78 108 149 194 252 317 384 454
#     4  11  23  44  73  99 142 197 238 306 378 435
#     4  12  24  46  72 106 143 187 253 302 372 450
#     4  12  26  49  73 110 151 196 249 319 388 459
#     4  11  26  50  70  98 153 199 243 303 379 459
#     4  12  30  46  78 122 152 200 264 328 386 462
#
# _framework density 23.024070999999999
#
# number of rings (size 3 to 8) (size 9 to 14) (size 15 to 20)
#    0.000    0.533    5.333    2.000    5.600    0.000 
#    7.200    0.000    0.000    0.000    0.000    0.000 
#    0.000    0.000    0.000    0.000    0.000    0.000 
#
# Total GULP energy -371706.252541 kJ/mol
# GULP energy per Si atom -12390.208418 kJ/mol
# Density = 2.297167 g / cm^3
# Si number density = 23.024071 Si / 1000 Ang^3
#
#
#
# Elastic Constant Matrix: (Units=GPa)
#
#
# Indices 1 2 3 4 5 6 
#
# 1 104.1056 26.9468 54.3851 0.0000 0.0000 0.0000
# 2 26.9468 105.0411 39.4272 0.0000 0.0000 0.0000
# 3 54.3851 39.4272 117.9488 0.0000 0.0000 0.0000
# 4 0.0000 0.0000 0.0000 49.0433 0.0000 0.0000
# 5 0.0000 0.0000 0.0000 0.0000 29.3817 0.0000
# 6 0.0000 0.0000 0.0000 0.0000 0.0000 38.2136
#
#
#
# Elastic Compliance Matrix: (Units=1/GPa)
#
#
# Indices 1 2 3 4 5 6 
#
# 1 0.012789 -0.001221 -0.005489 0.000000 0.000000 0.000000
# 2 -0.001221 0.011002 -0.003115 0.000000 0.000000 0.000000
# 3 -0.005489 -0.003115 0.012050 0.000000 0.000000 0.000000
# 4 0.000000 0.000000 0.000000 0.020390 0.000000 0.000000
# 5 0.000000 0.000000 0.000000 0.000000 0.034035 0.000000
# 6 0.000000 0.000000 0.000000 0.000000 0.000000 0.026169
#
#
# Mechanical properties :
#
#
# Convention : Reuss Voigt Hill
#
# Bulk Modulus (GPa) = 61.75566 63.17928 62.46747
# Shear Modulus (GPa) = 35.34020 37.08349 36.21184
#
# Velocity S-wave (km/s) = 3.92206 4.01763 3.97013
# Velocity P-wave (km/s) = 6.88408 7.00157 6.94307
#
# Compressibility (1/GPa) = 0.01619285
#
# Stress axis : x y z
#
# Youngs Moduli (GPa) = 78.19238 90.88897 82.98487
#
# Poissons Ratio (x) = 0.11094 0.45549
# Poissons Ratio (y) = 0.09544 0.25850
# Poissons Ratio (z) = 0.42919 0.28312
#
# Static dielectric constant tensor:
#      x y z
#    x 4.008060 0.000000 0.000000 
#    y 0.000000 4.300090 0.000000 
#    z 0.000000 0.000000 4.248900 
# 
# 
# High freq. dielectric constant tensor:
#      x y z
#    x 1.906350 0.000000 0.000000 
#    y 0.000000 1.915750 0.000000 
#    z 0.000000 0.000000 1.916070 
# 
# From -- ./inp_files/7981.got.cif
#   From: 2010.06.25/outbox.cif.g09.slc.cpg/sg43_4_cif.got.tgz:7981.got - 2010.06.26 16:48:59.
