data_PCOD8187278
_publ_section_title
;
Structure prediction by ZEFSAII (Michael W. Deem and Ramdas Pophale) SiO2 
 PCOD8187278
Probable space group: F D D 2
;
_chemical_formula_sum "Si O2"
_cell_formula_units_Z 112
_cell_length_a 27.099371
_cell_length_b 13.743380
_cell_length_c 13.079800
_cell_angle_alpha 90.000000
_cell_angle_beta 90.000000
_cell_angle_gamma 90.000000
_cell_volume 4871.400863
_symmetry_space_group_name_H-M "F D D 2"
_symmetry_group_IT_number 43
_symmetry_cell_setting 'orthorhombic'
loop_
_space_group_symop_operation_xyz
x,y,z
-x,-y,z
1/4-x,1/4+y,1/4+z
1/4+x,1/4-y,1/4+z
x,1/2+y,1/2+z
-x,1/2-y,1/2+z
1/4-x,3/4+y,3/4+z
1/4+x,3/4-y,3/4+z
1/2+x,y,1/2+z
1/2-x,-y,1/2+z
3/4-x,1/4+y,3/4+z
3/4+x,1/4-y,3/4+z
1/2+x,1/2+y,z
1/2-x,1/2-y,z
3/4-x,3/4+y,1/4+z
3/4+x,3/4-y,1/4+z
loop_
_atom_site_type_symbol
_atom_site_label
_atom_site_fract_x
_atom_site_fract_y
_atom_site_fract_z
Si Si1 0.983366 0.301656 0.094750
Si Si2 0.250000 0.250000 0.677251
Si Si3 0.818261 0.590511 0.636460
Si Si4 0.411786 0.618468 0.449053
Si Si5 0.157074 0.561313 0.971926
Si Si6 0.353203 0.305402 0.020772
Si Si7 0.665563 0.003021 0.428624
Si Si8 0.500000 0.000000 0.202155
O O1 0.957127 0.222698 0.168545
O O2 0.040433 0.269413 0.096550
O O3 0.976154 0.413376 0.133988
O O4 0.957427 0.290533 0.984367
O O5 0.209284 0.306967 0.610933
O O6 0.282771 0.332919 0.740480
O O7 0.876120 0.610587 0.655103
O O8 0.811875 0.523080 0.538351
O O9 0.418474 0.634572 0.328169
O O10 0.376321 0.533505 0.486713
O O11 0.388897 0.715900 0.493792
O O12 0.362857 0.393851 0.943668
O O13 0.294600 0.285723 0.024422
O O14 0.375161 0.325172 0.135743
#
# Coordination Sequence:
#
# PCOD8187278 Si02
#       8
#    16   8  16  16  16  16  16   8
#     4  11  22  42  67 102 134 185 233 301 351 427
#     4  10  23  38  68  99 134 176 235 314 362 421
#     4  11  23  42  65 102 140 182 244 296 368 433
#     4  11  21  39  66 103 137 180 242 304 363 423
#     4  11  21  37  68  98 134 180 232 302 358 420
#     4  11  23  44  66 101 143 187 238 294 362 438
#     4  11  27  42  68  99 146 195 236 289 369 445
#     4  10  21  42  72 103 134 172 241 294 368 423
#
# _framework density 22.991333999999998
#
# number of rings (size 3 to 8) (size 9 to 14) (size 15 to 20)
#    0.000    1.143    2.857    3.000    2.000    4.571 
#    2.571    0.000    0.000    0.000    0.000    0.000 
#    0.000    0.000    0.000    0.000    0.000    0.000 
#
# Total GULP energy -346929.247678 kJ/mol
# GULP energy per Si atom -12390.330274 kJ/mol
# Density = 2.293900 g / cm^3
# Si number density = 22.991334 Si / 1000 Ang^3
#
#
#
# Elastic Constant Matrix: (Units=GPa)
#
#
# Indices 1 2 3 4 5 6 
#
# 1 127.2617 40.0737 49.6436 0.0000 0.0000 0.0000
# 2 40.0737 61.6708 28.2853 0.0000 0.0000 0.0000
# 3 49.6436 28.2853 106.7159 0.0000 0.0000 0.0000
# 4 0.0000 0.0000 0.0000 27.7681 0.0000 0.0000
# 5 0.0000 0.0000 0.0000 0.0000 34.6894 0.0000
# 6 0.0000 0.0000 0.0000 0.0000 0.0000 37.5409
#
#
#
# Elastic Compliance Matrix: (Units=1/GPa)
#
#
# Indices 1 2 3 4 5 6 
#
# 1 0.011014 -0.005472 -0.003673 0.000000 0.000000 0.000000
# 2 -0.005472 0.021178 -0.003068 0.000000 0.000000 0.000000
# 3 -0.003673 -0.003068 0.011893 0.000000 0.000000 0.000000
# 4 0.000000 0.000000 0.000000 0.036013 0.000000 0.000000
# 5 0.000000 0.000000 0.000000 0.000000 0.028827 0.000000
# 6 0.000000 0.000000 0.000000 0.000000 0.000000 0.026638
#
#
# Mechanical properties :
#
#
# Convention : Reuss Voigt Hill
#
# Bulk Modulus (GPa) = 50.86893 59.07261 54.97077
# Shear Modulus (GPa) = 30.02278 31.84274 30.93276
#
# Velocity S-wave (km/s) = 3.61755 3.72558 3.67196
# Velocity P-wave (km/s) = 6.29461 6.65250 6.47603
#
# Compressibility (1/GPa) = 0.01965836
#
# Stress axis : x y z
#
# Youngs Moduli (GPa) = 90.79519 47.21909 84.08659
#
# Poissons Ratio (x) = 0.25839 0.30886
# Poissons Ratio (y) = 0.49684 0.25795
# Poissons Ratio (z) = 0.33351 0.14485
#
# Static dielectric constant tensor:
#      x y z
#    x 4.524630 0.000000 0.000000 
#    y 0.000000 4.183210 0.000000 
#    z 0.000000 0.000000 4.194760 
# 
# 
# High freq. dielectric constant tensor:
#      x y z
#    x 1.926180 0.000000 0.000000 
#    y 0.000000 1.901460 0.000000 
#    z 0.000000 0.000000 1.898820 
# 
# From -- ./inp_files/11535.got.cif
#   From: 2010.06.25/outbox.cif.g09.slc.cpg/sg43_6_cif.got.tgz:11535.got - 2010.06.26 16:48:59.
