data_PCOD8187107
_publ_section_title
;
Structure prediction by ZEFSAII (Michael W. Deem and Ramdas Pophale) SiO2 
 PCOD8187107
Probable space group: F D D 2
;
_chemical_formula_sum "Si O2"
_cell_formula_units_Z 96
_cell_length_a 9.022313
_cell_length_b 21.861834
_cell_length_c 22.786824
_cell_angle_alpha 90.000000
_cell_angle_beta 90.000000
_cell_angle_gamma 90.000000
_cell_volume 4494.571357
_symmetry_space_group_name_H-M "F D D 2"
_symmetry_group_IT_number 43
_symmetry_cell_setting 'orthorhombic'
loop_
_space_group_symop_operation_xyz
x,y,z
-x,-y,z
1/4-x,1/4+y,1/4+z
1/4+x,1/4-y,1/4+z
x,1/2+y,1/2+z
-x,1/2-y,1/2+z
1/4-x,3/4+y,3/4+z
1/4+x,3/4-y,3/4+z
1/2+x,y,1/2+z
1/2-x,-y,1/2+z
3/4-x,1/4+y,3/4+z
3/4+x,1/4-y,3/4+z
1/2+x,1/2+y,z
1/2-x,1/2-y,z
3/4-x,3/4+y,1/4+z
3/4+x,3/4-y,1/4+z
loop_
_atom_site_type_symbol
_atom_site_label
_atom_site_fract_x
_atom_site_fract_y
_atom_site_fract_z
Si Si1 0.268487 0.604774 0.065350
Si Si2 0.676240 0.014333 0.500868
Si Si3 0.841700 0.144732 0.846543
Si Si4 0.854893 0.196219 0.965792
Si Si5 0.888283 0.797698 0.635250
Si Si6 0.161172 0.484674 0.297415
O O1 0.228603 0.543290 0.027947
O O2 0.421707 0.584122 0.094600
O O3 0.166850 0.632286 0.118941
O O4 0.280191 0.659904 0.019105
O O5 0.314548 0.931490 0.548407
O O6 0.500000 0.000000 0.485740
O O7 0.768997 0.040758 0.445534
O O8 0.901288 0.154017 0.911852
O O9 0.849896 0.073074 0.839515
O O10 0.750000 0.250000 0.943366
O O11 0.009316 0.223306 0.986281
O O12 0.750000 0.750000 0.634106
O O13 0.003498 0.786404 0.583075
O O14 0.000000 0.500000 0.276328
#
# Coordination Sequence:
#
# PCOD8187107 Si02
#       6
#    16  16  16  16  16  16
#     4  10  20  39  69 100 125 179 225 273 342 412
#     4  10  23  43  67 100 137 181 230 282 345 413
#     4  10  22  43  66  93 131 175 224 279 343 411
#     4  11  19  39  69  95 124 165 228 276 324 409
#     4  12  21  43  67 100 136 178 231 280 348 414
#     4  11  23  42  65  96 128 176 223 274 336 410
#
# _framework density 21.359099000000001
#
# number of rings (size 3 to 8) (size 9 to 14) (size 15 to 20)
#    0.000    1.333    5.000    3.000    0.000    2.667 
#    9.000    0.833    0.000    0.000    0.000    0.000 
#    0.000    0.000    0.000    0.000    0.000    0.000 
#
# Total GULP energy -297313.952685 kJ/mol
# GULP energy per Si atom -12388.081362 kJ/mol
# Density = 2.131049 g / cm^3
# Si number density = 21.359099 Si / 1000 Ang^3
#
#
#
# Elastic Constant Matrix: (Units=GPa)
#
#
# Indices 1 2 3 4 5 6 
#
# 1 95.5026 36.5408 50.4384 0.0000 0.0000 0.0000
# 2 36.5408 66.6506 32.3335 0.0000 0.0000 0.0000
# 3 50.4384 32.3335 129.0059 0.0000 0.0000 0.0000
# 4 0.0000 0.0000 0.0000 24.7903 0.0000 0.0000
# 5 0.0000 0.0000 0.0000 0.0000 39.8959 0.0000
# 6 0.0000 0.0000 0.0000 0.0000 0.0000 21.5558
#
#
#
# Elastic Compliance Matrix: (Units=1/GPa)
#
#
# Indices 1 2 3 4 5 6 
#
# 1 0.015145 -0.006182 -0.004372 0.000000 0.000000 0.000000
# 2 -0.006182 0.019604 -0.002496 0.000000 0.000000 0.000000
# 3 -0.004372 -0.002496 0.010087 0.000000 0.000000 0.000000
# 4 0.000000 0.000000 0.000000 0.040338 0.000000 0.000000
# 5 0.000000 0.000000 0.000000 0.000000 0.025065 0.000000
# 6 0.000000 0.000000 0.000000 0.000000 0.000000 0.046391
#
#
# Mechanical properties :
#
#
# Convention : Reuss Voigt Hill
#
# Bulk Modulus (GPa) = 53.37696 58.86496 56.12096
# Shear Modulus (GPa) = 26.45819 28.70482 27.58151
#
# Velocity S-wave (km/s) = 3.52338 3.66992 3.59740
# Velocity P-wave (km/s) = 6.44956 6.75109 6.60205
#
# Compressibility (1/GPa) = 0.01873467
#
# Stress axis : x y z
#
# Youngs Moduli (GPa) = 66.02647 51.00965 99.14155
#
# Poissons Ratio (x) = 0.31537 0.43344
# Poissons Ratio (y) = 0.40821 0.24749
# Poissons Ratio (z) = 0.28867 0.12734
#
# Static dielectric constant tensor:
#      x y z
#    x 3.789720 0.000000 0.000000 
#    y 0.000000 4.095970 0.000000 
#    z 0.000000 0.000000 3.840000 
# 
# 
# High freq. dielectric constant tensor:
#      x y z
#    x 1.816970 0.000000 0.000000 
#    y 0.000000 1.837480 0.000000 
#    z 0.000000 0.000000 1.844130 
# 
# From -- ./inp_files/20364.got.cif
#   From: 2010.06.25/outbox.cif.g09.slc.cpg/sg43_11_cif.got.tgz:20364.got - 2010.06.26 16:48:59.
