data_PCOD8187732
_publ_section_title
;
Structure prediction by ZEFSAII (Michael W. Deem and Ramdas Pophale) SiO2 
 PCOD8187732
Probable space group: F D D 2
;
_chemical_formula_sum "Si O2"
_cell_formula_units_Z 64
_cell_length_a 30.490817
_cell_length_b 9.407490
_cell_length_c 9.115887
_cell_angle_alpha 90.000000
_cell_angle_beta 90.000000
_cell_angle_gamma 90.000000
_cell_volume 2614.819770
_symmetry_space_group_name_H-M "F D D 2"
_symmetry_group_IT_number 43
_symmetry_cell_setting 'orthorhombic'
loop_
_space_group_symop_operation_xyz
x,y,z
-x,-y,z
1/4-x,1/4+y,1/4+z
1/4+x,1/4-y,1/4+z
x,1/2+y,1/2+z
-x,1/2-y,1/2+z
1/4-x,3/4+y,3/4+z
1/4+x,3/4-y,3/4+z
1/2+x,y,1/2+z
1/2-x,-y,1/2+z
3/4-x,1/4+y,3/4+z
3/4+x,1/4-y,3/4+z
1/2+x,1/2+y,z
1/2-x,1/2-y,z
3/4-x,3/4+y,1/4+z
3/4+x,3/4-y,1/4+z
loop_
_atom_site_type_symbol
_atom_site_label
_atom_site_fract_x
_atom_site_fract_y
_atom_site_fract_z
Si Si1 0.275879 0.487003 0.641560
Si Si2 0.559395 0.741130 0.565044
Si Si3 0.327889 0.246786 0.152198
Si Si4 0.335681 0.812960 0.345396
O O1 0.283535 0.484764 0.467084
O O2 0.225653 0.463389 0.685326
O O3 0.290324 0.640190 0.707925
O O4 0.305033 0.365524 0.715772
O O5 0.593042 0.607788 0.569410
O O6 0.587159 0.883865 0.525709
O O7 0.369799 0.152311 0.106058
O O8 0.311755 0.326606 0.003594
#
# Coordination Sequence:
#
# PCOD8187732 Si02
#       4
#    16  16  16  16
#     4  11  24  47  70 107 143 188 250 298 371 443
#     4  11  26  44  75 104 145 196 243 303 374 439
#     4  11  24  45  68 102 144 184 241 306 363 438
#     4  11  24  46  67 103 145 183 243 306 360 442
#
# _framework density 24.475871999999999
#
# number of rings (size 3 to 8) (size 9 to 14) (size 15 to 20)
#    0.000    1.000    2.500    3.000    0.000   14.000 
#    0.000    0.000    0.000    0.000    0.000    0.000 
#    0.000    0.000    0.000    0.000    0.000    0.000 
#
# Total GULP energy -198285.148194 kJ/mol
# GULP energy per Si atom -12392.821762 kJ/mol
# Density = 2.442016 g / cm^3
# Si number density = 24.475872 Si / 1000 Ang^3
#
#
#
# Elastic Constant Matrix: (Units=GPa)
#
#
# Indices 1 2 3 4 5 6 
#
# 1 85.7032 45.4558 18.4495 0.0000 0.0000 0.0000
# 2 45.4558 177.1443 72.1274 0.0000 0.0000 0.0000
# 3 18.4495 72.1274 99.9585 0.0000 0.0000 0.0000
# 4 0.0000 0.0000 0.0000 49.7610 0.0000 0.0000
# 5 0.0000 0.0000 0.0000 0.0000 31.8716 0.0000
# 6 0.0000 0.0000 0.0000 0.0000 0.0000 39.6422
#
#
#
# Elastic Compliance Matrix: (Units=1/GPa)
#
#
# Indices 1 2 3 4 5 6 
#
# 1 0.013506 -0.003470 0.000011 0.000000 0.000000 0.000000
# 2 -0.003470 0.008885 -0.005771 0.000000 0.000000 0.000000
# 3 0.000011 -0.005771 0.014166 0.000000 0.000000 0.000000
# 4 0.000000 0.000000 0.000000 0.020096 0.000000 0.000000
# 5 0.000000 0.000000 0.000000 0.000000 0.031376 0.000000
# 6 0.000000 0.000000 0.000000 0.000000 0.000000 0.025226
#
#
# Mechanical properties :
#
#
# Convention : Reuss Voigt Hill
#
# Bulk Modulus (GPa) = 55.25512 70.54127 62.89820
# Shear Modulus (GPa) = 36.29812 39.37318 37.83565
#
# Velocity S-wave (km/s) = 3.85517 4.01515 3.93598
# Velocity P-wave (km/s) = 6.51466 7.09779 6.81247
#
# Compressibility (1/GPa) = 0.01809787
#
# Stress axis : x y z
#
# Youngs Moduli (GPa) = 74.03902 112.54489 70.59052
#
# Poissons Ratio (x) = 0.39057 -0.00079
# Poissons Ratio (y) = 0.25694 0.40737
# Poissons Ratio (z) = -0.00083 0.64949
#
# Static dielectric constant tensor:
#      x y z
#    x 4.064170 0.000000 0.000000 
#    y 0.000000 4.919120 0.000000 
#    z 0.000000 0.000000 4.720400 
# 
# 
# High freq. dielectric constant tensor:
#      x y z
#    x 1.950100 0.000000 0.000000 
#    y 0.000000 1.988760 0.000000 
#    z 0.000000 0.000000 1.982940 
# 
# From -- ./inp_files/8140.got.cif
#   From: 2010.06.25/outbox.cif.g09.slc.cpg/sg43_5_cif.got.tgz:8140.got - 2010.06.26 16:48:59.
