data_PCOD8187654
_publ_section_title
;
Structure prediction by ZEFSAII (Michael W. Deem and Ramdas Pophale) SiO2 
 PCOD8187654
Probable space group: F D D 2
;
_chemical_formula_sum "Si O2"
_cell_formula_units_Z 120
_cell_length_a 25.210423
_cell_length_b 25.653242
_cell_length_c 9.350860
_cell_angle_alpha 90.000000
_cell_angle_beta 90.000000
_cell_angle_gamma 90.000000
_cell_volume 6047.473105
_symmetry_space_group_name_H-M "F D D 2"
_symmetry_group_IT_number 43
_symmetry_cell_setting 'orthorhombic'
loop_
_space_group_symop_operation_xyz
x,y,z
-x,-y,z
1/4-x,1/4+y,1/4+z
1/4+x,1/4-y,1/4+z
x,1/2+y,1/2+z
-x,1/2-y,1/2+z
1/4-x,3/4+y,3/4+z
1/4+x,3/4-y,3/4+z
1/2+x,y,1/2+z
1/2-x,-y,1/2+z
3/4-x,1/4+y,3/4+z
3/4+x,1/4-y,3/4+z
1/2+x,1/2+y,z
1/2-x,1/2-y,z
3/4-x,3/4+y,1/4+z
3/4+x,3/4-y,1/4+z
loop_
_atom_site_type_symbol
_atom_site_label
_atom_site_fract_x
_atom_site_fract_y
_atom_site_fract_z
Si Si1 0.979460 0.887108 0.391260
Si Si2 0.000000 0.500000 0.805601
Si Si3 0.444285 0.304784 0.922887
Si Si4 0.075063 0.312029 0.820614
Si Si5 0.140932 0.218431 0.443769
Si Si6 0.908511 0.361588 0.145308
Si Si7 0.567474 0.809912 0.486420
Si Si8 0.887901 0.350460 0.690691
O O1 0.959256 0.868457 0.544617
O O2 0.936630 0.879680 0.266351
O O3 0.027513 0.849901 0.356028
O O4 0.996362 0.947786 0.401263
O O5 0.947190 0.502545 0.708414
O O6 0.435803 0.246188 0.871413
O O7 0.429572 0.345537 0.799769
O O8 0.504756 0.312114 0.969107
O O9 0.406553 0.316957 0.055941
O O10 0.127254 0.333428 0.901829
O O11 0.085349 0.313962 0.651422
O O12 0.131451 0.181747 0.581520
O O13 0.090539 0.256235 0.425939
O O14 0.143648 0.186512 0.298401
O O15 0.594685 0.856185 0.395266
#
# Coordination Sequence:
#
# PCOD8187654 Si02
#       8
#    16   8  16  16  16  16  16  16
#     4  11  22  39  70  96 127 175 223 268 331 405
#     4  12  20  40  72 102 124 172 236 278 324 400
#     4  12  28  42  66 102 136 170 228 286 336 398
#     4  12  23  43  70  95 134 178 224 271 339 415
#     4  11  22  39  70  96 127 175 223 268 331 405
#     4  11  24  43  65  97 132 172 220 278 335 395
#     4  12  23  43  70  95 134 178 224 271 339 415
#     4  11  24  43  65  97 132 172 220 278 335 395
#
# _framework density 19.843
#
# number of rings (size 3 to 8) (size 9 to 14) (size 15 to 20)
#    0.000    0.533    8.000    1.600    0.000    2.133 
#    0.000    0.000    0.000    1.600    0.000    0.000 
#    0.000    0.000    0.000    0.000    0.000    0.000 
#
# Total GULP energy -372070.589637 kJ/mol
# GULP energy per Si atom -12402.352988 kJ/mol
# Density = 1.979784 g / cm^3
# Si number density = 19.843000 Si / 1000 Ang^3
#
#
#
# Elastic Constant Matrix: (Units=GPa)
#
#
# Indices 1 2 3 4 5 6 
#
# 1 56.1160 36.8381 12.7080 0.0047 0.0011 0.0012
# 2 36.8381 93.8082 27.5571 0.0013 -0.0035 -0.0027
# 3 12.7080 27.5571 69.8662 0.0157 -0.0107 -0.0046
# 4 0.0047 0.0013 0.0157 0.5151 0.0009 -0.0034
# 5 0.0011 -0.0035 -0.0107 0.0009 15.5235 0.0028
# 6 0.0012 -0.0027 -0.0046 -0.0034 0.0028 37.8818
#
#
#
# Elastic Compliance Matrix: (Units=1/GPa)
#
#
# Indices 1 2 3 4 5 6 
#
# 1 0.024043 -0.009226 -0.000734 -0.000172 -0.000004 -0.000002
# 2 -0.009226 0.015597 -0.004474 0.000181 0.000001 0.000001
# 3 -0.000734 -0.004474 0.016211 -0.000477 0.000010 0.000002
# 4 -0.000172 0.000181 -0.000477 1.941530 -0.000114 0.000173
# 5 -0.000004 0.000001 0.000010 -0.000114 0.064418 -0.000005
# 6 -0.000002 0.000001 0.000002 0.000173 -0.000005 0.026398
#
#
# Mechanical properties :
#
#
# Convention : Reuss Voigt Hill
#
# Bulk Modulus (GPa) = 37.05963 41.55520 39.30742
# Shear Modulus (GPa) = 2.35177 20.29656 11.32416
#
# Velocity S-wave (km/s) = 1.08984 3.20168 2.39150
# Velocity P-wave (km/s) = 4.50562 5.88686 5.24194
#
# Compressibility (1/GPa) = 0.02698354
#
# Stress axis : x y z
#
# Youngs Moduli (GPa) = 41.59225 64.11379 61.68511
#
# Poissons Ratio (x) = 0.59151 0.04529
# Poissons Ratio (y) = 0.38372 0.27597
# Poissons Ratio (z) = 0.03054 0.28684
#
# Static dielectric constant tensor:
#      x y z
#    x 3.781440 0.000010 0.000000 
#    y 0.000010 4.216030 -0.000080 
#    z 0.000000 -0.000080 3.453680 
# 
# 
# High freq. dielectric constant tensor:
#      x y z
#    x 1.786750 0.000000 0.000000 
#    y 0.000000 1.792070 0.000000 
#    z 0.000000 0.000000 1.749340 
# 
# From -- ./inp_files/3912.got.cif
#   From: 2010.06.25/outbox.cif.g09.slc.cpg/sg43_2_cif.got.tgz:3912.got - 2010.06.26 16:48:59.
