data_PCOD8187031
_publ_section_title
;
Structure prediction by ZEFSAII (Michael W. Deem and Ramdas Pophale) SiO2 
 PCOD8187031
Probable space group: F D D 2
;
_chemical_formula_sum "Si O2"
_cell_formula_units_Z 88
_cell_length_a 19.518830
_cell_length_b 17.954552
_cell_length_c 12.068517
_cell_angle_alpha 90.000000
_cell_angle_beta 90.000000
_cell_angle_gamma 90.000000
_cell_volume 4229.434088
_symmetry_space_group_name_H-M "F D D 2"
_symmetry_group_IT_number 43
_symmetry_cell_setting 'orthorhombic'
loop_
_space_group_symop_operation_xyz
x,y,z
-x,-y,z
1/4-x,1/4+y,1/4+z
1/4+x,1/4-y,1/4+z
x,1/2+y,1/2+z
-x,1/2-y,1/2+z
1/4-x,3/4+y,3/4+z
1/4+x,3/4-y,3/4+z
1/2+x,y,1/2+z
1/2-x,-y,1/2+z
3/4-x,1/4+y,3/4+z
3/4+x,1/4-y,3/4+z
1/2+x,1/2+y,z
1/2-x,1/2-y,z
3/4-x,3/4+y,1/4+z
3/4+x,3/4-y,1/4+z
loop_
_atom_site_type_symbol
_atom_site_label
_atom_site_fract_x
_atom_site_fract_y
_atom_site_fract_z
Si Si1 0.404389 0.200839 0.699160
Si Si2 0.607815 0.635937 0.654523
Si Si3 0.768194 0.449139 0.510453
Si Si4 0.606401 0.264086 0.567396
Si Si5 0.988989 0.652428 0.500236
Si Si6 0.000000 0.000000 0.903473
O O1 0.364493 0.277966 0.663558
O O2 0.360110 0.145893 0.778006
O O3 0.474212 0.223994 0.763329
O O4 0.427033 0.157882 0.587783
O O5 0.529684 0.635517 0.701624
O O6 0.652549 0.581840 0.731393
O O7 0.836618 0.457357 0.439190
O O8 0.791397 0.429720 0.633385
O O9 0.556384 0.198509 0.530706
O O10 0.684422 0.235152 0.573991
O O11 0.013132 0.568181 0.486220
#
# Coordination Sequence:
#
# PCOD8187031 Si02
#       6
#    16  16  16  16  16   8
#     4   9  21  38  67  95 140 176 230 278 353 413
#     4  10  19  42  69  99 131 185 225 290 345 424
#     4   9  21  39  68  93 134 181 219 298 335 413
#     4  11  23  43  67  97 136 172 239 281 352 417
#     4  11  23  43  63 102 138 175 230 290 345 416
#     4  12  26  38  70  98 128 190 220 284 342 428
#
# _framework density 20.806566
#
# number of rings (size 3 to 8) (size 9 to 14) (size 15 to 20)
#    1.091    0.727    3.636    0.000    2.545    1.455 
#    0.000    0.000    0.000    0.000    0.000    0.000 
#    0.000    0.000    0.000    0.000    0.000    0.000 
#
# Total GULP energy -272590.346361 kJ/mol
# GULP energy per Si atom -12390.470289 kJ/mol
# Density = 2.075921 g / cm^3
# Si number density = 20.806566 Si / 1000 Ang^3
#
#
#
# Elastic Constant Matrix: (Units=GPa)
#
#
# Indices 1 2 3 4 5 6 
#
# 1 70.6989 12.0913 45.3773 0.0000 0.0000 0.0000
# 2 12.0913 94.1217 47.6631 0.0000 0.0000 0.0000
# 3 45.3773 47.6631 157.3790 0.0000 0.0000 0.0000
# 4 0.0000 0.0000 0.0000 36.2351 0.0000 0.0000
# 5 0.0000 0.0000 0.0000 0.0000 20.2447 0.0000
# 6 0.0000 0.0000 0.0000 0.0000 0.0000 21.8952
#
#
#
# Elastic Compliance Matrix: (Units=1/GPa)
#
#
# Indices 1 2 3 4 5 6 
#
# 1 0.017367 0.000360 -0.005116 0.000000 0.000000 0.000000
# 2 0.000360 0.012557 -0.003907 0.000000 0.000000 0.000000
# 3 -0.005116 -0.003907 0.009012 0.000000 0.000000 0.000000
# 4 0.000000 0.000000 0.000000 0.027598 0.000000 0.000000
# 5 0.000000 0.000000 0.000000 0.000000 0.049396 0.000000
# 6 0.000000 0.000000 0.000000 0.000000 0.000000 0.045672
#
#
# Mechanical properties :
#
#
# Convention : Reuss Voigt Hill
#
# Bulk Modulus (GPa) = 46.27556 59.16255 52.71905
# Shear Modulus (GPa) = 26.86286 30.14620 28.50453
#
# Velocity S-wave (km/s) = 3.59705 3.81054 3.70534
# Velocity P-wave (km/s) = 6.28815 6.91785 6.61050
#
# Compressibility (1/GPa) = 0.02160968
#
# Stress axis : x y z
#
# Youngs Moduli (GPa) = 57.58104 79.63936 110.95768
#
# Poissons Ratio (x) = -0.02866 0.56770
# Poissons Ratio (y) = -0.02072 0.43347
# Poissons Ratio (z) = 0.29461 0.31112
#
# Static dielectric constant tensor:
#      x y z
#    x 3.378450 0.000000 0.000000 
#    y 0.000000 3.797110 0.000000 
#    z 0.000000 0.000000 3.750430 
# 
# 
# High freq. dielectric constant tensor:
#      x y z
#    x 1.783960 0.000000 0.000000 
#    y 0.000000 1.814600 0.000000 
#    z 0.000000 0.000000 1.815100 
# 
# From -- ./inp_files/7069.got.cif
#   From: 2010.06.25/outbox.cif.g09.slc.cpg/sg43_4_cif.got.tgz:7069.got - 2010.06.26 16:48:59.
