data_PCOD8187749
_publ_section_title
;
Structure prediction by ZEFSAII (Michael W. Deem and Ramdas Pophale) SiO2 
 PCOD8187749
Probable space group: F D D 2
;
_chemical_formula_sum "Si O2"
_cell_formula_units_Z 88
_cell_length_a 14.688894
_cell_length_b 21.045800
_cell_length_c 11.773753
_cell_angle_alpha 90.000000
_cell_angle_beta 90.000000
_cell_angle_gamma 90.000000
_cell_volume 3639.732414
_symmetry_space_group_name_H-M "F D D 2"
_symmetry_group_IT_number 43
_symmetry_cell_setting 'orthorhombic'
loop_
_space_group_symop_operation_xyz
x,y,z
-x,-y,z
1/4-x,1/4+y,1/4+z
1/4+x,1/4-y,1/4+z
x,1/2+y,1/2+z
-x,1/2-y,1/2+z
1/4-x,3/4+y,3/4+z
1/4+x,3/4-y,3/4+z
1/2+x,y,1/2+z
1/2-x,-y,1/2+z
3/4-x,1/4+y,3/4+z
3/4+x,1/4-y,3/4+z
1/2+x,1/2+y,z
1/2-x,1/2-y,z
3/4-x,3/4+y,1/4+z
3/4+x,3/4-y,1/4+z
loop_
_atom_site_type_symbol
_atom_site_label
_atom_site_fract_x
_atom_site_fract_y
_atom_site_fract_z
Si Si1 0.816458 0.615244 0.001670
Si Si2 0.815649 0.900530 0.383507
Si Si3 0.500000 0.000000 0.301621
Si Si4 0.985823 0.352618 0.010897
Si Si5 0.785561 0.970405 0.164895
Si Si6 0.632188 0.955465 0.486481
O O1 0.785680 0.688835 0.982999
O O2 0.784334 0.583499 0.120825
O O3 0.924271 0.605356 0.004015
O O4 0.780232 0.578628 0.890311
O O5 0.832907 0.952241 0.283591
O O6 0.723542 0.915006 0.453865
O O7 0.811723 0.834625 0.313597
O O8 0.901329 0.896276 0.468961
O O9 0.586727 0.975640 0.370438
O O10 0.004831 0.291146 0.932266
O O11 0.852387 0.979624 0.057374
#
# Coordination Sequence:
#
# PCOD8187749 Si02
#       6
#    16  16   8  16  16  16
#     4  12  26  46  74 106 152 198 256 311 384 461
#     4  11  24  48  74 103 156 189 252 317 377 463
#     4  12  26  44  78 108 152 200 258 312 384 464
#     4  11  27  48  72 112 147 199 249 317 386 452
#     4  11  24  47  74 104 152 195 254 315 384 458
#     4  11  26  45  73 112 142 200 252 315 382 458
#
# _framework density 24.177603000000001
#
# number of rings (size 3 to 8) (size 9 to 14) (size 15 to 20)
#    0.000    0.727    1.818    5.455    7.636    0.000 
#    0.000    3.636    0.000    0.000    0.000    0.000 
#    0.000    0.000    0.000    0.000    0.000    0.000 
#
# Total GULP energy -272605.482821 kJ/mol
# GULP energy per Si atom -12391.158310 kJ/mol
# Density = 2.412257 g / cm^3
# Si number density = 24.177603 Si / 1000 Ang^3
#
#
#
# Elastic Constant Matrix: (Units=GPa)
#
#
# Indices 1 2 3 4 5 6 
#
# 1 109.4768 48.0928 32.3265 0.0000 0.0000 0.0000
# 2 48.0928 88.9302 26.6997 0.0000 0.0000 0.0000
# 3 32.3265 26.6997 118.2610 0.0000 0.0000 0.0000
# 4 0.0000 0.0000 0.0000 54.6540 0.0000 0.0000
# 5 0.0000 0.0000 0.0000 0.0000 37.5310 0.0000
# 6 0.0000 0.0000 0.0000 0.0000 0.0000 27.7401
#
#
#
# Elastic Compliance Matrix: (Units=1/GPa)
#
#
# Indices 1 2 3 4 5 6 
#
# 1 0.012412 -0.006108 -0.002014 0.000000 0.000000 0.000000
# 2 -0.006108 0.015068 -0.001732 0.000000 0.000000 0.000000
# 3 -0.002014 -0.001732 0.009397 0.000000 0.000000 0.000000
# 4 0.000000 0.000000 0.000000 0.018297 0.000000 0.000000
# 5 0.000000 0.000000 0.000000 0.000000 0.026645 0.000000
# 6 0.000000 0.000000 0.000000 0.000000 0.000000 0.036049
#
#
# Mechanical properties :
#
#
# Convention : Reuss Voigt Hill
#
# Bulk Modulus (GPa) = 58.24259 58.98954 58.61607
# Shear Modulus (GPa) = 34.89206 37.95496 36.42351
#
# Velocity S-wave (km/s) = 3.80301 3.96642 3.88557
# Velocity P-wave (km/s) = 6.58981 6.74003 6.66535
#
# Compressibility (1/GPa) = 0.01716957
#
# Stress axis : x y z
#
# Youngs Moduli (GPa) = 80.56628 66.36625 106.41159
#
# Poissons Ratio (x) = 0.40535 0.21430
# Poissons Ratio (y) = 0.49208 0.18434
# Poissons Ratio (z) = 0.16225 0.11497
#
# Static dielectric constant tensor:
#      x y z
#    x 4.228700 0.000000 0.000000 
#    y 0.000000 4.359100 0.000000 
#    z 0.000000 0.000000 4.592670 
# 
# 
# High freq. dielectric constant tensor:
#      x y z
#    x 1.948100 0.000000 0.000000 
#    y 0.000000 1.954100 0.000000 
#    z 0.000000 0.000000 1.981130 
# 
# From -- ./inp_files/6145.got.cif
#   From: 2010.06.25/outbox.cif.g09.slc.cpg/sg43_4_cif.got.tgz:6145.got - 2010.06.26 16:48:59.
