data_PCOD8187205
_publ_section_title
;
Structure prediction by ZEFSAII (Michael W. Deem and Ramdas Pophale) SiO2 
 PCOD8187205
Probable space group: F D D 2
;
_chemical_formula_sum "Si O2"
_cell_formula_units_Z 80
_cell_length_a 16.032658
_cell_length_b 24.574360
_cell_length_c 9.173020
_cell_angle_alpha 90.000000
_cell_angle_beta 90.000000
_cell_angle_gamma 90.000000
_cell_volume 3614.099334
_symmetry_space_group_name_H-M "F D D 2"
_symmetry_group_IT_number 43
_symmetry_cell_setting 'orthorhombic'
loop_
_space_group_symop_operation_xyz
x,y,z
-x,-y,z
1/4-x,1/4+y,1/4+z
1/4+x,1/4-y,1/4+z
x,1/2+y,1/2+z
-x,1/2-y,1/2+z
1/4-x,3/4+y,3/4+z
1/4+x,3/4-y,3/4+z
1/2+x,y,1/2+z
1/2-x,-y,1/2+z
3/4-x,1/4+y,3/4+z
3/4+x,1/4-y,3/4+z
1/2+x,1/2+y,z
1/2-x,1/2-y,z
3/4-x,3/4+y,1/4+z
3/4+x,3/4-y,1/4+z
loop_
_atom_site_type_symbol
_atom_site_label
_atom_site_fract_x
_atom_site_fract_y
_atom_site_fract_z
Si Si1 0.360656 0.100539 0.987490
Si Si2 0.860384 0.828364 0.317760
Si Si3 0.051739 0.084582 0.486218
Si Si4 0.215253 0.909025 0.793700
Si Si5 0.651367 0.999628 0.808243
O O1 0.350542 0.155324 0.889990
O O2 0.314296 0.051694 0.900554
O O3 0.454149 0.080511 0.013036
O O4 0.320312 0.111660 0.141997
O O5 0.934963 0.864139 0.382025
O O6 0.772093 0.858364 0.347717
O O7 0.887448 0.824580 0.148131
O O8 0.859378 0.770934 0.405214
O O9 0.083812 0.030296 0.407900
O O10 0.271372 0.962087 0.769275
#
# Coordination Sequence:
#
# PCOD8187205 Si02
#       5
#    16  16  16  16  16
#     4  11  22  38  62  90 123 161 202 258 314 365
#     4  10  21  39  61  88 122 162 206 255 307 367
#     4  10  21  39  61  85 116 159 203 247 305 371
#     4  11  22  38  61  92 125 160 206 263 314 367
#     4  10  21  38  62  87 118 166 213 247 298 378
#
# _framework density 22.135528999999998
#
# number of rings (size 3 to 8) (size 9 to 14) (size 15 to 20)
#    0.000    1.600    0.000    6.600    0.000    3.200 
#    0.000    4.000    0.000    4.800    0.000    0.000 
#    0.000    0.000    0.000    0.000    0.000    0.000 
#
# Total GULP energy -247911.130836 kJ/mol
# GULP energy per Si atom -12395.556542 kJ/mol
# Density = 2.208515 g / cm^3
# Si number density = 22.135529 Si / 1000 Ang^3
#
#
#
# Elastic Constant Matrix: (Units=GPa)
#
#
# Indices 1 2 3 4 5 6 
#
# 1 81.0828 22.4539 41.8180 0.0000 0.0000 0.0000
# 2 22.4539 91.7373 47.7949 0.0000 0.0000 0.0000
# 3 41.8180 47.7949 157.6716 0.0000 0.0000 0.0000
# 4 0.0000 0.0000 0.0000 39.1991 0.0000 0.0000
# 5 0.0000 0.0000 0.0000 0.0000 35.5653 0.0000
# 6 0.0000 0.0000 0.0000 0.0000 0.0000 19.5555
#
#
#
# Elastic Compliance Matrix: (Units=1/GPa)
#
#
# Indices 1 2 3 4 5 6 
#
# 1 0.014545 -0.001841 -0.003299 0.000000 0.000000 0.000000
# 2 -0.001841 0.013178 -0.003506 0.000000 0.000000 0.000000
# 3 -0.003299 -0.003506 0.008280 0.000000 0.000000 0.000000
# 4 0.000000 0.000000 0.000000 0.025511 0.000000 0.000000
# 5 0.000000 0.000000 0.000000 0.000000 0.028117 0.000000
# 6 0.000000 0.000000 0.000000 0.000000 0.000000 0.051137
#
#
# Mechanical properties :
#
#
# Convention : Reuss Voigt Hill
#
# Bulk Modulus (GPa) = 53.44943 61.62502 57.53723
# Shear Modulus (GPa) = 30.43253 33.42563 31.92908
#
# Velocity S-wave (km/s) = 3.71189 3.89014 3.80206
# Velocity P-wave (km/s) = 6.52455 6.93383 6.73230
#
# Compressibility (1/GPa) = 0.01870927
#
# Stress axis : x y z
#
# Youngs Moduli (GPa) = 68.75417 75.88335 120.76867
#
# Poissons Ratio (x) = 0.13970 0.39848
# Poissons Ratio (y) = 0.12657 0.42347
# Poissons Ratio (z) = 0.22685 0.26608
#
# Static dielectric constant tensor:
#      x y z
#    x 3.780870 0.000000 0.000000 
#    y 0.000000 4.032320 0.000000 
#    z 0.000000 0.000000 4.134450 
# 
# 
# High freq. dielectric constant tensor:
#      x y z
#    x 1.861040 0.000000 0.000000 
#    y 0.000000 1.863030 0.000000 
#    z 0.000000 0.000000 1.877780 
# 
# From -- ./inp_files/2783.got.cif
#   From: 2010.06.25/outbox.cif.g09.slc.cpg/sg43_2_cif.got.tgz:2783.got - 2010.06.26 16:48:59.
