data_PCOD8187475
_publ_section_title
;
Structure prediction by ZEFSAII (Michael W. Deem and Ramdas Pophale) SiO2 
 PCOD8187475
Probable space group: F D D 2
;
_chemical_formula_sum "Si O2"
_cell_formula_units_Z 112
_cell_length_a 26.887927
_cell_length_b 16.118850
_cell_length_c 10.766980
_cell_angle_alpha 90.000000
_cell_angle_beta 90.000000
_cell_angle_gamma 90.000000
_cell_volume 4666.435642
_symmetry_space_group_name_H-M "F D D 2"
_symmetry_group_IT_number 43
_symmetry_cell_setting 'orthorhombic'
loop_
_space_group_symop_operation_xyz
x,y,z
-x,-y,z
1/4-x,1/4+y,1/4+z
1/4+x,1/4-y,1/4+z
x,1/2+y,1/2+z
-x,1/2-y,1/2+z
1/4-x,3/4+y,3/4+z
1/4+x,3/4-y,3/4+z
1/2+x,y,1/2+z
1/2-x,-y,1/2+z
3/4-x,1/4+y,3/4+z
3/4+x,1/4-y,3/4+z
1/2+x,1/2+y,z
1/2-x,1/2-y,z
3/4-x,3/4+y,1/4+z
3/4+x,3/4-y,1/4+z
loop_
_atom_site_type_symbol
_atom_site_label
_atom_site_fract_x
_atom_site_fract_y
_atom_site_fract_z
Si Si1 0.199632 0.361548 0.785010
Si Si2 0.743057 0.990523 0.193087
Si Si3 0.266529 0.160877 0.047316
Si Si4 0.587133 0.176150 0.619234
Si Si5 0.876625 0.651534 0.142780
Si Si6 0.800771 0.222537 0.031789
Si Si7 0.659536 0.114045 0.128343
O O1 0.209615 0.457270 0.743199
O O2 0.215849 0.308259 0.667313
O O3 0.144078 0.334721 0.827437
O O4 0.237299 0.342392 0.898083
O O5 0.764793 0.916665 0.104917
O O6 0.716185 0.948423 0.311089
O O7 0.703393 0.045929 0.110565
O O8 0.250000 0.250000 0.098482
O O9 0.321225 0.145754 0.095067
O O10 0.608647 0.256246 0.689494
O O11 0.629005 0.157976 0.512618
O O12 0.581342 0.097947 0.709806
O O13 0.910268 0.619830 0.027915
O O14 0.750000 0.250000 0.961083
O O15 0.833875 0.303720 0.047558
#
# Coordination Sequence:
#
# PCOD8187475 Si02
#       7
#    16  16  16  16  16  16  16
#     4  11  25  41  72  99 132 190 230 285 353 416
#     4  10  23  46  67  99 141 179 227 293 350 416
#     4  10  23  40  68  99 131 175 230 282 340 427
#     4  10  24  42  67  94 138 175 221 290 349 410
#     4   9  22  44  66  96 129 180 225 282 345 418
#     4  12  26  44  67 103 140 181 232 296 350 414
#     4  10  24  44  72  96 138 178 241 283 346 423
#
# _framework density 24.001189
#
# number of rings (size 3 to 8) (size 9 to 14) (size 15 to 20)
#    0.000    1.714    1.429    0.429   14.000    4.571 
#    0.000    0.000    0.000    0.000    0.000    0.000 
#    0.000    0.000    0.000    0.000    0.000    0.000 
#
# Total GULP energy -346992.163811 kJ/mol
# GULP energy per Si atom -12392.577279 kJ/mol
# Density = 2.394656 g / cm^3
# Si number density = 24.001189 Si / 1000 Ang^3
#
#
#
# Elastic Constant Matrix: (Units=GPa)
#
#
# Indices 1 2 3 4 5 6 
#
# 1 30.4281 19.2789 11.2857 0.0000 0.0000 0.0000
# 2 19.2789 117.7550 22.1050 0.0000 0.0000 0.0000
# 3 11.2857 22.1050 60.8326 0.0000 0.0000 0.0000
# 4 0.0000 0.0000 0.0000 41.1403 0.0000 0.0000
# 5 0.0000 0.0000 0.0000 0.0000 14.5606 0.0000
# 6 0.0000 0.0000 0.0000 0.0000 0.0000 44.6722
#
#
#
# Elastic Compliance Matrix: (Units=1/GPa)
#
#
# Indices 1 2 3 4 5 6 
#
# 1 0.038117 -0.005273 -0.005156 0.000000 0.000000 0.000000
# 2 -0.005273 0.009843 -0.002599 0.000000 0.000000 0.000000
# 3 -0.005156 -0.002599 0.018339 0.000000 0.000000 0.000000
# 4 0.000000 0.000000 0.000000 0.024307 0.000000 0.000000
# 5 0.000000 0.000000 0.000000 0.000000 0.068678 0.000000
# 6 0.000000 0.000000 0.000000 0.000000 0.000000 0.022385
#
#
# Mechanical properties :
#
#
# Convention : Reuss Voigt Hill
#
# Bulk Modulus (GPa) = 24.84717 34.92832 29.88774
# Shear Modulus (GPa) = 22.61012 30.49770 26.55391
#
# Velocity S-wave (km/s) = 3.07260 3.56852 3.32980
# Velocity P-wave (km/s) = 4.79195 5.61814 5.22141
#
# Compressibility (1/GPa) = 0.04024604
#
# Stress axis : x y z
#
# Youngs Moduli (GPa) = 26.23474 101.59223 54.52778
#
# Poissons Ratio (x) = 0.53567 0.28112
# Poissons Ratio (y) = 0.13833 0.14169
# Poissons Ratio (z) = 0.13526 0.26399
#
# Static dielectric constant tensor:
#      x y z
#    x 4.021910 0.000000 0.000000 
#    y 0.000000 4.629160 0.000000 
#    z 0.000000 0.000000 4.461920 
# 
# 
# High freq. dielectric constant tensor:
#      x y z
#    x 1.934760 0.000000 0.000000 
#    y 0.000000 1.966740 0.000000 
#    z 0.000000 0.000000 1.935900 
# 
# From -- ./inp_files/8297.got.cif
#   From: 2010.06.25/outbox.cif.g09.slc.cpg/sg43_5_cif.got.tgz:8297.got - 2010.06.26 16:48:59.
