data_PCOD8187035
_publ_section_title
;
Structure prediction by ZEFSAII (Michael W. Deem and Ramdas Pophale) SiO2 
 PCOD8187035
Probable space group: F D D 2
;
_chemical_formula_sum "Si O2"
_cell_formula_units_Z 88
_cell_length_a 28.555424
_cell_length_b 17.629765
_cell_length_c 7.669145
_cell_angle_alpha 90.000000
_cell_angle_beta 90.000000
_cell_angle_gamma 90.000000
_cell_volume 3860.842501
_symmetry_space_group_name_H-M "F D D 2"
_symmetry_group_IT_number 43
_symmetry_cell_setting 'orthorhombic'
loop_
_space_group_symop_operation_xyz
x,y,z
-x,-y,z
1/4-x,1/4+y,1/4+z
1/4+x,1/4-y,1/4+z
x,1/2+y,1/2+z
-x,1/2-y,1/2+z
1/4-x,3/4+y,3/4+z
1/4+x,3/4-y,3/4+z
1/2+x,y,1/2+z
1/2-x,-y,1/2+z
3/4-x,1/4+y,3/4+z
3/4+x,1/4-y,3/4+z
1/2+x,1/2+y,z
1/2-x,1/2-y,z
3/4-x,3/4+y,1/4+z
3/4+x,3/4-y,1/4+z
loop_
_atom_site_type_symbol
_atom_site_label
_atom_site_fract_x
_atom_site_fract_y
_atom_site_fract_z
Si Si1 0.075496 0.046920 0.340230
Si Si2 0.651236 0.660308 0.391570
Si Si3 0.847996 0.477788 0.407110
Si Si4 0.470574 0.120670 0.329988
Si Si5 0.000000 0.000000 0.585184
Si Si6 0.072368 0.630188 0.472103
O O1 0.122270 0.083051 0.429084
O O2 0.031381 0.056905 0.468098
O O3 0.064389 0.089170 0.158028
O O4 0.080036 0.954776 0.312623
O O5 0.615147 0.720644 0.314704
O O6 0.693388 0.642482 0.259804
O O7 0.799529 0.441673 0.473607
O O8 0.886879 0.413458 0.365132
O O9 0.838457 0.532160 0.242482
O O10 0.464630 0.047044 0.208390
O O11 0.525354 0.132159 0.361860
#
# Coordination Sequence:
#
# PCOD8187035 Si02
#       6
#    16  16  16  16   8  16
#     4  10  21  42  65  94 136 170 225 282 343 407
#     4  10  19  43  70  91 130 181 225 277 344 411
#     4  10  20  40  66 100 128 167 238 275 329 417
#     4  12  23  41  69  99 134 183 231 277 351 423
#     4  12  26  40  60 106 136 170 232 286 346 416
#     4  10  22  42  73  93 135 184 221 286 349 415
#
# _framework density 22.792950999999999
#
# number of rings (size 3 to 8) (size 9 to 14) (size 15 to 20)
#    0.000    1.455    5.455    3.273    0.000    2.909 
#    6.545    0.000    0.000    0.000    0.000    0.000 
#    0.000    0.000    0.000    0.000    0.000    0.000 
#
# Total GULP energy -272715.497650 kJ/mol
# GULP energy per Si atom -12396.158984 kJ/mol
# Density = 2.274107 g / cm^3
# Si number density = 22.792951 Si / 1000 Ang^3
#
#
#
# Elastic Constant Matrix: (Units=GPa)
#
#
# Indices 1 2 3 4 5 6 
#
# 1 155.6419 63.7280 42.3057 0.0000 0.0000 0.0000
# 2 63.7280 129.2170 35.8219 0.0000 0.0000 0.0000
# 3 42.3057 35.8219 31.8681 0.0000 0.0000 0.0000
# 4 0.0000 0.0000 0.0000 32.2122 0.0000 0.0000
# 5 0.0000 0.0000 0.0000 0.0000 11.1887 0.0000
# 6 0.0000 0.0000 0.0000 0.0000 0.0000 40.1448
#
#
#
# Elastic Compliance Matrix: (Units=1/GPa)
#
#
# Indices 1 2 3 4 5 6 
#
# 1 0.010358 -0.001883 -0.011634 0.000000 0.000000 0.000000
# 2 -0.001883 0.011585 -0.010522 0.000000 0.000000 0.000000
# 3 -0.011634 -0.010522 0.058651 0.000000 0.000000 0.000000
# 4 0.000000 0.000000 0.000000 0.031044 0.000000 0.000000
# 5 0.000000 0.000000 0.000000 0.000000 0.089376 0.000000
# 6 0.000000 0.000000 0.000000 0.000000 0.000000 0.024910
#
#
# Mechanical properties :
#
#
# Convention : Reuss Voigt Hill
#
# Bulk Modulus (GPa) = 30.75433 66.71537 48.73485
# Shear Modulus (GPa) = 17.55367 28.36721 22.96044
#
# Velocity S-wave (km/s) = 2.77814 3.53166 3.17732
# Velocity P-wave (km/s) = 4.87985 6.77967 5.90664
#
# Compressibility (1/GPa) = 0.03251575
#
# Stress axis : x y z
#
# Youngs Moduli (GPa) = 96.53920 86.32120 17.05007
#
# Poissons Ratio (x) = 0.16258 0.19836
# Poissons Ratio (y) = 0.18183 0.17939
# Poissons Ratio (z) = 1.12314 0.90824
#
# Static dielectric constant tensor:
#      x y z
#    x 4.117000 0.000000 0.000000 
#    y 0.000000 4.615760 0.000000 
#    z 0.000000 0.000000 3.856680 
# 
# 
# High freq. dielectric constant tensor:
#      x y z
#    x 1.902750 0.000000 0.000000 
#    y 0.000000 1.901970 0.000000 
#    z 0.000000 0.000000 1.873730 
# 
# From -- ./inp_files/4683.got.cif
#   From: 2010.06.25/outbox.cif.g09.slc.cpg/sg43_3_cif.got.tgz:4683.got - 2010.06.26 16:48:59.
