data_PCOD8187174
_publ_section_title
;
Structure prediction by ZEFSAII (Michael W. Deem and Ramdas Pophale) SiO2 
 PCOD8187174
Probable space group: F D D 2
;
_chemical_formula_sum "Si O2"
_cell_formula_units_Z 112
_cell_length_a 15.934782
_cell_length_b 10.239384
_cell_length_c 36.042855
_cell_angle_alpha 90.000000
_cell_angle_beta 90.000000
_cell_angle_gamma 90.000000
_cell_volume 5880.836989
_symmetry_space_group_name_H-M "F D D 2"
_symmetry_group_IT_number 43
_symmetry_cell_setting 'orthorhombic'
loop_
_space_group_symop_operation_xyz
x,y,z
-x,-y,z
1/4-x,1/4+y,1/4+z
1/4+x,1/4-y,1/4+z
x,1/2+y,1/2+z
-x,1/2-y,1/2+z
1/4-x,3/4+y,3/4+z
1/4+x,3/4-y,3/4+z
1/2+x,y,1/2+z
1/2-x,-y,1/2+z
3/4-x,1/4+y,3/4+z
3/4+x,1/4-y,3/4+z
1/2+x,1/2+y,z
1/2-x,1/2-y,z
3/4-x,3/4+y,1/4+z
3/4+x,3/4-y,1/4+z
loop_
_atom_site_type_symbol
_atom_site_label
_atom_site_fract_x
_atom_site_fract_y
_atom_site_fract_z
Si Si1 0.661072 0.470957 0.907390
Si Si2 0.658739 0.687823 0.304674
Si Si3 0.151991 1.000000 0.642482
Si Si4 0.287965 0.618569 0.188611
Si Si5 0.588928 0.279043 0.127574
Si Si6 0.408739 0.437824 0.230290
Si Si7 0.787965 0.881431 0.096353
O O1 0.655489 0.627184 0.903497
O O2 0.750000 0.421124 0.892482
O O3 0.655840 0.426753 0.949866
O O4 0.587808 0.400334 0.884434
O O5 0.750000 0.750000 0.298945
O O6 0.655840 0.573247 0.335098
O O7 0.625000 0.625000 0.267482
O O8 0.596813 0.804753 0.315776
O O9 0.209831 0.973394 0.606633
O O10 0.209831 0.026606 0.678331
O O11 0.094511 0.122816 0.631467
O O12 0.250000 0.750000 0.206447
O O13 0.337808 0.650334 0.150530
O O14 0.346814 0.554754 0.219188
O O15 0.500000 0.500000 0.236019
O O16 0.750000 0.750000 0.078517
#
# Coordination Sequence:
#
# PCOD8187174 Si02
#       7
#    16  16  16  16  16  16  16
#     4  11  21  40  65  92 123 163 219 261 305 377
#     4  12  26  41  63  92 128 171 210 260 324 384
#     4  10  21  34  65  96 122 150 204 276 311 354
#     4  10  21  39  64  92 124 163 211 262 307 370
#     4  11  21  40  65  92 123 163 219 261 305 377
#     4  12  26  41  63  92 128 171 210 260 324 384
#     4  10  21  39  64  92 124 163 211 262 307 370
#
# _framework density 19.044909000000001
#
# number of rings (size 3 to 8) (size 9 to 14) (size 15 to 20)
#    0.000    1.143    5.714    0.429    4.000    0.000 
#    0.000    4.286    0.000    0.000    0.000    0.000 
#    0.000    0.000    0.000    0.000    0.000    0.000 
#
# Total GULP energy -347275.885898 kJ/mol
# GULP energy per Si atom -12402.710211 kJ/mol
# Density = 1.900156 g / cm^3
# Si number density = 19.044909 Si / 1000 Ang^3
#
#
#
# Elastic Constant Matrix: (Units=GPa)
#
#
# Indices 1 2 3 4 5 6 
#
# 1 101.0431 44.1225 51.4801 0.0000 0.0000 0.0000
# 2 44.1225 108.9563 65.2528 0.0000 0.0000 0.0000
# 3 51.4801 65.2528 140.1683 0.0000 0.0000 0.0000
# 4 0.0000 0.0000 0.0000 16.7289 0.0000 0.0000
# 5 0.0000 0.0000 0.0000 0.0000 25.3760 0.0000
# 6 0.0000 0.0000 0.0000 0.0000 0.0000 38.9410
#
#
#
# Elastic Compliance Matrix: (Units=1/GPa)
#
#
# Indices 1 2 3 4 5 6 
#
# 1 0.012993 -0.003333 -0.003220 0.000000 0.000000 0.000000
# 2 -0.003333 0.013581 -0.005098 0.000000 0.000000 0.000000
# 3 -0.003220 -0.005098 0.010690 0.000000 0.000000 0.000000
# 4 0.000000 0.000000 0.000000 0.059777 0.000000 0.000000
# 5 0.000000 0.000000 0.000000 0.000000 0.039407 0.000000
# 6 0.000000 0.000000 0.000000 0.000000 0.000000 0.025680
#
#
# Mechanical properties :
#
#
# Convention : Reuss Voigt Hill
#
# Bulk Modulus (GPa) = 71.62711 74.65315 73.14013
# Shear Modulus (GPa) = 26.30401 28.83000 27.56701
#
# Velocity S-wave (km/s) = 3.72042 3.89497 3.80870
# Velocity P-wave (km/s) = 7.49311 7.71435 7.60453
#
# Compressibility (1/GPa) = 0.01396119
#
# Stress axis : x y z
#
# Youngs Moduli (GPa) = 76.96527 73.63239 93.54138
#
# Poissons Ratio (x) = 0.24541 0.30124
# Poissons Ratio (y) = 0.25652 0.47690
# Poissons Ratio (z) = 0.24786 0.37540
#
# Static dielectric constant tensor:
#      x y z
#    x 3.667490 0.000000 0.000000 
#    y 0.000000 3.379570 0.000000 
#    z 0.000000 0.000000 3.134210 
# 
# 
# High freq. dielectric constant tensor:
#      x y z
#    x 1.758870 0.000000 0.000000 
#    y 0.000000 1.756300 0.000000 
#    z 0.000000 0.000000 1.707230 
# 
# From -- ./inp_files/28625.got.cif
#   From: 2010.06.25/outbox.cif.g09.slc.cpg/sg43_15_cif.got.tgz:28625.got - 2010.06.26 16:48:59.
