data_PCOD8187271
_publ_section_title
;
Structure prediction by ZEFSAII (Michael W. Deem and Ramdas Pophale) SiO2 
 PCOD8187271
Probable space group: F D D 2
;
_chemical_formula_sum "Si O2"
_cell_formula_units_Z 80
_cell_length_a 11.286929
_cell_length_b 13.193472
_cell_length_c 24.189779
_cell_angle_alpha 90.000000
_cell_angle_beta 90.000000
_cell_angle_gamma 90.000000
_cell_volume 3602.191470
_symmetry_space_group_name_H-M "F D D 2"
_symmetry_group_IT_number 43
_symmetry_cell_setting 'orthorhombic'
loop_
_space_group_symop_operation_xyz
x,y,z
-x,-y,z
1/4-x,1/4+y,1/4+z
1/4+x,1/4-y,1/4+z
x,1/2+y,1/2+z
-x,1/2-y,1/2+z
1/4-x,3/4+y,3/4+z
1/4+x,3/4-y,3/4+z
1/2+x,y,1/2+z
1/2-x,-y,1/2+z
3/4-x,1/4+y,3/4+z
3/4+x,1/4-y,3/4+z
1/2+x,1/2+y,z
1/2-x,1/2-y,z
3/4-x,3/4+y,1/4+z
3/4+x,3/4-y,1/4+z
loop_
_atom_site_type_symbol
_atom_site_label
_atom_site_fract_x
_atom_site_fract_y
_atom_site_fract_z
Si Si1 0.319630 0.651618 0.398680
Si Si2 0.066370 0.736557 0.862332
Si Si3 0.117440 0.277641 0.580243
Si Si4 0.570383 0.310922 0.742904
Si Si5 0.578056 0.352923 0.968120
O O1 0.250000 0.750000 0.378207
O O2 0.454971 0.681339 0.390535
O O3 0.283677 0.554052 0.360927
O O4 0.287058 0.619558 0.461868
O O5 0.159024 0.646097 0.846579
O O6 0.043176 0.808407 0.808749
O O7 0.116148 0.809905 0.909000
O O8 0.250000 0.250000 0.597251
O O9 0.100341 0.267169 0.514509
O O10 0.579818 0.194375 0.725159
O O11 0.690841 0.366123 0.724254
#
# Coordination Sequence:
#
# PCOD8187271 Si02
#       5
#    16  16  16  16  16
#     4  11  22  42  62  94 131 166 216 273 326 392
#     4  10  22  42  64  92 129 167 213 270 325 389
#     4   9  22  40  63  93 128 164 218 266 326 394
#     4  10  23  41  62  97 126 163 222 267 328 397
#     4  10  21  42  65  93 125 171 214 270 328 392
#
# _framework density 22.208703
#
# number of rings (size 3 to 8) (size 9 to 14) (size 15 to 20)
#    0.000    2.000    2.000    0.000    2.800    6.400 
#    7.200    2.000    0.000    0.000    0.000    0.000 
#    0.000    0.000    0.000    0.000    0.000    0.000 
#
# Total GULP energy -247836.203950 kJ/mol
# GULP energy per Si atom -12391.810198 kJ/mol
# Density = 2.215815 g / cm^3
# Si number density = 22.208703 Si / 1000 Ang^3
#
#
#
# Elastic Constant Matrix: (Units=GPa)
#
#
# Indices 1 2 3 4 5 6 
#
# 1 30.6536 4.6793 20.1231 0.0000 0.0000 0.0000
# 2 4.6793 105.7700 72.0629 0.0000 0.0000 0.0000
# 3 20.1231 72.0629 177.1830 0.0000 0.0000 0.0000
# 4 0.0000 0.0000 0.0000 42.4255 0.0000 0.0000
# 5 0.0000 0.0000 0.0000 0.0000 29.6983 0.0000
# 6 0.0000 0.0000 0.0000 0.0000 0.0000 23.8353
#
#
#
# Elastic Compliance Matrix: (Units=1/GPa)
#
#
# Indices 1 2 3 4 5 6 
#
# 1 0.035452 0.001625 -0.004687 0.000000 0.000000 0.000000
# 2 0.001625 0.013153 -0.005534 0.000000 0.000000 0.000000
# 3 -0.004687 -0.005534 0.008427 0.000000 0.000000 0.000000
# 4 0.000000 0.000000 0.000000 0.023571 0.000000 0.000000
# 5 0.000000 0.000000 0.000000 0.000000 0.033672 0.000000
# 6 0.000000 0.000000 0.000000 0.000000 0.000000 0.041955
#
#
# Mechanical properties :
#
#
# Convention : Reuss Voigt Hill
#
# Bulk Modulus (GPa) = 25.10091 56.37081 40.73586
# Shear Modulus (GPa) = 26.78076 33.64125 30.21100
#
# Velocity S-wave (km/s) = 3.47633 3.89624 3.69226
# Velocity P-wave (km/s) = 5.23832 6.75857 6.04641
#
# Compressibility (1/GPa) = 0.03983919
#
# Stress axis : x y z
#
# Youngs Moduli (GPa) = 28.20747 76.02788 118.66564
#
# Poissons Ratio (x) = -0.12356 0.55622
# Poissons Ratio (y) = -0.04584 0.65671
# Poissons Ratio (z) = 0.13222 0.42075
#
# Static dielectric constant tensor:
#      x y z
#    x 3.680110 0.000000 0.000000 
#    y 0.000000 4.573290 0.000000 
#    z 0.000000 0.000000 4.079250 
# 
# 
# High freq. dielectric constant tensor:
#      x y z
#    x 1.844880 0.000000 0.000000 
#    y 0.000000 1.887200 0.000000 
#    z 0.000000 0.000000 1.877180 
# 
# From -- ./inp_files/17510.got.cif
#   From: 2010.06.25/outbox.cif.g09.slc.cpg/sg43_9_cif.got.tgz:17510.got - 2010.06.26 16:48:59.
