data_PCOD8188602
_publ_section_title
;
Structure prediction by ZEFSAII (Michael W. Deem and Ramdas Pophale) SiO2 
 PCOD8188602
Probable space group: I M M 2
;
_chemical_formula_sum "Si O2"
_cell_formula_units_Z 64
_cell_length_a 9.570001
_cell_length_b 32.995146
_cell_length_c 11.964570
_cell_angle_alpha 90.000000
_cell_angle_beta 90.000000
_cell_angle_gamma 90.000000
_cell_volume 3777.975459
_symmetry_space_group_name_H-M "I M M 2"
_symmetry_group_IT_number 44
_symmetry_cell_setting 'orthorhombic'
loop_
_space_group_symop_operation_xyz
x,y,z
-x,-y,z
-x,y,z
x,-y,z
1/2+x,1/2+y,1/2+z
1/2-x,1/2-y,1/2+z
1/2-x,1/2+y,1/2+z
1/2+x,1/2-y,1/2+z
loop_
_atom_site_type_symbol
_atom_site_label
_atom_site_fract_x
_atom_site_fract_y
_atom_site_fract_z
Si Si1 0.335414 0.953906 0.445790
Si Si2 0.665517 0.677243 0.436020
Si Si3 0.337342 0.312415 0.185427
Si Si4 0.336475 0.621432 0.005094
Si Si5 0.667051 0.264595 0.630988
Si Si6 0.843126 0.892885 0.085090
Si Si7 0.343253 0.666672 0.790748
Si Si8 0.845727 0.546334 0.690811
O O1 0.500000 0.945640 0.460783
O O2 0.247018 0.920967 0.515842
O O3 0.289411 0.948907 0.316915
O O4 0.300568 0.000000 0.485556
O O5 0.500000 0.674386 0.439310
O O6 0.721310 0.682446 0.310872
O O7 0.712363 0.714379 0.514567
O O8 0.721725 0.634799 0.486423
O O9 0.500000 0.299628 0.184287
O O10 0.245649 0.277826 0.128423
O O11 0.314927 0.354475 0.120387
O O12 0.500000 0.611750 0.983438
O O13 0.272169 0.649476 0.904253
O O14 0.500000 0.258730 0.637112
O O15 0.721826 0.292323 0.735913
O O16 0.839247 0.868412 0.199989
O O17 0.751159 0.932630 0.099346
O O18 0.000000 0.906695 0.056527
O O19 0.500000 0.678134 0.824300
O O20 0.850631 0.500000 0.655602
O O21 0.000000 0.565619 0.683824
#
# Coordination Sequence:
#
# PCOD8188602 Si02
#       8
#     8   8   8   8   8   8   8   8
#     4   9  18  32  49  71 102 133 158 193 244 299
#     4   8  17  34  50  66  92 127 160 192 237 284
#     4  10  21  34  49  71  98 126 160 203 244 281
#     4  10  19  31  49  73 100 127 159 203 247 286
#     4   9  18  33  52  68  92 129 163 196 237 286
#     4   9  15  28  50  67  87 122 160 192 224 275
#     4   8  15  28  45  67  92 120 153 191 235 275
#     4   9  17  28  43  69 103 127 144 182 242 291
#
# _framework density 16.940290999999998
#
# number of rings (size 3 to 8) (size 9 to 14) (size 15 to 20)
#    0.000    3.000    1.250    2.250    1.750    1.000 
#    0.000    5.000    0.000    0.750    0.000    5.250 
#    0.000    0.000    0.000    0.000    0.000    0.000 
#
# Total GULP energy -396570.188907 kJ/mol
# GULP energy per Si atom -12392.818403 kJ/mol
# Density = 1.690173 g / cm^3
# Si number density = 16.940291 Si / 1000 Ang^3
#
#
#
# Elastic Constant Matrix: (Units=GPa)
#
#
# Indices 1 2 3 4 5 6 
#
# 1 50.6315 50.0440 27.3223 -0.0003 -0.0001 -0.0001
# 2 50.0440 110.3607 47.1632 -0.0004 -0.0001 -0.0001
# 3 27.3223 47.1632 94.2768 -0.0017 0.0001 -0.0002
# 4 -0.0003 -0.0004 -0.0017 22.0292 0.0000 -0.0001
# 5 -0.0001 -0.0001 0.0001 0.0000 14.8781 -0.0002
# 6 -0.0001 -0.0001 -0.0002 -0.0001 -0.0002 30.5919
#
#
#
# Elastic Compliance Matrix: (Units=1/GPa)
#
#
# Indices 1 2 3 4 5 6 
#
# 1 0.036412 -0.015265 -0.002916 0.000000 0.000000 0.000000
# 2 -0.015265 0.017925 -0.004543 0.000000 0.000000 0.000000
# 3 -0.002916 -0.004543 0.013725 0.000001 0.000000 0.000000
# 4 0.000000 0.000000 0.000001 0.045394 0.000000 0.000000
# 5 0.000000 0.000000 0.000000 0.000000 0.067213 0.000000
# 6 0.000000 0.000000 0.000000 0.000000 0.000000 0.032688
#
#
# Mechanical properties :
#
#
# Convention : Reuss Voigt Hill
#
# Bulk Modulus (GPa) = 44.22184 56.03647 50.12915
# Shear Modulus (GPa) = 18.77272 22.21582 20.49427
#
# Velocity S-wave (km/s) = 3.33253 3.62528 3.48198
# Velocity P-wave (km/s) = 6.40069 7.11858 6.76916
#
# Compressibility (1/GPa) = 0.02261326
#
# Stress axis : x y z
#
# Youngs Moduli (GPa) = 27.46334 55.78837 72.86027
#
# Poissons Ratio (x) = 0.85162 0.21246
# Poissons Ratio (y) = 0.41923 0.33101
# Poissons Ratio (z) = 0.08008 0.25345
#
# Static dielectric constant tensor:
#      x y z
#    x 2.928610 0.000000 0.000000 
#    y 0.000000 3.114910 0.000000 
#    z 0.000000 0.000000 3.220800 
# 
# 
# High freq. dielectric constant tensor:
#      x y z
#    x 1.625670 0.000000 0.000000 
#    y 0.000000 1.650990 0.000000 
#    z 0.000000 0.000000 1.634800 
# 
# From -- ./inp_files/12724.got.cif
#   From: 2010.03.12/outbox.cif.g09.slc.cpg/sg44_7_cif.got.tgz:12724.got - 2010.04.14 02:36:11.
