data_PCOD8188917
_publ_section_title
;
Structure prediction by ZEFSAII (Michael W. Deem and Ramdas Pophale) SiO2 
 PCOD8188917
Probable space group: I M M 2
;
_chemical_formula_sum "Si O2"
_cell_formula_units_Z 48
_cell_length_a 7.682366
_cell_length_b 18.004252
_cell_length_c 17.214651
_cell_angle_alpha 90.000000
_cell_angle_beta 90.000000
_cell_angle_gamma 90.000000
_cell_volume 2381.048816
_symmetry_space_group_name_H-M "I M M 2"
_symmetry_group_IT_number 44
_symmetry_cell_setting 'orthorhombic'
loop_
_space_group_symop_operation_xyz
x,y,z
-x,-y,z
-x,y,z
x,-y,z
1/2+x,1/2+y,1/2+z
1/2-x,1/2-y,1/2+z
1/2-x,1/2+y,1/2+z
1/2+x,1/2-y,1/2+z
loop_
_atom_site_type_symbol
_atom_site_label
_atom_site_fract_x
_atom_site_fract_y
_atom_site_fract_z
Si Si1 0.294347 0.917271 0.621650
Si Si2 0.802640 0.342478 0.966675
Si Si3 0.000000 0.088189 0.195072
Si Si4 0.792977 0.583729 0.293024
Si Si5 0.297374 0.820093 0.934716
Si Si6 0.000000 0.912032 0.369131
Si Si7 0.304485 0.086924 0.086291
O O1 0.500000 0.920592 0.626415
O O2 0.234702 0.860409 0.554322
O O3 0.226593 0.891587 0.706923
O O4 0.222496 0.000000 0.602235
O O5 0.805141 0.254991 0.952184
O O6 0.000000 0.372614 0.955269
O O7 0.676562 0.383598 0.907513
O O8 0.000000 0.120286 0.281780
O O9 0.172160 0.117667 0.151160
O O10 0.000000 0.000000 0.197872
O O11 0.726201 0.500000 0.310429
O O12 0.720306 0.641396 0.356926
O O13 0.000000 0.584202 0.298177
O O14 0.500000 0.800227 0.925568
O O15 0.262401 0.876092 0.004546
O O16 0.000000 0.000000 0.371274
O O17 0.500000 0.105507 0.114566
O O18 0.278385 0.000000 0.072987
#
# Coordination Sequence:
#
# PCOD8188917 Si02
#       7
#     8   8   4   8   8   4   8
#     4   8  15  31  56  84 109 142 194 242 286 344
#     4  11  23  39  58  87 120 154 193 242 301 355
#     4   9  20  38  60  87 111 144 200 250 295 346
#     4   8  14  28  55  87 116 152 197 241 286 344
#     4  10  19  34  55  86 124 159 194 235 287 354
#     4  11  24  44  66  85 110 150 202 254 298 350
#     4   9  18  34  58  87 119 156 198 241 287 347
#
# _framework density 20.159185000000001
#
# number of rings (size 3 to 8) (size 9 to 14) (size 15 to 20)
#    0.000    2.667    0.833    2.000    1.167    3.667 
#    3.000    1.667    1.833    0.000    0.000    0.000 
#    0.000    0.000    0.000    0.000    0.000    0.000 
#
# Total GULP energy -297507.153609 kJ/mol
# GULP energy per Si atom -12396.131400 kJ/mol
# Density = 2.011330 g / cm^3
# Si number density = 20.159185 Si / 1000 Ang^3
#
#
#
# Elastic Constant Matrix: (Units=GPa)
#
#
# Indices 1 2 3 4 5 6 
#
# 1 88.6339 25.2621 60.0343 0.0000 0.0000 0.0000
# 2 25.2621 93.8765 75.6792 0.0000 0.0000 0.0000
# 3 60.0343 75.6792 194.5841 0.0000 0.0000 0.0000
# 4 0.0000 0.0000 0.0000 22.5181 0.0000 0.0000
# 5 0.0000 0.0000 0.0000 0.0000 26.4834 0.0000
# 6 0.0000 0.0000 0.0000 0.0000 0.0000 18.3351
#
#
#
# Elastic Compliance Matrix: (Units=1/GPa)
#
#
# Indices 1 2 3 4 5 6 
#
# 1 0.014275 -0.000424 -0.004239 0.000000 0.000000 0.000000
# 2 -0.000424 0.015530 -0.005909 0.000000 0.000000 0.000000
# 3 -0.004239 -0.005909 0.008745 0.000000 0.000000 0.000000
# 4 0.000000 0.000000 0.000000 0.044409 0.000000 0.000000
# 5 0.000000 0.000000 0.000000 0.000000 0.037759 0.000000
# 6 0.000000 0.000000 0.000000 0.000000 0.000000 0.054540
#
#
# Mechanical properties :
#
#
# Convention : Reuss Voigt Hill
#
# Bulk Modulus (GPa) = 57.45365 77.67174 67.56270
# Shear Modulus (GPa) = 24.72737 27.87526 26.30131
#
# Velocity S-wave (km/s) = 3.50609 3.72258 3.61596
# Velocity P-wave (km/s) = 6.70463 7.55577 7.14289
#
# Compressibility (1/GPa) = 0.01740534
#
# Stress axis : x y z
#
# Youngs Moduli (GPa) = 70.05491 64.39060 114.34564
#
# Poissons Ratio (x) = 0.02729 0.48474
# Poissons Ratio (y) = 0.02969 0.67571
# Poissons Ratio (z) = 0.29698 0.38051
#
# Static dielectric constant tensor:
#      x y z
#    x 3.479450 0.000000 0.000000 
#    y 0.000000 3.643250 0.000000 
#    z 0.000000 0.000000 4.074550 
# 
# 
# High freq. dielectric constant tensor:
#      x y z
#    x 1.772030 0.000000 0.000000 
#    y 0.000000 1.768830 0.000000 
#    z 0.000000 0.000000 1.794330 
# 
# From -- ./inp_files/16183.got.cif
#   From: 2010.03.12/outbox.cif.g09.slc.cpg/sg44_9_cif.got.tgz:16183.got - 2010.04.14 02:36:11.
