data_PCOD8188031
_publ_section_title
;
Structure prediction by ZEFSAII (Michael W. Deem and Ramdas Pophale) SiO2 
 PCOD8188031
Probable space group: I M M 2
;
_chemical_formula_sum "Si O2"
_cell_formula_units_Z 64
_cell_length_a 27.975341
_cell_length_b 8.984638
_cell_length_c 14.695110
_cell_angle_alpha 90.000000
_cell_angle_beta 90.000000
_cell_angle_gamma 90.000000
_cell_volume 3693.591090
_symmetry_space_group_name_H-M "I M M 2"
_symmetry_group_IT_number 44
_symmetry_cell_setting 'orthorhombic'
loop_
_space_group_symop_operation_xyz
x,y,z
-x,-y,z
-x,y,z
x,-y,z
1/2+x,1/2+y,1/2+z
1/2-x,1/2-y,1/2+z
1/2-x,1/2+y,1/2+z
1/2+x,1/2-y,1/2+z
loop_
_atom_site_type_symbol
_atom_site_label
_atom_site_fract_x
_atom_site_fract_y
_atom_site_fract_z
Si Si1 0.136225 0.824041 0.430410
Si Si2 0.054220 0.175119 0.301080
Si Si3 0.283785 0.830886 0.818002
Si Si4 0.715395 0.830629 0.606906
Si Si5 0.944777 0.326064 0.113394
Si Si6 0.176841 0.823598 0.812604
Si Si7 0.366399 0.675680 0.497877
Si Si8 0.823466 0.823002 0.614019
O O1 0.087170 0.766725 0.384177
O O2 0.181410 0.774346 0.373044
O O3 0.141108 0.763743 0.534490
O O4 0.136174 0.000000 0.431739
O O5 0.070910 0.255670 0.209189
O O6 0.000000 0.218192 0.326284
O O7 0.059998 0.000000 0.284570
O O8 0.297849 0.822486 0.712628
O O9 0.230410 0.767141 0.834140
O O10 0.288653 0.000000 0.853478
O O11 0.680199 0.721961 0.553769
O O12 0.769360 0.772126 0.591274
O O13 0.709060 0.000000 0.571634
O O14 0.934262 0.500000 0.118836
O O15 0.913950 0.256244 0.032505
O O16 0.000000 0.291018 0.092314
O O17 0.160028 0.760963 0.713380
O O18 0.180139 0.000000 0.806168
O O19 0.140684 0.774824 0.892342
O O20 0.373337 0.500000 0.507044
O O21 0.823590 0.000000 0.617791
#
# Coordination Sequence:
#
# PCOD8188031 Si02
#       8
#     8   8   8   8   8   8   8   8
#     4  10  18  27  45  69  89 116 153 190 228 266
#     4   9  18  32  48  69  97 121 143 181 232 277
#     4   9  17  29  44  63  91 124 153 182 219 266
#     4   9  17  29  45  65  92 126 158 186 220 265
#     4  10  21  36  52  69  90 118 150 182 221 273
#     4   8  16  30  45  63  90 124 155 182 219 265
#     4  11  20  29  47  71  93 119 151 189 230 268
#     4   8  15  29  46  64  90 124 159 191 221 259
#
# _framework density 17.327311000000002
#
# number of rings (size 3 to 8) (size 9 to 14) (size 15 to 20)
#    0.000    2.750    0.000    3.750    0.000    3.750 
#    0.000    0.625    0.000    4.500    0.000    3.500 
#    0.000    2.000    0.000    0.000    0.000    0.000 
#
# Total GULP energy -396658.322284 kJ/mol
# GULP energy per Si atom -12395.572571 kJ/mol
# Density = 1.728787 g / cm^3
# Si number density = 17.327311 Si / 1000 Ang^3
#
#
#
# Elastic Constant Matrix: (Units=GPa)
#
#
# Indices 1 2 3 4 5 6 
#
# 1 94.8762 25.5612 83.9890 0.0000 0.0000 0.0000
# 2 25.5612 26.6889 28.2849 0.0000 0.0000 0.0000
# 3 83.9890 28.2849 130.4265 0.0000 0.0000 0.0000
# 4 0.0000 0.0000 0.0000 13.9426 0.0000 0.0000
# 5 0.0000 0.0000 0.0000 0.0000 31.0709 0.0000
# 6 0.0000 0.0000 0.0000 0.0000 0.0000 22.8585
#
#
#
# Elastic Compliance Matrix: (Units=1/GPa)
#
#
# Indices 1 2 3 4 5 6 
#
# 1 0.026202 -0.009365 -0.014842 0.000000 0.000000 0.000000
# 2 -0.009365 0.051998 -0.005246 0.000000 0.000000 0.000000
# 3 -0.014842 -0.005246 0.018362 0.000000 0.000000 0.000000
# 4 0.000000 0.000000 0.000000 0.071723 0.000000 0.000000
# 5 0.000000 0.000000 0.000000 0.000000 0.032184 0.000000
# 6 0.000000 0.000000 0.000000 0.000000 0.000000 0.043747
#
#
# Mechanical properties :
#
#
# Convention : Reuss Voigt Hill
#
# Bulk Modulus (GPa) = 26.55604 58.62910 42.59257
# Shear Modulus (GPa) = 15.83909 21.18483 18.51196
#
# Velocity S-wave (km/s) = 3.02671 3.50040 3.27214
# Velocity P-wave (km/s) = 5.25109 7.08850 6.23782
#
# Compressibility (1/GPa) = 0.03765622
#
# Stress axis : x y z
#
# Youngs Moduli (GPa) = 38.16495 19.23159 54.45944
#
# Poissons Ratio (x) = 0.18011 0.80828
# Poissons Ratio (y) = 0.35743 0.28567
# Poissons Ratio (z) = 0.56644 0.10088
#
# Static dielectric constant tensor:
#      x y z
#    x 3.223570 0.000000 0.000000 
#    y 0.000000 2.991470 0.000000 
#    z 0.000000 0.000000 3.656680 
# 
# 
# High freq. dielectric constant tensor:
#      x y z
#    x 1.652270 0.000000 0.000000 
#    y 0.000000 1.645960 0.000000 
#    z 0.000000 0.000000 1.673060 
# 
# From -- ./inp_files/19703.got.cif
#   From: 2010.03.12/outbox.cif.g09.slc.cpg/sg44_10_cif.got.tgz:19703.got - 2010.04.14 02:36:11.
