data_PCOD8188468
_publ_section_title
;
Structure prediction by ZEFSAII (Michael W. Deem and Ramdas Pophale) SiO2 
 PCOD8188468
Probable space group: I M M 2
;
_chemical_formula_sum "Si O2"
_cell_formula_units_Z 56
_cell_length_a 8.950783
_cell_length_b 13.640786
_cell_length_c 29.181915
_cell_angle_alpha 90.000000
_cell_angle_beta 90.000000
_cell_angle_gamma 90.000000
_cell_volume 3562.986790
_symmetry_space_group_name_H-M "I M M 2"
_symmetry_group_IT_number 44
_symmetry_cell_setting 'orthorhombic'
loop_
_space_group_symop_operation_xyz
x,y,z
-x,-y,z
-x,y,z
x,-y,z
1/2+x,1/2+y,1/2+z
1/2-x,1/2-y,1/2+z
1/2-x,1/2+y,1/2+z
1/2+x,1/2-y,1/2+z
loop_
_atom_site_type_symbol
_atom_site_label
_atom_site_fract_x
_atom_site_fract_y
_atom_site_fract_z
Si Si1 0.823822 0.607114 0.853030
Si Si2 0.672635 0.112481 0.814917
Si Si3 0.324705 0.887320 0.172791
Si Si4 0.825382 0.385507 0.489723
Si Si5 0.177135 0.200794 0.901716
Si Si6 0.823394 0.279188 0.764348
Si Si7 0.168190 0.116452 0.081472
O O1 0.751637 0.500000 0.863312
O O2 0.775979 0.686520 0.891204
O O3 0.771290 0.643818 0.803101
O O4 0.000000 0.596702 0.852634
O O5 0.500000 0.139936 0.822009
O O6 0.757169 0.130494 0.862692
O O7 0.741695 0.176197 0.773569
O O8 0.693024 0.000000 0.800671
O O9 0.500000 0.878783 0.163996
O O10 0.272962 0.821783 0.215573
O O11 0.241938 0.844222 0.128212
O O12 0.280065 0.000000 0.182560
O O13 0.790047 0.500000 0.482946
O O14 0.743235 0.325253 0.450608
O O15 0.762886 0.346324 0.538087
O O16 0.000000 0.363983 0.487698
O O17 0.000000 0.186790 0.902131
O O18 0.000000 0.261337 0.766671
O O19 0.000000 0.156999 0.077592
O O20 0.171033 0.000000 0.082470
#
# Coordination Sequence:
#
# PCOD8188468 Si02
#       7
#     8   8   8   8   8   8   8
#     4   8  14  26  43  63  87 113 142 175 208 246
#     4  10  20  32  44  60  86 118 148 180 218 257
#     4   9  16  27  44  66  92 119 145 174 212 259
#     4  10  19  30  44  62  87 118 147 177 216 259
#     4  10  19  29  45  67  87 112 146 180 215 256
#     4   9  17  28  45  67  87 113 148 180 211 249
#     4   9  17  28  42  62  88 116 146 179 213 252
#
# _framework density 15.717150999999999
#
# number of rings (size 3 to 8) (size 9 to 14) (size 15 to 20)
#    0.000    2.714    0.000    3.429    0.000    7.714 
#    0.000    0.000    0.000   14.143    0.000    1.000 
#    0.000    5.714    0.000    0.000    0.000    0.000 
#
# Total GULP energy -347148.869339 kJ/mol
# GULP energy per Si atom -12398.173905 kJ/mol
# Density = 1.568138 g / cm^3
# Si number density = 15.717151 Si / 1000 Ang^3
#
#
#
# Elastic Constant Matrix: (Units=GPa)
#
#
# Indices 1 2 3 4 5 6 
#
# 1 75.5470 41.1553 57.8776 0.0000 0.0000 0.0000
# 2 41.1553 87.1170 56.8990 0.0000 0.0000 0.0000
# 3 57.8776 56.8990 142.1382 0.0000 0.0000 0.0000
# 4 0.0000 0.0000 0.0000 23.3017 0.0000 0.0000
# 5 0.0000 0.0000 0.0000 0.0000 30.2076 0.0000
# 6 0.0000 0.0000 0.0000 0.0000 0.0000 16.3458
#
#
#
# Elastic Compliance Matrix: (Units=1/GPa)
#
#
# Indices 1 2 3 4 5 6 
#
# 1 0.021299 -0.005954 -0.006289 0.000000 0.000000 0.000000
# 2 -0.005954 0.017207 -0.004464 0.000000 0.000000 0.000000
# 3 -0.006289 -0.004464 0.011383 0.000000 0.000000 0.000000
# 4 0.000000 0.000000 0.000000 0.042915 0.000000 0.000000
# 5 0.000000 0.000000 0.000000 0.000000 0.033104 0.000000
# 6 0.000000 0.000000 0.000000 0.000000 0.000000 0.061178
#
#
# Mechanical properties :
#
#
# Convention : Reuss Voigt Hill
#
# Bulk Modulus (GPa) = 60.69824 68.51842 64.60833
# Shear Modulus (GPa) = 22.12473 23.89569 23.01021
#
# Velocity S-wave (km/s) = 3.75598 3.90341 3.83040
# Velocity P-wave (km/s) = 7.58372 8.00030 7.79479
#
# Compressibility (1/GPa) = 0.01647494
#
# Stress axis : x y z
#
# Youngs Moduli (GPa) = 46.95150 58.11605 87.84935
#
# Poissons Ratio (x) = 0.34603 0.55250
# Poissons Ratio (y) = 0.27955 0.39213
# Poissons Ratio (z) = 0.29529 0.25941
#
# Static dielectric constant tensor:
#      x y z
#    x 2.993210 0.000000 0.000000 
#    y 0.000000 2.974000 0.000000 
#    z 0.000000 0.000000 3.043780 
# 
# 
# High freq. dielectric constant tensor:
#      x y z
#    x 1.603440 0.000000 0.000000 
#    y 0.000000 1.573540 0.000000 
#    z 0.000000 0.000000 1.601000 
# 
# From -- ./inp_files/27217.got.cif
#   From: 2010.03.12/outbox.cif.g09.slc.cpg/sg44_14_cif.got.tgz:27217.got - 2010.04.14 02:36:11.
