data_PCOD8188379
_publ_section_title
;
Structure prediction by ZEFSAII (Michael W. Deem and Ramdas Pophale) SiO2 
 PCOD8188379
Probable space group: I M M 2
;
_chemical_formula_sum "Si O2"
_cell_formula_units_Z 64
_cell_length_a 23.861986
_cell_length_b 8.980270
_cell_length_c 15.479496
_cell_angle_alpha 90.000000
_cell_angle_beta 90.000000
_cell_angle_gamma 90.000000
_cell_volume 3317.055952
_symmetry_space_group_name_H-M "I M M 2"
_symmetry_group_IT_number 44
_symmetry_cell_setting 'orthorhombic'
loop_
_space_group_symop_operation_xyz
x,y,z
-x,-y,z
-x,y,z
x,-y,z
1/2+x,1/2+y,1/2+z
1/2-x,1/2-y,1/2+z
1/2-x,1/2+y,1/2+z
1/2+x,1/2-y,1/2+z
loop_
_atom_site_type_symbol
_atom_site_label
_atom_site_fract_x
_atom_site_fract_y
_atom_site_fract_z
Si Si1 0.936990 0.677479 0.385350
Si Si2 0.251562 0.175279 0.471878
Si Si3 0.253995 0.829290 0.792316
Si Si4 0.564631 0.672719 0.376636
Si Si5 0.142453 0.676461 0.539899
Si Si6 0.625779 0.176386 0.529590
Si Si7 0.865005 0.828372 0.714043
Si Si8 0.372466 0.824788 0.720379
O O1 0.936732 0.500000 0.383131
O O2 0.898980 0.733930 0.464583
O O3 0.911521 0.743345 0.295950
O O4 0.000000 0.738942 0.396667
O O5 0.248731 0.218711 0.372205
O O6 0.203876 0.256869 0.526350
O O7 0.311365 0.228410 0.507876
O O8 0.242853 0.000000 0.482713
O O9 0.200719 0.807592 0.731369
O O10 0.307711 0.784558 0.736227
O O11 0.258215 0.000000 0.826163
O O12 0.500000 0.703331 0.356704
O O13 0.577967 0.500000 0.390649
O O14 0.581436 0.755898 0.463731
O O15 0.600191 0.734014 0.295660
O O16 0.146492 0.500000 0.540539
O O17 0.117697 0.733096 0.630682
O O18 0.610315 0.235712 0.625779
O O19 0.621314 0.000000 0.523687
O O20 0.880397 0.000000 0.696732
O O21 0.380492 0.000000 0.721036
#
# Coordination Sequence:
#
# PCOD8188379 Si02
#       8
#     8   8   8   8   8   8   8   8
#     4   9  18  33  54  80 108 141 187 237 276 321
#     4  11  21  34  55  85 119 148 183 232 285 339
#     4  10  18  34  59  83 109 147 187 227 283 342
#     4  10  22  40  60  82 113 154 194 234 286 344
#     4  11  22  36  57  84 114 150 192 232 283 342
#     4  10  21  36  58  86 114 146 187 236 283 332
#     4  10  21  37  58  82 113 149 187 234 287 338
#     4   9  17  32  55  82 110 141 181 229 281 334
#
# _framework density 19.294218000000001
#
# number of rings (size 3 to 8) (size 9 to 14) (size 15 to 20)
#    0.000    2.000    2.500    1.500    0.000    4.750 
#    0.000    1.875    0.000    1.125    0.000    0.000 
#    0.000    0.000    0.000    0.000    0.000    0.000 
#
# Total GULP energy -396851.606526 kJ/mol
# GULP energy per Si atom -12401.612704 kJ/mol
# Density = 1.925030 g / cm^3
# Si number density = 19.294218 Si / 1000 Ang^3
#
#
#
# Elastic Constant Matrix: (Units=GPa)
#
#
# Indices 1 2 3 4 5 6 
#
# 1 93.5437 16.5607 37.5277 0.0000 0.0000 0.0000
# 2 16.5607 31.8025 25.0983 0.0000 0.0000 0.0000
# 3 37.5277 25.0983 145.8259 0.0000 0.0000 0.0000
# 4 0.0000 0.0000 0.0000 32.4525 0.0000 0.0000
# 5 0.0000 0.0000 0.0000 0.0000 17.4370 0.0000
# 6 0.0000 0.0000 0.0000 0.0000 0.0000 12.7825
#
#
#
# Elastic Compliance Matrix: (Units=1/GPa)
#
#
# Indices 1 2 3 4 5 6 
#
# 1 0.012473 -0.004585 -0.002421 0.000000 0.000000 0.000000
# 2 -0.004585 0.038072 -0.005373 0.000000 0.000000 0.000000
# 3 -0.002421 -0.005373 0.008405 0.000000 0.000000 0.000000
# 4 0.000000 0.000000 0.000000 0.030814 0.000000 0.000000
# 5 0.000000 0.000000 0.000000 0.000000 0.057349 0.000000
# 6 0.000000 0.000000 0.000000 0.000000 0.000000 0.078232
#
#
# Mechanical properties :
#
#
# Convention : Reuss Voigt Hill
#
# Bulk Modulus (GPa) = 29.24537 47.72726 38.48632
# Shear Modulus (GPa) = 19.12047 25.33341 22.22694
#
# Velocity S-wave (km/s) = 3.15142 3.62747 3.39779
# Velocity P-wave (km/s) = 5.33221 6.50654 5.94842
#
# Compressibility (1/GPa) = 0.03419345
#
# Stress axis : x y z
#
# Youngs Moduli (GPa) = 80.17302 26.26631 118.97422
#
# Poissons Ratio (x) = 0.12042 0.28801
# Poissons Ratio (y) = 0.36757 0.63921
# Poissons Ratio (z) = 0.19408 0.14112
#
# Static dielectric constant tensor:
#      x y z
#    x 3.616060 0.000000 0.000000 
#    y 0.000000 3.222710 0.000000 
#    z 0.000000 0.000000 3.758920 
# 
# 
# High freq. dielectric constant tensor:
#      x y z
#    x 1.752120 0.000000 0.000000 
#    y 0.000000 1.715730 0.000000 
#    z 0.000000 0.000000 1.765590 
# 
# From -- ./inp_files/16761.got.cif
#   From: 2010.03.12/outbox.cif.g09.slc.cpg/sg44_9_cif.got.tgz:16761.got - 2010.04.14 02:36:11.
