data_PCOD8188152
_publ_section_title
;
Structure prediction by ZEFSAII (Michael W. Deem and Ramdas Pophale) SiO2 
 PCOD8188152
Probable space group: I M M 2
;
_chemical_formula_sum "Si O2"
_cell_formula_units_Z 48
_cell_length_a 8.571296
_cell_length_b 13.753516
_cell_length_c 23.871361
_cell_angle_alpha 90.000000
_cell_angle_beta 90.000000
_cell_angle_gamma 90.000000
_cell_volume 2814.086293
_symmetry_space_group_name_H-M "I M M 2"
_symmetry_group_IT_number 44
_symmetry_cell_setting 'orthorhombic'
loop_
_space_group_symop_operation_xyz
x,y,z
-x,-y,z
-x,y,z
x,-y,z
1/2+x,1/2+y,1/2+z
1/2-x,1/2-y,1/2+z
1/2-x,1/2+y,1/2+z
1/2+x,1/2-y,1/2+z
loop_
_atom_site_type_symbol
_atom_site_label
_atom_site_fract_x
_atom_site_fract_y
_atom_site_fract_z
Si Si1 0.681219 0.789805 0.289710
Si Si2 0.681008 0.613704 0.685104
Si Si3 0.316468 0.110684 0.844341
Si Si4 0.685001 0.392478 0.560669
Si Si5 0.182966 0.889710 0.395018
Si Si6 0.316275 0.288700 0.450885
O O1 0.500000 0.801651 0.303187
O O2 0.716568 0.821579 0.226644
O O3 0.730451 0.677681 0.298497
O O4 0.776569 0.858447 0.331923
O O5 0.500000 0.639490 0.693781
O O6 0.710157 0.500000 0.696544
O O7 0.739083 0.641558 0.622456
O O8 0.500000 0.123920 0.837243
O O9 0.269507 0.142147 0.906756
O O10 0.264264 0.000000 0.833945
O O11 0.500000 0.399042 0.561479
O O12 0.752552 0.500000 0.547423
O O13 0.742521 0.317751 0.513039
O O14 0.272750 0.823446 0.440194
O O15 0.000000 0.877031 0.404081
O O16 0.236920 0.000000 0.404869
O O17 0.500000 0.304203 0.444174
#
# Coordination Sequence:
#
# PCOD8188152 Si02
#       6
#     8   8   8   8   8   8
#     4  11  21  31  47  71  97 122 151 193 238 277
#     4   9  17  31  50  69  93 126 159 190 226 273
#     4  10  20  33  49  69  94 125 158 189 225 275
#     4   8  15  28  47  71  96 123 154 186 225 274
#     4  10  20  33  48  66  92 127 161 191 228 277
#     4  10  18  29  49  74  98 122 151 192 234 272
#
# _framework density 17.057047000000001
#
# number of rings (size 3 to 8) (size 9 to 14) (size 15 to 20)
#    0.000    2.333    0.000    7.000    0.000    5.667 
#    0.000    1.667    0.000    3.000    0.000    2.333 
#    0.000    0.000    0.000    0.000    0.000    0.000 
#
# Total GULP energy -297578.564523 kJ/mol
# GULP energy per Si atom -12399.106855 kJ/mol
# Density = 1.701822 g / cm^3
# Si number density = 17.057047 Si / 1000 Ang^3
#
#
#
# Elastic Constant Matrix: (Units=GPa)
#
#
# Indices 1 2 3 4 5 6 
#
# 1 29.2825 18.5413 9.3041 0.0000 0.0000 0.0000
# 2 18.5413 113.6515 61.1415 0.0000 0.0000 0.0000
# 3 9.3041 61.1415 121.4802 0.0000 0.0000 0.0000
# 4 0.0000 0.0000 0.0000 26.8696 0.0000 0.0000
# 5 0.0000 0.0000 0.0000 0.0000 24.1930 0.0000
# 6 0.0000 0.0000 0.0000 0.0000 0.0000 21.9229
#
#
#
# Elastic Compliance Matrix: (Units=1/GPa)
#
#
# Indices 1 2 3 4 5 6 
#
# 1 0.038092 -0.006369 0.000288 0.000000 0.000000 0.000000
# 2 -0.006369 0.013131 -0.006121 0.000000 0.000000 0.000000
# 3 0.000288 -0.006121 0.011290 0.000000 0.000000 0.000000
# 4 0.000000 0.000000 0.000000 0.037217 0.000000 0.000000
# 5 0.000000 0.000000 0.000000 0.000000 0.041334 0.000000
# 6 0.000000 0.000000 0.000000 0.000000 0.000000 0.045614
#
#
# Mechanical properties :
#
#
# Convention : Reuss Voigt Hill
#
# Bulk Modulus (GPa) = 26.24076 49.15423 37.69749
# Shear Modulus (GPa) = 22.34285 26.29226 24.31755
#
# Velocity S-wave (km/s) = 3.62317 3.93037 3.77989
# Velocity P-wave (km/s) = 5.73765 7.03400 6.41864
#
# Compressibility (1/GPa) = 0.03810866
#
# Stress axis : x y z
#
# Youngs Moduli (GPa) = 26.25256 76.15635 88.57055
#
# Poissons Ratio (x) = 0.48507 -0.02554
# Poissons Ratio (y) = 0.16721 0.54214
# Poissons Ratio (z) = -0.00757 0.46615
#
# Static dielectric constant tensor:
#      x y z
#    x 3.074670 0.000000 0.000000 
#    y 0.000000 3.270760 0.000000 
#    z 0.000000 0.000000 3.257230 
# 
# 
# High freq. dielectric constant tensor:
#      x y z
#    x 1.654370 0.000000 0.000000 
#    y 0.000000 1.649550 0.000000 
#    z 0.000000 0.000000 1.648750 
# 
# From -- ./inp_files/22903.got.cif
#   From: 2010.03.12/outbox.cif.g09.slc.cpg/sg44_12_cif.got.tgz:22903.got - 2010.04.14 02:36:11.
