data_PCOD8188645
_publ_section_title
;
Structure prediction by ZEFSAII (Michael W. Deem and Ramdas Pophale) SiO2 
 PCOD8188645
Probable space group: I M M 2
;
_chemical_formula_sum "Si O2"
_cell_formula_units_Z 48
_cell_length_a 9.524674
_cell_length_b 7.551550
_cell_length_c 37.935973
_cell_angle_alpha 90.000000
_cell_angle_beta 90.000000
_cell_angle_gamma 90.000000
_cell_volume 2728.584765
_symmetry_space_group_name_H-M "I M M 2"
_symmetry_group_IT_number 44
_symmetry_cell_setting 'orthorhombic'
loop_
_space_group_symop_operation_xyz
x,y,z
-x,-y,z
-x,y,z
x,-y,z
1/2+x,1/2+y,1/2+z
1/2-x,1/2-y,1/2+z
1/2-x,1/2+y,1/2+z
1/2+x,1/2-y,1/2+z
loop_
_atom_site_type_symbol
_atom_site_label
_atom_site_fract_x
_atom_site_fract_y
_atom_site_fract_z
Si Si1 0.663202 0.000000 0.197260
Si Si2 0.833699 0.500000 0.021941
Si Si3 0.838439 0.202248 0.642681
Si Si4 0.663648 0.297875 0.390906
Si Si5 0.666189 0.000000 0.443691
Si Si6 0.337984 0.797813 0.822587
Si Si7 0.663317 0.500000 0.768073
Si Si8 0.663043 0.298521 0.574489
O O1 0.704759 0.174692 0.175324
O O2 0.500000 0.000000 0.207105
O O3 0.750193 0.000000 0.232633
O O4 0.782633 0.325365 0.042753
O O5 0.000000 0.500000 0.018657
O O6 0.766142 0.500000 0.982813
O O7 0.745920 0.252938 0.609507
O O8 0.000000 0.235349 0.632226
O O9 0.811381 0.000000 0.654006
O O10 0.500000 0.267883 0.382887
O O11 0.695948 0.500000 0.401587
O O12 0.746689 0.241306 0.356089
O O13 0.715940 0.175518 0.423016
O O14 0.500000 0.000000 0.447057
O O15 0.500000 0.769242 0.832909
O O16 0.295361 0.674738 0.789981
O O17 0.307112 0.000000 0.811499
O O18 0.500000 0.500000 0.758324
O O19 0.500000 0.262491 0.582517
O O20 0.689987 0.500000 0.562838
#
# Coordination Sequence:
#
# PCOD8188645 Si02
#       8
#     4   4   8   8   4   8   4   8
#     4  10  22  37  51  74 103 131 163 203 252 302
#     4   9  18  31  46  72 105 133 165 207 254 300
#     4  10  20  35  55  75  97 128 165 204 250 303
#     4   9  17  29  48  74  98 126 169 209 241 285
#     4   9  17  29  46  69 103 137 163 201 251 294
#     4   9  18  33  52  73  99 131 164 200 246 293
#     4  10  21  35  51  73 101 131 165 201 241 296
#     4  10  19  31  51  76  99 126 165 210 252 297
#
# _framework density 17.591536999999999
#
# number of rings (size 3 to 8) (size 9 to 14) (size 15 to 20)
#    0.000    2.500    1.667    0.500    0.000    2.667 
#    0.000    3.333    0.000    2.000    0.000    2.333 
#    0.000    0.000    0.000    0.000    0.000    0.000 
#
# Total GULP energy -297620.389408 kJ/mol
# GULP energy per Si atom -12400.849559 kJ/mol
# Density = 1.755150 g / cm^3
# Si number density = 17.591537 Si / 1000 Ang^3
#
#
#
# Elastic Constant Matrix: (Units=GPa)
#
#
# Indices 1 2 3 4 5 6 
#
# 1 46.3639 43.7813 62.2194 0.0000 0.0000 0.0000
# 2 43.7813 148.5554 97.7645 0.0001 0.0000 0.0000
# 3 62.2194 97.7645 178.6696 0.0001 0.0000 0.0000
# 4 0.0000 0.0001 0.0001 35.4644 0.0000 0.0000
# 5 0.0000 0.0000 0.0000 0.0000 22.4988 0.0000
# 6 0.0000 0.0000 0.0000 0.0000 0.0000 19.7744
#
#
#
# Elastic Compliance Matrix: (Units=1/GPa)
#
#
# Indices 1 2 3 4 5 6 
#
# 1 0.042195 -0.004322 -0.012329 0.000000 0.000000 0.000000
# 2 -0.004322 0.010962 -0.004493 0.000000 0.000000 0.000000
# 3 -0.012329 -0.004493 0.012349 0.000000 0.000000 0.000000
# 4 0.000000 0.000000 0.000000 0.028197 0.000000 0.000000
# 5 0.000000 0.000000 0.000000 0.000000 0.044447 0.000000
# 6 0.000000 0.000000 0.000000 0.000000 0.000000 0.050571
#
#
# Mechanical properties :
#
#
# Convention : Reuss Voigt Hill
#
# Bulk Modulus (GPa) = 43.07014 86.79105 64.93060
# Shear Modulus (GPa) = 20.94255 26.86908 23.90582
#
# Velocity S-wave (km/s) = 3.45409 3.91242 3.69038
# Velocity P-wave (km/s) = 6.35958 8.35783 7.42622
#
# Compressibility (1/GPa) = 0.02321794
#
# Stress axis : x y z
#
# Youngs Moduli (GPa) = 23.69959 91.22240 80.97770
#
# Poissons Ratio (x) = 0.39423 0.99838
# Poissons Ratio (y) = 0.10242 0.36386
# Poissons Ratio (z) = 0.29220 0.40990
#
# Static dielectric constant tensor:
#      x y z
#    x 3.110390 0.000000 0.000000 
#    y 0.000000 3.194270 0.000000 
#    z 0.000000 0.000000 3.273910 
# 
# 
# High freq. dielectric constant tensor:
#      x y z
#    x 1.658300 0.000000 0.000000 
#    y 0.000000 1.700860 0.000000 
#    z 0.000000 0.000000 1.671940 
# 
# From -- ./inp_files/27034.got.cif
#   From: 2010.03.12/outbox.cif.g09.slc.cpg/sg44_14_cif.got.tgz:27034.got - 2010.04.14 02:36:11.
