data_PCOD8188177
_publ_section_title
;
Structure prediction by ZEFSAII (Michael W. Deem and Ramdas Pophale) SiO2 
 PCOD8188177
Probable space group: I M M 2
;
_chemical_formula_sum "Si O2"
_cell_formula_units_Z 48
_cell_length_a 16.517046
_cell_length_b 9.200587
_cell_length_c 18.747797
_cell_angle_alpha 90.000000
_cell_angle_beta 90.000000
_cell_angle_gamma 90.000000
_cell_volume 2849.037443
_symmetry_space_group_name_H-M "I M M 2"
_symmetry_group_IT_number 44
_symmetry_cell_setting 'orthorhombic'
loop_
_space_group_symop_operation_xyz
x,y,z
-x,-y,z
-x,y,z
x,-y,z
1/2+x,1/2+y,1/2+z
1/2-x,1/2-y,1/2+z
1/2-x,1/2+y,1/2+z
1/2+x,1/2-y,1/2+z
loop_
_atom_site_type_symbol
_atom_site_label
_atom_site_fract_x
_atom_site_fract_y
_atom_site_fract_z
Si Si1 0.000000 0.672303 0.134241
Si Si2 0.000000 0.327992 0.972530
Si Si3 0.688627 0.171682 0.861585
Si Si4 0.665936 0.826755 0.702582
Si Si5 0.739064 0.168970 0.086047
Si Si6 0.909597 0.673171 0.494288
Si Si7 0.842782 0.167840 0.947495
O O1 0.920287 0.730833 0.173987
O O2 0.000000 0.500000 0.134936
O O3 0.000000 0.730158 0.053642
O O4 0.920750 0.266832 0.933706
O O5 0.000000 0.500000 0.967321
O O6 0.673899 0.234886 0.782837
O O7 0.778711 0.212847 0.886861
O O8 0.678553 0.000000 0.859869
O O9 0.623139 0.234268 0.918263
O O10 0.738527 0.761713 0.655470
O O11 0.672499 0.000000 0.699315
O O12 0.650756 0.221339 0.057925
O O13 0.737270 0.000000 0.106658
O O14 0.805039 0.199197 0.024924
O O15 0.909551 0.500000 0.490674
O O16 0.000000 0.734232 0.508445
O O17 0.867644 0.000000 0.940603
#
# Coordination Sequence:
#
# PCOD8188177 Si02
#       7
#     4   4   8   8   8   8   8
#     4   9  18  27  41  71 101 118 141 180 230 279
#     4  11  19  29  47  73  97 118 153 194 232 275
#     4   8  16  28  46  69  93 120 153 187 227 277
#     4  10  18  30  47  69  97 124 148 184 232 277
#     4   9  17  29  46  68  93 122 156 188 224 272
#     4   8  14  26  46  71  92 113 149 195 232 262
#     4   9  17  31  47  67  93 125 159 190 224 270
#
# _framework density 16.847795999999999
#
# number of rings (size 3 to 8) (size 9 to 14) (size 15 to 20)
#    0.000    3.000    1.667    2.250    1.167    0.000 
#    0.000    1.250    1.833    1.500    0.000    0.000 
#    0.000    0.000    0.000    0.000    0.000    0.000 
#
# Total GULP energy -297506.465110 kJ/mol
# GULP energy per Si atom -12396.102713 kJ/mol
# Density = 1.680945 g / cm^3
# Si number density = 16.847796 Si / 1000 Ang^3
#
#
#
# Elastic Constant Matrix: (Units=GPa)
#
#
# Indices 1 2 3 4 5 6 
#
# 1 145.5815 31.6236 59.1670 0.0000 0.0000 0.0000
# 2 31.6236 28.4499 16.4830 0.0000 0.0000 0.0000
# 3 59.1670 16.4830 97.9818 0.0000 0.0000 0.0000
# 4 0.0000 0.0000 0.0000 20.4204 0.0000 0.0000
# 5 0.0000 0.0000 0.0000 0.0000 22.7825 0.0000
# 6 0.0000 0.0000 0.0000 0.0000 0.0000 16.9505
#
#
#
# Elastic Compliance Matrix: (Units=1/GPa)
#
#
# Indices 1 2 3 4 5 6 
#
# 1 0.010921 -0.009217 -0.005044 0.000000 0.000000 0.000000
# 2 -0.009217 0.046724 -0.002294 0.000000 0.000000 0.000000
# 3 -0.005044 -0.002294 0.013638 0.000000 0.000000 0.000000
# 4 0.000000 0.000000 0.000000 0.048971 0.000000 0.000000
# 5 0.000000 0.000000 0.000000 0.000000 0.043893 0.000000
# 6 0.000000 0.000000 0.000000 0.000000 0.000000 0.058995
#
#
# Mechanical properties :
#
#
# Convention : Reuss Voigt Hill
#
# Bulk Modulus (GPa) = 26.19735 54.06228 40.12981
# Shear Modulus (GPa) = 18.58887 23.01332 20.80110
#
# Velocity S-wave (km/s) = 3.32526 3.69989 3.51757
# Velocity P-wave (km/s) = 5.50694 7.10004 6.35362
#
# Compressibility (1/GPa) = 0.03817180
#
# Stress axis : x y z
#
# Youngs Moduli (GPa) = 91.56442 21.40225 73.32447
#
# Poissons Ratio (x) = 0.19727 0.36987
# Poissons Ratio (y) = 0.84395 0.16823
# Poissons Ratio (z) = 0.46188 0.04910
#
# Static dielectric constant tensor:
#      x y z
#    x 3.334390 0.000000 0.000000 
#    y 0.000000 2.695380 0.000000 
#    z 0.000000 0.000000 3.234740 
# 
# 
# High freq. dielectric constant tensor:
#      x y z
#    x 1.655570 0.000000 0.000000 
#    y 0.000000 1.605030 0.000000 
#    z 0.000000 0.000000 1.637620 
# 
# From -- ./inp_files/18384.got.cif
#   From: 2010.03.12/outbox.cif.g09.slc.cpg/sg44_10_cif.got.tgz:18384.got - 2010.04.14 02:36:11.
