data_PCOD8188509
_publ_section_title
;
Structure prediction by ZEFSAII (Michael W. Deem and Ramdas Pophale) SiO2 
 PCOD8188509
Probable space group: I M M 2
;
_chemical_formula_sum "Si O2"
_cell_formula_units_Z 64
_cell_length_a 9.236451
_cell_length_b 22.379000
_cell_length_c 15.604291
_cell_angle_alpha 90.000000
_cell_angle_beta 90.000000
_cell_angle_gamma 90.000000
_cell_volume 3225.446537
_symmetry_space_group_name_H-M "I M M 2"
_symmetry_group_IT_number 44
_symmetry_cell_setting 'orthorhombic'
loop_
_space_group_symop_operation_xyz
x,y,z
-x,-y,z
-x,y,z
x,-y,z
1/2+x,1/2+y,1/2+z
1/2-x,1/2-y,1/2+z
1/2-x,1/2+y,1/2+z
1/2+x,1/2-y,1/2+z
loop_
_atom_site_type_symbol
_atom_site_label
_atom_site_fract_x
_atom_site_fract_y
_atom_site_fract_z
Si Si1 0.666500 0.432913 0.678090
Si Si2 0.838164 0.429179 0.512186
Si Si3 0.336825 0.235625 0.611225
Si Si4 0.162875 0.604304 0.185366
Si Si5 0.331609 0.685212 0.764429
Si Si6 0.828960 0.190140 0.453877
Si Si7 0.165486 0.065181 0.530425
Si Si8 0.833203 0.929290 0.848467
O O1 0.500000 0.432245 0.647690
O O2 0.710633 0.500000 0.707957
O O3 0.762593 0.409345 0.599740
O O4 0.692737 0.386311 0.755089
O O5 0.843735 0.500000 0.507621
O O6 0.743201 0.404526 0.433965
O O7 0.000000 0.402118 0.507965
O O8 0.500000 0.256337 0.588055
O O9 0.337635 0.171151 0.652471
O O10 0.263970 0.279655 0.682611
O O11 0.245209 0.234246 0.522888
O O12 0.236449 0.562310 0.114943
O O13 0.255091 0.603482 0.271178
O O14 0.000000 0.581306 0.203152
O O15 0.500000 0.701293 0.764257
O O16 0.269693 0.704691 0.857716
O O17 0.788617 0.120256 0.469853
O O18 0.000000 0.200116 0.460210
O O19 0.000000 0.074380 0.560212
O O20 0.183513 0.000000 0.484131
O O21 0.000000 0.910301 0.851238
O O22 0.814820 0.000000 0.838647
#
# Coordination Sequence:
#
# PCOD8188509 Si02
#       8
#     8   8   8   8   8   8   8   8
#     4   9  17  31  53  79 105 134 169 209 258 317
#     4   9  17  30  47  68  99 136 170 208 255 306
#     4   9  19  37  55  72 103 142 175 215 264 310
#     4  10  19  30  46  68  97 136 178 218 260 310
#     4   9  18  35  58  80 106 139 173 214 265 314
#     4   9  18  34  56  79 104 136 175 219 261 308
#     4   9  17  29  47  73 104 134 166 209 261 313
#     4  10  19  30  46  69  99 135 175 220 268 315
#
# _framework density 19.842213000000001
#
# number of rings (size 3 to 8) (size 9 to 14) (size 15 to 20)
#    0.000    2.750    0.000    1.500    0.000    5.000 
#    2.250    4.375    0.000    0.000    0.000    1.750 
#    0.000    0.000    0.000    0.000    0.000    0.000 
#
# Total GULP energy -396620.132875 kJ/mol
# GULP energy per Si atom -12394.379152 kJ/mol
# Density = 1.979705 g / cm^3
# Si number density = 19.842213 Si / 1000 Ang^3
#
#
#
# Elastic Constant Matrix: (Units=GPa)
#
#
# Indices 1 2 3 4 5 6 
#
# 1 87.3352 9.5835 50.5225 0.0000 0.0000 0.0000
# 2 9.5835 56.5729 38.5366 0.0000 0.0000 0.0000
# 3 50.5225 38.5366 153.9461 0.0000 0.0001 0.0001
# 4 0.0000 0.0000 0.0000 20.9506 0.0000 0.0000
# 5 0.0000 0.0000 0.0001 0.0000 27.7664 0.0000
# 6 0.0000 0.0000 0.0001 0.0000 0.0000 15.6793
#
#
#
# Elastic Compliance Matrix: (Units=1/GPa)
#
#
# Indices 1 2 3 4 5 6 
#
# 1 0.014173 0.000925 -0.004883 0.000000 0.000000 0.000000
# 2 0.000925 0.021370 -0.005653 0.000000 0.000000 0.000000
# 3 -0.004883 -0.005653 0.009513 0.000000 0.000000 0.000000
# 4 0.000000 0.000000 0.000000 0.047731 0.000000 0.000000
# 5 0.000000 0.000000 0.000000 0.000000 0.036015 0.000000
# 6 0.000000 0.000000 0.000000 0.000000 0.000000 0.063778
#
#
# Mechanical properties :
#
#
# Convention : Reuss Voigt Hill
#
# Bulk Modulus (GPa) = 38.70675 55.01549 46.86112
# Shear Modulus (GPa) = 22.68442 26.16003 24.42222
#
# Velocity S-wave (km/s) = 3.38485 3.63492 3.51211
# Velocity P-wave (km/s) = 5.90135 6.73822 6.33362
#
# Compressibility (1/GPa) = 0.02583529
#
# Stress axis : x y z
#
# Youngs Moduli (GPa) = 70.55454 46.79356 105.11401
#
# Poissons Ratio (x) = -0.04330 0.51328
# Poissons Ratio (y) = -0.06528 0.59423
# Poissons Ratio (z) = 0.34453 0.26453
#
# Static dielectric constant tensor:
#      x y z
#    x 3.673960 0.000000 0.000000 
#    y 0.000000 3.473300 0.000000 
#    z 0.000000 0.000000 3.662970 
# 
# 
# High freq. dielectric constant tensor:
#      x y z
#    x 1.756290 0.000000 0.000000 
#    y 0.000000 1.759460 0.000000 
#    z 0.000000 0.000000 1.769490 
# 
# From -- ./inp_files/16872.got.cif
#   From: 2010.03.12/outbox.cif.g09.slc.cpg/sg44_9_cif.got.tgz:16872.got - 2010.04.14 02:36:11.
