data_PCOD8188789
_publ_section_title
;
Structure prediction by ZEFSAII (Michael W. Deem and Ramdas Pophale) SiO2 
 PCOD8188789
Probable space group: I M M 2
;
_chemical_formula_sum "Si O2"
_cell_formula_units_Z 64
_cell_length_a 30.568922
_cell_length_b 9.016828
_cell_length_c 14.316258
_cell_angle_alpha 90.000000
_cell_angle_beta 90.000000
_cell_angle_gamma 90.000000
_cell_volume 3946.057648
_symmetry_space_group_name_H-M "I M M 2"
_symmetry_group_IT_number 44
_symmetry_cell_setting 'orthorhombic'
loop_
_space_group_symop_operation_xyz
x,y,z
-x,-y,z
-x,y,z
x,-y,z
1/2+x,1/2+y,1/2+z
1/2-x,1/2-y,1/2+z
1/2-x,1/2+y,1/2+z
1/2+x,1/2-y,1/2+z
loop_
_atom_site_type_symbol
_atom_site_label
_atom_site_fract_x
_atom_site_fract_y
_atom_site_fract_z
Si Si1 0.135633 0.166631 0.422550
Si Si2 0.548337 0.676381 0.993504
Si Si3 0.300172 0.671182 0.408288
Si Si4 0.134855 0.673123 0.786651
Si Si5 0.782676 0.826201 0.313939
Si Si6 0.235578 0.168597 0.104299
Si Si7 0.678328 0.333425 0.119155
Si Si8 0.951301 0.671331 0.689435
O O1 0.086047 0.235430 0.420943
O O2 0.173222 0.246017 0.360497
O O3 0.146720 0.171667 0.531447
O O4 0.133374 0.000000 0.383909
O O5 0.500000 0.726607 0.958356
O O6 0.551634 0.500000 0.000220
O O7 0.557385 0.735701 0.096848
O O8 0.298932 0.500000 0.380381
O O9 0.346428 0.740696 0.376305
O O10 0.260032 0.747419 0.354253
O O11 0.298475 0.693662 0.519953
O O12 0.141186 0.500000 0.804252
O O13 0.162921 0.718365 0.696715
O O14 0.083960 0.715619 0.769029
O O15 0.787347 0.798789 0.203350
O O16 0.778656 0.000000 0.339178
O O17 0.274099 0.283793 0.085067
O O18 0.253667 0.000000 0.102176
O O19 0.680390 0.500000 0.160533
O O20 0.945234 0.500000 0.661884
O O21 0.000000 0.702294 0.729449
#
# Coordination Sequence:
#
# PCOD8188789 Si02
#       8
#     8   8   8   8   8   8   8   8
#     4   9  17  28  44  68  93 123 158 186 225 275
#     4   9  16  27  44  67  95 123 152 188 229 275
#     4  11  22  33  46  68  93 120 158 198 233 274
#     4  11  21  32  47  68  94 128 159 188 231 281
#     4  10  19  33  49  65  89 124 159 192 233 278
#     4  10  21  34  47  65  92 124 160 198 234 270
#     4  11  19  28  46  70  96 125 157 192 227 269
#     4   9  18  31  46  66  92 120 152 189 228 275
#
# _framework density 16.218719
#
# number of rings (size 3 to 8) (size 9 to 14) (size 15 to 20)
#    0.000    2.000    3.750    1.125    0.000    1.000 
#    0.000    0.625    0.000    0.000    0.000    0.875 
#    0.000    3.000    0.000    0.000    0.000    0.000 
#
# Total GULP energy -396583.350395 kJ/mol
# GULP energy per Si atom -12393.229700 kJ/mol
# Density = 1.618180 g / cm^3
# Si number density = 16.218719 Si / 1000 Ang^3
#
#
#
# Elastic Constant Matrix: (Units=GPa)
#
#
# Indices 1 2 3 4 5 6 
#
# 1 125.8740 34.7082 38.5479 0.0000 0.0000 0.0000
# 2 34.7082 48.0648 24.0445 0.0000 0.0000 0.0000
# 3 38.5479 24.0445 71.9049 0.0000 0.0000 0.0000
# 4 0.0000 0.0000 0.0000 16.1780 0.0000 0.0000
# 5 0.0000 0.0000 0.0000 0.0000 25.1523 0.0000
# 6 0.0000 0.0000 0.0000 0.0000 0.0000 15.8123
#
#
#
# Elastic Compliance Matrix: (Units=1/GPa)
#
#
# Indices 1 2 3 4 5 6 
#
# 1 0.010716 -0.005842 -0.003792 0.000000 0.000000 0.000000
# 2 -0.005842 0.028169 -0.006288 0.000000 0.000000 0.000000
# 3 -0.003792 -0.006288 0.018043 0.000000 0.000000 0.000000
# 4 0.000000 0.000000 0.000000 0.061812 0.000000 0.000000
# 5 0.000000 0.000000 0.000000 0.000000 0.039758 0.000000
# 6 0.000000 0.000000 0.000000 0.000000 0.000000 0.063242
#
#
# Mechanical properties :
#
#
# Convention : Reuss Voigt Hill
#
# Bulk Modulus (GPa) = 39.86325 48.93833 44.40079
# Shear Modulus (GPa) = 19.08801 21.33137 20.20969
#
# Velocity S-wave (km/s) = 3.43434 3.63055 3.53380
# Velocity P-wave (km/s) = 6.35281 6.91476 6.63973
#
# Compressibility (1/GPa) = 0.02508576
#
# Stress axis : x y z
#
# Youngs Moduli (GPa) = 93.31523 35.49985 55.42464
#
# Poissons Ratio (x) = 0.20738 0.21015
# Poissons Ratio (y) = 0.54512 0.34850
# Poissons Ratio (z) = 0.35381 0.22322
#
# Static dielectric constant tensor:
#      x y z
#    x 3.404770 0.000000 0.000000 
#    y 0.000000 3.058960 0.000000 
#    z 0.000000 0.000000 2.966800 
# 
# 
# High freq. dielectric constant tensor:
#      x y z
#    x 1.623750 0.000000 0.000000 
#    y 0.000000 1.618650 0.000000 
#    z 0.000000 0.000000 1.593480 
# 
# From -- ./inp_files/17109.got.cif
#   From: 2010.03.12/outbox.cif.g09.slc.cpg/sg44_9_cif.got.tgz:17109.got - 2010.04.14 02:36:11.
