data_PCOD8188510
_publ_section_title
;
Structure prediction by ZEFSAII (Michael W. Deem and Ramdas Pophale) SiO2 
 PCOD8188510
Probable space group: I M M 2
;
_chemical_formula_sum "Si O2"
_cell_formula_units_Z 56
_cell_length_a 9.390074
_cell_length_b 14.299257
_cell_length_c 23.175194
_cell_angle_alpha 90.000000
_cell_angle_beta 90.000000
_cell_angle_gamma 90.000000
_cell_volume 3111.758359
_symmetry_space_group_name_H-M "I M M 2"
_symmetry_group_IT_number 44
_symmetry_cell_setting 'orthorhombic'
loop_
_space_group_symop_operation_xyz
x,y,z
-x,-y,z
-x,y,z
x,-y,z
1/2+x,1/2+y,1/2+z
1/2-x,1/2-y,1/2+z
1/2-x,1/2+y,1/2+z
1/2+x,1/2-y,1/2+z
loop_
_atom_site_type_symbol
_atom_site_label
_atom_site_fract_x
_atom_site_fract_y
_atom_site_fract_z
Si Si1 0.667089 0.108097 0.636030
Si Si2 0.330837 0.103579 0.507034
Si Si3 0.667549 0.211865 0.397837
Si Si4 0.166143 0.895982 0.951830
Si Si5 0.668051 0.776332 0.176532
Si Si6 0.663888 0.107512 0.065057
Si Si7 0.830297 0.393682 0.786275
O O1 0.500000 0.127443 0.643165
O O2 0.720783 0.132277 0.571019
O O3 0.753844 0.175897 0.678852
O O4 0.701418 0.000000 0.650948
O O5 0.500000 0.105661 0.507500
O O6 0.267662 0.169655 0.457078
O O7 0.275945 0.000000 0.492459
O O8 0.500000 0.193314 0.396603
O O9 0.701750 0.323273 0.400029
O O10 0.733592 0.162030 0.341640
O O11 0.000000 0.892966 0.966718
O O12 0.214190 0.000000 0.932167
O O13 0.244610 0.863699 0.009745
O O14 0.500000 0.759252 0.180322
O O15 0.713282 0.830535 0.118823
O O16 0.722553 0.838932 0.229828
O O17 0.500000 0.125539 0.049623
O O18 0.690190 0.000000 0.082163
O O19 0.771275 0.500000 0.786036
O O20 0.000000 0.395754 0.787901
#
# Coordination Sequence:
#
# PCOD8188510 Si02
#       7
#     8   8   8   8   8   8   8
#     4   9  18  32  49  69  94 123 153 186 226 274
#     4   8  13  22  39  64  89 111 140 180 222 263
#     4   9  15  24  41  64  89 117 147 182 227 272
#     4   9  17  28  43  66  93 117 147 191 236 275
#     4  10  19  30  46  69  95 122 153 191 231 267
#     4   9  17  29  45  66  94 127 158 187 225 275
#     4   9  17  29  45  66  92 121 153 188 227 274
#
# _framework density 17.996255999999999
#
# number of rings (size 3 to 8) (size 9 to 14) (size 15 to 20)
#    0.000    3.000    0.000    2.571    0.000    5.429 
#    0.000    0.714    0.000    4.714    0.000    2.000 
#    0.000    2.286    0.000    0.000    0.000    0.000 
#
# Total GULP energy -347038.116526 kJ/mol
# GULP energy per Si atom -12394.218447 kJ/mol
# Density = 1.795530 g / cm^3
# Si number density = 17.996256 Si / 1000 Ang^3
#
#
#
# Elastic Constant Matrix: (Units=GPa)
#
#
# Indices 1 2 3 4 5 6 
#
# 1 22.0941 30.5768 22.6531 0.0000 0.0000 0.0000
# 2 30.5768 145.0076 86.0263 0.0000 0.0000 0.0000
# 3 22.6531 86.0263 100.5913 0.0000 0.0000 0.0000
# 4 0.0000 0.0000 0.0000 33.9787 0.0000 0.0000
# 5 0.0000 0.0000 0.0000 0.0000 15.4500 0.0000
# 6 0.0000 0.0000 0.0000 0.0000 0.0000 22.9102
#
#
#
# Elastic Compliance Matrix: (Units=1/GPa)
#
#
# Indices 1 2 3 4 5 6 
#
# 1 0.065636 -0.010294 -0.005978 0.000000 0.000000 0.000000
# 2 -0.010294 0.015613 -0.011034 0.000000 0.000000 0.000000
# 3 -0.005978 -0.011034 0.020724 0.000000 0.000000 0.000000
# 4 0.000000 0.000000 0.000000 0.029430 0.000000 0.000000
# 5 0.000000 0.000000 0.000000 0.000000 0.064725 0.000000
# 6 0.000000 0.000000 0.000000 0.000000 0.000000 0.043649
#
#
# Mechanical properties :
#
#
# Convention : Reuss Voigt Hill
#
# Bulk Modulus (GPa) = 21.11432 60.68949 40.90191
# Shear Modulus (GPa) = 16.11997 23.03025 19.57511
#
# Velocity S-wave (km/s) = 2.99614 3.58120 3.30166
# Velocity P-wave (km/s) = 4.87106 7.13419 6.10835
#
# Compressibility (1/GPa) = 0.04736122
#
# Stress axis : x y z
#
# Youngs Moduli (GPa) = 15.23554 64.05037 48.25400
#
# Poissons Ratio (x) = 0.65933 0.28845
# Poissons Ratio (y) = 0.15683 0.53243
# Poissons Ratio (z) = 0.09107 0.70673
#
# Static dielectric constant tensor:
#      x y z
#    x 2.811300 0.000000 0.000000 
#    y 0.000000 3.554910 0.000000 
#    z 0.000000 0.000000 3.371710 
# 
# 
# High freq. dielectric constant tensor:
#      x y z
#    x 1.639960 0.000000 0.000000 
#    y 0.000000 1.714510 0.000000 
#    z 0.000000 0.000000 1.682370 
# 
# From -- ./inp_files/23027.got.cif
#   From: 2010.03.12/outbox.cif.g09.slc.cpg/sg44_12_cif.got.tgz:23027.got - 2010.04.14 02:36:11.
