data_PCOD8188482
_publ_section_title
;
Structure prediction by ZEFSAII (Michael W. Deem and Ramdas Pophale) SiO2 
 PCOD8188482
Probable space group: I M M 2
;
_chemical_formula_sum "Si O2"
_cell_formula_units_Z 64
_cell_length_a 8.864259
_cell_length_b 26.752010
_cell_length_c 18.144024
_cell_angle_alpha 90.000000
_cell_angle_beta 90.000000
_cell_angle_gamma 90.000000
_cell_volume 4302.614800
_symmetry_space_group_name_H-M "I M M 2"
_symmetry_group_IT_number 44
_symmetry_cell_setting 'orthorhombic'
loop_
_space_group_symop_operation_xyz
x,y,z
-x,-y,z
-x,y,z
x,-y,z
1/2+x,1/2+y,1/2+z
1/2-x,1/2-y,1/2+z
1/2-x,1/2+y,1/2+z
1/2+x,1/2-y,1/2+z
loop_
_atom_site_type_symbol
_atom_site_label
_atom_site_fract_x
_atom_site_fract_y
_atom_site_fract_z
Si Si1 0.677533 0.755842 0.857570
Si Si2 0.833673 0.699925 0.978419
Si Si3 0.821011 0.054553 0.860127
Si Si4 0.178749 0.152116 0.939890
Si Si5 0.821976 0.352450 0.120210
Si Si6 0.166008 0.203915 0.080517
Si Si7 0.677395 0.739635 0.201693
Si Si8 0.825302 0.057403 0.693762
O O1 0.500000 0.758327 0.848460
O O2 0.720086 0.709120 0.910737
O O3 0.736069 0.807949 0.889711
O O4 0.752467 0.745670 0.779339
O O5 0.000000 0.686798 0.946846
O O6 0.775666 0.656765 0.034421
O O7 0.845276 0.749500 0.026464
O O8 0.763317 0.097284 0.915648
O O9 0.767536 0.066565 0.777083
O O10 0.000000 0.052243 0.859717
O O11 0.757717 0.000000 0.884907
O O12 0.000000 0.158977 0.926624
O O13 0.218300 0.158265 0.027082
O O14 0.741803 0.313142 0.174217
O O15 0.772895 0.408353 0.139792
O O16 0.000000 0.345032 0.129979
O O17 0.283464 0.214975 0.145630
O O18 0.000000 0.193233 0.114717
O O19 0.500000 0.734576 0.209288
O O20 0.000000 0.072225 0.685979
O O21 0.799397 0.000000 0.670705
#
# Coordination Sequence:
#
# PCOD8188482 Si02
#       8
#     8   8   8   8   8   8   8   8
#     4  11  20  28  41  61  83 106 136 171 203 243
#     4   8  16  30  43  57  80 107 134 166 205 247
#     4   8  14  25  41  60  80 105 139 172 199 231
#     4   9  16  27  43  60  81 110 138 167 204 241
#     4  10  19  30  44  61  82 109 141 175 208 244
#     4   8  15  27  40  57  81 105 133 168 202 238
#     4  11  20  29  42  58  80 110 140 169 204 246
#     4   9  17  28  42  61  85 113 145 177 205 238
#
# _framework density 14.874675999999999
#
# number of rings (size 3 to 8) (size 9 to 14) (size 15 to 20)
#    0.000    2.750    0.000    5.625    0.000    6.250 
#    0.000    0.000    0.000    1.125    0.000    0.000 
#    0.000    1.000    0.000    5.250    0.000    2.625 
#
# Total GULP energy -396603.138195 kJ/mol
# GULP energy per Si atom -12393.848069 kJ/mol
# Density = 1.484082 g / cm^3
# Si number density = 14.874676 Si / 1000 Ang^3
#
#
#
# Elastic Constant Matrix: (Units=GPa)
#
#
# Indices 1 2 3 4 5 6 
#
# 1 79.7748 30.3276 48.2483 0.0000 0.0000 0.0000
# 2 30.3276 84.6372 53.9011 -0.0001 0.0000 0.0000
# 3 48.2483 53.9011 96.4076 -0.0001 0.0001 -0.0002
# 4 0.0000 -0.0001 -0.0001 25.7285 0.0000 0.0000
# 5 0.0000 0.0000 0.0001 0.0000 22.6053 0.0000
# 6 0.0000 0.0000 -0.0002 0.0000 0.0000 15.5641
#
#
#
# Elastic Compliance Matrix: (Units=1/GPa)
#
#
# Indices 1 2 3 4 5 6 
#
# 1 0.018043 -0.001110 -0.008409 0.000000 0.000000 0.000000
# 2 -0.001110 0.018416 -0.009741 0.000000 0.000000 0.000000
# 3 -0.008409 -0.009741 0.020027 0.000000 0.000000 0.000000
# 4 0.000000 0.000000 0.000000 0.038867 0.000000 0.000000
# 5 0.000000 0.000000 0.000000 0.000000 0.044237 0.000000
# 6 0.000000 0.000000 0.000000 0.000000 0.000000 0.064251
#
#
# Mechanical properties :
#
#
# Convention : Reuss Voigt Hill
#
# Bulk Modulus (GPa) = 55.65958 58.41929 57.03943
# Shear Modulus (GPa) = 20.13270 21.33576 20.73423
#
# Velocity S-wave (km/s) = 3.68297 3.79141 3.73759
# Velocity P-wave (km/s) = 7.45560 7.65023 7.55354
#
# Compressibility (1/GPa) = 0.01796636
#
# Stress axis : x y z
#
# Youngs Moduli (GPa) = 55.42229 54.29932 49.93141
#
# Poissons Ratio (x) = 0.06026 0.41990
# Poissons Ratio (y) = 0.06151 0.48639
# Poissons Ratio (z) = 0.46607 0.52894
#
# Static dielectric constant tensor:
#      x y z
#    x 2.792640 0.000000 0.000000 
#    y 0.000000 3.006850 0.000000 
#    z 0.000000 0.000000 3.047940 
# 
# 
# High freq. dielectric constant tensor:
#      x y z
#    x 1.564120 0.000000 0.000000 
#    y 0.000000 1.539220 0.000000 
#    z 0.000000 0.000000 1.557890 
# 
# From -- ./inp_files/17094.got.cif
#   From: 2010.03.12/outbox.cif.g09.slc.cpg/sg44_9_cif.got.tgz:17094.got - 2010.04.14 02:36:11.
