data_PCOD8188062
_publ_section_title
;
Structure prediction by ZEFSAII (Michael W. Deem and Ramdas Pophale) SiO2 
 PCOD8188062
Probable space group: I M M 2
;
_chemical_formula_sum "Si O2"
_cell_formula_units_Z 64
_cell_length_a 8.658340
_cell_length_b 25.983225
_cell_length_c 18.467121
_cell_angle_alpha 90.000000
_cell_angle_beta 90.000000
_cell_angle_gamma 90.000000
_cell_volume 4154.577691
_symmetry_space_group_name_H-M "I M M 2"
_symmetry_group_IT_number 44
_symmetry_cell_setting 'orthorhombic'
loop_
_space_group_symop_operation_xyz
x,y,z
-x,-y,z
-x,y,z
x,-y,z
1/2+x,1/2+y,1/2+z
1/2-x,1/2-y,1/2+z
1/2-x,1/2+y,1/2+z
1/2+x,1/2-y,1/2+z
loop_
_atom_site_type_symbol
_atom_site_label
_atom_site_fract_x
_atom_site_fract_y
_atom_site_fract_z
Si Si1 0.821367 0.796786 0.349950
Si Si2 0.319066 0.147031 0.817393
Si Si3 0.180892 0.795237 0.936911
Si Si4 0.179854 0.856942 0.484923
Si Si5 0.681130 0.747472 0.064922
Si Si6 0.320743 0.559577 0.227669
Si Si7 0.678409 0.941432 0.576767
Si Si8 0.680574 0.740518 0.229532
O O1 0.785636 0.747785 0.399225
O O2 0.782342 0.846517 0.399685
O O3 0.721022 0.791963 0.276386
O O4 0.000000 0.796397 0.328091
O O5 0.500000 0.150159 0.831080
O O6 0.230082 0.152591 0.894945
O O7 0.276413 0.091599 0.785549
O O8 0.269218 0.191286 0.760953
O O9 0.000000 0.784760 0.926592
O O10 0.227674 0.792878 0.021691
O O11 0.228910 0.808223 0.533811
O O12 0.277643 0.906244 0.508602
O O13 0.000000 0.868717 0.495663
O O14 0.500000 0.757412 0.056405
O O15 0.734891 0.750551 0.147863
O O16 0.500000 0.571383 0.238894
O O17 0.279671 0.500000 0.240184
O O18 0.276196 0.576207 0.146361
O O19 0.500000 0.934680 0.596461
O O20 0.717363 0.000000 0.555179
O O21 0.500000 0.728547 0.233557
#
# Coordination Sequence:
#
# PCOD8188062 Si02
#       8
#     8   8   8   8   8   8   8   8
#     4   9  17  29  42  58  83 110 139 175 211 247
#     4  11  20  30  45  62  85 114 143 176 212 250
#     4  10  18  28  43  61  82 109 142 174 206 248
#     4   9  17  29  44  59  80 114 147 175 209 248
#     4   9  18  30  42  60  86 112 140 174 209 245
#     4  10  20  33  47  62  83 111 143 178 212 248
#     4  10  20  31  43  62  86 110 140 179 217 251
#     4  10  18  28  44  64  87 114 144 175 208 251
#
# _framework density 15.404695
#
# number of rings (size 3 to 8) (size 9 to 14) (size 15 to 20)
#    0.000    2.250    0.000    6.750    0.000    6.000 
#    0.000    0.000    0.000    0.000    0.000    0.000 
#    0.000    1.000    0.000    7.000    0.000    5.500 
#
# Total GULP energy -396698.071082 kJ/mol
# GULP energy per Si atom -12396.814721 kJ/mol
# Density = 1.536963 g / cm^3
# Si number density = 15.404695 Si / 1000 Ang^3
#
#
#
# Elastic Constant Matrix: (Units=GPa)
#
#
# Indices 1 2 3 4 5 6 
#
# 1 54.5688 23.5307 31.9822 0.0000 0.0000 0.0000
# 2 23.5307 58.8908 41.8492 -0.0001 0.0000 0.0000
# 3 31.9822 41.8492 105.0798 -0.0003 0.0000 0.0000
# 4 0.0000 -0.0001 -0.0003 26.2626 0.0000 0.0000
# 5 0.0000 0.0000 0.0000 0.0000 27.0671 0.0000
# 6 0.0000 0.0000 0.0000 0.0000 0.0000 22.6450
#
#
#
# Elastic Compliance Matrix: (Units=1/GPa)
#
#
# Indices 1 2 3 4 5 6 
#
# 1 0.023767 -0.006075 -0.004814 0.000000 0.000000 0.000000
# 2 -0.006075 0.025236 -0.008202 0.000000 0.000000 0.000000
# 3 -0.004814 -0.008202 0.014248 0.000000 0.000000 0.000000
# 4 0.000000 0.000000 0.000000 0.038077 0.000000 0.000000
# 5 0.000000 0.000000 0.000000 0.000000 0.036945 0.000000
# 6 0.000000 0.000000 0.000000 0.000000 0.000000 0.044160
#
#
# Mechanical properties :
#
#
# Convention : Reuss Voigt Hill
#
# Bulk Modulus (GPa) = 39.88952 45.91817 42.90385
# Shear Modulus (GPa) = 21.83676 23.27342 22.55509
#
# Velocity S-wave (km/s) = 3.76911 3.89112 3.83060
# Velocity P-wave (km/s) = 6.70016 7.07533 6.89030
#
# Compressibility (1/GPa) = 0.02506924
#
# Stress axis : x y z
#
# Youngs Moduli (GPa) = 42.07562 39.62546 70.18448
#
# Poissons Ratio (x) = 0.24074 0.33788
# Poissons Ratio (y) = 0.25562 0.57562
# Poissons Ratio (z) = 0.20256 0.32499
#
# Static dielectric constant tensor:
#      x y z
#    x 2.969790 0.000000 0.000000 
#    y 0.000000 2.814170 0.000000 
#    z 0.000000 0.000000 3.275150 
# 
# 
# High freq. dielectric constant tensor:
#      x y z
#    x 1.604460 0.000000 0.000000 
#    y 0.000000 1.550350 0.000000 
#    z 0.000000 0.000000 1.583560 
# 
# From -- ./inp_files/20920.got.cif
#   From: 2010.03.12/outbox.cif.g09.slc.cpg/sg44_11_cif.got.tgz:20920.got - 2010.04.14 02:36:11.
