data_PCOD8188016
_publ_section_title
;
Structure prediction by ZEFSAII (Michael W. Deem and Ramdas Pophale) SiO2 
 PCOD8188016
Probable space group: I M M 2
;
_chemical_formula_sum "Si O2"
_cell_formula_units_Z 64
_cell_length_a 8.945472
_cell_length_b 26.371660
_cell_length_c 18.012873
_cell_angle_alpha 90.000000
_cell_angle_beta 90.000000
_cell_angle_gamma 90.000000
_cell_volume 4249.361860
_symmetry_space_group_name_H-M "I M M 2"
_symmetry_group_IT_number 44
_symmetry_cell_setting 'orthorhombic'
loop_
_space_group_symop_operation_xyz
x,y,z
-x,-y,z
-x,y,z
x,-y,z
1/2+x,1/2+y,1/2+z
1/2-x,1/2-y,1/2+z
1/2-x,1/2+y,1/2+z
1/2+x,1/2-y,1/2+z
loop_
_atom_site_type_symbol
_atom_site_label
_atom_site_fract_x
_atom_site_fract_y
_atom_site_fract_z
Si Si1 0.173369 0.244710 0.018390
Si Si2 0.327363 0.557666 0.514486
Si Si3 0.165569 0.201600 0.640409
Si Si4 0.323657 0.646533 0.282297
Si Si5 0.323084 0.240142 0.862494
Si Si6 0.666562 0.800049 0.242000
Si Si7 0.827183 0.148056 0.117170
Si Si8 0.673846 0.058476 0.861708
O O1 0.217007 0.290899 0.073818
O O2 0.211107 0.191382 0.057247
O O3 0.000000 0.249366 0.997103
O O4 0.274958 0.249671 0.946503
O O5 0.500000 0.566177 0.492112
O O6 0.297393 0.500000 0.539926
O O7 0.282120 0.593949 0.582441
O O8 0.227840 0.572473 0.444109
O O9 0.214545 0.155821 0.695162
O O10 0.162139 0.250718 0.691635
O O11 0.000000 0.191821 0.607177
O O12 0.500000 0.650922 0.296431
O O13 0.244930 0.687174 0.335378
O O14 0.264420 0.590842 0.301564
O O15 0.500000 0.237118 0.856223
O O16 0.265253 0.287892 0.814342
O O17 0.500000 0.815706 0.267287
O O18 0.736517 0.845623 0.193661
O O19 0.000000 0.150752 0.138621
O O20 0.500000 0.071420 0.855923
O O21 0.707785 0.000000 0.843959
#
# Coordination Sequence:
#
# PCOD8188016 Si02
#       8
#     8   8   8   8   8   8   8   8
#     4  10  18  27  41  61  85 112 142 174 207 248
#     4   9  17  29  44  61  84 115 148 181 215 250
#     4   8  16  29  42  58  80 106 137 173 210 248
#     4  10  19  31  46  62  83 112 145 177 210 251
#     4  11  20  29  43  62  86 113 141 174 210 248
#     4   9  17  29  43  59  81 108 139 173 209 250
#     4   9  17  28  42  60  82 110 144 177 210 248
#     4  10  20  31  43  62  87 113 144 181 215 247
#
# _framework density 15.061085
#
# number of rings (size 3 to 8) (size 9 to 14) (size 15 to 20)
#    0.000    2.500    0.000    4.125    0.000    6.250 
#    0.000    0.000    0.000    0.000    0.000    0.000 
#    0.000    1.000    0.000    5.250    0.000    4.250 
#
# Total GULP energy -396776.170149 kJ/mol
# GULP energy per Si atom -12399.255317 kJ/mol
# Density = 1.502680 g / cm^3
# Si number density = 15.061085 Si / 1000 Ang^3
#
#
#
# Elastic Constant Matrix: (Units=GPa)
#
#
# Indices 1 2 3 4 5 6 
#
# 1 96.5327 38.3407 49.5295 0.0000 0.0000 0.0000
# 2 38.3407 70.2415 45.0511 0.0000 0.0000 0.0000
# 3 49.5295 45.0511 76.2097 0.0001 -0.0001 0.0000
# 4 0.0000 0.0000 0.0001 26.0497 0.0000 0.0000
# 5 0.0000 0.0000 -0.0001 0.0000 27.9668 0.0000
# 6 0.0000 0.0000 0.0000 0.0000 0.0000 19.8311
#
#
#
# Elastic Compliance Matrix: (Units=1/GPa)
#
#
# Indices 1 2 3 4 5 6 
#
# 1 0.016010 -0.003327 -0.008439 0.000000 0.000000 0.000000
# 2 -0.003327 0.023622 -0.011802 0.000000 0.000000 0.000000
# 3 -0.008439 -0.011802 0.025583 0.000000 0.000000 0.000000
# 4 0.000000 0.000000 0.000000 0.038388 0.000000 0.000000
# 5 0.000000 0.000000 0.000000 0.000000 0.035757 0.000000
# 6 0.000000 0.000000 0.000000 0.000000 0.000000 0.050426
#
#
# Mechanical properties :
#
#
# Convention : Reuss Voigt Hill
#
# Bulk Modulus (GPa) = 55.30890 56.53627 55.92258
# Shear Modulus (GPa) = 20.58063 22.10703 21.34383
#
# Velocity S-wave (km/s) = 3.70060 3.83538 3.76859
# Velocity P-wave (km/s) = 7.42038 7.56525 7.49316
#
# Compressibility (1/GPa) = 0.01808027
#
# Stress axis : x y z
#
# Youngs Moduli (GPa) = 62.46010 42.33360 39.08886
#
# Poissons Ratio (x) = 0.14083 0.32986
# Poissons Ratio (y) = 0.20779 0.46132
# Poissons Ratio (z) = 0.52708 0.49962
#
# Static dielectric constant tensor:
#      x y z
#    x 3.041810 0.000000 0.000000 
#    y 0.000000 2.822550 0.000000 
#    z 0.000000 0.000000 2.891720 
# 
# 
# High freq. dielectric constant tensor:
#      x y z
#    x 1.590770 0.000000 0.000000 
#    y 0.000000 1.543480 0.000000 
#    z 0.000000 0.000000 1.562030 
# 
# From -- ./inp_files/20887.got.cif
#   From: 2010.03.12/outbox.cif.g09.slc.cpg/sg44_11_cif.got.tgz:20887.got - 2010.04.14 02:36:11.
