data_PCOD8188914
_publ_section_title
;
Structure prediction by ZEFSAII (Michael W. Deem and Ramdas Pophale) SiO2 
 PCOD8188914
Probable space group: I M M 2
;
_chemical_formula_sum "Si O2"
_cell_formula_units_Z 64
_cell_length_a 8.853824
_cell_length_b 25.167641
_cell_length_c 15.066695
_cell_angle_alpha 90.000000
_cell_angle_beta 90.000000
_cell_angle_gamma 90.000000
_cell_volume 3357.309596
_symmetry_space_group_name_H-M "I M M 2"
_symmetry_group_IT_number 44
_symmetry_cell_setting 'orthorhombic'
loop_
_space_group_symop_operation_xyz
x,y,z
-x,-y,z
-x,y,z
x,-y,z
1/2+x,1/2+y,1/2+z
1/2-x,1/2-y,1/2+z
1/2-x,1/2+y,1/2+z
1/2+x,1/2-y,1/2+z
loop_
_atom_site_type_symbol
_atom_site_label
_atom_site_fract_x
_atom_site_fract_y
_atom_site_fract_z
Si Si1 0.822454 0.561688 0.097380
Si Si2 0.178056 0.653035 0.607460
Si Si3 0.820809 0.393661 0.911843
Si Si4 0.179683 0.441209 0.730388
Si Si5 0.178130 0.141061 0.734088
Si Si6 0.176366 0.669061 0.406744
Si Si7 0.327447 0.760702 0.643856
Si Si8 0.671997 0.775743 0.437770
O O1 0.784903 0.500000 0.109987
O O2 0.743685 0.593582 0.175819
O O3 0.000000 0.573236 0.102733
O O4 0.756089 0.580864 0.002425
O O5 0.235393 0.599418 0.654885
O O6 0.224035 0.648704 0.504314
O O7 0.259546 0.702065 0.655415
O O8 0.000000 0.661953 0.618001
O O9 0.755572 0.424920 0.826928
O O10 0.772988 0.332281 0.900399
O O11 0.000000 0.398294 0.915477
O O12 0.239958 0.500000 0.706489
O O13 0.000000 0.440571 0.734354
O O14 0.234194 0.133504 0.835410
O O15 0.233545 0.198657 0.702939
O O16 0.000000 0.138458 0.729695
O O17 0.219922 0.731052 0.397134
O O18 0.000000 0.662403 0.389413
O O19 0.500000 0.760794 0.676508
O O20 0.314163 0.779799 0.543229
O O21 0.500000 0.762614 0.409756
#
# Coordination Sequence:
#
# PCOD8188914 Si02
#       8
#     8   8   8   8   8   8   8   8
#     4  10  20  37  60  84 114 153 194 234 280 338
#     4   9  19  35  55  82 114 147 186 235 283 331
#     4   9  16  29  51  83 118 149 182 220 267 330
#     4   9  17  30  52  83 114 144 183 228 270 321
#     4  12  24  37  56  81 112 149 192 239 290 340
#     4  10  21  36  53  77 113 149 190 237 285 338
#     4  10  19  34  55  80 112 147 184 226 275 338
#     4   9  17  31  52  80 114 148 181 219 273 336
#
# _framework density 19.062884
#
# number of rings (size 3 to 8) (size 9 to 14) (size 15 to 20)
#    0.000    2.250    1.250    2.250    1.750    2.750 
#    0.000    0.625    0.000    3.375    0.000    0.000 
#    0.000    0.000    0.000    0.000    0.000    0.000 
#
# Total GULP energy -396833.151584 kJ/mol
# GULP energy per Si atom -12401.035987 kJ/mol
# Density = 1.901950 g / cm^3
# Si number density = 19.062884 Si / 1000 Ang^3
#
#
#
# Elastic Constant Matrix: (Units=GPa)
#
#
# Indices 1 2 3 4 5 6 
#
# 1 55.6475 41.9265 39.5732 0.0000 0.0000 0.0000
# 2 41.9265 139.1282 78.4393 0.0000 0.0000 0.0000
# 3 39.5732 78.4393 117.1806 0.0000 0.0000 0.0000
# 4 0.0000 0.0000 0.0000 32.2211 0.0000 0.0000
# 5 0.0000 0.0000 0.0000 0.0000 19.6153 0.0000
# 6 0.0000 0.0000 0.0000 0.0000 0.0000 25.9916
#
#
#
# Elastic Compliance Matrix: (Units=1/GPa)
#
#
# Indices 1 2 3 4 5 6 
#
# 1 0.025296 -0.004508 -0.005525 0.000000 0.000000 0.000000
# 2 -0.004508 0.012348 -0.006743 0.000000 0.000000 0.000000
# 3 -0.005525 -0.006743 0.014913 0.000000 0.000000 0.000000
# 4 0.000000 0.000000 0.000000 0.031036 0.000000 0.000000
# 5 0.000000 0.000000 0.000000 0.000000 0.050981 0.000000
# 6 0.000000 0.000000 0.000000 0.000000 0.000000 0.038474
#
#
# Mechanical properties :
#
#
# Convention : Reuss Voigt Hill
#
# Bulk Modulus (GPa) = 52.61831 70.20379 61.41105
# Shear Modulus (GPa) = 23.48142 25.70008 24.59075
#
# Velocity S-wave (km/s) = 3.51349 3.67573 3.59553
# Velocity P-wave (km/s) = 6.64243 7.41094 7.03719
#
# Compressibility (1/GPa) = 0.01900479
#
# Stress axis : x y z
#
# Youngs Moduli (GPa) = 39.53231 80.98631 67.05345
#
# Poissons Ratio (x) = 0.36508 0.37048
# Poissons Ratio (y) = 0.17821 0.45215
# Poissons Ratio (z) = 0.21842 0.54610
#
# Static dielectric constant tensor:
#      x y z
#    x 3.214940 0.000000 0.000000 
#    y 0.000000 3.539590 0.000000 
#    z 0.000000 0.000000 3.660390 
# 
# 
# High freq. dielectric constant tensor:
#      x y z
#    x 1.710680 0.000000 0.000000 
#    y 0.000000 1.736650 0.000000 
#    z 0.000000 0.000000 1.748420 
# 
# From -- ./inp_files/16848.got.cif
#   From: 2010.03.12/outbox.cif.g09.slc.cpg/sg44_9_cif.got.tgz:16848.got - 2010.04.14 02:36:11.
