data_PCOD8188954
_publ_section_title
;
Structure prediction by ZEFSAII (Michael W. Deem and Ramdas Pophale) SiO2 
 PCOD8188954
Probable space group: I M M 2
;
_chemical_formula_sum "Si O2"
_cell_formula_units_Z 64
_cell_length_a 15.089786
_cell_length_b 13.686049
_cell_length_c 16.225358
_cell_angle_alpha 90.000000
_cell_angle_beta 90.000000
_cell_angle_gamma 90.000000
_cell_volume 3350.853642
_symmetry_space_group_name_H-M "I M M 2"
_symmetry_group_IT_number 44
_symmetry_cell_setting 'orthorhombic'
loop_
_space_group_symop_operation_xyz
x,y,z
-x,-y,z
-x,y,z
x,-y,z
1/2+x,1/2+y,1/2+z
1/2-x,1/2-y,1/2+z
1/2-x,1/2+y,1/2+z
1/2+x,1/2-y,1/2+z
loop_
_atom_site_type_symbol
_atom_site_label
_atom_site_fract_x
_atom_site_fract_y
_atom_site_fract_z
Si Si1 0.399866 0.295807 0.031370
Si Si2 0.696282 0.887411 0.058380
Si Si3 0.401260 0.388164 0.318881
Si Si4 0.286039 0.386409 0.902523
Si Si5 0.813726 0.109568 0.212301
Si Si6 0.842363 0.230815 0.968978
Si Si7 0.403029 0.784117 0.642168
Si Si8 0.278804 0.614463 0.170337
O O1 0.500000 0.326744 0.052830
O O2 0.390813 0.178074 0.039697
O O3 0.326835 0.340434 0.091888
O O4 0.375135 0.337145 0.940760
O O5 0.729403 0.870523 0.152447
O O6 0.672887 0.000000 0.040921
O O7 0.771318 0.850740 0.995727
O O8 0.500000 0.380522 0.279906
O O9 0.381079 0.500000 0.344506
O O10 0.400292 0.318774 0.398162
O O11 0.328594 0.350489 0.253138
O O12 0.280985 0.500000 0.927765
O O13 0.283856 0.372512 0.805031
O O14 0.200970 0.330927 0.937413
O O15 0.893481 0.181633 0.189990
O O16 0.849362 0.000000 0.198941
O O17 0.903193 0.262672 0.044930
O O18 0.500000 0.828574 0.664392
O O19 0.324161 0.855044 0.672008
O O20 0.285877 0.500000 0.161667
#
# Coordination Sequence:
#
# PCOD8188954 Si02
#       8
#     8   8   8   8   8   8   8   8
#     4  11  22  36  57  85 113 149 193 235 282 332
#     4   9  18  35  57  84 116 151 186 225 281 343
#     4  10  21  36  59  88 113 143 186 237 289 338
#     4  10  20  35  57  82 113 152 191 230 278 330
#     4   9  18  35  59  84 112 147 185 230 284 337
#     4  10  19  34  57  84 116 147 183 231 284 333
#     4  11  22  37  57  85 114 147 189 231 282 345
#     4  11  22  40  57  78 113 151 191 238 283 330
#
# _framework density 19.099610999999999
#
# number of rings (size 3 to 8) (size 9 to 14) (size 15 to 20)
#    0.000    1.875    3.750    2.250    0.000    3.250 
#    0.000    1.250    0.000    1.125    0.000    3.500 
#    0.000    0.000    0.000    0.000    0.000    0.000 
#
# Total GULP energy -396713.981734 kJ/mol
# GULP energy per Si atom -12397.311929 kJ/mol
# Density = 1.905614 g / cm^3
# Si number density = 19.099611 Si / 1000 Ang^3
#
#
#
# Elastic Constant Matrix: (Units=GPa)
#
#
# Indices 1 2 3 4 5 6 
#
# 1 103.2172 35.7388 19.6467 0.0000 0.0000 0.0000
# 2 35.7388 103.3903 43.8120 0.0000 0.0000 0.0000
# 3 19.6467 43.8120 84.9644 0.0000 0.0000 0.0000
# 4 0.0000 0.0000 0.0000 31.1663 0.0000 0.0000
# 5 0.0000 0.0000 0.0000 0.0000 15.7574 0.0000
# 6 0.0000 0.0000 0.0000 0.0000 0.0000 18.9324
#
#
#
# Elastic Compliance Matrix: (Units=1/GPa)
#
#
# Indices 1 2 3 4 5 6 
#
# 1 0.011043 -0.003500 -0.000749 0.000000 0.000000 0.000000
# 2 -0.003500 0.013486 -0.006145 0.000000 0.000000 0.000000
# 3 -0.000749 -0.006145 0.015111 0.000000 0.000000 0.000000
# 4 0.000000 0.000000 0.000000 0.032086 0.000000 0.000000
# 5 0.000000 0.000000 0.000000 0.000000 0.063462 0.000000
# 6 0.000000 0.000000 0.000000 0.000000 0.000000 0.052819
#
#
# Mechanical properties :
#
#
# Convention : Reuss Voigt Hill
#
# Bulk Modulus (GPa) = 53.04144 54.44075 53.74110
# Shear Modulus (GPa) = 23.24739 25.99619 24.62179
#
# Velocity S-wave (km/s) = 3.49258 3.69329 3.59433
# Velocity P-wave (km/s) = 6.64043 6.83759 6.73973
#
# Compressibility (1/GPa) = 0.01885318
#
# Stress axis : x y z
#
# Youngs Moduli (GPa) = 90.55814 74.15285 66.17590
#
# Poissons Ratio (x) = 0.25952 0.04955
# Poissons Ratio (y) = 0.31694 0.40663
# Poissons Ratio (z) = 0.06781 0.45564
#
# Static dielectric constant tensor:
#      x y z
#    x 3.279450 0.000000 0.000000 
#    y 0.000000 3.636820 0.000000 
#    z 0.000000 0.000000 3.622520 
# 
# 
# High freq. dielectric constant tensor:
#      x y z
#    x 1.720030 0.000000 0.000000 
#    y 0.000000 1.749020 0.000000 
#    z 0.000000 0.000000 1.747370 
# 
# From -- ./inp_files/21986.got.cif
#   From: 2010.03.12/outbox.cif.g09.slc.cpg/sg44_11_cif.got.tgz:21986.got - 2010.04.14 02:36:11.
