data_PCOD8188275
_publ_section_title
;
Structure prediction by ZEFSAII (Michael W. Deem and Ramdas Pophale) SiO2 
 PCOD8188275
Probable space group: I M M 2
;
_chemical_formula_sum "Si O2"
_cell_formula_units_Z 38
_cell_length_a 7.598689
_cell_length_b 11.585437
_cell_length_c 23.571416
_cell_angle_alpha 90.000000
_cell_angle_beta 90.000000
_cell_angle_gamma 90.000000
_cell_volume 2075.089164
_symmetry_space_group_name_H-M "I M M 2"
_symmetry_group_IT_number 44
_symmetry_cell_setting 'orthorhombic'
loop_
_space_group_symop_operation_xyz
x,y,z
-x,-y,z
-x,y,z
x,-y,z
1/2+x,1/2+y,1/2+z
1/2-x,1/2-y,1/2+z
1/2-x,1/2+y,1/2+z
1/2+x,1/2-y,1/2+z
loop_
_atom_site_type_symbol
_atom_site_label
_atom_site_fract_x
_atom_site_fract_y
_atom_site_fract_z
Si Si1 0.805343 0.867859 0.325410
Si Si2 0.500000 0.756090 0.121592
Si Si3 0.202739 0.280254 0.940206
Si Si4 0.794573 0.134107 0.044343
Si Si5 0.500000 0.500000 0.101809
Si Si6 0.000000 0.364101 0.744104
Si Si7 0.204864 0.500000 0.012217
O O1 0.804250 0.784577 0.380536
O O2 0.672302 0.820961 0.277890
O O3 0.000000 0.863104 0.298783
O O4 0.755380 0.000000 0.343011
O O5 0.325428 0.792219 0.086876
O O6 0.500000 0.619727 0.136592
O O7 0.500000 0.816419 0.181544
O O8 0.000000 0.287330 0.923666
O O9 0.246382 0.168023 0.978623
O O10 0.260845 0.389005 0.976979
O O11 0.000000 0.161198 0.057777
O O12 0.750276 0.000000 0.052038
O O13 0.318993 0.500000 0.068020
O O14 0.000000 0.500000 0.738490
O O15 0.000000 0.500000 0.029098
#
# Coordination Sequence:
#
# PCOD8188275 Si02
#       7
#     8   4   8   8   2   4   4
#     4  10  20  32  54  82 110 146 190 237 288 334
#     4  12  24  40  62  84 116 154 197 245 285 348
#     4  10  18  31  55  85 120 148 179 234 291 344
#     4  10  22  38  57  86 120 157 193 232 286 344
#     4  12  24  36  60  92 112 152 194 228 304 354
#     4  10  22  40  56  78 110 150 196 243 287 331
#     4  10  20  32  52  86 124 150 176 226 295 346
#
# _framework density 18.312466000000001
#
# number of rings (size 3 to 8) (size 9 to 14) (size 15 to 20)
#    0.000    1.684    4.211    0.947    2.947    0.842 
#    0.000    2.105    2.316    0.000    0.000    0.000 
#    0.000    0.000    0.000    0.000    0.000    0.000 
#
# Total GULP energy -235537.170500 kJ/mol
# GULP energy per Si atom -12396.693184 kJ/mol
# Density = 1.827079 g / cm^3
# Si number density = 18.312466 Si / 1000 Ang^3
#
#
#
# Elastic Constant Matrix: (Units=GPa)
#
#
# Indices 1 2 3 4 5 6 
#
# 1 99.4442 26.0318 49.3559 0.0000 0.0000 0.0000
# 2 26.0318 71.8370 17.9322 0.0000 0.0000 0.0000
# 3 49.3559 17.9322 103.4638 0.0000 0.0000 0.0000
# 4 0.0000 0.0000 0.0000 11.1537 0.0000 0.0000
# 5 0.0000 0.0000 0.0000 0.0000 25.0545 0.0000
# 6 0.0000 0.0000 0.0000 0.0000 0.0000 14.6655
#
#
#
# Elastic Compliance Matrix: (Units=1/GPa)
#
#
# Indices 1 2 3 4 5 6 
#
# 1 0.013995 -0.003559 -0.006059 0.000000 0.000000 0.000000
# 2 -0.003559 0.015455 -0.000981 0.000000 0.000000 0.000000
# 3 -0.006059 -0.000981 0.012726 0.000000 0.000000 0.000000
# 4 0.000000 0.000000 0.000000 0.089656 0.000000 0.000000
# 5 0.000000 0.000000 0.000000 0.000000 0.039913 0.000000
# 6 0.000000 0.000000 0.000000 0.000000 0.000000 0.068187
#
#
# Mechanical properties :
#
#
# Convention : Reuss Voigt Hill
#
# Bulk Modulus (GPa) = 47.67026 51.26500 49.46763
# Shear Modulus (GPa) = 18.64821 22.26974 20.45897
#
# Velocity S-wave (km/s) = 3.19460 3.49104 3.34610
# Velocity P-wave (km/s) = 6.30043 6.65622 6.48076
#
# Compressibility (1/GPa) = 0.02097744
#
# Stress axis : x y z
#
# Youngs Moduli (GPa) = 71.45525 64.70446 78.58124
#
# Poissons Ratio (x) = 0.23027 0.47614
# Poissons Ratio (y) = 0.25430 0.07708
# Poissons Ratio (z) = 0.43296 0.06347
#
# Static dielectric constant tensor:
#      x y z
#    x 3.222200 0.000000 0.000000 
#    y 0.000000 3.456440 0.000000 
#    z 0.000000 0.000000 3.175720 
# 
# 
# High freq. dielectric constant tensor:
#      x y z
#    x 1.725900 0.000000 0.000000 
#    y 0.000000 1.688130 0.000000 
#    z 0.000000 0.000000 1.687260 
# 
# From -- ./inp_files/20057.got.cif
#   From: 2010.03.12/outbox.cif.g09.slc.cpg/sg44_11_cif.got.tgz:20057.got - 2010.04.14 02:36:11.
