data_PCOD8188627
_publ_section_title
;
Structure prediction by ZEFSAII (Michael W. Deem and Ramdas Pophale) SiO2 
 PCOD8188627
Probable space group: I M M 2
;
_chemical_formula_sum "Si O2"
_cell_formula_units_Z 64
_cell_length_a 20.664882
_cell_length_b 9.092913
_cell_length_c 19.571987
_cell_angle_alpha 90.000000
_cell_angle_beta 90.000000
_cell_angle_gamma 90.000000
_cell_volume 3677.654140
_symmetry_space_group_name_H-M "I M M 2"
_symmetry_group_IT_number 44
_symmetry_cell_setting 'orthorhombic'
loop_
_space_group_symop_operation_xyz
x,y,z
-x,-y,z
-x,y,z
x,-y,z
1/2+x,1/2+y,1/2+z
1/2-x,1/2-y,1/2+z
1/2-x,1/2+y,1/2+z
1/2+x,1/2-y,1/2+z
loop_
_atom_site_type_symbol
_atom_site_label
_atom_site_fract_x
_atom_site_fract_y
_atom_site_fract_z
Si Si1 0.269968 0.831685 0.872380
Si Si2 0.573814 0.830728 0.080621
Si Si3 0.760974 0.670556 0.221030
Si Si4 0.189178 0.672340 0.079350
Si Si5 0.072003 0.670654 0.991218
Si Si6 0.128002 0.671274 0.725847
Si Si7 0.619141 0.328212 0.361818
Si Si8 0.684894 0.325819 0.000887
O O1 0.293828 0.799633 0.794652
O O2 0.194145 0.793724 0.876851
O O3 0.282898 0.000000 0.892879
O O4 0.310277 0.728535 0.922838
O O5 0.500000 0.794546 0.061270
O O6 0.583288 0.796554 0.160648
O O7 0.619030 0.730962 0.033842
O O8 0.590911 0.000000 0.065622
O O9 0.738182 0.500000 0.217396
O O10 0.811183 0.708970 0.160270
O O11 0.699310 0.771541 0.208754
O O12 0.189950 0.500000 0.067391
O O13 0.123815 0.736637 0.045424
O O14 0.253352 0.737599 0.042931
O O15 0.086005 0.500000 0.975762
O O16 0.000000 0.692376 0.021761
O O17 0.076111 0.758660 0.920913
O O18 0.131508 0.500000 0.743862
O O19 0.097805 0.756233 0.790302
O O20 0.605160 0.500000 0.357404
O O21 0.683068 0.500000 0.001567
#
# Coordination Sequence:
#
# PCOD8188627 Si02
#       8
#     8   8   8   8   8   8   8   8
#     4   9  18  31  50  75 103 135 169 210 260 310
#     4  10  22  38  53  73 105 140 173 212 260 313
#     4   9  17  32  52  75 104 135 169 214 264 306
#     4   9  17  31  52  77 103 133 172 218 261 299
#     4  10  20  34  52  75 105 141 177 214 258 307
#     4  10  19  31  50  75 103 135 174 212 254 306
#     4  10  20  33  50  73 105 142 178 212 251 302
#     4  11  20  32  55  79 103 134 173 218 260 304
#
# _framework density 17.402397000000001
#
# number of rings (size 3 to 8) (size 9 to 14) (size 15 to 20)
#    0.000    2.250    2.500    1.875    0.000    3.500 
#    0.000    1.875    0.000    0.750    0.000    3.500 
#    0.000    0.000    0.000    0.000    0.000    0.000 
#
# Total GULP energy -396781.689099 kJ/mol
# GULP energy per Si atom -12399.427784 kJ/mol
# Density = 1.736279 g / cm^3
# Si number density = 17.402397 Si / 1000 Ang^3
#
#
#
# Elastic Constant Matrix: (Units=GPa)
#
#
# Indices 1 2 3 4 5 6 
#
# 1 92.0415 37.7965 60.1675 0.0000 0.0000 0.0000
# 2 37.7965 68.7211 44.3454 0.0000 0.0000 0.0000
# 3 60.1675 44.3454 122.7730 0.0000 0.0000 0.0000
# 4 0.0000 0.0000 0.0000 26.3169 0.0000 0.0000
# 5 0.0000 0.0000 0.0000 0.0000 24.8884 0.0000
# 6 0.0000 0.0000 0.0000 0.0000 0.0000 21.9808
#
#
#
# Elastic Compliance Matrix: (Units=1/GPa)
#
#
# Indices 1 2 3 4 5 6 
#
# 1 0.017343 -0.005286 -0.006590 0.000000 0.000000 0.000000
# 2 -0.005286 0.020585 -0.004845 0.000000 0.000000 0.000000
# 3 -0.006590 -0.004845 0.013125 0.000000 0.000000 0.000000
# 4 0.000000 0.000000 0.000000 0.037998 0.000000 0.000000
# 5 0.000000 0.000000 0.000000 0.000000 0.040179 0.000000
# 6 0.000000 0.000000 0.000000 0.000000 0.000000 0.045494
#
#
# Mechanical properties :
#
#
# Convention : Reuss Voigt Hill
#
# Bulk Modulus (GPa) = 56.78230 63.12827 59.95529
# Shear Modulus (GPa) = 23.36034 24.05229 23.70631
#
# Velocity S-wave (km/s) = 3.66780 3.72173 3.69486
# Velocity P-wave (km/s) = 7.11596 7.40424 7.26153
#
# Compressibility (1/GPa) = 0.01761112
#
# Stress axis : x y z
#
# Youngs Moduli (GPa) = 57.65884 48.57839 76.19262
#
# Poissons Ratio (x) = 0.25680 0.50212
# Poissons Ratio (y) = 0.30480 0.36913
# Poissons Ratio (z) = 0.37998 0.23535
#
# Static dielectric constant tensor:
#      x y z
#    x 3.107340 0.000000 0.000000 
#    y 0.000000 3.143580 0.000000 
#    z 0.000000 0.000000 3.367700 
# 
# 
# High freq. dielectric constant tensor:
#      x y z
#    x 1.644560 0.000000 0.000000 
#    y 0.000000 1.665340 0.000000 
#    z 0.000000 0.000000 1.677390 
# 
# From -- ./inp_files/20746.got.cif
#   From: 2010.03.12/outbox.cif.g09.slc.cpg/sg44_11_cif.got.tgz:20746.got - 2010.04.14 02:36:11.
