data_PCOD8188119
_publ_section_title
;
Structure prediction by ZEFSAII (Michael W. Deem and Ramdas Pophale) SiO2 
 PCOD8188119
Probable space group: I M M 2
;
_chemical_formula_sum "Si O2"
_cell_formula_units_Z 64
_cell_length_a 18.172911
_cell_length_b 9.062689
_cell_length_c 26.312351
_cell_angle_alpha 90.000000
_cell_angle_beta 90.000000
_cell_angle_gamma 90.000000
_cell_volume 4333.524242
_symmetry_space_group_name_H-M "I M M 2"
_symmetry_group_IT_number 44
_symmetry_cell_setting 'orthorhombic'
loop_
_space_group_symop_operation_xyz
x,y,z
-x,-y,z
-x,y,z
x,-y,z
1/2+x,1/2+y,1/2+z
1/2-x,1/2-y,1/2+z
1/2-x,1/2+y,1/2+z
1/2+x,1/2-y,1/2+z
loop_
_atom_site_type_symbol
_atom_site_label
_atom_site_fract_x
_atom_site_fract_y
_atom_site_fract_z
Si Si1 0.582153 0.326646 0.753450
Si Si2 0.084940 0.168933 0.545793
Si Si3 0.297975 0.837005 0.701175
Si Si4 0.085585 0.329531 0.745197
Si Si5 0.330725 0.325308 0.853646
Si Si6 0.414536 0.172175 0.943424
Si Si7 0.654460 0.674016 0.150992
Si Si8 0.704602 0.333904 0.303369
O O1 0.500000 0.260228 0.749796
O O2 0.580250 0.500000 0.748324
O O3 0.631106 0.267297 0.706546
O O4 0.616127 0.278303 0.807309
O O5 0.107254 0.275001 0.499685
O O6 0.132424 0.218832 0.594197
O O7 0.000000 0.188467 0.560615
O O8 0.101699 0.000000 0.530407
O O9 0.240866 0.782694 0.657801
O O10 0.252168 0.836878 0.752725
O O11 0.327628 0.000000 0.688628
O O12 0.109476 0.500000 0.743976
O O13 0.103268 0.260066 0.690470
O O14 0.128518 0.249380 0.791183
O O15 0.000000 0.310126 0.756857
O O16 0.321940 0.500000 0.857365
O O17 0.365769 0.264183 0.904729
O O18 0.250140 0.253695 0.846448
O O19 0.500000 0.206702 0.932711
O O20 0.396978 0.000000 0.937934
O O21 0.643112 0.500000 0.161249
O O22 0.688037 0.500000 0.322441
#
# Coordination Sequence:
#
# PCOD8188119 Si02
#       8
#     8   8   8   8   8   8   8   8
#     4   9  17  27  39  57  80 106 136 167 198 236
#     4   9  17  29  44  60  79 106 140 175 209 245
#     4   8  15  26  39  57  79 103 132 166 202 240
#     4  10  19  28  40  61  87 113 142 174 206 243
#     4  10  18  29  45  61  80 108 141 174 209 248
#     4  10  20  31  42  59  84 111 140 175 210 244
#     4   9  17  29  44  60  80 109 143 175 209 250
#     4   9  17  29  43  59  81 108 138 171 207 247
#
# _framework density 14.76858
#
# number of rings (size 3 to 8) (size 9 to 14) (size 15 to 20)
#    0.000    2.750    0.000    3.000    0.000    7.000 
#    0.000    1.250    0.000    0.000    0.000    0.000 
#    0.000    1.000    0.000    5.250    0.000    4.875 
#
# Total GULP energy -396741.777235 kJ/mol
# GULP energy per Si atom -12398.180539 kJ/mol
# Density = 1.473497 g / cm^3
# Si number density = 14.768580 Si / 1000 Ang^3
#
#
#
# Elastic Constant Matrix: (Units=GPa)
#
#
# Indices 1 2 3 4 5 6 
#
# 1 89.0679 45.2330 47.7614 0.0000 0.0000 0.0000
# 2 45.2330 73.7986 36.6063 0.0000 0.0000 0.0000
# 3 47.7614 36.6063 74.3743 0.0000 0.0000 0.0000
# 4 0.0000 0.0000 0.0000 22.1885 0.0000 0.0000
# 5 0.0000 0.0000 0.0000 0.0000 26.5677 0.0000
# 6 0.0000 0.0000 0.0000 0.0000 0.0000 25.4530
#
#
#
# Elastic Compliance Matrix: (Units=1/GPa)
#
#
# Indices 1 2 3 4 5 6 
#
# 1 0.020026 -0.007800 -0.009021 0.000000 0.000000 0.000000
# 2 -0.007800 0.020965 -0.005310 0.000000 0.000000 0.000000
# 3 -0.009021 -0.005310 0.021852 0.000000 0.000000 0.000000
# 4 0.000000 0.000000 0.000000 0.045068 0.000000 0.000000
# 5 0.000000 0.000000 0.000000 0.000000 0.037640 0.000000
# 6 0.000000 0.000000 0.000000 0.000000 0.000000 0.039288
#
#
# Mechanical properties :
#
#
# Convention : Reuss Voigt Hill
#
# Bulk Modulus (GPa) = 53.81742 55.16025 54.48883
# Shear Modulus (GPa) = 21.24994 22.01785 21.63389
#
# Velocity S-wave (km/s) = 3.79735 3.86535 3.83150
# Velocity P-wave (km/s) = 7.46633 7.57311 7.51991
#
# Compressibility (1/GPa) = 0.01858134
#
# Stress axis : x y z
#
# Youngs Moduli (GPa) = 49.93526 47.69885 45.76175
#
# Poissons Ratio (x) = 0.37203 0.41283
# Poissons Ratio (y) = 0.38947 0.24300
# Poissons Ratio (z) = 0.45048 0.25328
#
# Static dielectric constant tensor:
#      x y z
#    x 2.967920 0.000000 0.000000 
#    y 0.000000 2.974850 0.000000 
#    z 0.000000 0.000000 2.690590 
# 
# 
# High freq. dielectric constant tensor:
#      x y z
#    x 1.553470 0.000000 0.000000 
#    y 0.000000 1.575450 0.000000 
#    z 0.000000 0.000000 1.531080 
# 
# From -- ./inp_files/25228.got.cif
#   From: 2010.03.12/outbox.cif.g09.slc.cpg/sg44_13_cif.got.tgz:25228.got - 2010.04.14 02:36:11.
