data_PCOD8188872
_publ_section_title
;
Structure prediction by ZEFSAII (Michael W. Deem and Ramdas Pophale) SiO2 
 PCOD8188872
Probable space group: I M M 2
;
_chemical_formula_sum "Si O2"
_cell_formula_units_Z 56
_cell_length_a 22.657933
_cell_length_b 8.906190
_cell_length_c 14.299018
_cell_angle_alpha 90.000000
_cell_angle_beta 90.000000
_cell_angle_gamma 90.000000
_cell_volume 2885.482582
_symmetry_space_group_name_H-M "I M M 2"
_symmetry_group_IT_number 44
_symmetry_cell_setting 'orthorhombic'
loop_
_space_group_symop_operation_xyz
x,y,z
-x,-y,z
-x,y,z
x,-y,z
1/2+x,1/2+y,1/2+z
1/2-x,1/2-y,1/2+z
1/2-x,1/2+y,1/2+z
1/2+x,1/2-y,1/2+z
loop_
_atom_site_type_symbol
_atom_site_label
_atom_site_fract_x
_atom_site_fract_y
_atom_site_fract_z
Si Si1 0.215141 0.327604 0.414300
Si Si2 0.649559 0.327707 0.431147
Si Si3 0.115812 0.322914 0.109004
Si Si4 0.000000 0.321650 0.216877
Si Si5 0.343484 0.324187 0.220217
Si Si6 0.109738 0.674943 0.548672
Si Si7 0.500000 0.821609 0.927595
Si Si8 0.718074 0.677216 0.724015
O O1 0.208706 0.500000 0.380821
O O2 0.281234 0.294180 0.447698
O O3 0.171936 0.291461 0.499370
O O4 0.197031 0.224163 0.327303
O O5 0.634870 0.500000 0.454012
O O6 0.611379 0.222222 0.499587
O O7 0.632615 0.288432 0.324225
O O8 0.123012 0.500000 0.119681
O O9 0.172613 0.240343 0.149176
O O10 0.057760 0.263859 0.162467
O O11 0.000000 0.500000 0.219553
O O12 0.000000 0.255361 0.322344
O O13 0.332301 0.500000 0.208158
O O14 0.391712 0.264926 0.146274
O O15 0.282296 0.240871 0.201157
O O16 0.100926 0.500000 0.570324
O O17 0.057638 0.735955 0.482454
O O18 0.500000 0.000000 0.921106
O O19 0.720472 0.500000 0.714508
#
# Coordination Sequence:
#
# PCOD8188872 Si02
#       8
#     8   8   8   4   8   8   4   8
#     4   9  18  33  53  78 110 146 181 219 267 322
#     4   9  19  35  53  77 108 140 177 223 273 322
#     4  11  21  35  57  81 107 142 183 225 268 316
#     4   9  20  38  58  81 108 140 179 219 262 315
#     4  10  21  37  56  78 108 144 181 223 270 322
#     4  10  19  33  56  82 109 144 184 225 268 316
#     4   9  18  34  56  81 110 144 179 217 264 317
#     4  11  21  33  53  82 114 144 177 220 270 325
#
# _framework density 19.407499999999999
#
# number of rings (size 3 to 8) (size 9 to 14) (size 15 to 20)
#    0.000    2.143    0.000    4.714    0.000    6.857 
#    0.000    2.500    0.000    6.000    0.000    0.000 
#    0.000    0.000    0.000    0.000    0.000    0.000 
#
# Total GULP energy -347266.842399 kJ/mol
# GULP energy per Si atom -12402.387229 kJ/mol
# Density = 1.936333 g / cm^3
# Si number density = 19.407500 Si / 1000 Ang^3
#
#
#
# Elastic Constant Matrix: (Units=GPa)
#
#
# Indices 1 2 3 4 5 6 
#
# 1 67.3748 32.3413 70.1917 0.0000 0.0000 0.0000
# 2 32.3413 84.3115 56.6984 0.0000 0.0000 0.0000
# 3 70.1917 56.6984 158.3287 0.0000 0.0000 0.0000
# 4 0.0000 0.0000 0.0000 38.3394 0.0000 0.0000
# 5 0.0000 0.0000 0.0000 0.0000 31.3940 0.0000
# 6 0.0000 0.0000 0.0000 0.0000 0.0000 16.8970
#
#
#
# Elastic Compliance Matrix: (Units=1/GPa)
#
#
# Indices 1 2 3 4 5 6 
#
# 1 0.028212 -0.003176 -0.011370 0.000000 0.000000 0.000000
# 2 -0.003176 0.015981 -0.004315 0.000000 0.000000 0.000000
# 3 -0.011370 -0.004315 0.012902 0.000000 0.000000 0.000000
# 4 0.000000 0.000000 0.000000 0.026083 0.000000 0.000000
# 5 0.000000 0.000000 0.000000 0.000000 0.031853 0.000000
# 6 0.000000 0.000000 0.000000 0.000000 0.000000 0.059182
#
#
# Mechanical properties :
#
#
# Convention : Reuss Voigt Hill
#
# Bulk Modulus (GPa) = 51.61731 69.83087 60.72409
# Shear Modulus (GPa) = 22.89460 27.37830 25.13645
#
# Velocity S-wave (km/s) = 3.43837 3.76001 3.60278
# Velocity P-wave (km/s) = 6.51287 7.41011 6.97593
#
# Compressibility (1/GPa) = 0.01937334
#
# Stress axis : x y z
#
# Youngs Moduli (GPa) = 35.44564 62.57564 77.50856
#
# Poissons Ratio (x) = 0.19873 0.88127
# Poissons Ratio (y) = 0.11257 0.33444
# Poissons Ratio (z) = 0.40302 0.27000
#
# Static dielectric constant tensor:
#      x y z
#    x 3.438140 0.000000 0.000000 
#    y 0.000000 3.346980 0.000000 
#    z 0.000000 0.000000 3.750700 
# 
# 
# High freq. dielectric constant tensor:
#      x y z
#    x 1.735710 0.000000 0.000000 
#    y 0.000000 1.737920 0.000000 
#    z 0.000000 0.000000 1.771380 
# 
# From -- ./inp_files/19226.got.cif
#   From: 2010.03.12/outbox.cif.g09.slc.cpg/sg44_10_cif.got.tgz:19226.got - 2010.04.14 02:36:11.
