data_PCOD8188981
_publ_section_title
;
Structure prediction by ZEFSAII (Michael W. Deem and Ramdas Pophale) SiO2 
 PCOD8188981
Probable space group: I M M 2
;
_chemical_formula_sum "Si O2"
_cell_formula_units_Z 56
_cell_length_a 8.801362
_cell_length_b 24.923028
_cell_length_c 14.300948
_cell_angle_alpha 90.000000
_cell_angle_beta 90.000000
_cell_angle_gamma 90.000000
_cell_volume 3137.007209
_symmetry_space_group_name_H-M "I M M 2"
_symmetry_group_IT_number 44
_symmetry_cell_setting 'orthorhombic'
loop_
_space_group_symop_operation_xyz
x,y,z
-x,-y,z
-x,y,z
x,-y,z
1/2+x,1/2+y,1/2+z
1/2-x,1/2-y,1/2+z
1/2-x,1/2+y,1/2+z
1/2+x,1/2-y,1/2+z
loop_
_atom_site_type_symbol
_atom_site_label
_atom_site_fract_x
_atom_site_fract_y
_atom_site_fract_z
Si Si1 0.678931 0.223522 0.428900
Si Si2 0.322552 0.165588 0.925101
Si Si3 0.177426 0.885430 0.755923
Si Si4 0.820225 0.000000 0.014944
Si Si5 0.321446 0.500000 0.304230
Si Si6 0.676186 0.311999 0.754192
Si Si7 0.679076 0.792208 0.639680
Si Si8 0.676067 0.612927 0.591006
O O1 0.500000 0.235103 0.427144
O O2 0.773533 0.275089 0.396202
O O3 0.726367 0.180439 0.349563
O O4 0.734165 0.206623 0.532006
O O5 0.500000 0.157939 0.906563
O O6 0.225998 0.125094 0.862194
O O7 0.277401 0.154003 0.031309
O O8 0.263860 0.847311 0.684457
O O9 0.000000 0.875469 0.742504
O O10 0.223882 0.947992 0.742360
O O11 0.765755 0.947744 0.073655
O O12 0.749218 0.000000 0.909768
O O13 0.000000 0.000000 0.010273
O O14 0.500000 0.500000 0.322032
O O15 0.500000 0.303674 0.779215
O O16 0.738044 0.260995 0.693342
O O17 0.699453 0.367680 0.697528
O O18 0.500000 0.792380 0.643700
O O19 0.500000 0.619791 0.561656
#
# Coordination Sequence:
#
# PCOD8188981 Si02
#       8
#     8   8   8   4   4   8   8   8
#     4  11  22  37  55  75 106 145 181 213 260 316
#     4  12  22  31  49  79 113 142 175 216 258 313
#     4  11  21  35  55  78 107 143 178 214 262 314
#     4   9  16  30  56  81 104 139 181 214 254 312
#     4   9  18  32  54  81 106 135 177 218 254 312
#     4  10  20  34  53  79 111 138 173 221 266 309
#     4  10  21  36  53  78 108 139 175 219 263 314
#     4  10  19  35  55  77 108 145 179 215 259 311
#
# _framework density 17.851409
#
# number of rings (size 3 to 8) (size 9 to 14) (size 15 to 20)
#    0.000    1.571    4.286    2.143    0.000    1.714 
#    0.000    2.500    0.000    0.857    0.000    4.000 
#    0.000    0.000    0.000    0.000    0.000    0.000 
#
# Total GULP energy -347119.370110 kJ/mol
# GULP energy per Si atom -12397.120361 kJ/mol
# Density = 1.781078 g / cm^3
# Si number density = 17.851409 Si / 1000 Ang^3
#
#
#
# Elastic Constant Matrix: (Units=GPa)
#
#
# Indices 1 2 3 4 5 6 
#
# 1 7.6593 10.1663 19.0681 0.0001 0.0000 0.0000
# 2 10.1663 90.4862 32.3132 0.0001 0.0000 0.0000
# 3 19.0681 32.3132 100.3029 0.0001 0.0000 0.0000
# 4 0.0001 0.0001 0.0001 28.3313 0.0000 0.0000
# 5 0.0000 0.0000 0.0000 0.0000 29.3295 0.0000
# 6 0.0000 0.0000 0.0000 0.0000 0.0000 18.8725
#
#
#
# Elastic Compliance Matrix: (Units=1/GPa)
#
#
# Indices 1 2 3 4 5 6 
#
# 1 0.260943 -0.013111 -0.045383 0.000000 0.000000 0.000000
# 2 -0.013111 0.013147 -0.001743 0.000000 0.000000 0.000000
# 3 -0.045383 -0.001743 0.019159 0.000000 0.000000 0.000000
# 4 0.000000 0.000000 0.000000 0.035297 0.000000 0.000000
# 5 0.000000 0.000000 0.000000 0.000000 0.034095 0.000000
# 6 0.000000 0.000000 0.000000 0.000000 0.000000 0.052987
#
#
# Mechanical properties :
#
#
# Convention : Reuss Voigt Hill
#
# Bulk Modulus (GPa) = 5.78785 35.72706 20.75746
# Shear Modulus (GPa) = 8.42185 24.43338 16.42762
#
# Velocity S-wave (km/s) = 2.17440 3.70362 3.03684
# Velocity P-wave (km/s) = 3.09084 6.19242 4.89384
#
# Compressibility (1/GPa) = 0.17277567
#
# Stress axis : x y z
#
# Youngs Moduli (GPa) = 3.83225 76.06385 52.19539
#
# Poissons Ratio (x) = 0.99727 2.36878
# Poissons Ratio (y) = 0.05024 0.09097
# Poissons Ratio (z) = 0.17392 0.13257
#
# Static dielectric constant tensor:
#      x y z
#    x 3.083830 0.000000 0.000000 
#    y 0.000000 3.452670 0.000000 
#    z 0.000000 0.000000 3.277370 
# 
# 
# High freq. dielectric constant tensor:
#      x y z
#    x 1.676150 0.000000 0.000000 
#    y 0.000000 1.679670 0.000000 
#    z 0.000000 0.000000 1.680900 
# 
# From -- ./inp_files/16547.got.cif
#   From: 2010.03.12/outbox.cif.g09.slc.cpg/sg44_9_cif.got.tgz:16547.got - 2010.04.14 02:36:11.
