data_PCOD8188278
_publ_section_title
;
Structure prediction by ZEFSAII (Michael W. Deem and Ramdas Pophale) SiO2 
 PCOD8188278
Probable space group: I M M 2
;
_chemical_formula_sum "Si O2"
_cell_formula_units_Z 48
_cell_length_a 16.742360
_cell_length_b 17.966314
_cell_length_c 8.897370
_cell_angle_alpha 90.000000
_cell_angle_beta 90.000000
_cell_angle_gamma 90.000000
_cell_volume 2676.315522
_symmetry_space_group_name_H-M "I M M 2"
_symmetry_group_IT_number 44
_symmetry_cell_setting 'orthorhombic'
loop_
_space_group_symop_operation_xyz
x,y,z
-x,-y,z
-x,y,z
x,-y,z
1/2+x,1/2+y,1/2+z
1/2-x,1/2-y,1/2+z
1/2-x,1/2+y,1/2+z
1/2+x,1/2-y,1/2+z
loop_
_atom_site_type_symbol
_atom_site_label
_atom_site_fract_x
_atom_site_fract_y
_atom_site_fract_z
Si Si1 0.409888 0.306199 0.334990
Si Si2 0.185987 0.167168 0.102511
Si Si3 0.253754 0.083785 0.361363
Si Si4 0.908917 0.725264 0.272709
Si Si5 0.910890 0.355685 0.978402
Si Si6 0.681392 0.718766 0.039319
O O1 0.500000 0.338571 0.343344
O O2 0.347215 0.355055 0.436556
O O3 0.406369 0.223067 0.396461
O O4 0.381966 0.305532 0.163931
O O5 0.233380 0.100358 0.185160
O O6 0.108247 0.194396 0.195548
O O7 0.241908 0.240777 0.107359
O O8 0.348158 0.089727 0.398000
O O9 0.205839 0.141986 0.461420
O O10 0.226133 0.000000 0.397285
O O11 0.855892 0.720742 0.423579
O O12 0.000000 0.724020 0.323964
O O13 0.891785 0.657279 0.156124
O O14 0.000000 0.389687 0.960326
#
# Coordination Sequence:
#
# PCOD8188278 Si02
#       6
#     8   8   8   8   8   8
#     4  10  18  31  57  83 105 134 182 231 270 314
#     4  10  18  33  53  76 106 142 183 222 262 314
#     4  11  22  35  53  80 112 145 179 224 277 320
#     4   9  17  29  51  79 107 134 175 224 265 310
#     4   9  17  32  52  80 109 141 175 211 265 328
#     4  11  18  32  55  83 108 138 180 228 267 317
#
# _framework density 17.935103999999999
#
# number of rings (size 3 to 8) (size 9 to 14) (size 15 to 20)
#    0.000    2.000    5.000    3.000    0.000    0.333 
#    0.000    0.833    0.000   19.000    0.000    0.000 
#    0.000    0.000    0.000    0.000    0.000    0.000 
#
# Total GULP energy -297394.437705 kJ/mol
# GULP energy per Si atom -12391.434904 kJ/mol
# Density = 1.789428 g / cm^3
# Si number density = 17.935104 Si / 1000 Ang^3
#
#
#
# Elastic Constant Matrix: (Units=GPa)
#
#
# Indices 1 2 3 4 5 6 
#
# 1 101.2142 29.3465 44.3807 0.0000 0.0000 0.0000
# 2 29.3465 67.4356 23.5106 0.0000 0.0000 0.0000
# 3 44.3807 23.5106 102.0363 0.0000 0.0000 0.0000
# 4 0.0000 0.0000 0.0000 13.1386 0.0000 0.0000
# 5 0.0000 0.0000 0.0000 0.0000 32.3161 0.0000
# 6 0.0000 0.0000 0.0000 0.0000 0.0000 12.4118
#
#
#
# Elastic Compliance Matrix: (Units=1/GPa)
#
#
# Indices 1 2 3 4 5 6 
#
# 1 0.013155 -0.004056 -0.004787 0.000000 0.000000 0.000000
# 2 -0.004056 0.017375 -0.002239 0.000000 0.000000 0.000000
# 3 -0.004787 -0.002239 0.012399 0.000000 0.000000 0.000000
# 4 0.000000 0.000000 0.000000 0.076112 0.000000 0.000000
# 5 0.000000 0.000000 0.000000 0.000000 0.030944 0.000000
# 6 0.000000 0.000000 0.000000 0.000000 0.000000 0.080568
#
#
# Mechanical properties :
#
#
# Convention : Reuss Voigt Hill
#
# Bulk Modulus (GPa) = 48.16116 51.68465 49.92291
# Shear Modulus (GPa) = 19.25753 23.13652 21.19702
#
# Velocity S-wave (km/s) = 3.28034 3.59557 3.44157
# Velocity P-wave (km/s) = 6.42330 6.79100 6.60971
#
# Compressibility (1/GPa) = 0.02076362
#
# Stress axis : x y z
#
# Youngs Moduli (GPa) = 76.01590 57.55509 80.65399
#
# Poissons Ratio (x) = 0.23343 0.38612
# Poissons Ratio (y) = 0.30830 0.18061
# Poissons Ratio (z) = 0.36391 0.12888
#
# Static dielectric constant tensor:
#      x y z
#    x 3.593700 0.000000 0.000000 
#    y 0.000000 2.721060 0.000000 
#    z 0.000000 0.000000 3.595190 
# 
# 
# High freq. dielectric constant tensor:
#      x y z
#    x 1.711070 0.000000 0.000000 
#    y 0.000000 1.621870 0.000000 
#    z 0.000000 0.000000 1.702450 
# 
# From -- ./inp_files/7136.got.cif
#   From: 2010.03.12/outbox.cif.g09.slc.cpg/sg44_4_cif.got.tgz:7136.got - 2010.04.14 02:36:11.
