data_PCOD8188406
_publ_section_title
;
Structure prediction by ZEFSAII (Michael W. Deem and Ramdas Pophale) SiO2 
 PCOD8188406
Probable space group: I M M 2
;
_chemical_formula_sum "Si O2"
_cell_formula_units_Z 56
_cell_length_a 9.044926
_cell_length_b 21.069161
_cell_length_c 14.311377
_cell_angle_alpha 90.000000
_cell_angle_beta 90.000000
_cell_angle_gamma 90.000000
_cell_volume 2727.304834
_symmetry_space_group_name_H-M "I M M 2"
_symmetry_group_IT_number 44
_symmetry_cell_setting 'orthorhombic'
loop_
_space_group_symop_operation_xyz
x,y,z
-x,-y,z
-x,y,z
x,-y,z
1/2+x,1/2+y,1/2+z
1/2-x,1/2-y,1/2+z
1/2-x,1/2+y,1/2+z
1/2+x,1/2-y,1/2+z
loop_
_atom_site_type_symbol
_atom_site_label
_atom_site_fract_x
_atom_site_fract_y
_atom_site_fract_z
Si Si1 0.334828 0.713101 0.429430
Si Si2 0.835679 0.929314 0.432240
Si Si3 0.668871 0.925329 0.613002
Si Si4 0.176939 0.858419 0.115353
Si Si5 0.333670 0.312973 0.811149
Si Si6 0.171749 0.500000 0.391592
Si Si7 0.174328 0.000000 0.083937
Si Si8 0.165813 0.103941 0.785107
O O1 0.500000 0.734736 0.456463
O O2 0.264890 0.676765 0.520204
O O3 0.247700 0.774125 0.392604
O O4 0.337330 0.669465 0.338740
O O5 0.715866 0.907799 0.508353
O O6 0.826911 0.886037 0.341427
O O7 0.000000 0.925908 0.477312
O O8 0.800462 0.000000 0.396341
O O9 0.500000 0.904658 0.627956
O O10 0.776278 0.884777 0.680097
O O11 0.692351 0.000000 0.632427
O O12 0.231594 0.816350 0.204868
O O13 0.236473 0.932057 0.123711
O O14 0.000000 0.861531 0.112134
O O15 0.500000 0.286354 0.807245
O O16 0.283908 0.500000 0.476356
O O17 0.208055 0.439030 0.330478
O O18 0.000000 0.500000 0.421411
O O19 0.000000 0.000000 0.094184
O O20 0.000000 0.073930 0.785044
#
# Coordination Sequence:
#
# PCOD8188406 Si02
#       8
#     8   8   8   8   8   4   4   8
#     4  10  22  40  59  83 116 156 200 241 294 364
#     4   9  19  36  57  83 114 150 193 242 299 361
#     4  10  20  33  52  82 116 150 191 239 289 342
#     4   9  19  37  63  91 116 150 203 254 301 356
#     4  10  22  39  61  89 117 150 196 250 304 358
#     4  12  22  32  52  87 124 153 190 243 308 364
#     4  10  18  36  64  89 116 155 202 253 304 356
#     4  11  21  35  57  83 115 157 202 245 295 356
#
# _framework density 20.533090999999999
#
# number of rings (size 3 to 8) (size 9 to 14) (size 15 to 20)
#    0.000    2.000    2.143    1.500    1.000    3.429 
#    0.000    4.286    0.000    0.000    0.000    0.000 
#    0.000    0.000    0.000    0.000    0.000    0.000 
#
# Total GULP energy -346939.698014 kJ/mol
# GULP energy per Si atom -12390.703501 kJ/mol
# Density = 2.048636 g / cm^3
# Si number density = 20.533091 Si / 1000 Ang^3
#
#
#
# Elastic Constant Matrix: (Units=GPa)
#
#
# Indices 1 2 3 4 5 6 
#
# 1 54.9646 22.0795 26.8577 0.0000 0.0000 0.0000
# 2 22.0795 84.4253 42.4933 0.0001 0.0000 0.0000
# 3 26.8577 42.4933 103.8218 0.0003 0.0000 0.0000
# 4 0.0000 0.0001 0.0003 60.2105 0.0000 0.0000
# 5 0.0000 0.0000 0.0000 0.0000 24.7134 0.0000
# 6 0.0000 0.0000 0.0000 0.0000 0.0000 25.8723
#
#
#
# Elastic Compliance Matrix: (Units=1/GPa)
#
#
# Indices 1 2 3 4 5 6 
#
# 1 0.021653 -0.003581 -0.004136 0.000000 0.000000 0.000000
# 2 -0.003581 0.015510 -0.005422 0.000000 0.000000 0.000000
# 3 -0.004136 -0.005422 0.012921 0.000000 0.000000 0.000000
# 4 0.000000 0.000000 0.000000 0.016608 0.000000 0.000000
# 5 0.000000 0.000000 0.000000 0.000000 0.040464 0.000000
# 6 0.000000 0.000000 0.000000 0.000000 0.000000 0.038651
#
#
# Mechanical properties :
#
#
# Convention : Reuss Voigt Hill
#
# Bulk Modulus (GPa) = 42.00495 47.34139 44.67317
# Shear Modulus (GPa) = 27.77456 32.27797 30.02627
#
# Velocity S-wave (km/s) = 3.68186 3.96914 3.82820
# Velocity P-wave (km/s) = 6.21099 6.64166 6.42993
#
# Compressibility (1/GPa) = 0.02380672
#
# Stress axis : x y z
#
# Youngs Moduli (GPa) = 46.18304 64.47321 77.39446
#
# Poissons Ratio (x) = 0.23090 0.32007
# Poissons Ratio (y) = 0.16540 0.41962
# Poissons Ratio (z) = 0.19100 0.34956
#
# Static dielectric constant tensor:
#      x y z
#    x 3.560720 0.000000 0.000000 
#    y 0.000000 3.594030 0.000000 
#    z 0.000000 0.000000 3.757750 
# 
# 
# High freq. dielectric constant tensor:
#      x y z
#    x 1.774160 0.000000 0.000000 
#    y 0.000000 1.791070 0.000000 
#    z 0.000000 0.000000 1.808390 
# 
# From -- ./inp_files/16515.got.cif
#   From: 2010.03.12/outbox.cif.g09.slc.cpg/sg44_9_cif.got.tgz:16515.got - 2010.04.14 02:36:11.
