data_PCOD8188816
_publ_section_title
;
Structure prediction by ZEFSAII (Michael W. Deem and Ramdas Pophale) SiO2 
 PCOD8188816
Probable space group: I M M 2
;
_chemical_formula_sum "Si O2"
_cell_formula_units_Z 64
_cell_length_a 8.779175
_cell_length_b 19.780266
_cell_length_c 20.783174
_cell_angle_alpha 90.000000
_cell_angle_beta 90.000000
_cell_angle_gamma 90.000000
_cell_volume 3609.089959
_symmetry_space_group_name_H-M "I M M 2"
_symmetry_group_IT_number 44
_symmetry_cell_setting 'orthorhombic'
loop_
_space_group_symop_operation_xyz
x,y,z
-x,-y,z
-x,y,z
x,-y,z
1/2+x,1/2+y,1/2+z
1/2-x,1/2-y,1/2+z
1/2-x,1/2+y,1/2+z
1/2+x,1/2-y,1/2+z
loop_
_atom_site_type_symbol
_atom_site_label
_atom_site_fract_x
_atom_site_fract_y
_atom_site_fract_z
Si Si1 0.819513 0.211207 0.568280
Si Si2 0.323197 0.576714 0.252995
Si Si3 0.819174 0.073875 0.509954
Si Si4 0.819557 0.212967 0.949978
Si Si5 0.180165 0.073090 0.365379
Si Si6 0.319617 0.283611 0.826468
Si Si7 0.678862 0.795826 0.700369
Si Si8 0.319712 0.426830 0.397763
O O1 0.757846 0.135028 0.553998
O O2 0.760796 0.261441 0.513813
O O3 0.754976 0.235258 0.636692
O O4 0.000000 0.214195 0.569397
O O5 0.500000 0.597059 0.248111
O O6 0.298937 0.500000 0.228895
O O7 0.228005 0.626263 0.207498
O O8 0.259079 0.585259 0.325377
O O9 0.756247 0.084416 0.437593
O O10 0.000000 0.076891 0.509054
O O11 0.765361 0.000000 0.536203
O O12 0.765590 0.252570 0.887229
O O13 0.768135 0.134293 0.943471
O O14 0.000000 0.220489 0.956485
O O15 0.228106 0.136896 0.321355
O O16 0.000000 0.069680 0.369333
O O17 0.240749 0.000000 0.338496
O O18 0.500000 0.274892 0.836974
O O19 0.263461 0.247511 0.761505
O O20 0.500000 0.790172 0.692664
O O21 0.500000 0.429690 0.392488
O O22 0.259331 0.500000 0.423654
#
# Coordination Sequence:
#
# PCOD8188816 Si02
#       8
#     8   8   8   8   8   8   8   8
#     4  11  22  36  53  72 103 142 180 214 257 315
#     4   9  17  32  53  75 102 140 182 213 249 313
#     4   8  14  26  47  73  96 124 167 210 241 285
#     4  11  20  32  55  81 105 132 170 218 263 306
#     4   8  13  25  49  77  99 122 161 209 250 294
#     4  10  19  33  53  77 104 134 168 211 260 310
#     4  11  23  35  49  74 109 140 174 221 268 307
#     4   8  15  29  51  78 104 131 168 213 256 305
#
# _framework density 17.733001999999999
#
# number of rings (size 3 to 8) (size 9 to 14) (size 15 to 20)
#    0.000    2.500    2.500    2.625    0.000    1.250 
#    0.000    1.250    0.000    4.500    0.000    3.500 
#    0.000    0.000    0.000    0.000    0.000    0.000 
#
# Total GULP energy -396580.583701 kJ/mol
# GULP energy per Si atom -12393.143241 kJ/mol
# Density = 1.769264 g / cm^3
# Si number density = 17.733002 Si / 1000 Ang^3
#
#
#
# Elastic Constant Matrix: (Units=GPa)
#
#
# Indices 1 2 3 4 5 6 
#
# 1 41.0981 28.4876 31.4989 0.0000 0.0000 0.0000
# 2 28.4876 126.6235 63.2296 0.0000 0.0000 0.0000
# 3 31.4989 63.2296 113.9239 0.0000 0.0000 0.0000
# 4 0.0000 0.0000 0.0000 18.3356 0.0000 0.0000
# 5 0.0000 0.0000 0.0000 0.0000 25.2655 0.0000
# 6 0.0000 0.0000 0.0000 0.0000 0.0000 21.2974
#
#
#
# Elastic Compliance Matrix: (Units=1/GPa)
#
#
# Indices 1 2 3 4 5 6 
#
# 1 0.032190 -0.003870 -0.006752 0.000000 0.000000 0.000000
# 2 -0.003870 0.011391 -0.005252 0.000000 0.000000 0.000000
# 3 -0.006752 -0.005252 0.013560 0.000000 0.000000 0.000000
# 4 0.000000 0.000000 0.000000 0.054539 0.000000 0.000000
# 5 0.000000 0.000000 0.000000 0.000000 0.039580 0.000000
# 6 0.000000 0.000000 0.000000 0.000000 0.000000 0.046954
#
#
# Mechanical properties :
#
#
# Convention : Reuss Voigt Hill
#
# Bulk Modulus (GPa) = 39.38339 58.67528 49.02933
# Shear Modulus (GPa) = 20.97096 23.54167 22.25631
#
# Velocity S-wave (km/s) = 3.44262 3.64753 3.54655
# Velocity P-wave (km/s) = 6.16924 7.13437 6.66929
#
# Compressibility (1/GPa) = 0.02539142
#
# Stress axis : x y z
#
# Youngs Moduli (GPa) = 31.06572 87.79065 73.74872
#
# Poissons Ratio (x) = 0.33978 0.49795
# Poissons Ratio (y) = 0.12024 0.38732
# Poissons Ratio (z) = 0.20976 0.46107
#
# Static dielectric constant tensor:
#      x y z
#    x 2.954960 0.000000 0.000000 
#    y 0.000000 3.949740 0.000000 
#    z 0.000000 0.000000 3.180580 
# 
# 
# High freq. dielectric constant tensor:
#      x y z
#    x 1.653890 0.000000 0.000000 
#    y 0.000000 1.697060 0.000000 
#    z 0.000000 0.000000 1.661110 
# 
# From -- ./inp_files/23429.got.cif
#   From: 2010.03.12/outbox.cif.g09.slc.cpg/sg44_12_cif.got.tgz:23429.got - 2010.04.14 02:36:11.
