data_PCOD8188420
_publ_section_title
;
Structure prediction by ZEFSAII (Michael W. Deem and Ramdas Pophale) SiO2 
 PCOD8188420
Probable space group: I M M 2
;
_chemical_formula_sum "Si O2"
_cell_formula_units_Z 64
_cell_length_a 9.160612
_cell_length_b 13.689480
_cell_length_c 33.899133
_cell_angle_alpha 90.000000
_cell_angle_beta 90.000000
_cell_angle_gamma 90.000000
_cell_volume 4251.087375
_symmetry_space_group_name_H-M "I M M 2"
_symmetry_group_IT_number 44
_symmetry_cell_setting 'orthorhombic'
loop_
_space_group_symop_operation_xyz
x,y,z
-x,-y,z
-x,y,z
x,-y,z
1/2+x,1/2+y,1/2+z
1/2-x,1/2-y,1/2+z
1/2-x,1/2+y,1/2+z
1/2+x,1/2-y,1/2+z
loop_
_atom_site_type_symbol
_atom_site_label
_atom_site_fract_x
_atom_site_fract_y
_atom_site_fract_z
Si Si1 0.335248 0.616363 0.463520
Si Si2 0.830508 0.612424 0.386390
Si Si3 0.169545 0.610827 0.771143
Si Si4 0.664698 0.116217 0.039268
Si Si5 0.167006 0.294615 0.688439
Si Si6 0.167704 0.110138 0.736630
Si Si7 0.828217 0.287075 0.305470
Si Si8 0.328933 0.387037 0.617251
O O1 0.500000 0.656440 0.465203
O O2 0.332728 0.500000 0.464798
O O3 0.260179 0.653387 0.423399
O O4 0.247048 0.658750 0.500930
O O5 0.791544 0.500000 0.377285
O O6 0.785668 0.676153 0.348784
O O7 0.000000 0.623468 0.396896
O O8 0.218494 0.500000 0.778801
O O9 0.201648 0.637098 0.725803
O O10 0.261678 0.679443 0.800105
O O11 0.000000 0.627059 0.780577
O O12 0.500000 0.157249 0.040028
O O13 0.748764 0.151995 0.078194
O O14 0.664427 0.000000 0.037553
O O15 0.199236 0.182054 0.699970
O O16 0.275534 0.322913 0.653736
O O17 0.000000 0.309256 0.674502
O O18 0.265890 0.136514 0.773979
O O19 0.000000 0.122862 0.750012
O O20 0.202317 0.000000 0.722867
O O21 0.000000 0.282071 0.299381
O O22 0.500000 0.372001 0.611170
O O23 0.289992 0.500000 0.625360
#
# Coordination Sequence:
#
# PCOD8188420 Si02
#       8
#     8   8   8   8   8   8   8   8
#     4   9  16  25  38  57  80 106 137 171 204 239
#     4   9  17  28  40  56  82 114 143 170 203 245
#     4   9  18  32  47  61  81 111 144 177 213 254
#     4   9  16  26  40  56  77 108 140 167 200 243
#     4   9  17  29  44  61  80 105 139 174 208 248
#     4   9  18  32  47  61  81 111 144 177 213 253
#     4  10  19  29  43  64  87 110 140 178 215 251
#     4  10  19  28  39  58  84 111 139 172 206 241
#
# _framework density 15.054971
#
# number of rings (size 3 to 8) (size 9 to 14) (size 15 to 20)
#    0.000    2.750    0.000    3.000    0.000    8.250 
#    0.000    1.250    0.000    0.000    0.000    0.000 
#    0.000    1.000    0.000    5.250    0.000    4.250 
#
# Total GULP energy -396807.159789 kJ/mol
# GULP energy per Si atom -12400.223743 kJ/mol
# Density = 1.502071 g / cm^3
# Si number density = 15.054971 Si / 1000 Ang^3
#
#
#
# Elastic Constant Matrix: (Units=GPa)
#
#
# Indices 1 2 3 4 5 6 
#
# 1 94.8183 37.1693 70.8174 0.0000 0.0000 0.0000
# 2 37.1693 77.9419 47.0160 0.0000 0.0000 0.0000
# 3 70.8174 47.0160 122.0296 0.0000 0.0000 0.0000
# 4 0.0000 0.0000 0.0000 16.9368 0.0000 0.0000
# 5 0.0000 0.0000 0.0000 0.0000 31.6310 0.0000
# 6 0.0000 0.0000 0.0000 0.0000 0.0000 17.9319
#
#
#
# Elastic Compliance Matrix: (Units=1/GPa)
#
#
# Indices 1 2 3 4 5 6 
#
# 1 0.019198 -0.003172 -0.009919 0.000000 0.000000 0.000000
# 2 -0.003172 0.017239 -0.004801 0.000000 0.000000 0.000000
# 3 -0.009919 -0.004801 0.015801 0.000000 0.000000 0.000000
# 4 0.000000 0.000000 0.000000 0.059043 0.000000 0.000000
# 5 0.000000 0.000000 0.000000 0.000000 0.031615 0.000000
# 6 0.000000 0.000000 0.000000 0.000000 0.000000 0.055767
#
#
# Mechanical properties :
#
#
# Convention : Reuss Voigt Hill
#
# Bulk Modulus (GPa) = 60.77703 67.19944 63.98824
# Shear Modulus (GPa) = 20.83931 22.61910 21.72921
#
# Velocity S-wave (km/s) = 3.72454 3.88033 3.80323
# Velocity P-wave (km/s) = 7.67815 8.05040 7.86648
#
# Compressibility (1/GPa) = 0.01645358
#
# Stress axis : x y z
#
# Youngs Moduli (GPa) = 52.08776 58.00874 63.28724
#
# Poissons Ratio (x) = 0.18400 0.62777
# Poissons Ratio (y) = 0.16522 0.30385
# Poissons Ratio (z) = 0.51667 0.27850
#
# Static dielectric constant tensor:
#      x y z
#    x 2.986890 0.000000 0.000000 
#    y 0.000000 2.715570 0.000000 
#    z 0.000000 0.000000 2.880880 
# 
# 
# High freq. dielectric constant tensor:
#      x y z
#    x 1.588190 0.000000 0.000000 
#    y 0.000000 1.532730 0.000000 
#    z 0.000000 0.000000 1.572900 
# 
# From -- ./inp_files/27281.got.cif
#   From: 2010.03.12/outbox.cif.g09.slc.cpg/sg44_14_cif.got.tgz:27281.got - 2010.04.14 02:36:11.
