data_PCOD8188272
_publ_section_title
;
Structure prediction by ZEFSAII (Michael W. Deem and Ramdas Pophale) SiO2 
 PCOD8188272
Probable space group: I M M 2
;
_chemical_formula_sum "Si O2"
_cell_formula_units_Z 64
_cell_length_a 33.145175
_cell_length_b 8.835256
_cell_length_c 11.714760
_cell_angle_alpha 90.000000
_cell_angle_beta 90.000000
_cell_angle_gamma 90.000000
_cell_volume 3430.621852
_symmetry_space_group_name_H-M "I M M 2"
_symmetry_group_IT_number 44
_symmetry_cell_setting 'orthorhombic'
loop_
_space_group_symop_operation_xyz
x,y,z
-x,-y,z
-x,y,z
x,-y,z
1/2+x,1/2+y,1/2+z
1/2-x,1/2-y,1/2+z
1/2-x,1/2+y,1/2+z
1/2+x,1/2-y,1/2+z
loop_
_atom_site_type_symbol
_atom_site_label
_atom_site_fract_x
_atom_site_fract_y
_atom_site_fract_z
Si Si1 0.391625 0.324134 0.680380
Si Si2 0.353171 0.821947 0.474478
Si Si3 0.374402 0.320999 0.233947
Si Si4 0.310806 0.825196 0.069373
Si Si5 0.545308 0.319909 0.112067
Si Si6 0.545084 0.678794 0.857554
Si Si7 0.228385 0.330416 0.102896
Si Si8 0.324719 0.168902 0.808777
O O1 0.397615 0.500000 0.652942
O O2 0.387770 0.237070 0.560537
O O3 0.427856 0.253308 0.755947
O O4 0.352541 0.299245 0.757781
O O5 0.360764 0.750961 0.351979
O O6 0.308984 0.776541 0.522678
O O7 0.357252 0.000000 0.464891
O O8 0.374377 0.500000 0.247311
O O9 0.342130 0.276219 0.138526
O O10 0.419455 0.262904 0.197746
O O11 0.264769 0.785971 0.095853
O O12 0.318432 0.000000 0.099474
O O13 0.316277 0.787756 0.937528
O O14 0.500000 0.263380 0.148796
O O15 0.544800 0.500000 0.108879
O O16 0.555853 0.258652 0.984376
O O17 0.500000 0.725743 0.826278
O O18 0.551177 0.500000 0.859642
O O19 0.241748 0.500000 0.066161
O O20 0.216322 0.330314 0.236028
O O21 0.344302 0.000000 0.798265
#
# Coordination Sequence:
#
# PCOD8188272 Si02
#       8
#     8   8   8   8   8   8   8   8
#     4  10  18  31  55  82 104 135 180 223 268 322
#     4  10  22  40  57  75 107 148 185 227 280 331
#     4  11  22  36  57  84 111 144 188 235 279 331
#     4  11  23  36  54  81 111 143 178 222 275 328
#     4   8  15  30  53  82 114 145 180 228 281 325
#     4   8  14  26  48  80 114 140 169 219 276 325
#     4   9  20  38  56  75 100 137 182 228 272 319
#     4   9  20  37  53  73 105 141 173 214 269 320
#
# _framework density 18.655508999999999
#
# number of rings (size 3 to 8) (size 9 to 14) (size 15 to 20)
#    0.000    2.500    0.000    3.750    1.750    4.500 
#    0.000    0.625    0.000    6.750    0.000    8.750 
#    0.000    0.000    0.000    0.000    0.000    0.000 
#
# Total GULP energy -396623.015611 kJ/mol
# GULP energy per Si atom -12394.469238 kJ/mol
# Density = 1.861305 g / cm^3
# Si number density = 18.655509 Si / 1000 Ang^3
#
#
#
# Elastic Constant Matrix: (Units=GPa)
#
#
# Indices 1 2 3 4 5 6 
#
# 1 100.8275 28.1025 60.9673 0.0000 0.0000 0.0000
# 2 28.1025 47.7791 32.4686 0.0000 0.0000 0.0000
# 3 60.9673 32.4686 134.7814 0.0000 0.0000 0.0000
# 4 0.0000 0.0000 0.0000 28.6073 0.0000 0.0000
# 5 0.0000 0.0000 0.0000 0.0000 18.9803 0.0000
# 6 0.0000 0.0000 0.0000 0.0000 0.0000 16.1500
#
#
#
# Elastic Compliance Matrix: (Units=1/GPa)
#
#
# Indices 1 2 3 4 5 6 
#
# 1 0.014546 -0.004884 -0.005403 0.000000 0.000000 0.000000
# 2 -0.004884 0.026666 -0.004215 0.000000 0.000000 0.000000
# 3 -0.005403 -0.004215 0.010879 0.000000 0.000000 0.000000
# 4 0.000000 0.000000 0.000000 0.034956 0.000000 0.000000
# 5 0.000000 0.000000 0.000000 0.000000 0.052686 0.000000
# 6 0.000000 0.000000 0.000000 0.000000 0.000000 0.061919
#
#
# Mechanical properties :
#
#
# Convention : Reuss Voigt Hill
#
# Bulk Modulus (GPa) = 43.31317 58.49609 50.90463
# Shear Modulus (GPa) = 20.97724 23.53749 22.25736
#
# Velocity S-wave (km/s) = 3.35692 3.55588 3.45783
# Velocity P-wave (km/s) = 6.18813 6.94860 6.57937
#
# Compressibility (1/GPa) = 0.02308767
#
# Stress axis : x y z
#
# Youngs Moduli (GPa) = 68.74519 37.50043 91.92076
#
# Poissons Ratio (x) = 0.18315 0.49669
# Poissons Ratio (y) = 0.33575 0.38742
# Poissons Ratio (z) = 0.37146 0.15805
#
# Static dielectric constant tensor:
#      x y z
#    x 3.555890 0.000000 0.000000 
#    y 0.000000 3.228290 0.000000 
#    z 0.000000 0.000000 3.678870 
# 
# 
# High freq. dielectric constant tensor:
#      x y z
#    x 1.719630 0.000000 0.000000 
#    y 0.000000 1.704930 0.000000 
#    z 0.000000 0.000000 1.729170 
# 
# From -- ./inp_files/15051.got.cif
#   From: 2010.03.12/outbox.cif.g09.slc.cpg/sg44_8_cif.got.tgz:15051.got - 2010.04.14 02:36:11.
