data_PCOD8188688
_publ_section_title
;
Structure prediction by ZEFSAII (Michael W. Deem and Ramdas Pophale) SiO2 
 PCOD8188688
Probable space group: I M M 2
;
_chemical_formula_sum "Si O2"
_cell_formula_units_Z 64
_cell_length_a 8.916199
_cell_length_b 28.555528
_cell_length_c 13.359147
_cell_angle_alpha 90.000000
_cell_angle_beta 90.000000
_cell_angle_gamma 90.000000
_cell_volume 3401.329270
_symmetry_space_group_name_H-M "I M M 2"
_symmetry_group_IT_number 44
_symmetry_cell_setting 'orthorhombic'
loop_
_space_group_symop_operation_xyz
x,y,z
-x,-y,z
-x,y,z
x,-y,z
1/2+x,1/2+y,1/2+z
1/2-x,1/2-y,1/2+z
1/2-x,1/2+y,1/2+z
1/2+x,1/2-y,1/2+z
loop_
_atom_site_type_symbol
_atom_site_label
_atom_site_fract_x
_atom_site_fract_y
_atom_site_fract_z
Si Si1 0.174994 0.894840 0.877570
Si Si2 0.163586 0.708086 0.584518
Si Si3 0.170551 0.212515 0.274234
Si Si4 0.827185 0.444717 0.973027
Si Si5 0.325389 0.554604 0.177455
Si Si6 0.176037 0.895164 0.285893
Si Si7 0.828217 0.786780 0.895573
Si Si8 0.834495 0.598446 0.579212
O O1 0.236649 0.919569 0.776830
O O2 0.208729 0.839780 0.862911
O O3 0.000000 0.904887 0.890107
O O4 0.250382 0.917435 0.977139
O O5 0.303233 0.717317 0.656555
O O6 0.215823 0.730908 0.481438
O O7 0.146877 0.653312 0.570084
O O8 0.000000 0.728895 0.616291
O O9 0.210542 0.159579 0.306586
O O10 0.293552 0.249346 0.310908
O O11 0.000000 0.225911 0.301518
O O12 0.805901 0.500000 0.965395
O O13 0.741169 0.422710 0.879691
O O14 0.000000 0.429596 0.967909
O O15 0.759986 0.426590 0.078619
O O16 0.500000 0.565600 0.161288
O O17 0.294421 0.500000 0.193075
O O18 0.246828 0.914149 0.181774
O O19 0.000000 0.904149 0.277461
O O20 0.000000 0.783229 0.929675
O O21 0.000000 0.574857 0.583637
#
# Coordination Sequence:
#
# PCOD8188688 Si02
#       8
#     8   8   8   8   8   8   8   8
#     4   9  18  33  53  78 106 138 178 221 265 319
#     4   9  17  31  50  70  95 131 171 211 256 310
#     4  10  20  34  51  74 102 135 175 218 262 314
#     4  10  21  37  57  81 109 140 176 221 272 324
#     4   9  18  35  58  80 105 141 182 221 265 318
#     4  10  20  35  56  79 104 138 179 221 265 320
#     4  10  19  32  50  73 102 137 173 215 265 316
#     4   9  17  30  52  78 104 136 171 212 261 313
#
# _framework density 18.816174
#
# number of rings (size 3 to 8) (size 9 to 14) (size 15 to 20)
#    0.000    2.500    0.000    2.250    0.000    6.250 
#    2.250    0.625    0.000    2.250    0.000    0.000 
#    0.000    0.000    0.000    0.000    0.000    0.000 
#
# Total GULP energy -396568.598952 kJ/mol
# GULP energy per Si atom -12392.768717 kJ/mol
# Density = 1.877335 g / cm^3
# Si number density = 18.816174 Si / 1000 Ang^3
#
#
#
# Elastic Constant Matrix: (Units=GPa)
#
#
# Indices 1 2 3 4 5 6 
#
# 1 100.1810 31.8235 64.5901 0.0005 0.0000 -0.0001
# 2 31.8235 37.9640 41.3906 0.0012 0.0000 -0.0001
# 3 64.5901 41.3906 153.3564 0.0036 -0.0005 0.0001
# 4 0.0005 0.0012 0.0036 20.4254 0.0000 -0.0003
# 5 0.0000 0.0000 -0.0005 0.0000 35.3954 0.0004
# 6 -0.0001 -0.0001 0.0001 -0.0003 0.0004 20.3375
#
#
#
# Elastic Compliance Matrix: (Units=1/GPa)
#
#
# Indices 1 2 3 4 5 6 
#
# 1 0.015326 -0.008232 -0.004233 0.000001 0.000000 0.000000
# 2 -0.008232 0.041745 -0.007800 -0.000001 0.000000 0.000000
# 3 -0.004233 -0.007800 0.010409 -0.000001 0.000000 0.000000
# 4 0.000001 -0.000001 -0.000001 0.048959 0.000000 0.000001
# 5 0.000000 0.000000 0.000000 0.000000 0.028252 -0.000001
# 6 0.000000 0.000000 0.000000 0.000001 -0.000001 0.049170
#
#
# Mechanical properties :
#
#
# Convention : Reuss Voigt Hill
#
# Bulk Modulus (GPa) = 37.10563 63.01221 50.05892
# Shear Modulus (GPa) = 20.54448 25.47815 23.01132
#
# Velocity S-wave (km/s) = 3.30790 3.68374 3.50087
# Velocity P-wave (km/s) = 5.86110 7.18709 6.55770
#
# Compressibility (1/GPa) = 0.02695009
#
# Stress axis : x y z
#
# Youngs Moduli (GPa) = 65.24771 23.95501 96.07206
#
# Poissons Ratio (x) = 0.19720 0.40670
# Poissons Ratio (y) = 0.53711 0.74934
# Poissons Ratio (z) = 0.27621 0.18684
#
# Static dielectric constant tensor:
#      x y z
#    x 3.612400 0.000000 0.000000 
#    y 0.000000 3.190550 0.000000 
#    z 0.000000 0.000000 3.588040 
# 
# 
# High freq. dielectric constant tensor:
#      x y z
#    x 1.741040 0.000000 0.000000 
#    y 0.000000 1.696560 0.000000 
#    z 0.000000 0.000000 1.740620 
# 
# From -- ./inp_files/11468.got.cif
#   From: 2010.03.12/outbox.cif.g09.slc.cpg/sg44_6_cif.got.tgz:11468.got - 2010.04.14 02:36:11.
