data_PCOD8188139
_publ_section_title
;
Structure prediction by ZEFSAII (Michael W. Deem and Ramdas Pophale) SiO2 
 PCOD8188139
Probable space group: I M M 2
;
_chemical_formula_sum "Si O2"
_cell_formula_units_Z 56
_cell_length_a 17.020428
_cell_length_b 13.268953
_cell_length_c 14.181434
_cell_angle_alpha 90.000000
_cell_angle_beta 90.000000
_cell_angle_gamma 90.000000
_cell_volume 3202.781274
_symmetry_space_group_name_H-M "I M M 2"
_symmetry_group_IT_number 44
_symmetry_cell_setting 'orthorhombic'
loop_
_space_group_symop_operation_xyz
x,y,z
-x,-y,z
-x,y,z
x,-y,z
1/2+x,1/2+y,1/2+z
1/2-x,1/2-y,1/2+z
1/2-x,1/2+y,1/2+z
1/2+x,1/2-y,1/2+z
loop_
_atom_site_type_symbol
_atom_site_label
_atom_site_fract_x
_atom_site_fract_y
_atom_site_fract_z
Si Si1 0.779271 0.883931 0.144970
Si Si2 0.409320 0.619073 0.105667
Si Si3 0.267551 0.615353 0.436313
Si Si4 0.177092 0.386751 0.821884
Si Si5 0.590655 0.311705 0.317834
Si Si6 0.677947 0.696030 0.929343
Si Si7 0.086254 0.881711 0.269642
O O1 0.705353 0.870283 0.213897
O O2 0.854896 0.833214 0.193842
O O3 0.797892 0.000000 0.126030
O O4 0.770645 0.837001 0.041861
O O5 0.500000 0.644018 0.079766
O O6 0.393740 0.500000 0.098870
O O7 0.391021 0.656852 0.210982
O O8 0.347621 0.677391 0.037824
O O9 0.238337 0.500000 0.431643
O O10 0.351653 0.623937 0.384935
O O11 0.200275 0.689487 0.396816
O O12 0.143958 0.500000 0.834587
O O13 0.107336 0.306707 0.836476
O O14 0.248069 0.372813 0.896791
O O15 0.500000 0.335117 0.344099
O O16 0.600335 0.667168 0.871346
O O17 0.000000 0.856487 0.233568
O O18 0.101471 0.000000 0.281576
#
# Coordination Sequence:
#
# PCOD8188139 Si02
#       7
#     8   8   8   8   8   8   8
#     4   8  15  28  46  67  89 115 147 183 226 272
#     4  10  19  31  48  70  97 126 154 188 228 270
#     4  10  20  33  48  65  90 124 157 192 230 270
#     4   9  17  31  50  71  95 120 150 193 238 277
#     4  10  21  33  46  68  95 125 161 192 223 273
#     4  10  18  29  48  71  94 119 153 190 232 279
#     4   9  16  27  46  73  98 115 138 180 233 281
#
# _framework density 17.484802999999999
#
# number of rings (size 3 to 8) (size 9 to 14) (size 15 to 20)
#    0.000    2.571    0.000    3.857    0.000    2.857 
#    0.000    1.429    0.000    2.571    0.000    0.000 
#    0.000    0.000    0.000    0.000    0.000    0.000 
#
# Total GULP energy -346950.034205 kJ/mol
# GULP energy per Si atom -12391.072650 kJ/mol
# Density = 1.744501 g / cm^3
# Si number density = 17.484803 Si / 1000 Ang^3
#
#
#
# Elastic Constant Matrix: (Units=GPa)
#
#
# Indices 1 2 3 4 5 6 
#
# 1 50.9656 22.0725 10.3211 0.0000 0.0000 0.0000
# 2 22.0725 81.4786 4.6136 0.0000 0.0000 0.0000
# 3 10.3211 4.6136 55.5833 0.0000 0.0000 0.0000
# 4 0.0000 0.0000 0.0000 17.2789 0.0000 0.0000
# 5 0.0000 0.0000 0.0000 0.0000 17.3777 0.0000
# 6 0.0000 0.0000 0.0000 0.0000 0.0000 18.0007
#
#
#
# Elastic Compliance Matrix: (Units=1/GPa)
#
#
# Indices 1 2 3 4 5 6 
#
# 1 0.022989 -0.006014 -0.003770 0.000000 0.000000 0.000000
# 2 -0.006014 0.013905 -0.000037 0.000000 0.000000 0.000000
# 3 -0.003770 -0.000037 0.018694 0.000000 0.000000 0.000000
# 4 0.000000 0.000000 0.000000 0.057874 0.000000 0.000000
# 5 0.000000 0.000000 0.000000 0.000000 0.057545 0.000000
# 6 0.000000 0.000000 0.000000 0.000000 0.000000 0.055553
#
#
# Mechanical properties :
#
#
# Convention : Reuss Voigt Hill
#
# Bulk Modulus (GPa) = 27.82005 29.11578 28.46791
# Shear Modulus (GPa) = 19.36600 20.59948 19.98274
#
# Velocity S-wave (km/s) = 3.33166 3.43612 3.38429
# Velocity P-wave (km/s) = 5.54486 5.69480 5.62033
#
# Compressibility (1/GPa) = 0.03594530
#
# Stress axis : x y z
#
# Youngs Moduli (GPa) = 43.49873 71.91898 53.49289
#
# Poissons Ratio (x) = 0.43254 0.20165
# Poissons Ratio (y) = 0.26161 0.00200
# Poissons Ratio (z) = 0.16397 0.00269
#
# Static dielectric constant tensor:
#      x y z
#    x 3.117020 0.000000 0.000000 
#    y 0.000000 3.168340 0.000000 
#    z 0.000000 0.000000 3.462340 
# 
# 
# High freq. dielectric constant tensor:
#      x y z
#    x 1.658820 0.000000 0.000000 
#    y 0.000000 1.663850 0.000000 
#    z 0.000000 0.000000 1.677860 
# 
# From -- ./inp_files/18973.got.cif
#   From: 2010.03.12/outbox.cif.g09.slc.cpg/sg44_10_cif.got.tgz:18973.got - 2010.04.14 02:36:11.
