data_PCOD8188173
_publ_section_title
;
Structure prediction by ZEFSAII (Michael W. Deem and Ramdas Pophale) SiO2 
 PCOD8188173
Probable space group: I M M 2
;
_chemical_formula_sum "Si O2"
_cell_formula_units_Z 64
_cell_length_a 12.697074
_cell_length_b 13.506341
_cell_length_c 21.643635
_cell_angle_alpha 90.000000
_cell_angle_beta 90.000000
_cell_angle_gamma 90.000000
_cell_volume 3711.688851
_symmetry_space_group_name_H-M "I M M 2"
_symmetry_group_IT_number 44
_symmetry_cell_setting 'orthorhombic'
loop_
_space_group_symop_operation_xyz
x,y,z
-x,-y,z
-x,y,z
x,-y,z
1/2+x,1/2+y,1/2+z
1/2-x,1/2-y,1/2+z
1/2-x,1/2+y,1/2+z
1/2+x,1/2-y,1/2+z
loop_
_atom_site_type_symbol
_atom_site_label
_atom_site_fract_x
_atom_site_fract_y
_atom_site_fract_z
Si Si1 0.375496 0.113021 0.420050
Si Si2 0.619726 0.234330 0.300508
Si Si3 0.753273 0.882981 0.732283
Si Si4 0.687315 0.115405 0.186456
Si Si5 0.271349 0.780042 0.534424
Si Si6 0.380277 0.114111 0.050249
Si Si7 0.879082 0.244507 0.161380
Si Si8 0.114346 0.884340 0.615181
O O1 0.500000 0.111304 0.426819
O O2 0.340367 0.169585 0.358228
O O3 0.329440 0.175124 0.476338
O O4 0.332246 0.000000 0.419345
O O5 0.500000 0.272660 0.310782
O O6 0.699847 0.328287 0.293021
O O7 0.621624 0.163705 0.241305
O O8 0.642562 0.839712 0.706620
O O9 0.834593 0.848282 0.678993
O O10 0.743957 0.000000 0.744079
O O11 0.628444 0.141974 0.122622
O O12 0.807384 0.154227 0.185033
O O13 0.690844 0.000000 0.198521
O O14 0.208258 0.679484 0.515125
O O15 0.356025 0.765776 0.589224
O O16 0.183043 0.857114 0.556196
O O17 0.500000 0.135853 0.027910
O O18 0.351129 0.000000 0.038508
O O19 0.000000 0.214092 0.168490
O O20 0.000000 0.834051 0.608579
O O21 0.103350 0.000000 0.618437
#
# Coordination Sequence:
#
# PCOD8188173 Si02
#       8
#     8   8   8   8   8   8   8   8
#     4  10  21  35  50  69  94 125 159 193 229 273
#     4  10  19  31  49  72  97 124 154 189 231 280
#     4   9  18  31  48  72  99 124 152 191 238 284
#     4   9  17  29  48  74 100 125 153 189 237 288
#     4  10  18  30  47  67  95 129 163 195 229 273
#     4   9  17  29  48  75 102 125 152 192 242 290
#     4   9  18  30  46  70  97 125 159 197 235 276
#     4   9  16  26  44  72 100 122 148 188 239 287
#
# _framework density 17.242825
#
# number of rings (size 3 to 8) (size 9 to 14) (size 15 to 20)
#    0.000    2.625    0.000    3.000    0.000    3.000 
#    0.000    0.625    0.000    7.875    0.000    0.000 
#    0.000    0.000    0.000    0.000    0.000    0.000 
#
# Total GULP energy -396646.374156 kJ/mol
# GULP energy per Si atom -12395.199192 kJ/mol
# Density = 1.720358 g / cm^3
# Si number density = 17.242825 Si / 1000 Ang^3
#
#
#
# Elastic Constant Matrix: (Units=GPa)
#
#
# Indices 1 2 3 4 5 6 
#
# 1 65.2629 9.2947 4.0457 0.0000 0.0000 0.0000
# 2 9.2947 69.2275 27.9003 0.0000 0.0000 0.0000
# 3 4.0457 27.9003 54.1373 0.0000 0.0000 0.0000
# 4 0.0000 0.0000 0.0000 26.7394 0.0000 0.0000
# 5 0.0000 0.0000 0.0000 0.0000 20.7457 0.0000
# 6 0.0000 0.0000 0.0000 0.0000 0.0000 24.2826
#
#
#
# Elastic Compliance Matrix: (Units=1/GPa)
#
#
# Indices 1 2 3 4 5 6 
#
# 1 0.015622 -0.002053 -0.000109 0.000000 0.000000 0.000000
# 2 -0.002053 0.018502 -0.009382 0.000000 0.000000 0.000000
# 3 -0.000109 -0.009382 0.023315 0.000000 0.000000 0.000000
# 4 0.000000 0.000000 0.000000 0.037398 0.000000 0.000000
# 5 0.000000 0.000000 0.000000 0.000000 0.048203 0.000000
# 6 0.000000 0.000000 0.000000 0.000000 0.000000 0.041182
#
#
# Mechanical properties :
#
#
# Convention : Reuss Voigt Hill
#
# Bulk Modulus (GPa) = 29.11225 30.12323 29.61774
# Shear Modulus (GPa) = 22.85617 24.17936 23.51776
#
# Velocity S-wave (km/s) = 3.64476 3.74877 3.69713
# Velocity P-wave (km/s) = 5.88495 6.02044 5.95308
#
# Compressibility (1/GPa) = 0.03434981
#
# Stress axis : x y z
#
# Youngs Moduli (GPa) = 64.01290 54.04861 42.89147
#
# Poissons Ratio (x) = 0.11099 0.00468
# Poissons Ratio (y) = 0.13145 0.40239
# Poissons Ratio (z) = 0.00699 0.50707
#
# Static dielectric constant tensor:
#      x y z
#    x 3.459080 0.000000 0.000000 
#    y 0.000000 3.411770 0.000000 
#    z 0.000000 0.000000 2.962660 
# 
# 
# High freq. dielectric constant tensor:
#      x y z
#    x 1.656720 0.000000 0.000000 
#    y 0.000000 1.679720 0.000000 
#    z 0.000000 0.000000 1.631990 
# 
# From -- ./inp_files/21455.got.cif
#   From: 2010.03.12/outbox.cif.g09.slc.cpg/sg44_11_cif.got.tgz:21455.got - 2010.04.14 02:36:11.
