data_PCOD8188717
_publ_section_title
;
Structure prediction by ZEFSAII (Michael W. Deem and Ramdas Pophale) SiO2 
 PCOD8188717
Probable space group: I M M 2
;
_chemical_formula_sum "Si O2"
_cell_formula_units_Z 64
_cell_length_a 18.426557
_cell_length_b 9.207360
_cell_length_c 20.754894
_cell_angle_alpha 90.000000
_cell_angle_beta 90.000000
_cell_angle_gamma 90.000000
_cell_volume 3521.274151
_symmetry_space_group_name_H-M "I M M 2"
_symmetry_group_IT_number 44
_symmetry_cell_setting 'orthorhombic'
loop_
_space_group_symop_operation_xyz
x,y,z
-x,-y,z
-x,y,z
x,-y,z
1/2+x,1/2+y,1/2+z
1/2-x,1/2-y,1/2+z
1/2-x,1/2+y,1/2+z
1/2+x,1/2-y,1/2+z
loop_
_atom_site_type_symbol
_atom_site_label
_atom_site_fract_x
_atom_site_fract_y
_atom_site_fract_z
Si Si1 0.581629 0.173412 0.554270
Si Si2 0.662363 0.831247 0.429237
Si Si3 0.820976 0.327036 0.169367
Si Si4 0.415084 0.830888 0.047542
Si Si5 0.342875 0.659735 0.307304
Si Si6 0.156700 0.172140 0.663546
Si Si7 0.331681 0.329733 0.934022
Si Si8 0.170393 0.662076 0.309706
O O1 0.500000 0.232233 0.558424
O O2 0.618189 0.233914 0.489316
O O3 0.625768 0.236103 0.615075
O O4 0.584289 0.000000 0.555027
O O5 0.629556 0.764578 0.363718
O O6 0.746582 0.796223 0.441084
O O7 0.648712 0.000000 0.422641
O O8 0.819509 0.500000 0.170554
O O9 0.739503 0.273532 0.153930
O O10 0.851410 0.275105 0.239197
O O11 0.500000 0.808768 0.035527
O O12 0.394629 0.760017 0.115672
O O13 0.393810 0.000000 0.047967
O O14 0.372339 0.750745 0.991098
O O15 0.374509 0.500000 0.321151
O O16 0.368699 0.711002 0.236426
O O17 0.256597 0.654299 0.308970
O O18 0.149942 0.000000 0.650306
O O19 0.348765 0.500000 0.937493
O O20 0.359524 0.268141 0.865322
O O21 0.138521 0.500000 0.321581
#
# Coordination Sequence:
#
# PCOD8188717 Si02
#       8
#     8   8   8   8   8   8   8   8
#     4   9  16  26  42  67  98 129 161 195 230 271
#     4   9  17  29  48  74 100 127 162 202 238 275
#     4   8  14  27  48  72  98 129 163 199 239 283
#     4  11  24  38  50  69  98 128 160 202 250 299
#     4   8  15  28  48  73  97 123 156 195 241 289
#     4   9  17  32  54  75  95 123 160 201 244 290
#     4  10  19  32  52  74  96 125 161 200 241 288
#     4   8  14  27  48  73 100 125 153 196 243 283
#
# _framework density 18.175238
#
# number of rings (size 3 to 8) (size 9 to 14) (size 15 to 20)
#    0.000    3.000    0.000    3.000    0.000    4.000 
#    0.000    3.125    0.000    5.625    0.000    0.000 
#    0.000    0.000    0.000    0.000    0.000    0.000 
#
# Total GULP energy -396650.472646 kJ/mol
# GULP energy per Si atom -12395.327270 kJ/mol
# Density = 1.813387 g / cm^3
# Si number density = 18.175238 Si / 1000 Ang^3
#
#
#
# Elastic Constant Matrix: (Units=GPa)
#
#
# Indices 1 2 3 4 5 6 
#
# 1 44.2586 25.0875 34.6055 0.0000 0.0000 0.0000
# 2 25.0875 64.0476 49.8350 0.0000 0.0000 0.0000
# 3 34.6055 49.8350 151.7834 0.0000 0.0000 0.0000
# 4 0.0000 0.0000 0.0000 30.9035 0.0000 0.0000
# 5 0.0000 0.0000 0.0000 0.0000 3.5088 0.0000
# 6 0.0000 0.0000 0.0000 0.0000 0.0000 16.4352
#
#
#
# Elastic Compliance Matrix: (Units=1/GPa)
#
#
# Indices 1 2 3 4 5 6 
#
# 1 0.030847 -0.008879 -0.004118 0.000000 0.000000 0.000000
# 2 -0.008879 0.023526 -0.005700 0.000000 0.000000 0.000000
# 3 -0.004118 -0.005700 0.009399 0.000000 0.000000 0.000000
# 4 0.000000 0.000000 0.000000 0.032359 0.000000 0.000000
# 5 0.000000 0.000000 0.000000 0.000000 0.284998 0.000000
# 6 0.000000 0.000000 0.000000 0.000000 0.000000 0.060845
#
#
# Mechanical properties :
#
#
# Convention : Reuss Voigt Hill
#
# Bulk Modulus (GPa) = 37.90925 53.23837 45.57381
# Shear Modulus (GPa) = 10.24255 20.20694 15.22474
#
# Velocity S-wave (km/s) = 2.37648 3.33796 2.89738
# Velocity P-wave (km/s) = 5.33227 6.64916 6.02679
#
# Compressibility (1/GPa) = 0.02637879
#
# Stress axis : x y z
#
# Youngs Moduli (GPa) = 32.41811 42.50533 106.39811
#
# Poissons Ratio (x) = 0.37740 0.43811
# Poissons Ratio (y) = 0.28783 0.60648
# Poissons Ratio (z) = 0.13349 0.24229
#
# Static dielectric constant tensor:
#      x y z
#    x 3.120920 0.000000 0.000000 
#    y 0.000000 3.177460 0.000000 
#    z 0.000000 0.000000 3.854120 
# 
# 
# High freq. dielectric constant tensor:
#      x y z
#    x 1.671360 0.000000 0.000000 
#    y 0.000000 1.673710 0.000000 
#    z 0.000000 0.000000 1.725920 
# 
# From -- ./inp_files/24369.got.cif
#   From: 2010.03.12/outbox.cif.g09.slc.cpg/sg44_13_cif.got.tgz:24369.got - 2010.04.14 02:36:11.
