data_PCOD8188349
_publ_section_title
;
Structure prediction by ZEFSAII (Michael W. Deem and Ramdas Pophale) SiO2 
 PCOD8188349
Probable space group: I M M 2
;
_chemical_formula_sum "Si O2"
_cell_formula_units_Z 64
_cell_length_a 24.001963
_cell_length_b 9.105061
_cell_length_c 15.488387
_cell_angle_alpha 90.000000
_cell_angle_beta 90.000000
_cell_angle_gamma 90.000000
_cell_volume 3384.821830
_symmetry_space_group_name_H-M "I M M 2"
_symmetry_group_IT_number 44
_symmetry_cell_setting 'orthorhombic'
loop_
_space_group_symop_operation_xyz
x,y,z
-x,-y,z
-x,y,z
x,-y,z
1/2+x,1/2+y,1/2+z
1/2-x,1/2-y,1/2+z
1/2-x,1/2+y,1/2+z
1/2+x,1/2-y,1/2+z
loop_
_atom_site_type_symbol
_atom_site_label
_atom_site_fract_x
_atom_site_fract_y
_atom_site_fract_z
Si Si1 0.935498 0.171800 0.046620
Si Si2 0.367628 0.673563 0.714213
Si Si3 0.133609 0.672697 0.708326
Si Si4 0.437433 0.824865 0.050320
Si Si5 0.867118 0.328068 0.387264
Si Si6 0.865221 0.672437 0.901048
Si Si7 0.750473 0.174216 0.146869
Si Si8 0.245151 0.171932 0.949968
O O1 0.908393 0.221239 0.136770
O O2 0.000000 0.214514 0.049151
O O3 0.925775 0.000000 0.031205
O O4 0.907074 0.255532 0.968058
O O5 0.368282 0.500000 0.727065
O O6 0.389199 0.747874 0.801729
O O7 0.305869 0.734989 0.693146
O O8 0.138328 0.500000 0.692637
O O9 0.090686 0.738014 0.637990
O O10 0.112162 0.707642 0.804646
O O11 0.195600 0.739297 0.693432
O O12 0.500000 0.762448 0.044738
O O13 0.437601 0.000000 0.052191
O O14 0.402666 0.768122 0.968088
O O15 0.876903 0.500000 0.375791
O O16 0.802391 0.291059 0.401605
O O17 0.862527 0.500000 0.918759
O O18 0.803300 0.736386 0.905227
O O19 0.751563 0.000000 0.150827
O O20 0.749837 0.225949 0.048102
O O21 0.230523 0.000000 0.945461
#
# Coordination Sequence:
#
# PCOD8188349 Si02
#       8
#     8   8   8   8   8   8   8   8
#     4  10  22  41  61  78 103 148 197 228 263 328
#     4  10  20  35  56  78 104 140 181 223 270 327
#     4   9  17  30  50  78 108 140 176 217 267 323
#     4   9  17  31  51  75 105 141 180 218 261 320
#     4  10  20  33  54  83 111 140 178 225 274 318
#     4  11  22  34  55  86 116 139 173 230 286 323
#     4   9  15  29  53  75 100 139 181 215 255 316
#     4  10  18  33  56  78 108 147 184 218 263 332
#
# _framework density 18.907937
#
# number of rings (size 3 to 8) (size 9 to 14) (size 15 to 20)
#    0.000    2.250    2.500    1.125    0.000    3.250 
#    0.000    1.250    0.000    2.250    0.000    0.000 
#    0.000    0.000    0.000    0.000    0.000    0.000 
#
# Total GULP energy -396792.231780 kJ/mol
# GULP energy per Si atom -12399.757243 kJ/mol
# Density = 1.886490 g / cm^3
# Si number density = 18.907937 Si / 1000 Ang^3
#
#
#
# Elastic Constant Matrix: (Units=GPa)
#
#
# Indices 1 2 3 4 5 6 
#
# 1 148.5815 37.5004 84.1527 0.0000 0.0000 0.0000
# 2 37.5004 31.8725 45.5748 0.0000 0.0000 0.0000
# 3 84.1527 45.5748 173.8361 0.0000 0.0000 0.0000
# 4 0.0000 0.0000 0.0000 26.1192 0.0000 0.0000
# 5 0.0000 0.0000 0.0000 0.0000 14.2572 0.0000
# 6 0.0000 0.0000 0.0000 0.0000 0.0000 11.4042
#
#
#
# Elastic Compliance Matrix: (Units=1/GPa)
#
#
# Indices 1 2 3 4 5 6 
#
# 1 0.010429 -0.008081 -0.002930 0.000000 0.000000 0.000000
# 2 -0.008081 0.056452 -0.010888 0.000000 0.000000 0.000000
# 3 -0.002930 -0.010888 0.010026 0.000000 0.000000 0.000000
# 4 0.000000 0.000000 0.000000 0.038286 0.000000 0.000000
# 5 0.000000 0.000000 0.000000 0.000000 0.070140 0.000000
# 6 0.000000 0.000000 0.000000 0.000000 0.000000 0.087687
#
#
# Mechanical properties :
#
#
# Convention : Reuss Voigt Hill
#
# Bulk Modulus (GPa) = 30.20390 76.52733 53.36561
# Shear Modulus (GPa) = 15.25063 22.82694 19.03878
#
# Velocity S-wave (km/s) = 2.84310 3.47834 3.17664
# Velocity P-wave (km/s) = 5.17557 7.52950 6.46065
#
# Compressibility (1/GPa) = 0.03310831
#
# Stress axis : x y z
#
# Youngs Moduli (GPa) = 95.88187 17.71410 99.74496
#
# Poissons Ratio (x) = 0.14315 0.29227
# Poissons Ratio (y) = 0.77484 1.08603
# Poissons Ratio (z) = 0.28095 0.19287
#
# Static dielectric constant tensor:
#      x y z
#    x 3.619740 0.000000 0.000000 
#    y 0.000000 2.988960 0.000000 
#    z 0.000000 0.000000 3.599720 
# 
# 
# High freq. dielectric constant tensor:
#      x y z
#    x 1.737860 0.000000 0.000000 
#    y 0.000000 1.686150 0.000000 
#    z 0.000000 0.000000 1.751070 
# 
# From -- ./inp_files/16779.got.cif
#   From: 2010.03.12/outbox.cif.g09.slc.cpg/sg44_9_cif.got.tgz:16779.got - 2010.04.14 02:36:11.
