data_PCOD8188422
_publ_section_title
;
Structure prediction by ZEFSAII (Michael W. Deem and Ramdas Pophale) SiO2 
 PCOD8188422
Probable space group: I M M 2
;
_chemical_formula_sum "Si O2"
_cell_formula_units_Z 64
_cell_length_a 9.191893
_cell_length_b 13.538732
_cell_length_c 34.015577
_cell_angle_alpha 90.000000
_cell_angle_beta 90.000000
_cell_angle_gamma 90.000000
_cell_volume 4233.122085
_symmetry_space_group_name_H-M "I M M 2"
_symmetry_group_IT_number 44
_symmetry_cell_setting 'orthorhombic'
loop_
_space_group_symop_operation_xyz
x,y,z
-x,-y,z
-x,y,z
x,-y,z
1/2+x,1/2+y,1/2+z
1/2-x,1/2-y,1/2+z
1/2-x,1/2+y,1/2+z
1/2+x,1/2-y,1/2+z
loop_
_atom_site_type_symbol
_atom_site_label
_atom_site_fract_x
_atom_site_fract_y
_atom_site_fract_z
Si Si1 0.831498 0.113606 0.422470
Si Si2 0.168160 0.616415 0.532791
Si Si3 0.329908 0.284131 0.461236
Si Si4 0.670091 0.284131 0.841508
Si Si5 0.168502 0.113606 0.880273
Si Si6 0.668159 0.883584 0.269952
Si Si7 0.836780 0.882747 0.194642
Si Si8 0.663220 0.617253 0.608101
O O1 0.734738 0.175995 0.452664
O O2 0.795470 0.143506 0.377787
O O3 0.000000 0.133864 0.431810
O O4 0.789448 0.000000 0.428213
O O5 0.194507 0.500000 0.528253
O O6 0.255517 0.671442 0.499246
O O7 0.226643 0.655944 0.574805
O O8 0.000000 0.644394 0.529550
O O9 0.500000 0.273847 0.469282
O O10 0.295468 0.356494 0.424956
O O11 0.500000 0.273844 0.833462
O O12 0.734740 0.175995 0.850079
O O13 0.744480 0.328561 0.803498
O O14 0.000000 0.133864 0.870934
O O15 0.210553 0.000000 0.874531
O O16 0.500000 0.855602 0.273195
O O17 0.726643 0.844056 0.227939
O O18 0.694501 0.000000 0.274490
O O19 0.787683 0.843932 0.151372
O O20 0.000000 0.845096 0.204081
O O21 0.835481 0.000000 0.194254
O O22 0.500000 0.654904 0.598663
O O23 0.664521 0.500000 0.608490
#
# Coordination Sequence:
#
# PCOD8188422 Si02
#       8
#     8   8   8   8   8   8   8   8
#     4   9  18  32  47  62  83 111 141 175 215 254
#     4  10  19  28  40  60  86 115 145 177 211 248
#     4  10  19  30  45  64  85 110 142 177 211 251
#     4  10  19  30  45  64  85 110 142 177 211 251
#     4   9  18  32  47  62  83 111 141 175 215 254
#     4  10  19  28  40  60  86 115 145 177 211 248
#     4   8  14  25  40  57  79 109 142 173 207 248
#     4   8  14  25  40  57  79 109 142 173 207 248
#
# _framework density 15.118865
#
# number of rings (size 3 to 8) (size 9 to 14) (size 15 to 20)
#    0.000    2.750    0.000    3.000    0.000    4.500 
#    0.000    2.500    0.000    0.000    0.000    0.000 
#    0.000    1.000    0.000   10.500    0.000    5.000 
#
# Total GULP energy -396744.677163 kJ/mol
# GULP energy per Si atom -12398.271161 kJ/mol
# Density = 1.508445 g / cm^3
# Si number density = 15.118865 Si / 1000 Ang^3
#
#
#
# Elastic Constant Matrix: (Units=GPa)
#
#
# Indices 1 2 3 4 5 6 
#
# 1 98.6826 47.6506 69.6903 0.0000 0.0000 0.0000
# 2 47.6506 61.3415 40.0445 0.0000 0.0000 0.0000
# 3 69.6903 40.0445 113.3503 0.0000 0.0000 0.0000
# 4 0.0000 0.0000 0.0000 17.6742 0.0000 0.0000
# 5 0.0000 0.0000 0.0000 0.0000 30.0000 0.0000
# 6 0.0000 0.0000 0.0000 0.0000 0.0000 21.6767
#
#
#
# Elastic Compliance Matrix: (Units=1/GPa)
#
#
# Indices 1 2 3 4 5 6 
#
# 1 0.022423 -0.010942 -0.009921 0.000000 0.000000 0.000000
# 2 -0.010942 0.026529 -0.002645 0.000000 0.000000 0.000000
# 3 -0.009921 -0.002645 0.015856 0.000000 0.000000 0.000000
# 4 0.000000 0.000000 0.000000 0.056580 0.000000 0.000000
# 5 0.000000 0.000000 0.000000 0.000000 0.033333 0.000000
# 6 0.000000 0.000000 0.000000 0.000000 0.000000 0.046133
#
#
# Mechanical properties :
#
#
# Convention : Reuss Voigt Hill
#
# Bulk Modulus (GPa) = 56.20208 65.34948 60.77578
# Shear Modulus (GPa) = 19.70066 21.60276 20.65171
#
# Velocity S-wave (km/s) = 3.61370 3.78413 3.69989
# Velocity P-wave (km/s) = 7.39364 7.90003 7.65103
#
# Compressibility (1/GPa) = 0.01779294
#
# Stress axis : x y z
#
# Youngs Moduli (GPa) = 44.59691 37.69527 63.06820
#
# Poissons Ratio (x) = 0.41247 0.62567
# Poissons Ratio (y) = 0.48799 0.16679
# Poissons Ratio (z) = 0.44243 0.09969
#
# Static dielectric constant tensor:
#      x y z
#    x 3.040950 0.000000 0.000000 
#    y 0.000000 2.633880 0.000000 
#    z 0.000000 0.000000 3.073720 
# 
# 
# High freq. dielectric constant tensor:
#      x y z
#    x 1.590550 0.000000 0.000000 
#    y 0.000000 1.533580 0.000000 
#    z 0.000000 0.000000 1.580250 
# 
# From -- ./inp_files/7689.got.cif
#   From: 2010.03.12/outbox.cif.g09.slc.cpg/sg44_4_cif.got.tgz:7689.got - 2010.04.14 02:36:11.
