data_PCOD8188086
_publ_section_title
;
Structure prediction by ZEFSAII (Michael W. Deem and Ramdas Pophale) SiO2 
 PCOD8188086
Probable space group: I M M 2
;
_chemical_formula_sum "Si O2"
_cell_formula_units_Z 64
_cell_length_a 8.943857
_cell_length_b 28.081272
_cell_length_c 14.712101
_cell_angle_alpha 90.000000
_cell_angle_beta 90.000000
_cell_angle_gamma 90.000000
_cell_volume 3695.015978
_symmetry_space_group_name_H-M "I M M 2"
_symmetry_group_IT_number 44
_symmetry_cell_setting 'orthorhombic'
loop_
_space_group_symop_operation_xyz
x,y,z
-x,-y,z
-x,y,z
x,-y,z
1/2+x,1/2+y,1/2+z
1/2-x,1/2-y,1/2+z
1/2-x,1/2+y,1/2+z
1/2+x,1/2-y,1/2+z
loop_
_atom_site_type_symbol
_atom_site_label
_atom_site_fract_x
_atom_site_fract_y
_atom_site_fract_z
Si Si1 0.327627 0.717853 0.829000
Si Si2 0.174867 0.054112 0.334605
Si Si3 0.323151 0.053699 0.147183
Si Si4 0.325140 0.363802 0.968213
Si Si5 0.821985 0.322757 0.134878
Si Si6 0.176507 0.276697 0.642291
Si Si7 0.173007 0.326357 0.335862
Si Si8 0.178037 0.636022 0.519554
O O1 0.500000 0.710035 0.799877
O O2 0.281065 0.681885 0.908280
O O3 0.222808 0.707766 0.743280
O O4 0.302135 0.771414 0.864250
O O5 0.256386 0.070614 0.242956
O O6 0.225735 0.088170 0.416773
O O7 0.000000 0.059766 0.316250
O O8 0.218116 0.000000 0.360724
O O9 0.500000 0.057588 0.156041
O O10 0.261988 0.087743 0.066798
O O11 0.271626 0.000000 0.124042
O O12 0.500000 0.364523 0.990394
O O13 0.235590 0.361573 0.062879
O O14 0.758006 0.271116 0.109410
O O15 0.759736 0.337019 0.235669
O O16 0.000000 0.320016 0.134233
O O17 0.231442 0.318567 0.576596
O O18 0.000000 0.268222 0.637456
O O19 0.243416 0.359018 0.416429
O O20 0.000000 0.338405 0.330115
O O21 0.000000 0.635225 0.516672
#
# Coordination Sequence:
#
# PCOD8188086 Si02
#       8
#     8   8   8   8   8   8   8   8
#     4   9  17  29  44  64  91 121 151 186 230 275
#     4   9  18  32  49  70  96 124 151 182 228 284
#     4   9  17  29  47  72  97 119 148 189 233 275
#     4  10  19  31  49  69  91 123 160 194 231 278
#     4  10  20  32  46  65  91 123 157 194 235 274
#     4  10  18  28  45  68  93 122 154 186 223 272
#     4   8  15  28  43  59  84 118 151 183 222 267
#     4   9  16  27  45  66  89 120 154 185 224 274
#
# _framework density 17.320630000000001
#
# number of rings (size 3 to 8) (size 9 to 14) (size 15 to 20)
#    0.000    2.750    0.000    3.000    0.000    3.000 
#    0.000    0.625    0.000    6.750    0.000    1.750 
#    0.000    0.000    0.000    0.000    0.000    0.000 
#
# Total GULP energy -396681.673441 kJ/mol
# GULP energy per Si atom -12396.302295 kJ/mol
# Density = 1.728121 g / cm^3
# Si number density = 17.320630 Si / 1000 Ang^3
#
#
#
# Elastic Constant Matrix: (Units=GPa)
#
#
# Indices 1 2 3 4 5 6 
#
# 1 33.0495 22.8550 28.0057 0.0001 0.0000 0.0000
# 2 22.8550 96.7188 81.3488 0.0001 0.0000 0.0000
# 3 28.0057 81.3488 134.0722 0.0002 0.0001 0.0000
# 4 0.0001 0.0001 0.0002 27.7416 0.0000 0.0000
# 5 0.0000 0.0000 0.0001 0.0000 23.6199 0.0000
# 6 0.0000 0.0000 0.0000 0.0000 0.0000 17.0709
#
#
#
# Elastic Compliance Matrix: (Units=1/GPa)
#
#
# Indices 1 2 3 4 5 6 
#
# 1 0.037773 -0.004676 -0.005053 0.000000 0.000000 0.000000
# 2 -0.004676 0.021694 -0.012186 0.000000 0.000000 0.000000
# 3 -0.005053 -0.012186 0.015908 0.000000 0.000000 0.000000
# 4 0.000000 0.000000 0.000000 0.036047 0.000000 0.000000
# 5 0.000000 0.000000 0.000000 0.000000 0.042337 0.000000
# 6 0.000000 0.000000 0.000000 0.000000 0.000000 0.058579
#
#
# Mechanical properties :
#
#
# Convention : Reuss Voigt Hill
#
# Bulk Modulus (GPa) = 31.70083 58.69551 45.19817
# Shear Modulus (GPa) = 18.74885 22.46187 20.60536
#
# Velocity S-wave (km/s) = 3.29364 3.60506 3.45286
# Velocity P-wave (km/s) = 5.72767 7.16169 6.48444
#
# Compressibility (1/GPa) = 0.03154492
#
# Stress axis : x y z
#
# Youngs Moduli (GPa) = 26.47387 46.09657 62.86112
#
# Poissons Ratio (x) = 0.21554 0.31765
# Poissons Ratio (y) = 0.12379 0.76602
# Poissons Ratio (z) = 0.13378 0.56173
#
# Static dielectric constant tensor:
#      x y z
#    x 2.987060 0.000000 0.000000 
#    y 0.000000 3.295650 0.000000 
#    z 0.000000 0.000000 3.505100 
# 
# 
# High freq. dielectric constant tensor:
#      x y z
#    x 1.643980 0.000000 0.000000 
#    y 0.000000 1.652430 0.000000 
#    z 0.000000 0.000000 1.672390 
# 
# From -- ./inp_files/17166.got.cif
#   From: 2010.03.12/outbox.cif.g09.slc.cpg/sg44_9_cif.got.tgz:17166.got - 2010.04.14 02:36:11.
