data_PCOD8188426
_publ_section_title
;
Structure prediction by ZEFSAII (Michael W. Deem and Ramdas Pophale) SiO2 
 PCOD8188426
Probable space group: I M M 2
;
_chemical_formula_sum "Si O2"
_cell_formula_units_Z 64
_cell_length_a 9.170109
_cell_length_b 13.549348
_cell_length_c 34.115196
_cell_angle_alpha 90.000000
_cell_angle_beta 90.000000
_cell_angle_gamma 90.000000
_cell_volume 4238.778921
_symmetry_space_group_name_H-M "I M M 2"
_symmetry_group_IT_number 44
_symmetry_cell_setting 'orthorhombic'
loop_
_space_group_symop_operation_xyz
x,y,z
-x,-y,z
-x,y,z
x,-y,z
1/2+x,1/2+y,1/2+z
1/2-x,1/2-y,1/2+z
1/2-x,1/2+y,1/2+z
1/2+x,1/2-y,1/2+z
loop_
_atom_site_type_symbol
_atom_site_label
_atom_site_fract_x
_atom_site_fract_y
_atom_site_fract_z
Si Si1 0.828723 0.385207 0.803300
Si Si2 0.833845 0.389500 0.660269
Si Si3 0.829781 0.200598 0.230349
Si Si4 0.172154 0.612740 0.041490
Si Si5 0.162885 0.117216 0.380796
Si Si6 0.166551 0.610583 0.182684
Si Si7 0.669490 0.298570 0.112478
Si Si8 0.661821 0.117244 0.454192
O O1 0.793471 0.500000 0.795182
O O2 0.756706 0.318756 0.770011
O O3 0.761544 0.349405 0.844368
O O4 0.000000 0.365636 0.804477
O O5 0.809452 0.500000 0.644201
O O6 0.726859 0.372393 0.696651
O O7 0.799389 0.314436 0.624997
O O8 0.000000 0.374291 0.675162
O O9 0.797532 0.313529 0.217687
O O10 0.000000 0.180227 0.237256
O O11 0.220644 0.500000 0.049485
O O12 0.253327 0.685178 0.071097
O O13 0.000000 0.623061 0.047025
O O14 0.217978 0.646060 0.997592
O O15 0.231036 0.160636 0.420989
O O16 0.000000 0.160109 0.375838
O O17 0.158528 0.000000 0.383196
O O18 0.193663 0.500000 0.198602
O O19 0.267702 0.628022 0.145199
O O20 0.000000 0.625222 0.168702
O O21 0.500000 0.321439 0.107837
O O22 0.500000 0.160638 0.446985
O O23 0.653556 0.000000 0.451275
#
# Coordination Sequence:
#
# PCOD8188426 Si02
#       8
#     8   8   8   8   8   8   8   8
#     4  10  19  29  41  57  81 113 141 164 196 240
#     4   9  18  32  45  56  77 109 138 165 204 250
#     4  10  19  29  43  63  82 101 133 174 205 233
#     4   9  17  28  41  57  81 113 141 164 196 240
#     4   9  16  25  38  57  80 105 134 168 201 231
#     4   9  18  32  46  58  78 109 137 162 201 249
#     4  10  19  28  41  62  82 102 135 175 206 234
#     4   8  14  25  39  54  75 106 139 163 189 234
#
# _framework density 15.098687
#
# number of rings (size 3 to 8) (size 9 to 14) (size 15 to 20)
#    0.000    2.750    0.000    3.000    0.000    7.500 
#    0.000    1.250    0.000    0.000    0.000    0.000 
#    0.000    1.000    0.000    9.750    0.000    3.000 
#
# Total GULP energy -396755.185202 kJ/mol
# GULP energy per Si atom -12398.599538 kJ/mol
# Density = 1.506432 g / cm^3
# Si number density = 15.098687 Si / 1000 Ang^3
#
#
#
# Elastic Constant Matrix: (Units=GPa)
#
#
# Indices 1 2 3 4 5 6 
#
# 1 89.1063 32.7160 68.0259 0.0000 0.0000 0.0000
# 2 32.7160 67.0426 43.0891 0.0000 0.0000 0.0000
# 3 68.0259 43.0891 131.9332 0.0000 0.0000 0.0000
# 4 0.0000 0.0000 0.0000 17.5254 0.0000 0.0000
# 5 0.0000 0.0000 0.0000 0.0000 31.8713 0.0000
# 6 0.0000 0.0000 0.0000 0.0000 0.0000 16.9980
#
#
#
# Elastic Compliance Matrix: (Units=1/GPa)
#
#
# Indices 1 2 3 4 5 6 
#
# 1 0.019249 -0.003815 -0.008679 0.000000 0.000000 0.000000
# 2 -0.003815 0.019635 -0.004446 0.000000 0.000000 0.000000
# 3 -0.008679 -0.004446 0.013506 0.000000 0.000000 0.000000
# 4 0.000000 0.000000 0.000000 0.057060 0.000000 0.000000
# 5 0.000000 0.000000 0.000000 0.000000 0.031376 0.000000
# 6 0.000000 0.000000 0.000000 0.000000 0.000000 0.058830
#
#
# Mechanical properties :
#
#
# Convention : Reuss Voigt Hill
#
# Bulk Modulus (GPa) = 54.02215 63.97158 58.99686
# Shear Modulus (GPa) = 20.85883 22.89569 21.87726
#
# Velocity S-wave (km/s) = 3.72089 3.89833 3.81064
# Velocity P-wave (km/s) = 7.37001 7.91982 7.64986
#
# Compressibility (1/GPa) = 0.01851093
#
# Stress axis : x y z
#
# Youngs Moduli (GPa) = 51.95065 50.92976 74.03889
#
# Poissons Ratio (x) = 0.19431 0.64258
# Poissons Ratio (y) = 0.19821 0.32914
# Poissons Ratio (z) = 0.45088 0.22641
#
# Static dielectric constant tensor:
#      x y z
#    x 3.072630 0.000000 0.000000 
#    y 0.000000 2.645310 0.000000 
#    z 0.000000 0.000000 2.956460 
# 
# 
# High freq. dielectric constant tensor:
#      x y z
#    x 1.591060 0.000000 0.000000 
#    y 0.000000 1.531430 0.000000 
#    z 0.000000 0.000000 1.575850 
# 
# From -- ./inp_files/27301.got.cif
#   From: 2010.03.12/outbox.cif.g09.slc.cpg/sg44_14_cif.got.tgz:27301.got - 2010.04.14 02:36:11.
