data_PCOD8188073
_publ_section_title
;
Structure prediction by ZEFSAII (Michael W. Deem and Ramdas Pophale) SiO2 
 PCOD8188073
Probable space group: I M M 2
;
_chemical_formula_sum "Si O2"
_cell_formula_units_Z 48
_cell_length_a 23.785077
_cell_length_b 9.046708
_cell_length_c 13.895344
_cell_angle_alpha 90.000000
_cell_angle_beta 90.000000
_cell_angle_gamma 90.000000
_cell_volume 2989.953522
_symmetry_space_group_name_H-M "I M M 2"
_symmetry_group_IT_number 44
_symmetry_cell_setting 'orthorhombic'
loop_
_space_group_symop_operation_xyz
x,y,z
-x,-y,z
-x,y,z
x,-y,z
1/2+x,1/2+y,1/2+z
1/2-x,1/2-y,1/2+z
1/2-x,1/2+y,1/2+z
1/2+x,1/2-y,1/2+z
loop_
_atom_site_type_symbol
_atom_site_label
_atom_site_fract_x
_atom_site_fract_y
_atom_site_fract_z
Si Si1 0.273011 0.323866 0.190020
Si Si2 0.834192 0.325458 0.526312
Si Si3 0.270410 0.672443 0.404008
Si Si4 0.669970 0.672819 0.590849
Si Si5 0.062712 0.827105 0.204284
Si Si6 0.436654 0.172700 0.900188
O O1 0.274935 0.500000 0.183704
O O2 0.323861 0.257236 0.126998
O O3 0.281811 0.260766 0.298508
O O4 0.212657 0.267852 0.154224
O O5 0.828464 0.500000 0.544030
O O6 0.787789 0.268263 0.449716
O O7 0.895546 0.280526 0.486922
O O8 0.263587 0.500000 0.388888
O O9 0.321452 0.710016 0.477595
O O10 0.682778 0.500000 0.609711
O O11 0.606281 0.715331 0.619729
O O12 0.082470 0.751463 0.302608
O O13 0.000000 0.773446 0.174048
O O14 0.063029 0.000000 0.223987
O O15 0.500000 0.218367 0.929632
O O16 0.431512 0.000000 0.879708
#
# Coordination Sequence:
#
# PCOD8188073 Si02
#       6
#     8   8   8   8   8   8
#     4  10  18  28  44  65  86 109 142 180 215 251
#     4   9  17  30  45  62  87 115 141 171 212 259
#     4   8  15  27  42  59  82 112 139 168 208 252
#     4   9  17  30  45  61  86 117 143 170 212 261
#     4   9  17  28  44  67  91 114 143 180 217 252
#     4   9  17  29  46  66  88 117 148 175 210 259
#
# _framework density 16.053761999999999
#
# number of rings (size 3 to 8) (size 9 to 14) (size 15 to 20)
#    0.000    3.000    0.000    2.500    0.000    2.667 
#    0.000    8.333    0.000    1.000    0.000    2.333 
#    0.000    0.000    0.000    0.000    0.000    0.000 
#
# Total GULP energy -297475.930780 kJ/mol
# GULP energy per Si atom -12394.830449 kJ/mol
# Density = 1.601722 g / cm^3
# Si number density = 16.053762 Si / 1000 Ang^3
#
#
#
# Elastic Constant Matrix: (Units=GPa)
#
#
# Indices 1 2 3 4 5 6 
#
# 1 104.6392 27.1722 69.2830 0.0000 0.0000 0.0000
# 2 27.1722 33.4813 34.1697 0.0000 0.0000 0.0000
# 3 69.2830 34.1697 145.5179 0.0000 0.0000 0.0000
# 4 0.0000 0.0000 0.0000 22.3386 0.0000 0.0000
# 5 0.0000 0.0000 0.0000 0.0000 27.4678 0.0000
# 6 0.0000 0.0000 0.0000 0.0000 0.0000 18.9354
#
#
#
# Elastic Compliance Matrix: (Units=1/GPa)
#
#
# Indices 1 2 3 4 5 6 
#
# 1 0.014929 -0.006394 -0.005607 0.000000 0.000000 0.000000
# 2 -0.006394 0.042019 -0.006822 0.000000 0.000000 0.000000
# 3 -0.005607 -0.006822 0.011143 0.000000 0.000000 0.000000
# 4 0.000000 0.000000 0.000000 0.044766 0.000000 0.000000
# 5 0.000000 0.000000 0.000000 0.000000 0.036406 0.000000
# 6 0.000000 0.000000 0.000000 0.000000 0.000000 0.052811
#
#
# Mechanical properties :
#
#
# Convention : Reuss Voigt Hill
#
# Bulk Modulus (GPa) = 32.84534 60.54311 46.69423
# Shear Modulus (GPa) = 20.01042 23.94926 21.97984
#
# Velocity S-wave (km/s) = 3.53436 3.86659 3.70420
# Velocity P-wave (km/s) = 6.09587 7.59794 6.88797
#
# Compressibility (1/GPa) = 0.03044571
#
# Stress axis : x y z
#
# Youngs Moduli (GPa) = 66.98266 23.79853 89.73961
#
# Poissons Ratio (x) = 0.15217 0.50313
# Poissons Ratio (y) = 0.42830 0.61224
# Poissons Ratio (z) = 0.37554 0.16236
#
# Static dielectric constant tensor:
#      x y z
#    x 3.173690 0.000000 0.000000 
#    y 0.000000 2.892340 0.000000 
#    z 0.000000 0.000000 3.218800 
# 
# 
# High freq. dielectric constant tensor:
#      x y z
#    x 1.608440 0.000000 0.000000 
#    y 0.000000 1.603270 0.000000 
#    z 0.000000 0.000000 1.609490 
# 
# From -- ./inp_files/11157.got.cif
#   From: 2010.03.12/outbox.cif.g09.slc.cpg/sg44_6_cif.got.tgz:11157.got - 2010.04.14 02:36:11.
