data_PCOD8188338
_publ_section_title
;
Structure prediction by ZEFSAII (Michael W. Deem and Ramdas Pophale) SiO2 
 PCOD8188338
Probable space group: I M M 2
;
_chemical_formula_sum "Si O2"
_cell_formula_units_Z 64
_cell_length_a 22.302075
_cell_length_b 18.438064
_cell_length_c 9.010450
_cell_angle_alpha 90.000000
_cell_angle_beta 90.000000
_cell_angle_gamma 90.000000
_cell_volume 3705.160890
_symmetry_space_group_name_H-M "I M M 2"
_symmetry_group_IT_number 44
_symmetry_cell_setting 'orthorhombic'
loop_
_space_group_symop_operation_xyz
x,y,z
-x,-y,z
-x,y,z
x,-y,z
1/2+x,1/2+y,1/2+z
1/2-x,1/2-y,1/2+z
1/2-x,1/2+y,1/2+z
1/2+x,1/2-y,1/2+z
loop_
_atom_site_type_symbol
_atom_site_label
_atom_site_fract_x
_atom_site_fract_y
_atom_site_fract_z
Si Si1 0.660985 0.861923 0.223210
Si Si2 0.675334 0.278791 0.634664
Si Si3 0.289004 0.582096 0.768292
Si Si4 0.138036 0.418956 0.028126
Si Si5 0.568008 0.176462 0.715028
Si Si6 0.568431 0.081909 0.993033
Si Si7 0.769784 0.081372 0.613308
Si Si8 0.789724 0.218296 0.787689
O O1 0.723160 0.904736 0.199178
O O2 0.641807 0.864535 0.392994
O O3 0.668593 0.775410 0.196630
O O4 0.610633 0.900816 0.129605
O O5 0.666052 0.362278 0.686612
O O6 0.611685 0.239843 0.658450
O O7 0.721599 0.240537 0.748061
O O8 0.698848 0.277091 0.464569
O O9 0.309299 0.500000 0.733974
O O10 0.288718 0.597172 0.944207
O O11 0.131683 0.500000 0.967531
O O12 0.079475 0.396115 0.119143
O O13 0.197847 0.410157 0.128629
O O14 0.500000 0.203732 0.695052
O O15 0.580406 0.147612 0.879941
O O16 0.500000 0.084541 0.047979
O O17 0.582658 0.000000 0.932194
O O18 0.802278 0.137489 0.725002
O O19 0.789302 0.000000 0.659542
#
# Coordination Sequence:
#
# PCOD8188338 Si02
#       8
#     8   8   8   8   8   8   8   8
#     4  10  19  32  53  78 111 139 175 221 267 311
#     4  11  22  35  55  81 107 140 183 222 274 320
#     4   9  19  33  54  82 111 138 168 220 278 329
#     4  10  18  33  53  74 105 144 182 213 254 307
#     4  11  23  38  52  74 108 145 186 222 258 312
#     4  10  22  37  52  75 107 146 190 226 256 301
#     4   9  18  33  53  82 113 137 169 215 272 326
#     4  11  20  34  53  81 108 143 176 221 272 323
#
# _framework density 17.273204
#
# number of rings (size 3 to 8) (size 9 to 14) (size 15 to 20)
#    0.000    1.875    2.500    3.750    5.250    1.750 
#    0.000    0.000    0.000    0.375    0.000    0.000 
#    0.000    0.500    0.000    0.000    0.000    0.000 
#
# Total GULP energy -396525.532829 kJ/mol
# GULP energy per Si atom -12391.422901 kJ/mol
# Density = 1.723389 g / cm^3
# Si number density = 17.273204 Si / 1000 Ang^3
#
#
#
# Elastic Constant Matrix: (Units=GPa)
#
#
# Indices 1 2 3 4 5 6 
#
# 1 67.7892 48.8045 40.1743 0.0000 0.0000 0.0000
# 2 48.8045 136.8888 58.7565 0.0000 0.0000 0.0000
# 3 40.1743 58.7565 58.0456 0.0000 0.0000 0.0000
# 4 0.0000 0.0000 0.0000 30.8939 0.0000 0.0000
# 5 0.0000 0.0000 0.0000 0.0000 22.0009 0.0000
# 6 0.0000 0.0000 0.0000 0.0000 0.0000 24.7394
#
#
#
# Elastic Compliance Matrix: (Units=1/GPa)
#
#
# Indices 1 2 3 4 5 6 
#
# 1 0.025557 -0.002687 -0.014969 0.000000 0.000000 0.000000
# 2 -0.002687 0.013200 -0.011502 0.000000 0.000000 0.000000
# 3 -0.014969 -0.011502 0.039231 0.000000 0.000000 0.000000
# 4 0.000000 0.000000 0.000000 0.032369 0.000000 0.000000
# 5 0.000000 0.000000 0.000000 0.000000 0.045453 0.000000
# 6 0.000000 0.000000 0.000000 0.000000 0.000000 0.040421
#
#
# Mechanical properties :
#
#
# Convention : Reuss Voigt Hill
#
# Bulk Modulus (GPa) = 50.83194 62.02157 56.42675
# Shear Modulus (GPa) = 19.14941 23.19271 21.17106
#
# Velocity S-wave (km/s) = 3.33321 3.66826 3.50474
# Velocity P-wave (km/s) = 6.65626 7.34341 7.00826
#
# Compressibility (1/GPa) = 0.01967267
#
# Stress axis : x y z
#
# Youngs Moduli (GPa) = 39.12830 75.75638 25.48991
#
# Poissons Ratio (x) = 0.20353 0.38155
# Poissons Ratio (y) = 0.10513 0.29319
# Poissons Ratio (z) = 0.58570 0.87138
#
# Static dielectric constant tensor:
#      x y z
#    x 2.951010 0.000000 0.000000 
#    y 0.000000 3.536110 0.000000 
#    z 0.000000 0.000000 3.142650 
# 
# 
# High freq. dielectric constant tensor:
#      x y z
#    x 1.621950 0.000000 0.000000 
#    y 0.000000 1.679270 0.000000 
#    z 0.000000 0.000000 1.665360 
# 
# From -- ./inp_files/9046.got.cif
#   From: 2010.03.12/outbox.cif.g09.slc.cpg/sg44_5_cif.got.tgz:9046.got - 2010.04.14 02:36:11.
