data_PCOD8188974
_publ_section_title
;
Structure prediction by ZEFSAII (Michael W. Deem and Ramdas Pophale) SiO2 
 PCOD8188974
Probable space group: I M M 2
;
_chemical_formula_sum "Si O2"
_cell_formula_units_Z 64
_cell_length_a 22.454297
_cell_length_b 15.341739
_cell_length_c 9.166938
_cell_angle_alpha 90.000000
_cell_angle_beta 90.000000
_cell_angle_gamma 90.000000
_cell_volume 3157.899808
_symmetry_space_group_name_H-M "I M M 2"
_symmetry_group_IT_number 44
_symmetry_cell_setting 'orthorhombic'
loop_
_space_group_symop_operation_xyz
x,y,z
-x,-y,z
-x,y,z
x,-y,z
1/2+x,1/2+y,1/2+z
1/2-x,1/2-y,1/2+z
1/2-x,1/2+y,1/2+z
1/2+x,1/2-y,1/2+z
loop_
_atom_site_type_symbol
_atom_site_label
_atom_site_fract_x
_atom_site_fract_y
_atom_site_fract_z
Si Si1 0.432103 0.734678 0.583950
Si Si2 0.236735 0.698665 0.821033
Si Si3 0.265032 0.856419 0.644500
Si Si4 0.635202 0.404928 0.090831
Si Si5 0.849935 0.899825 0.256160
Si Si6 0.066366 0.596249 0.542400
Si Si7 0.388952 0.095777 0.737157
Si Si8 0.893814 0.263750 0.755931
O O1 0.500000 0.702753 0.605968
O O2 0.387436 0.662703 0.649971
O O3 0.424837 0.829054 0.655833
O O4 0.418472 0.747354 0.415175
O O5 0.266138 0.790526 0.780560
O O6 0.279290 0.622740 0.756428
O O7 0.172054 0.694950 0.747509
O O8 0.228478 0.696846 0.994244
O O9 0.204645 0.911530 0.636652
O O10 0.322442 0.915438 0.672538
O O11 0.607564 0.500000 0.128355
O O12 0.601573 0.329721 0.177165
O O13 0.626514 0.385600 0.919853
O O14 0.857301 0.000000 0.204829
O O15 0.081126 0.500000 0.606579
O O16 0.111324 0.618848 0.409856
O O17 0.066907 0.666194 0.671735
O O18 0.000000 0.597689 0.475750
O O19 0.419028 0.000000 0.714693
#
# Coordination Sequence:
#
# PCOD8188974 Si02
#       8
#     8   8   8   8   8   8   8   8
#     4  12  25  42  62  90 127 167 211 261 313 367
#     4  10  19  35  60  90 126 156 198 250 312 371
#     4  10  19  34  59  91 125 158 194 243 306 378
#     4   9  20  37  61  90 123 160 198 248 308 370
#     4  10  21  40  64  91 123 164 211 260 311 370
#     4  10  23  42  61  85 119 161 210 257 304 370
#     4  11  22  39  63  88 119 157 204 253 303 367
#     4  11  22  38  64  90 124 163 203 257 317 377
#
# _framework density 20.266632999999999
#
# number of rings (size 3 to 8) (size 9 to 14) (size 15 to 20)
#    0.000    1.625    2.500    1.875    3.500    3.000 
#    0.000    0.625    0.000    2.625    0.000    0.000 
#    0.000    0.000    0.000    0.000    0.000    0.000 
#
# Total GULP energy -396678.129034 kJ/mol
# GULP energy per Si atom -12396.191532 kJ/mol
# Density = 2.022051 g / cm^3
# Si number density = 20.266633 Si / 1000 Ang^3
#
#
#
# Elastic Constant Matrix: (Units=GPa)
#
#
# Indices 1 2 3 4 5 6 
#
# 1 76.7834 30.3511 29.4755 0.0000 0.0000 0.0000
# 2 30.3511 142.7636 76.6218 0.0000 0.0000 0.0000
# 3 29.4755 76.6218 124.4765 0.0000 0.0000 0.0000
# 4 0.0000 0.0000 0.0000 23.8709 0.0000 0.0000
# 5 0.0000 0.0000 0.0000 0.0000 23.6003 0.0000
# 6 0.0000 0.0000 0.0000 0.0000 0.0000 18.6798
#
#
#
# Elastic Compliance Matrix: (Units=1/GPa)
#
#
# Indices 1 2 3 4 5 6 
#
# 1 0.014653 -0.001871 -0.002318 0.000000 0.000000 0.000000
# 2 -0.001871 0.010699 -0.006143 0.000000 0.000000 0.000000
# 3 -0.002318 -0.006143 0.012364 0.000000 0.000000 0.000000
# 4 0.000000 0.000000 0.000000 0.041892 0.000000 0.000000
# 5 0.000000 0.000000 0.000000 0.000000 0.042372 0.000000
# 6 0.000000 0.000000 0.000000 0.000000 0.000000 0.053534
#
#
# Mechanical properties :
#
#
# Convention : Reuss Voigt Hill
#
# Bulk Modulus (GPa) = 58.64365 68.54668 63.59517
# Shear Modulus (GPa) = 24.76934 27.06854 25.91894
#
# Velocity S-wave (km/s) = 3.49975 3.65858 3.58005
# Velocity P-wave (km/s) = 6.73275 7.19325 6.96680
#
# Compressibility (1/GPa) = 0.01705214
#
# Stress axis : x y z
#
# Youngs Moduli (GPa) = 68.24493 93.46402 80.88113
#
# Poissons Ratio (x) = 0.17488 0.18748
# Poissons Ratio (y) = 0.12769 0.49685
# Poissons Ratio (z) = 0.15819 0.57414
#
# Static dielectric constant tensor:
#      x y z
#    x 3.641640 0.000000 0.000000 
#    y 0.000000 3.657120 0.000000 
#    z 0.000000 0.000000 3.616600 
# 
# 
# High freq. dielectric constant tensor:
#      x y z
#    x 1.782170 0.000000 0.000000 
#    y 0.000000 1.796010 0.000000 
#    z 0.000000 0.000000 1.789710 
# 
# From -- ./inp_files/9450.got.cif
#   From: 2010.03.12/outbox.cif.g09.slc.cpg/sg44_5_cif.got.tgz:9450.got - 2010.04.14 02:36:11.
