data_PCOD8188726
_publ_section_title
;
Structure prediction by ZEFSAII (Michael W. Deem and Ramdas Pophale) SiO2 
 PCOD8188726
Probable space group: I M M 2
;
_chemical_formula_sum "Si O2"
_cell_formula_units_Z 48
_cell_length_a 8.882388
_cell_length_b 18.903343
_cell_length_c 15.303864
_cell_angle_alpha 90.000000
_cell_angle_beta 90.000000
_cell_angle_gamma 90.000000
_cell_volume 2569.623245
_symmetry_space_group_name_H-M "I M M 2"
_symmetry_group_IT_number 44
_symmetry_cell_setting 'orthorhombic'
loop_
_space_group_symop_operation_xyz
x,y,z
-x,-y,z
-x,y,z
x,-y,z
1/2+x,1/2+y,1/2+z
1/2-x,1/2-y,1/2+z
1/2-x,1/2+y,1/2+z
1/2+x,1/2-y,1/2+z
loop_
_atom_site_type_symbol
_atom_site_label
_atom_site_fract_x
_atom_site_fract_y
_atom_site_fract_z
Si Si1 0.678860 0.421130 0.577110
Si Si2 0.176922 0.818417 0.223378
Si Si3 0.822448 0.165856 0.909809
Si Si4 0.821712 0.340145 0.228130
Si Si5 0.176541 0.186060 0.419212
Si Si6 0.675088 0.418696 0.071644
O O1 0.500000 0.423184 0.585724
O O2 0.746087 0.500000 0.585000
O O3 0.750054 0.373390 0.655026
O O4 0.726102 0.389130 0.484285
O O5 0.236232 0.738918 0.204394
O O6 0.218575 0.841396 0.322095
O O7 0.000000 0.818599 0.209165
O O8 0.746435 0.138093 0.821314
O O9 0.766452 0.242777 0.940249
O O10 0.000000 0.168844 0.896307
O O11 0.768086 0.395008 0.155718
O O12 0.000000 0.342696 0.236192
O O13 0.226035 0.126002 0.487293
O O14 0.000000 0.203492 0.424742
O O15 0.500000 0.407175 0.091880
O O16 0.712145 0.500000 0.051186
#
# Coordination Sequence:
#
# PCOD8188726 Si02
#       6
#     8   8   8   8   8   8
#     4   9  17  28  45  72 102 129 159 199 247 296
#     4   8  15  29  49  72  97 126 163 205 246 294
#     4  10  19  32  52  77 103 134 172 213 256 303
#     4  10  20  35  54  75  99 131 174 220 263 309
#     4   9  18  33  53  77 104 135 170 209 254 305
#     4  10  21  35  51  75 107 140 174 215 264 316
#
# _framework density 18.679780999999998
#
# number of rings (size 3 to 8) (size 9 to 14) (size 15 to 20)
#    0.000    2.667    0.000    3.000    0.000    3.667 
#    0.000    5.000    0.000    2.500    0.000    0.000 
#    0.000    0.000    0.000    0.000    0.000    0.000 
#
# Total GULP energy -297584.751231 kJ/mol
# GULP energy per Si atom -12399.364635 kJ/mol
# Density = 1.863726 g / cm^3
# Si number density = 18.679781 Si / 1000 Ang^3
#
#
#
# Elastic Constant Matrix: (Units=GPa)
#
#
# Indices 1 2 3 4 5 6 
#
# 1 42.5441 22.9683 29.5976 0.0000 0.0000 0.0000
# 2 22.9683 91.6182 54.8892 0.0000 0.0000 0.0000
# 3 29.5976 54.8892 109.1795 0.0000 0.0000 0.0000
# 4 0.0000 0.0000 0.0000 20.6898 0.0000 0.0000
# 5 0.0000 0.0000 0.0000 0.0000 21.0281 0.0000
# 6 0.0000 0.0000 0.0000 0.0000 0.0000 22.7339
#
#
#
# Elastic Compliance Matrix: (Units=1/GPa)
#
#
# Indices 1 2 3 4 5 6 
#
# 1 0.029852 -0.003771 -0.006197 0.000000 0.000000 0.000000
# 2 -0.003771 0.016096 -0.007070 0.000000 0.000000 0.000000
# 3 -0.006197 -0.007070 0.014393 0.000000 0.000000 0.000000
# 4 0.000000 0.000000 0.000000 0.048333 0.000000 0.000000
# 5 0.000000 0.000000 0.000000 0.000000 0.047555 0.000000
# 6 0.000000 0.000000 0.000000 0.000000 0.000000 0.043987
#
#
# Mechanical properties :
#
#
# Convention : Reuss Voigt Hill
#
# Bulk Modulus (GPa) = 38.07219 50.91688 44.49454
# Shear Modulus (GPa) = 20.57214 21.94948 21.26081
#
# Velocity S-wave (km/s) = 3.32219 3.43160 3.37734
# Velocity P-wave (km/s) = 5.92804 6.55882 6.25139
#
# Compressibility (1/GPa) = 0.02626589
#
# Stress axis : x y z
#
# Youngs Moduli (GPa) = 33.49862 62.12792 69.47675
#
# Poissons Ratio (x) = 0.23430 0.43052
# Poissons Ratio (y) = 0.12633 0.49118
# Poissons Ratio (z) = 0.20758 0.43923
#
# Static dielectric constant tensor:
#      x y z
#    x 3.108170 0.000000 0.000000 
#    y 0.000000 3.616480 0.000000 
#    z 0.000000 0.000000 3.614090 
# 
# 
# High freq. dielectric constant tensor:
#      x y z
#    x 1.692530 0.000000 0.000000 
#    y 0.000000 1.722390 0.000000 
#    z 0.000000 0.000000 1.739190 
# 
# From -- ./inp_files/16068.got.cif
#   From: 2010.03.12/outbox.cif.g09.slc.cpg/sg44_9_cif.got.tgz:16068.got - 2010.04.14 02:36:11.
