data_PCOD8188198
_publ_section_title
;
Structure prediction by ZEFSAII (Michael W. Deem and Ramdas Pophale) SiO2 
 PCOD8188198
Probable space group: I M M 2
;
_chemical_formula_sum "Si O2"
_cell_formula_units_Z 40
_cell_length_a 11.794738
_cell_length_b 9.043660
_cell_length_c 20.314903
_cell_angle_alpha 90.000000
_cell_angle_beta 90.000000
_cell_angle_gamma 90.000000
_cell_volume 2166.941953
_symmetry_space_group_name_H-M "I M M 2"
_symmetry_group_IT_number 44
_symmetry_cell_setting 'orthorhombic'
loop_
_space_group_symop_operation_xyz
x,y,z
-x,-y,z
-x,y,z
x,-y,z
1/2+x,1/2+y,1/2+z
1/2-x,1/2-y,1/2+z
1/2-x,1/2+y,1/2+z
1/2+x,1/2-y,1/2+z
loop_
_atom_site_type_symbol
_atom_site_label
_atom_site_fract_x
_atom_site_fract_y
_atom_site_fract_z
Si Si1 0.500000 0.175179 0.711550
Si Si2 0.626880 0.675860 0.171771
Si Si3 0.252963 0.175849 0.542431
Si Si4 0.281908 0.825369 0.788494
Si Si5 0.000000 0.675942 0.065273
Si Si6 0.129931 0.824691 0.411945
O O1 0.608970 0.232617 0.749653
O O2 0.500000 0.241815 0.638750
O O3 0.500000 0.000000 0.707066
O O4 0.500000 0.739805 0.165744
O O5 0.626736 0.500000 0.167265
O O6 0.702485 0.738515 0.111309
O O7 0.675526 0.723062 0.243294
O O8 0.383163 0.231832 0.531120
O O9 0.174720 0.231389 0.482670
O O10 0.251846 0.000000 0.545696
O O11 0.284112 0.744097 0.858562
O O12 0.283693 0.000000 0.801057
O O13 0.000000 0.500000 0.066969
O O14 0.000000 0.769232 0.402947
O O15 0.136292 0.000000 0.406684
#
# Coordination Sequence:
#
# PCOD8188198 Si02
#       6
#     4   8   8   8   4   8
#     4   9  14  24  45  73  93 108 145 198 236 263
#     4   9  16  27  46  71  95 120 154 197 238 271
#     4   9  16  27  44  67  94 122 154 193 234 274
#     4  10  18  30  50  72  94 121 155 194 232 275
#     4   9  14  24  44  69  93 116 151 198 236 267
#     4  10  20  32  46  68  98 127 154 189 234 280
#
# _framework density 18.459194
#
# number of rings (size 3 to 8) (size 9 to 14) (size 15 to 20)
#    0.000    2.600    3.000    0.600    0.000    2.400 
#    1.800    0.000    0.000    1.200    0.000    0.000 
#    0.000    0.000    0.000    0.000    0.000    0.000 
#
# Total GULP energy -247854.497829 kJ/mol
# GULP energy per Si atom -12392.724891 kJ/mol
# Density = 1.841718 g / cm^3
# Si number density = 18.459194 Si / 1000 Ang^3
#
#
#
# Elastic Constant Matrix: (Units=GPa)
#
#
# Indices 1 2 3 4 5 6 
#
# 1 140.7494 12.0531 60.8985 0.0000 0.0000 0.0000
# 2 12.0531 11.1465 19.7235 0.0000 0.0000 0.0000
# 3 60.8985 19.7235 136.1516 0.0000 0.0000 0.0000
# 4 0.0000 0.0000 0.0000 21.7413 0.0000 0.0000
# 5 0.0000 0.0000 0.0000 0.0000 35.1269 0.0000
# 6 0.0000 0.0000 0.0000 0.0000 0.0000 10.3079
#
#
#
# Elastic Compliance Matrix: (Units=1/GPa)
#
#
# Indices 1 2 3 4 5 6 
#
# 1 0.008909 -0.003472 -0.003482 0.000000 0.000000 0.000000
# 2 -0.003472 0.121991 -0.016119 0.000000 0.000000 0.000000
# 3 -0.003482 -0.016119 0.011237 0.000000 0.000000 0.000000
# 4 0.000000 0.000000 0.000000 0.045995 0.000000 0.000000
# 5 0.000000 0.000000 0.000000 0.000000 0.028468 0.000000
# 6 0.000000 0.000000 0.000000 0.000000 0.000000 0.097013
#
#
# Mechanical properties :
#
#
# Convention : Reuss Voigt Hill
#
# Bulk Modulus (GPa) = 10.41769 52.59973 31.50871
# Shear Modulus (GPa) = 12.76303 26.46003 19.61153
#
# Velocity S-wave (km/s) = 2.63234 3.79018 3.26302
# Velocity P-wave (km/s) = 3.85938 6.90731 5.59490
#
# Compressibility (1/GPa) = 0.09599057
#
# Stress axis : x y z
#
# Youngs Moduli (GPa) = 112.25098 8.19733 88.99097
#
# Poissons Ratio (x) = 0.02847 0.30983
# Poissons Ratio (y) = 0.38979 1.43444
# Poissons Ratio (z) = 0.39082 0.13213
#
# Static dielectric constant tensor:
#      x y z
#    x 3.717430 0.000000 0.000000 
#    y 0.000000 2.681570 0.000000 
#    z 0.000000 0.000000 3.516120 
# 
# 
# High freq. dielectric constant tensor:
#      x y z
#    x 1.725460 0.000000 0.000000 
#    y 0.000000 1.637520 0.000000 
#    z 0.000000 0.000000 1.721660 
# 
# From -- ./inp_files/22777.got.cif
#   From: 2010.03.12/outbox.cif.g09.slc.cpg/sg44_12_cif.got.tgz:22777.got - 2010.04.14 02:36:11.
