data_PCOD8188472
_publ_section_title
;
Structure prediction by ZEFSAII (Michael W. Deem and Ramdas Pophale) SiO2 
 PCOD8188472
Probable space group: I M M 2
;
_chemical_formula_sum "Si O2"
_cell_formula_units_Z 64
_cell_length_a 9.167465
_cell_length_b 22.493072
_cell_length_c 15.235871
_cell_angle_alpha 90.000000
_cell_angle_beta 90.000000
_cell_angle_gamma 90.000000
_cell_volume 3141.704404
_symmetry_space_group_name_H-M "I M M 2"
_symmetry_group_IT_number 44
_symmetry_cell_setting 'orthorhombic'
loop_
_space_group_symop_operation_xyz
x,y,z
-x,-y,z
-x,y,z
x,-y,z
1/2+x,1/2+y,1/2+z
1/2-x,1/2-y,1/2+z
1/2-x,1/2+y,1/2+z
1/2+x,1/2-y,1/2+z
loop_
_atom_site_type_symbol
_atom_site_label
_atom_site_fract_x
_atom_site_fract_y
_atom_site_fract_z
Si Si1 0.839698 0.069572 0.877530
Si Si2 0.668386 0.680154 0.976122
Si Si3 0.830113 0.179174 0.281903
Si Si4 0.672675 0.731289 0.158370
Si Si5 0.170990 0.432364 0.734426
Si Si6 0.659722 0.930522 0.035877
Si Si7 0.332872 0.066178 0.531420
Si Si8 0.667502 0.117143 0.718830
O O1 0.725743 0.080597 0.800615
O O2 0.000000 0.097931 0.859859
O O3 0.858510 0.000000 0.890002
O O4 0.773477 0.097931 0.966993
O O5 0.500000 0.665460 0.990569
O O6 0.695617 0.708447 0.879128
O O7 0.718453 0.724921 0.054781
O O8 0.747213 0.616710 0.979923
O O9 0.744388 0.211404 0.203342
O O10 0.769280 0.112087 0.291218
O O11 0.000000 0.178883 0.257981
O O12 0.500000 0.736190 0.169573
O O13 0.732648 0.674903 0.210268
O O14 0.207545 0.500000 0.762097
O O15 0.216488 0.420326 0.633896
O O16 0.000000 0.419766 0.748770
O O17 0.500000 0.900409 0.023695
O O18 0.642541 0.000000 0.017198
O O19 0.500000 0.071671 0.501950
O O20 0.316997 0.074657 0.635490
O O21 0.273719 0.000000 0.508257
O O22 0.500000 0.136667 0.733983
#
# Coordination Sequence:
#
# PCOD8188472 Si02
#       8
#     8   8   8   8   8   8   8   8
#     4  10  19  29  45  74 111 149 192 240 288 341
#     4   9  21  40  60  83 115 152 190 235 288 343
#     4  11  23  40  62  89 118 151 191 236 290 348
#     4  10  21  41  63  82 109 148 193 243 290 339
#     4   9  19  37  60  86 116 151 190 232 284 344
#     4   8  15  30  50  71 101 143 186 228 278 333
#     4   9  18  32  53  83 116 150 190 234 281 335
#     4  10  19  33  53  77 109 149 191 239 291 343
#
# _framework density 20.371110000000002
#
# number of rings (size 3 to 8) (size 9 to 14) (size 15 to 20)
#    0.000    2.500    0.000    2.625    0.000    4.750 
#    2.250    3.750    0.000    0.000    0.000    0.000 
#    0.000    0.000    0.000    0.000    0.000    0.000 
#
# Total GULP energy -396637.956260 kJ/mol
# GULP energy per Si atom -12394.936133 kJ/mol
# Density = 2.032474 g / cm^3
# Si number density = 20.371110 Si / 1000 Ang^3
#
#
#
# Elastic Constant Matrix: (Units=GPa)
#
#
# Indices 1 2 3 4 5 6 
#
# 1 95.9789 39.1584 49.8387 -0.0001 0.0000 0.0000
# 2 39.1584 75.7726 30.8019 -0.0001 0.0000 0.0000
# 3 49.8387 30.8019 100.9701 -0.0007 0.0001 0.0000
# 4 -0.0001 -0.0001 -0.0007 22.5915 0.0000 0.0000
# 5 0.0000 0.0000 0.0001 0.0000 28.6547 0.0000
# 6 0.0000 0.0000 0.0000 0.0000 0.0000 30.7318
#
#
#
# Elastic Compliance Matrix: (Units=1/GPa)
#
#
# Indices 1 2 3 4 5 6 
#
# 1 0.015940 -0.005753 -0.006113 0.000000 0.000000 0.000000
# 2 -0.005753 0.017142 -0.002390 0.000000 0.000000 0.000000
# 3 -0.006113 -0.002390 0.013650 0.000000 0.000000 0.000000
# 4 0.000000 0.000000 0.000000 0.044264 0.000000 0.000000
# 5 0.000000 0.000000 0.000000 0.000000 0.034898 0.000000
# 6 0.000000 0.000000 0.000000 0.000000 0.000000 0.032540
#
#
# Mechanical properties :
#
#
# Convention : Reuss Voigt Hill
#
# Bulk Modulus (GPa) = 54.88116 56.92440 55.90278
# Shear Modulus (GPa) = 25.90405 26.59045 26.24725
#
# Velocity S-wave (km/s) = 3.56983 3.61682 3.59340
# Velocity P-wave (km/s) = 6.63255 6.74138 6.68719
#
# Compressibility (1/GPa) = 0.01822119
#
# Stress axis : x y z
#
# Youngs Moduli (GPa) = 62.73350 58.33704 73.25785
#
# Poissons Ratio (x) = 0.33560 0.44784
# Poissons Ratio (y) = 0.36089 0.17506
# Poissons Ratio (z) = 0.38351 0.13941
#
# Static dielectric constant tensor:
#      x y z
#    x 3.846890 0.000000 0.000000 
#    y 0.000000 3.441810 0.000000 
#    z 0.000000 0.000000 3.799330 
# 
# 
# High freq. dielectric constant tensor:
#      x y z
#    x 1.796250 0.000000 0.000000 
#    y 0.000000 1.768190 0.000000 
#    z 0.000000 0.000000 1.803530 
# 
# From -- ./inp_files/16851.got.cif
#   From: 2010.03.12/outbox.cif.g09.slc.cpg/sg44_9_cif.got.tgz:16851.got - 2010.04.14 02:36:11.
