data_PCOD8188687
_publ_section_title
;
Structure prediction by ZEFSAII (Michael W. Deem and Ramdas Pophale) SiO2 
 PCOD8188687
Probable space group: I M M 2
;
_chemical_formula_sum "Si O2"
_cell_formula_units_Z 64
_cell_length_a 19.613295
_cell_length_b 8.908462
_cell_length_c 20.989404
_cell_angle_alpha 90.000000
_cell_angle_beta 90.000000
_cell_angle_gamma 90.000000
_cell_volume 3667.358779
_symmetry_space_group_name_H-M "I M M 2"
_symmetry_group_IT_number 44
_symmetry_cell_setting 'orthorhombic'
loop_
_space_group_symop_operation_xyz
x,y,z
-x,-y,z
-x,y,z
x,-y,z
1/2+x,1/2+y,1/2+z
1/2-x,1/2-y,1/2+z
1/2-x,1/2+y,1/2+z
1/2+x,1/2-y,1/2+z
loop_
_atom_site_type_symbol
_atom_site_label
_atom_site_fract_x
_atom_site_fract_y
_atom_site_fract_z
Si Si1 0.707363 0.677611 0.496430
Si Si2 0.076539 0.824792 0.412437
Si Si3 0.213941 0.179142 0.611180
Si Si4 0.077208 0.674681 0.948310
Si Si5 0.926365 0.177986 0.556652
Si Si6 0.924384 0.171575 0.815828
Si Si7 0.208707 0.321959 0.372790
Si Si8 0.210650 0.176106 0.751730
O O1 0.709763 0.500000 0.501204
O O2 0.735572 0.746518 0.561352
O O3 0.629331 0.731233 0.491257
O O4 0.751073 0.736078 0.435630
O O5 0.083790 0.765285 0.484500
O O6 0.131246 0.735570 0.370435
O O7 0.000000 0.792032 0.386927
O O8 0.093354 0.000000 0.408052
O O9 0.136438 0.235904 0.598785
O O10 0.233089 0.237015 0.682280
O O11 0.218882 0.000000 0.604772
O O12 0.094030 0.500000 0.955378
O O13 0.086455 0.719750 0.875089
O O14 0.000000 0.710583 0.970987
O O15 0.000000 0.237620 0.582616
O O16 0.928261 0.000000 0.555823
O O17 0.869360 0.213799 0.762121
O O18 0.000000 0.191111 0.786266
O O19 0.912914 0.000000 0.839574
O O20 0.209552 0.500000 0.371921
O O21 0.245073 0.254800 0.309516
O O22 0.222069 0.000000 0.751459
#
# Coordination Sequence:
#
# PCOD8188687 Si02
#       8
#     8   8   8   8   8   8   8   8
#     4  11  21  34  53  75 103 135 170 212 255 304
#     4   9  17  30  49  74 100 124 160 209 252 291
#     4  10  19  32  52  73 101 137 174 214 253 299
#     4  10  20  33  52  79 105 130 168 214 257 303
#     4   8  14  25  43  70 100 127 159 200 244 289
#     4   9  16  29  49  73 105 142 175 206 246 297
#     4  10  19  32  50  73 102 134 169 205 245 298
#     4   9  18  32  48  73 104 136 173 211 249 295
#
# _framework density 17.451252
#
# number of rings (size 3 to 8) (size 9 to 14) (size 15 to 20)
#    0.000    2.500    2.500    1.500    0.000    2.000 
#    0.000    3.750    0.000    1.125    0.000    1.750 
#    0.000    0.000    0.000    0.000    0.000    0.000 
#
# Total GULP energy -396637.471692 kJ/mol
# GULP energy per Si atom -12394.920990 kJ/mol
# Density = 1.741153 g / cm^3
# Si number density = 17.451252 Si / 1000 Ang^3
#
#
#
# Elastic Constant Matrix: (Units=GPa)
#
#
# Indices 1 2 3 4 5 6 
#
# 1 117.2496 27.8563 68.4297 0.0000 0.0000 0.0000
# 2 27.8563 28.1237 25.1062 0.0000 0.0000 0.0000
# 3 68.4297 25.1062 122.9657 0.0000 0.0000 0.0000
# 4 0.0000 0.0000 0.0000 18.7829 0.0000 0.0000
# 5 0.0000 0.0000 0.0000 0.0000 24.6837 0.0000
# 6 0.0000 0.0000 0.0000 0.0000 0.0000 25.4180
#
#
#
# Elastic Compliance Matrix: (Units=1/GPa)
#
#
# Indices 1 2 3 4 5 6 
#
# 1 0.014127 -0.008529 -0.006120 0.000000 0.000000 0.000000
# 2 -0.008529 0.048632 -0.005183 0.000000 0.000000 0.000000
# 3 -0.006120 -0.005183 0.012596 0.000000 0.000000 0.000000
# 4 0.000000 0.000000 0.000000 0.053240 0.000000 0.000000
# 5 0.000000 0.000000 0.000000 0.000000 0.040513 0.000000
# 6 0.000000 0.000000 0.000000 0.000000 0.000000 0.039342
#
#
# Mechanical properties :
#
#
# Convention : Reuss Voigt Hill
#
# Bulk Modulus (GPa) = 28.01826 56.79150 42.40488
# Shear Modulus (GPa) = 19.22989 23.57338 21.40164
#
# Velocity S-wave (km/s) = 3.32312 3.67933 3.50575
# Velocity P-wave (km/s) = 5.55105 7.11783 6.38270
#
# Compressibility (1/GPa) = 0.03569101
#
# Stress axis : x y z
#
# Youngs Moduli (GPa) = 70.78585 20.56254 79.38767
#
# Poissons Ratio (x) = 0.17538 0.48587
# Poissons Ratio (y) = 0.60375 0.41145
# Poissons Ratio (z) = 0.43323 0.10657
#
# Static dielectric constant tensor:
#      x y z
#    x 3.559300 0.000000 0.000000 
#    y 0.000000 2.954530 0.000000 
#    z 0.000000 0.000000 3.211080 
# 
# 
# High freq. dielectric constant tensor:
#      x y z
#    x 1.683280 0.000000 0.000000 
#    y 0.000000 1.646170 0.000000 
#    z 0.000000 0.000000 1.648260 
# 
# From -- ./inp_files/20741.got.cif
#   From: 2010.03.12/outbox.cif.g09.slc.cpg/sg44_11_cif.got.tgz:20741.got - 2010.04.14 02:36:11.
