data_PCOD8188056
_publ_section_title
;
Structure prediction by ZEFSAII (Michael W. Deem and Ramdas Pophale) SiO2 
 PCOD8188056
Probable space group: I M M 2
;
_chemical_formula_sum "Si O2"
_cell_formula_units_Z 64
_cell_length_a 18.451821
_cell_length_b 8.855626
_cell_length_c 26.403138
_cell_angle_alpha 90.000000
_cell_angle_beta 90.000000
_cell_angle_gamma 90.000000
_cell_volume 4314.336798
_symmetry_space_group_name_H-M "I M M 2"
_symmetry_group_IT_number 44
_symmetry_cell_setting 'orthorhombic'
loop_
_space_group_symop_operation_xyz
x,y,z
-x,-y,z
-x,y,z
x,-y,z
1/2+x,1/2+y,1/2+z
1/2-x,1/2-y,1/2+z
1/2-x,1/2+y,1/2+z
1/2+x,1/2-y,1/2+z
loop_
_atom_site_type_symbol
_atom_site_label
_atom_site_fract_x
_atom_site_fract_y
_atom_site_fract_z
Si Si1 0.416609 0.174751 0.808050
Si Si2 0.584314 0.825331 0.999892
Si Si3 0.289953 0.165026 0.355667
Si Si4 0.794747 0.832585 0.251108
Si Si5 0.082808 0.825503 0.603365
Si Si6 0.164017 0.177378 0.704963
Si Si7 0.918243 0.680463 0.796043
Si Si8 0.650938 0.319618 0.904033
O O1 0.500000 0.198059 0.793115
O O2 0.369491 0.244956 0.762358
O O3 0.403308 0.252851 0.862294
O O4 0.396173 0.000000 0.813856
O O5 0.500000 0.791776 0.991095
O O6 0.628902 0.728166 0.959826
O O7 0.602947 0.000000 0.992443
O O8 0.607739 0.774478 0.055785
O O9 0.249418 0.153217 0.302431
O O10 0.367318 0.243874 0.342568
O O11 0.233392 0.245204 0.394061
O O12 0.306955 0.000000 0.377987
O O13 0.745003 0.744192 0.210526
O O14 0.812654 0.000000 0.230019
O O15 0.135821 0.783097 0.649088
O O16 0.000000 0.787904 0.618893
O O17 0.090132 0.000000 0.588063
O O18 0.106245 0.248823 0.743283
O O19 0.166750 0.000000 0.714986
O O20 0.909755 0.500000 0.791741
O O21 0.000000 0.729765 0.808027
O O22 0.650095 0.500000 0.898346
#
# Coordination Sequence:
#
# PCOD8188056 Si02
#       8
#     8   8   8   8   8   8   8   8
#     4  10  19  29  42  62  87 112 140 174 209 245
#     4  10  20  31  42  58  80 105 137 178 215 245
#     4   7  13  25  38  55  77 102 134 167 197 234
#     4   9  17  29  43  59  81 109 141 172 203 245
#     4   9  18  31  44  59  81 109 140 172 207 249
#     4  10  18  28  43  61  83 110 139 172 209 247
#     4   9  16  26  41  60  83 111 141 171 202 240
#     4  10  18  28  43  59  80 112 144 172 206 250
#
# _framework density 14.834262000000001
#
# number of rings (size 3 to 8) (size 9 to 14) (size 15 to 20)
#    0.000    2.750    0.000    4.125    0.000    5.000 
#    0.000    1.875    0.000    0.000    0.000    0.000 
#    0.000    1.000    0.000    7.750    0.000    1.875 
#
# Total GULP energy -396562.166527 kJ/mol
# GULP energy per Si atom -12392.567704 kJ/mol
# Density = 1.480050 g / cm^3
# Si number density = 14.834262 Si / 1000 Ang^3
#
#
#
# Elastic Constant Matrix: (Units=GPa)
#
#
# Indices 1 2 3 4 5 6 
#
# 1 106.2422 43.1239 52.0848 0.0000 0.0000 0.0000
# 2 43.1239 68.2161 32.9911 0.0000 0.0000 0.0000
# 3 52.0848 32.9911 71.2548 0.0000 0.0000 0.0000
# 4 0.0000 0.0000 0.0000 21.7614 0.0000 0.0000
# 5 0.0000 0.0000 0.0000 0.0000 25.1190 0.0000
# 6 0.0000 0.0000 0.0000 0.0000 0.0000 20.4258
#
#
#
# Elastic Compliance Matrix: (Units=1/GPa)
#
#
# Indices 1 2 3 4 5 6 
#
# 1 0.016301 -0.005853 -0.009206 0.000000 0.000000 0.000000
# 2 -0.005853 0.020990 -0.005440 0.000000 0.000000 0.000000
# 3 -0.009206 -0.005440 0.023282 0.000000 0.000000 0.000000
# 4 0.000000 0.000000 0.000000 0.045953 0.000000 0.000000
# 5 0.000000 0.000000 0.000000 0.000000 0.039810 0.000000
# 6 0.000000 0.000000 0.000000 0.000000 0.000000 0.048958
#
#
# Mechanical properties :
#
#
# Convention : Reuss Voigt Hill
#
# Bulk Modulus (GPa) = 51.08352 55.79032 53.43692
# Shear Modulus (GPa) = 20.59155 21.29547 20.94351
#
# Velocity S-wave (km/s) = 3.72977 3.79299 3.76151
# Velocity P-wave (km/s) = 7.28418 7.54143 7.41392
#
# Compressibility (1/GPa) = 0.01957579
#
# Stress axis : x y z
#
# Youngs Moduli (GPa) = 61.34493 47.64077 42.95152
#
# Poissons Ratio (x) = 0.27884 0.39540
# Poissons Ratio (y) = 0.35905 0.23367
# Poissons Ratio (z) = 0.56472 0.25918
#
# Static dielectric constant tensor:
#      x y z
#    x 3.114510 0.000000 0.000000 
#    y 0.000000 2.922880 0.000000 
#    z 0.000000 0.000000 2.670040 
# 
# 
# High freq. dielectric constant tensor:
#      x y z
#    x 1.561470 0.000000 0.000000 
#    y 0.000000 1.571680 0.000000 
#    z 0.000000 0.000000 1.532500 
# 
# From -- ./inp_files/25876.got.cif
#   From: 2010.03.12/outbox.cif.g09.slc.cpg/sg44_13_cif.got.tgz:25876.got - 2010.04.14 02:36:11.
