data_PCOD8188313
_publ_section_title
;
Structure prediction by ZEFSAII (Michael W. Deem and Ramdas Pophale) SiO2 
 PCOD8188313
Probable space group: I M M 2
;
_chemical_formula_sum "Si O2"
_cell_formula_units_Z 48
_cell_length_a 8.423077
_cell_length_b 10.394942
_cell_length_c 28.299109
_cell_angle_alpha 90.000000
_cell_angle_beta 90.000000
_cell_angle_gamma 90.000000
_cell_volume 2477.796318
_symmetry_space_group_name_H-M "I M M 2"
_symmetry_group_IT_number 44
_symmetry_cell_setting 'orthorhombic'
loop_
_space_group_symop_operation_xyz
x,y,z
-x,-y,z
-x,y,z
x,-y,z
1/2+x,1/2+y,1/2+z
1/2-x,1/2-y,1/2+z
1/2-x,1/2+y,1/2+z
1/2+x,1/2-y,1/2+z
loop_
_atom_site_type_symbol
_atom_site_label
_atom_site_fract_x
_atom_site_fract_y
_atom_site_fract_z
Si Si1 0.811239 0.755828 0.234120
Si Si2 0.688684 0.643186 0.636802
Si Si3 0.316274 0.348252 0.532782
Si Si4 0.814163 0.000000 0.889100
Si Si5 0.317403 0.000000 0.393039
Si Si6 0.189137 0.500000 0.285120
Si Si7 0.185926 0.000000 0.290029
Si Si8 0.683599 0.749393 0.939822
O O1 0.750475 0.767036 0.179736
O O2 0.751125 0.622600 0.255647
O O3 0.740935 0.872721 0.265503
O O4 0.000000 0.759825 0.235142
O O5 0.500000 0.635402 0.636412
O O6 0.756692 0.500000 0.645399
O O7 0.742635 0.694583 0.585230
O O8 0.500000 0.313302 0.524668
O O9 0.289793 0.500000 0.525914
O O10 0.211569 0.270290 0.495461
O O11 0.737374 0.873829 0.911148
O O12 0.782303 0.000000 0.833796
O O13 0.000000 0.000000 0.900376
O O14 0.281075 0.874155 0.423496
O O15 0.500000 0.000000 0.378459
O O16 0.216013 0.000000 0.345481
O O17 0.000000 0.500000 0.294079
O O18 0.000000 0.000000 0.280779
O O19 0.500000 0.723410 0.929830
#
# Coordination Sequence:
#
# PCOD8188313 Si02
#       8
#     8   8   8   4   4   4   4   8
#     4   9  16  28  49  78 110 142 183 230 275 323
#     4   8  13  25  48  79 109 140 182 229 272 321
#     4   9  17  31  55  84 113 145 187 236 283 333
#     4  12  24  40  61  84 113 153 198 241 287 342
#     4  12  26  42  59  82 117 155 192 235 287 348
#     4  10  20  32  49  78 113 145 182 235 285 328
#     4  10  18  32  55  78 103 143 192 233 271 326
#     4  12  24  40  61  86 116 150 191 239 290 344
#
# _framework density 19.372053000000001
#
# number of rings (size 3 to 8) (size 9 to 14) (size 15 to 20)
#    0.000    2.000    1.667    5.000    0.000    1.333 
#    0.000    0.833    0.000    5.000    0.000    0.000 
#    0.000    0.000    0.000    0.000    0.000    0.000 
#
# Total GULP energy -297563.257728 kJ/mol
# GULP energy per Si atom -12398.469072 kJ/mol
# Density = 1.932796 g / cm^3
# Si number density = 19.372053 Si / 1000 Ang^3
#
#
#
# Elastic Constant Matrix: (Units=GPa)
#
#
# Indices 1 2 3 4 5 6 
#
# 1 35.4942 8.8305 2.1817 0.0000 0.0000 0.0000
# 2 8.8305 132.3378 65.2462 0.0000 0.0000 0.0000
# 3 2.1817 65.2462 161.9644 0.0000 0.0000 0.0000
# 4 0.0000 0.0000 0.0000 -58.9683 0.0000 0.0000
# 5 0.0000 0.0000 0.0000 0.0000 25.5705 0.0000
# 6 0.0000 0.0000 0.0000 0.0000 0.0000 16.9558
#
#
#
# Elastic Compliance Matrix: (Units=1/GPa)
#
#
# Indices 1 2 3 4 5 6 
#
# 1 0.028679 -0.002150 0.000480 0.000000 0.000000 0.000000
# 2 -0.002150 0.009590 -0.003834 0.000000 0.000000 0.000000
# 3 0.000480 -0.003834 0.007712 0.000000 0.000000 0.000000
# 4 0.000000 0.000000 0.000000 -0.016958 0.000000 0.000000
# 5 0.000000 0.000000 0.000000 0.000000 0.039108 0.000000
# 6 0.000000 0.000000 0.000000 0.000000 0.000000 0.058977
#
#
# Mechanical properties :
#
#
# Convention : Reuss Voigt Hill
#
# Bulk Modulus (GPa) = 28.59412 53.59035 41.09224
# Shear Modulus (GPa) = 33.38341 13.61415 23.49878
#
# Velocity S-wave (km/s) = 4.15574 2.65386 3.48663
# Velocity P-wave (km/s) = 6.14975 6.09216 6.12102
#
# Compressibility (1/GPa) = 0.03497222
#
# Stress axis : x y z
#
# Youngs Moduli (GPa) = 34.86865 104.27097 129.66104
#
# Poissons Ratio (x) = 0.22421 -0.06222
# Poissons Ratio (y) = 0.07498 0.49718
# Poissons Ratio (z) = -0.01673 0.39982
#
# Static dielectric constant tensor:
#      x y z
#    x 3.144350 0.000000 0.000000 
#    y 0.000000 3.592510 0.000000 
#    z 0.000000 0.000000 3.903640 
# 
# 
# High freq. dielectric constant tensor:
#      x y z
#    x 1.716860 0.000000 0.000000 
#    y 0.000000 1.741400 0.000000 
#    z 0.000000 0.000000 1.774750 
# 
# From -- ./inp_files/27004.got.cif
#   From: 2010.03.12/outbox.cif.g09.slc.cpg/sg44_14_cif.got.tgz:27004.got - 2010.04.14 02:36:11.
