data_PCOD8188069
_publ_section_title
;
Structure prediction by ZEFSAII (Michael W. Deem and Ramdas Pophale) SiO2 
 PCOD8188069
Probable space group: I M M 2
;
_chemical_formula_sum "Si O2"
_cell_formula_units_Z 64
_cell_length_a 23.545579
_cell_length_b 8.867470
_cell_length_c 19.189656
_cell_angle_alpha 90.000000
_cell_angle_beta 90.000000
_cell_angle_gamma 90.000000
_cell_volume 4006.602815
_symmetry_space_group_name_H-M "I M M 2"
_symmetry_group_IT_number 44
_symmetry_cell_setting 'orthorhombic'
loop_
_space_group_symop_operation_xyz
x,y,z
-x,-y,z
-x,y,z
x,-y,z
1/2+x,1/2+y,1/2+z
1/2-x,1/2-y,1/2+z
1/2-x,1/2+y,1/2+z
1/2+x,1/2-y,1/2+z
loop_
_atom_site_type_symbol
_atom_site_label
_atom_site_fract_x
_atom_site_fract_y
_atom_site_fract_z
Si Si1 0.934750 0.321576 0.687620
Si Si2 0.224423 0.324364 0.482559
Si Si3 0.759633 0.824413 0.833196
Si Si4 0.265509 0.177500 0.683554
Si Si5 0.342589 0.321328 0.097963
Si Si6 0.169662 0.321164 0.053951
Si Si7 0.380895 0.178777 0.331349
Si Si8 0.062537 0.320910 0.971822
O O1 0.928202 0.500000 0.682232
O O2 0.902260 0.245970 0.622960
O O3 0.908801 0.259869 0.760178
O O4 0.000000 0.271475 0.683265
O O5 0.221728 0.500000 0.501256
O O6 0.218753 0.296382 0.399337
O O7 0.172604 0.239725 0.520836
O O8 0.285250 0.259471 0.504511
O O9 0.727522 0.765209 0.763028
O O10 0.817438 0.734499 0.841095
O O11 0.775382 0.000000 0.826463
O O12 0.206600 0.237944 0.650428
O O13 0.318421 0.227678 0.634484
O O14 0.261975 0.000000 0.682956
O O15 0.346792 0.500000 0.094874
O O16 0.177558 0.500000 0.043567
O O17 0.106673 0.267999 0.031770
O O18 0.417826 0.239483 0.396345
O O19 0.380416 0.000000 0.330984
O O20 0.060131 0.500000 0.969991
O O21 0.000000 0.254808 0.988978
#
# Coordination Sequence:
#
# PCOD8188069 Si02
#       8
#     8   8   8   8   8   8   8   8
#     4  10  20  32  46  67  96 128 160 193 230 270
#     4  10  19  29  45  65  89 117 149 190 236 281
#     4  10  18  29  44  64  91 122 151 184 231 278
#     4   8  15  27  43  62  85 113 145 182 227 269
#     4  10  19  32  49  66  89 120 155 194 232 275
#     4   9  16  28  45  64  86 115 151 190 228 269
#     4  10  18  28  43  64  93 125 159 189 215 260
#     4   9  16  26  42  64  90 121 155 188 221 258
#
# _framework density 15.973630999999999
#
# number of rings (size 3 to 8) (size 9 to 14) (size 15 to 20)
#    0.000    2.500    2.500    1.875    0.000    2.250 
#    0.000    0.000    0.000    2.250    0.000    0.875 
#    0.000    5.000    0.000    0.000    0.000    0.250 
#
# Total GULP energy -396626.185623 kJ/mol
# GULP energy per Si atom -12394.568301 kJ/mol
# Density = 1.593727 g / cm^3
# Si number density = 15.973631 Si / 1000 Ang^3
#
#
#
# Elastic Constant Matrix: (Units=GPa)
#
#
# Indices 1 2 3 4 5 6 
#
# 1 96.8740 19.9344 62.0775 0.0000 0.0000 0.0000
# 2 19.9344 26.3956 21.5161 0.0000 0.0000 0.0000
# 3 62.0775 21.5161 120.9731 0.0000 0.0000 0.0000
# 4 0.0000 0.0000 0.0000 16.0140 0.0000 0.0000
# 5 0.0000 0.0000 0.0000 0.0000 26.1659 0.0000
# 6 0.0000 0.0000 0.0000 0.0000 0.0000 18.5275
#
#
#
# Elastic Compliance Matrix: (Units=1/GPa)
#
#
# Indices 1 2 3 4 5 6 
#
# 1 0.016256 -0.006406 -0.007203 0.000000 0.000000 0.000000
# 2 -0.006406 0.046833 -0.005042 0.000000 0.000000 0.000000
# 3 -0.007203 -0.005042 0.012859 0.000000 0.000000 0.000000
# 4 0.000000 0.000000 0.000000 0.062445 0.000000 0.000000
# 5 0.000000 0.000000 0.000000 0.000000 0.038218 0.000000
# 6 0.000000 0.000000 0.000000 0.000000 0.000000 0.053974
#
#
# Mechanical properties :
#
#
# Convention : Reuss Voigt Hill
#
# Bulk Modulus (GPa) = 25.87536 50.14430 38.00983
# Shear Modulus (GPa) = 17.80816 21.52246 19.66531
#
# Velocity S-wave (km/s) = 3.34256 3.67464 3.51253
# Velocity P-wave (km/s) = 5.57950 7.03307 6.34803
#
# Compressibility (1/GPa) = 0.03864680
#
# Stress axis : x y z
#
# Youngs Moduli (GPa) = 61.51422 21.35228 77.76540
#
# Poissons Ratio (x) = 0.13678 0.56012
# Poissons Ratio (y) = 0.39406 0.39213
# Poissons Ratio (z) = 0.44306 0.10767
#
# Static dielectric constant tensor:
#      x y z
#    x 3.004410 0.000000 0.000000 
#    y 0.000000 2.829210 0.000000 
#    z 0.000000 0.000000 3.461840 
# 
# 
# High freq. dielectric constant tensor:
#      x y z
#    x 1.586760 0.000000 0.000000 
#    y 0.000000 1.595500 0.000000 
#    z 0.000000 0.000000 1.615340 
# 
# From -- ./inp_files/20897.got.cif
#   From: 2010.03.12/outbox.cif.g09.slc.cpg/sg44_11_cif.got.tgz:20897.got - 2010.04.14 02:36:11.
