data_PCOD8188154
_publ_section_title
;
Structure prediction by ZEFSAII (Michael W. Deem and Ramdas Pophale) SiO2 
 PCOD8188154
Probable space group: I M M 2
;
_chemical_formula_sum "Si O2"
_cell_formula_units_Z 64
_cell_length_a 25.155235
_cell_length_b 9.248601
_cell_length_c 15.197976
_cell_angle_alpha 90.000000
_cell_angle_beta 90.000000
_cell_angle_gamma 90.000000
_cell_volume 3535.820235
_symmetry_space_group_name_H-M "I M M 2"
_symmetry_group_IT_number 44
_symmetry_cell_setting 'orthorhombic'
loop_
_space_group_symop_operation_xyz
x,y,z
-x,-y,z
-x,y,z
x,-y,z
1/2+x,1/2+y,1/2+z
1/2-x,1/2-y,1/2+z
1/2-x,1/2+y,1/2+z
1/2+x,1/2-y,1/2+z
loop_
_atom_site_type_symbol
_atom_site_label
_atom_site_fract_x
_atom_site_fract_y
_atom_site_fract_z
Si Si1 0.060391 0.167816 0.347990
Si Si2 0.852907 0.171462 0.482329
Si Si3 0.336642 0.329108 0.179624
Si Si4 0.559747 0.828381 0.498281
Si Si5 0.861783 0.671533 0.846250
Si Si6 0.237162 0.671749 0.953536
Si Si7 0.780144 0.329162 0.146162
Si Si8 0.894975 0.328689 0.185040
O O1 0.097948 0.231712 0.425309
O O2 0.069620 0.252797 0.258175
O O3 0.000000 0.191099 0.378956
O O4 0.072977 0.000000 0.330743
O O5 0.856417 0.224455 0.583526
O O6 0.797759 0.225015 0.436731
O O7 0.853827 0.000000 0.484156
O O8 0.344072 0.500000 0.190556
O O9 0.371916 0.247634 0.252555
O O10 0.274679 0.281995 0.193115
O O11 0.500000 0.767136 0.488910
O O12 0.594264 0.772775 0.415646
O O13 0.584934 0.774511 0.589879
O O14 0.559837 0.000000 0.498126
O O15 0.864793 0.500000 0.834042
O O16 0.803644 0.725160 0.879248
O O17 0.235335 0.500000 0.957285
O O18 0.218059 0.734760 0.047407
O O19 0.780843 0.500000 0.137273
O O20 0.833260 0.278957 0.197501
O O21 0.901866 0.500000 0.194913
#
# Coordination Sequence:
#
# PCOD8188154 Si02
#       8
#     8   8   8   8   8   8   8   8
#     4  10  21  35  50  71  98 127 163 205 245 284
#     4   8  16  32  51  67  90 129 167 196 234 288
#     4   9  18  32  50  71  99 131 162 198 243 290
#     4   9  17  30  49  72  99 131 165 197 233 286
#     4  10  18  29  49  75  99 126 162 203 240 280
#     4   8  13  25  46  70  92 120 159 194 227 278
#     4   8  14  27  47  71  98 127 157 190 232 286
#     4  10  18  31  52  76  99 126 161 197 237 290
#
# _framework density 18.100469
#
# number of rings (size 3 to 8) (size 9 to 14) (size 15 to 20)
#    0.000    3.000    1.250    1.875    1.750    0.750 
#    0.000    1.875    0.000    4.875    0.000    0.000 
#    0.000    0.000    0.000    0.000    0.000    0.000 
#
# Total GULP energy -396559.321725 kJ/mol
# GULP energy per Si atom -12392.478804 kJ/mol
# Density = 1.805927 g / cm^3
# Si number density = 18.100469 Si / 1000 Ang^3
#
#
#
# Elastic Constant Matrix: (Units=GPa)
#
#
# Indices 1 2 3 4 5 6 
#
# 1 124.6041 22.5839 68.5525 0.0000 0.0000 0.0000
# 2 22.5839 21.3965 26.9697 0.0000 0.0000 0.0000
# 3 68.5525 26.9697 121.1476 0.0000 0.0000 0.0000
# 4 0.0000 0.0000 0.0000 25.4081 0.0000 0.0000
# 5 0.0000 0.0000 0.0000 0.0000 30.4935 0.0000
# 6 0.0000 0.0000 0.0000 0.0000 0.0000 13.8784
#
#
#
# Elastic Compliance Matrix: (Units=1/GPa)
#
#
# Indices 1 2 3 4 5 6 
#
# 1 0.012146 -0.005779 -0.005587 0.000000 0.000000 0.000000
# 2 -0.005779 0.067716 -0.011805 0.000000 0.000000 0.000000
# 3 -0.005587 -0.011805 0.014044 0.000000 0.000000 0.000000
# 4 0.000000 0.000000 0.000000 0.039358 0.000000 0.000000
# 5 0.000000 0.000000 0.000000 0.000000 0.032794 0.000000
# 6 0.000000 0.000000 0.000000 0.000000 0.000000 0.072054
#
#
# Mechanical properties :
#
#
# Convention : Reuss Voigt Hill
#
# Bulk Modulus (GPa) = 21.02369 55.92891 38.47630
# Shear Modulus (GPa) = 16.64964 23.89214 20.27089
#
# Velocity S-wave (km/s) = 3.03619 3.63709 3.35014
# Velocity P-wave (km/s) = 4.89198 6.97166 6.02227
#
# Compressibility (1/GPa) = 0.04756539
#
# Stress axis : x y z
#
# Youngs Moduli (GPa) = 82.32929 14.76764 71.20645
#
# Poissons Ratio (x) = 0.08534 0.39781
# Poissons Ratio (y) = 0.47574 0.84059
# Poissons Ratio (z) = 0.45995 0.17433
#
# Static dielectric constant tensor:
#      x y z
#    x 3.694570 0.000000 0.000000 
#    y 0.000000 2.742590 0.000000 
#    z 0.000000 0.000000 3.376550 
# 
# 
# High freq. dielectric constant tensor:
#      x y z
#    x 1.704530 0.000000 0.000000 
#    y 0.000000 1.640480 0.000000 
#    z 0.000000 0.000000 1.701580 
# 
# From -- ./inp_files/14690.got.cif
#   From: 2010.03.12/outbox.cif.g09.slc.cpg/sg44_8_cif.got.tgz:14690.got - 2010.04.14 02:36:11.
