data_PCOD8188980
_publ_section_title
;
Structure prediction by ZEFSAII (Michael W. Deem and Ramdas Pophale) SiO2 
 PCOD8188980
Probable space group: I M M 2
;
_chemical_formula_sum "Si O2"
_cell_formula_units_Z 64
_cell_length_a 29.328121
_cell_length_b 14.166458
_cell_length_c 8.370573
_cell_angle_alpha 90.000000
_cell_angle_beta 90.000000
_cell_angle_gamma 90.000000
_cell_volume 3477.768792
_symmetry_space_group_name_H-M "I M M 2"
_symmetry_group_IT_number 44
_symmetry_cell_setting 'orthorhombic'
loop_
_space_group_symop_operation_xyz
x,y,z
-x,-y,z
-x,y,z
x,-y,z
1/2+x,1/2+y,1/2+z
1/2-x,1/2-y,1/2+z
1/2-x,1/2+y,1/2+z
1/2+x,1/2-y,1/2+z
loop_
_atom_site_type_symbol
_atom_site_label
_atom_site_fract_x
_atom_site_fract_y
_atom_site_fract_z
Si Si1 0.665167 0.109401 0.620110
Si Si2 0.286954 0.718369 0.477790
Si Si3 0.617862 0.895187 0.298585
Si Si4 0.448142 0.769613 0.118451
Si Si5 0.372795 0.753521 0.875831
Si Si6 0.695034 0.217127 0.137338
Si Si7 0.051147 0.892690 0.850453
Si Si8 0.872806 0.111105 0.100388
O O1 0.705804 0.176744 0.554003
O O2 0.625142 0.113138 0.488436
O O3 0.645267 0.153744 0.782604
O O4 0.681421 0.000000 0.646195
O O5 0.287406 0.719762 0.285340
O O6 0.238709 0.678586 0.540051
O O7 0.324986 0.644089 0.529189
O O8 0.574058 0.833857 0.255501
O O9 0.664159 0.867418 0.205235
O O10 0.606271 0.000000 0.244864
O O11 0.500000 0.800979 0.088774
O O12 0.444329 0.663305 0.184655
O O13 0.421294 0.780175 0.952776
O O14 0.380626 0.662464 0.767687
O O15 0.336497 0.724122 0.013598
O O16 0.000000 0.880822 0.921338
O O17 0.062005 0.000000 0.805287
O O18 0.086913 0.856523 0.982068
O O19 0.872648 0.000000 0.130560
#
# Coordination Sequence:
#
# PCOD8188980 Si02
#       8
#     8   8   8   8   8   8   8   8
#     4   9  18  34  55  76 101 136 173 209 255 306
#     4  10  19  35  55  77 103 132 173 219 255 300
#     4   9  19  36  57  78 102 135 173 212 257 310
#     4  10  20  34  54  78 104 136 173 215 258 301
#     4  10  20  34  51  75 107 138 169 207 256 311
#     4  10  20  35  54  74 104 139 170 210 255 300
#     4   9  18  34  55  76 100 135 176 214 257 309
#     4  10  20  34  53  77 105 135 170 216 262 304
#
# _framework density 18.402602000000002
#
# number of rings (size 3 to 8) (size 9 to 14) (size 15 to 20)
#    0.000    2.375    0.000    4.500    0.000    3.750 
#    0.000    6.250    0.000    1.500    0.000    0.000 
#    0.000    0.000    0.000    0.000    0.000    0.000 
#
# Total GULP energy -396698.376241 kJ/mol
# GULP energy per Si atom -12396.824258 kJ/mol
# Density = 1.836072 g / cm^3
# Si number density = 18.402602 Si / 1000 Ang^3
#
#
#
# Elastic Constant Matrix: (Units=GPa)
#
#
# Indices 1 2 3 4 5 6 
#
# 1 123.1415 18.7263 41.2313 0.0000 0.0000 0.0000
# 2 18.7263 73.2741 22.6098 0.0000 0.0000 0.0000
# 3 41.2313 22.6098 101.4362 0.0000 0.0000 0.0000
# 4 0.0000 0.0000 0.0000 20.8616 0.0000 0.0000
# 5 0.0000 0.0000 0.0000 0.0000 27.9322 0.0000
# 6 0.0000 0.0000 0.0000 0.0000 0.0000 18.2224
#
#
#
# Elastic Compliance Matrix: (Units=1/GPa)
#
#
# Indices 1 2 3 4 5 6 
#
# 1 0.009519 -0.001330 -0.003573 0.000000 0.000000 0.000000
# 2 -0.001330 0.014841 -0.002767 0.000000 0.000000 0.000000
# 3 -0.003573 -0.002767 0.011928 0.000000 0.000000 0.000000
# 4 0.000000 0.000000 0.000000 0.047935 0.000000 0.000000
# 5 0.000000 0.000000 0.000000 0.000000 0.035801 0.000000
# 6 0.000000 0.000000 0.000000 0.000000 0.000000 0.054877
#
#
# Mechanical properties :
#
#
# Convention : Reuss Voigt Hill
#
# Bulk Modulus (GPa) = 47.73933 51.44296 49.59114
# Shear Modulus (GPa) = 25.35176 27.75553 26.55365
#
# Velocity S-wave (km/s) = 3.71565 3.88782 3.80271
# Velocity P-wave (km/s) = 6.66379 6.94034 6.80347
#
# Compressibility (1/GPa) = 0.02094709
#
# Stress axis : x y z
#
# Youngs Moduli (GPa) = 105.04931 67.37970 83.83981
#
# Poissons Ratio (x) = 0.08964 0.29955
# Poissons Ratio (y) = 0.13975 0.23201
# Poissons Ratio (z) = 0.37532 0.18646
#
# Static dielectric constant tensor:
#      x y z
#    x 3.397910 0.000000 0.000000 
#    y 0.000000 3.308350 0.000000 
#    z 0.000000 0.000000 3.528070 
# 
# 
# High freq. dielectric constant tensor:
#      x y z
#    x 1.712560 0.000000 0.000000 
#    y 0.000000 1.699310 0.000000 
#    z 0.000000 0.000000 1.719280 
# 
# From -- ./inp_files/7716.got.cif
#   From: 2010.03.12/outbox.cif.g09.slc.cpg/sg44_4_cif.got.tgz:7716.got - 2010.04.14 02:36:11.
