data_PCOD8188791
_publ_section_title
;
Structure prediction by ZEFSAII (Michael W. Deem and Ramdas Pophale) SiO2 
 PCOD8188791
Probable space group: I M M 2
;
_chemical_formula_sum "Si O2"
_cell_formula_units_Z 40
_cell_length_a 9.045578
_cell_length_b 12.572761
_cell_length_c 20.621635
_cell_angle_alpha 90.000000
_cell_angle_beta 90.000000
_cell_angle_gamma 90.000000
_cell_volume 2345.255043
_symmetry_space_group_name_H-M "I M M 2"
_symmetry_group_IT_number 44
_symmetry_cell_setting 'orthorhombic'
loop_
_space_group_symop_operation_xyz
x,y,z
-x,-y,z
-x,y,z
x,-y,z
1/2+x,1/2+y,1/2+z
1/2-x,1/2-y,1/2+z
1/2-x,1/2+y,1/2+z
1/2+x,1/2-y,1/2+z
loop_
_atom_site_type_symbol
_atom_site_label
_atom_site_fract_x
_atom_site_fract_y
_atom_site_fract_z
Si Si1 0.174403 0.500000 0.807600
Si Si2 0.327736 0.880218 0.065102
Si Si3 0.675996 0.500000 0.944239
Si Si4 0.172031 0.681244 0.708672
Si Si5 0.673952 0.177628 0.527699
Si Si6 0.172421 0.382175 0.173548
O O1 0.276423 0.500000 0.869924
O O2 0.218795 0.603706 0.766431
O O3 0.000000 0.500000 0.824751
O O4 0.500000 0.852880 0.056385
O O5 0.280686 0.870864 0.140389
O O6 0.231728 0.798959 0.021809
O O7 0.293173 0.000000 0.041601
O O8 0.500000 0.500000 0.950693
O O9 0.741684 0.394019 0.975997
O O10 0.248905 0.795423 0.718714
O O11 0.000000 0.702463 0.709790
O O12 0.500000 0.173007 0.513290
O O13 0.714596 0.133442 0.598455
O O14 0.224066 0.500000 0.194823
O O15 0.000000 0.367486 0.183476
#
# Coordination Sequence:
#
# PCOD8188791 Si02
#       6
#     4   8   4   8   8   8
#     4  10  20  36  54  72 102 138 169 208 251 298
#     4   9  16  29  50  77 108 135 163 206 253 300
#     4  12  24  36  52  74 100 134 177 218 257 302
#     4   9  17  30  49  74 101 132 169 202 245 299
#     4  10  19  33  50  72 103 136 172 208 253 307
#     4   9  17  30  48  72 104 134 161 202 253 299
#
# _framework density 17.055713000000001
#
# number of rings (size 3 to 8) (size 9 to 14) (size 15 to 20)
#    0.000    2.400    2.000    1.500    0.000    2.400 
#    0.000    0.000    0.000    1.200    0.000    5.600 
#    0.000    0.000    0.000    0.000    0.000    0.000 
#
# Total GULP energy -247991.759913 kJ/mol
# GULP energy per Si atom -12399.587996 kJ/mol
# Density = 1.701689 g / cm^3
# Si number density = 17.055713 Si / 1000 Ang^3
#
#
#
# Elastic Constant Matrix: (Units=GPa)
#
#
# Indices 1 2 3 4 5 6 
#
# 1 74.6806 63.3635 44.5207 0.0000 0.0000 0.0000
# 2 63.3635 163.0278 58.0148 0.0000 0.0000 0.0000
# 3 44.5207 58.0148 69.0710 0.0000 0.0000 0.0000
# 4 0.0000 0.0000 0.0000 21.9896 0.0000 0.0000
# 5 0.0000 0.0000 0.0000 0.0000 23.4526 0.0000
# 6 0.0000 0.0000 0.0000 0.0000 0.0000 33.7194
#
#
#
# Elastic Compliance Matrix: (Units=1/GPa)
#
#
# Indices 1 2 3 4 5 6 
#
# 1 0.024948 -0.005668 -0.011320 0.000000 0.000000 0.000000
# 2 -0.005668 0.010037 -0.004777 0.000000 0.000000 0.000000
# 3 -0.011320 -0.004777 0.025786 0.000000 0.000000 0.000000
# 4 0.000000 0.000000 0.000000 0.045476 0.000000 0.000000
# 5 0.000000 0.000000 0.000000 0.000000 0.042639 0.000000
# 6 0.000000 0.000000 0.000000 0.000000 0.000000 0.029657
#
#
# Mechanical properties :
#
#
# Convention : Reuss Voigt Hill
#
# Bulk Modulus (GPa) = 57.99858 70.95303 64.47580
# Shear Modulus (GPa) = 21.94731 25.22435 23.58583
#
# Velocity S-wave (km/s) = 3.59109 3.84987 3.72273
# Velocity P-wave (km/s) = 7.16057 7.83920 7.50756
#
# Compressibility (1/GPa) = 0.01724180
#
# Stress axis : x y z
#
# Youngs Moduli (GPa) = 40.08381 99.63355 38.78063
#
# Poissons Ratio (x) = 0.56474 0.43898
# Poissons Ratio (y) = 0.22720 0.18524
# Poissons Ratio (z) = 0.45373 0.47592
#
# Static dielectric constant tensor:
#      x y z
#    x 3.142410 0.000000 0.000000 
#    y 0.000000 3.513170 0.000000 
#    z 0.000000 0.000000 2.863770 
# 
# 
# High freq. dielectric constant tensor:
#      x y z
#    x 1.657040 0.000000 0.000000 
#    y 0.000000 1.673440 0.000000 
#    z 0.000000 0.000000 1.613340 
# 
# From -- ./inp_files/22757.got.cif
#   From: 2010.03.12/outbox.cif.g09.slc.cpg/sg44_12_cif.got.tgz:22757.got - 2010.04.14 02:36:11.
