data_PCOD8188716
_publ_section_title
;
Structure prediction by ZEFSAII (Michael W. Deem and Ramdas Pophale) SiO2 
 PCOD8188716
Probable space group: I M M 2
;
_chemical_formula_sum "Si O2"
_cell_formula_units_Z 56
_cell_length_a 19.058007
_cell_length_b 9.004981
_cell_length_c 18.094547
_cell_angle_alpha 90.000000
_cell_angle_beta 90.000000
_cell_angle_gamma 90.000000
_cell_volume 3105.331708
_symmetry_space_group_name_H-M "I M M 2"
_symmetry_group_IT_number 44
_symmetry_cell_setting 'orthorhombic'
loop_
_space_group_symop_operation_xyz
x,y,z
-x,-y,z
-x,y,z
x,-y,z
1/2+x,1/2+y,1/2+z
1/2-x,1/2-y,1/2+z
1/2-x,1/2+y,1/2+z
1/2+x,1/2-y,1/2+z
loop_
_atom_site_type_symbol
_atom_site_label
_atom_site_fract_x
_atom_site_fract_y
_atom_site_fract_z
Si Si1 0.210783 0.172556 0.095020
Si Si2 0.076339 0.665238 0.102450
Si Si3 0.710281 0.323531 0.966606
Si Si4 0.179016 0.828113 0.687812
Si Si5 0.301427 0.329035 0.356765
Si Si6 0.922934 0.663908 0.928329
Si Si7 0.578176 0.326504 0.059112
O O1 0.134213 0.215164 0.126588
O O2 0.263351 0.213996 0.159804
O O3 0.214912 0.000000 0.075410
O O4 0.229130 0.267739 0.022187
O O5 0.097125 0.500000 0.130702
O O6 0.000000 0.710082 0.135660
O O7 0.070472 0.664912 0.015244
O O8 0.712064 0.500000 0.963941
O O9 0.731728 0.259328 0.885787
O O10 0.634081 0.266472 0.997192
O O11 0.174093 0.791022 0.773911
O O12 0.107136 0.795110 0.642245
O O13 0.201017 0.000000 0.673795
O O14 0.282502 0.500000 0.366150
O O15 0.369122 0.290074 0.404704
O O16 0.897316 0.500000 0.901613
O O17 0.000000 0.698402 0.894434
O O18 0.500000 0.253547 0.050282
O O19 0.570608 0.500000 0.046269
#
# Coordination Sequence:
#
# PCOD8188716 Si02
#       7
#     8   8   8   8   8   8   8
#     4  11  20  31  50  75 100 127 168 216 253 297
#     4   9  17  30  49  71  97 131 164 196 244 301
#     4  10  19  32  52  74 101 136 169 209 262 314
#     4   9  20  35  51  72 102 137 169 207 261 317
#     4  11  21  32  49  76 105 136 176 217 254 301
#     4   9  18  31  47  69 100 137 168 196 241 300
#     4   8  15  31  55  78  97 125 170 216 258 308
#
# _framework density 18.0335
#
# number of rings (size 3 to 8) (size 9 to 14) (size 15 to 20)
#    0.000    2.429    1.429    3.857    0.000    2.286 
#    0.000    2.857    0.000   11.571    0.000    4.000 
#    0.000    0.000    0.000    0.000    0.000    0.000 
#
# Total GULP energy -346918.260218 kJ/mol
# GULP energy per Si atom -12389.937865 kJ/mol
# Density = 1.799246 g / cm^3
# Si number density = 18.033500 Si / 1000 Ang^3
#
#
#
# Elastic Constant Matrix: (Units=GPa)
#
#
# Indices 1 2 3 4 5 6 
#
# 1 129.8724 32.8457 30.0778 0.0000 0.0000 0.0000
# 2 32.8457 65.5499 15.6784 0.0000 0.0000 0.0000
# 3 30.0778 15.6784 49.9358 0.0000 0.0000 0.0000
# 4 0.0000 0.0000 0.0000 22.7730 0.0000 0.0000
# 5 0.0000 0.0000 0.0000 0.0000 13.7004 0.0000
# 6 0.0000 0.0000 0.0000 0.0000 0.0000 18.6617
#
#
#
# Elastic Compliance Matrix: (Units=1/GPa)
#
#
# Indices 1 2 3 4 5 6 
#
# 1 0.009735 -0.003758 -0.004684 0.000000 0.000000 0.000000
# 2 -0.003758 0.017945 -0.003371 0.000000 0.000000 0.000000
# 3 -0.004684 -0.003371 0.023905 0.000000 0.000000 0.000000
# 4 0.000000 0.000000 0.000000 0.043912 0.000000 0.000000
# 5 0.000000 0.000000 0.000000 0.000000 0.072991 0.000000
# 6 0.000000 0.000000 0.000000 0.000000 0.000000 0.053586
#
#
# Mechanical properties :
#
#
# Convention : Reuss Voigt Hill
#
# Bulk Modulus (GPa) = 35.76496 44.72909 40.24703
# Shear Modulus (GPa) = 19.60650 22.14411 20.87530
#
# Velocity S-wave (km/s) = 3.30089 3.50800 3.40602
# Velocity P-wave (km/s) = 5.86544 6.42381 6.15096
#
# Compressibility (1/GPa) = 0.02796032
#
# Stress axis : x y z
#
# Youngs Moduli (GPa) = 102.72250 55.72681 41.83183
#
# Poissons Ratio (x) = 0.20940 0.19593
# Poissons Ratio (y) = 0.38600 0.14100
# Poissons Ratio (z) = 0.48114 0.18784
#
# Static dielectric constant tensor:
#      x y z
#    x 3.883370 0.000000 0.000000 
#    y 0.000000 3.216080 0.000000 
#    z 0.000000 0.000000 3.168280 
# 
# 
# High freq. dielectric constant tensor:
#      x y z
#    x 1.702970 0.000000 0.000000 
#    y 0.000000 1.683060 0.000000 
#    z 0.000000 0.000000 1.662240 
# 
# From -- ./inp_files/20682.got.cif
#   From: 2010.03.12/outbox.cif.g09.slc.cpg/sg44_11_cif.got.tgz:20682.got - 2010.04.14 02:36:11.
