data_PCOD8188604
_publ_section_title
;
Structure prediction by ZEFSAII (Michael W. Deem and Ramdas Pophale) SiO2 
 PCOD8188604
Probable space group: I M M 2
;
_chemical_formula_sum "Si O2"
_cell_formula_units_Z 56
_cell_length_a 21.334083
_cell_length_b 8.925479
_cell_length_c 14.602596
_cell_angle_alpha 90.000000
_cell_angle_beta 90.000000
_cell_angle_gamma 90.000000
_cell_volume 2780.581205
_symmetry_space_group_name_H-M "I M M 2"
_symmetry_group_IT_number 44
_symmetry_cell_setting 'orthorhombic'
loop_
_space_group_symop_operation_xyz
x,y,z
-x,-y,z
-x,y,z
x,-y,z
1/2+x,1/2+y,1/2+z
1/2-x,1/2-y,1/2+z
1/2-x,1/2+y,1/2+z
1/2+x,1/2-y,1/2+z
loop_
_atom_site_type_symbol
_atom_site_label
_atom_site_fract_x
_atom_site_fract_y
_atom_site_fract_z
Si Si1 0.623004 0.177388 0.766310
Si Si2 0.429490 0.177361 0.575406
Si Si3 0.072051 0.323060 0.460375
Si Si4 0.644005 0.674405 0.419861
Si Si5 0.429749 0.162840 0.276220
Si Si6 0.737298 0.322422 0.268176
Si Si7 0.132478 0.822320 0.625174
O O1 0.583760 0.232391 0.678692
O O2 0.586698 0.229382 0.856934
O O3 0.693298 0.246905 0.761967
O O4 0.628996 0.000000 0.764880
O O5 0.500000 0.232595 0.548254
O O6 0.372725 0.240576 0.513513
O O7 0.426161 0.000000 0.567179
O O8 0.081755 0.500000 0.472247
O O9 0.124456 0.238385 0.521983
O O10 0.000000 0.277729 0.482898
O O11 0.646024 0.500000 0.442326
O O12 0.589433 0.712785 0.349323
O O13 0.707112 0.728963 0.366230
O O14 0.500000 0.124102 0.296546
O O15 0.423760 0.238412 0.177044
O O16 0.393973 0.000000 0.282990
O O17 0.738619 0.500000 0.267935
O O18 0.696262 0.271694 0.179024
O O19 0.124629 0.000000 0.626496
#
# Coordination Sequence:
#
# PCOD8188604 Si02
#       7
#     8   8   8   8   8   8   8
#     4   9  18  35  57  75  99 138 178 221 264 298
#     4  10  20  34  54  80 105 133 175 220 260 306
#     4  10  20  34  54  80 105 133 175 220 260 306
#     4  10  20  33  51  76 107 139 169 207 258 315
#     4  10  19  31  49  74 103 135 174 217 256 301
#     4   8  17  34  53  76 104 135 174 213 254 309
#     4  10  20  33  51  76 107 139 169 207 258 315
#
# _framework density 20.139672999999998
#
# number of rings (size 3 to 8) (size 9 to 14) (size 15 to 20)
#    0.000    2.429    0.000    3.429    0.000    8.000 
#    0.000    0.714    0.000   10.286    0.000    0.000 
#    0.000    0.000    0.000    0.000    0.000    0.000 
#
# Total GULP energy -346872.359028 kJ/mol
# GULP energy per Si atom -12388.298537 kJ/mol
# Density = 2.009383 g / cm^3
# Si number density = 20.139673 Si / 1000 Ang^3
#
#
#
# Elastic Constant Matrix: (Units=GPa)
#
#
# Indices 1 2 3 4 5 6 
#
# 1 93.4947 20.2657 28.1204 0.0000 0.0000 0.0000
# 2 20.2657 33.0513 14.1437 0.0000 0.0000 0.0000
# 3 28.1204 14.1437 116.8966 0.0000 0.0000 0.0000
# 4 0.0000 0.0000 0.0000 -2.8791 0.0000 0.0000
# 5 0.0000 0.0000 0.0000 0.0000 21.6548 0.0000
# 6 0.0000 0.0000 0.0000 0.0000 0.0000 17.3745
#
#
#
# Elastic Compliance Matrix: (Units=1/GPa)
#
#
# Indices 1 2 3 4 5 6 
#
# 1 0.012877 -0.006929 -0.002259 0.000000 0.000000 0.000000
# 2 -0.006929 0.035636 -0.002645 0.000000 0.000000 0.000000
# 3 -0.002259 -0.002645 0.009418 0.000000 0.000000 0.000000
# 4 0.000000 0.000000 0.000000 -0.347336 0.000000 0.000000
# 5 0.000000 0.000000 0.000000 0.000000 0.046179 0.000000
# 6 0.000000 0.000000 0.000000 0.000000 0.000000 0.057556
#
#
# Mechanical properties :
#
#
# Convention : Reuss Voigt Hill
#
# Bulk Modulus (GPa) = 29.18410 40.94468 35.06439
# Shear Modulus (GPa) = -33.20480 19.29089 -6.95696
#
# Velocity S-wave (km/s) = -4.06486 3.09828 -1.86061
# Velocity P-wave (km/s) = 2.74015 5.75965 3.58226
#
# Compressibility (1/GPa) = 0.03426524
#
# Stress axis : x y z
#
# Youngs Moduli (GPa) = 77.65638 28.06117 106.17853
#
# Poissons Ratio (x) = 0.19443 0.23990
# Poissons Ratio (y) = 0.53808 0.28084
# Poissons Ratio (z) = 0.17545 0.07422
#
# Static dielectric constant tensor:
#      x y z
#    x 3.843510 0.000000 0.000000 
#    y 0.000000 40.802080 0.000000 
#    z 0.000000 0.000000 3.870050 
# 
# 
# High freq. dielectric constant tensor:
#      x y z
#    x 1.777590 0.000000 0.000000 
#    y 0.000000 1.755250 0.000000 
#    z 0.000000 0.000000 1.793030 
# 
# From -- ./inp_files/19175.got.cif
#   From: 2010.03.12/outbox.cif.g09.slc.cpg/sg44_10_cif.got.tgz:19175.got - 2010.04.14 02:36:11.
