data_PCOD8188474
_publ_section_title
;
Structure prediction by ZEFSAII (Michael W. Deem and Ramdas Pophale) SiO2 
 PCOD8188474
Probable space group: I M M 2
;
_chemical_formula_sum "Si O2"
_cell_formula_units_Z 56
_cell_length_a 8.858156
_cell_length_b 19.072344
_cell_length_c 18.013709
_cell_angle_alpha 90.000000
_cell_angle_beta 90.000000
_cell_angle_gamma 90.000000
_cell_volume 3043.340450
_symmetry_space_group_name_H-M "I M M 2"
_symmetry_group_IT_number 44
_symmetry_cell_setting 'orthorhombic'
loop_
_space_group_symop_operation_xyz
x,y,z
-x,-y,z
-x,y,z
x,-y,z
1/2+x,1/2+y,1/2+z
1/2-x,1/2-y,1/2+z
1/2-x,1/2+y,1/2+z
1/2+x,1/2-y,1/2+z
loop_
_atom_site_type_symbol
_atom_site_label
_atom_site_fract_x
_atom_site_fract_y
_atom_site_fract_z
Si Si1 0.327948 0.924122 0.038050
Si Si2 0.324540 0.209165 0.944580
Si Si3 0.165168 0.167150 0.798047
Si Si4 0.179238 0.081156 0.659621
Si Si5 0.678801 0.203854 0.566947
Si Si6 0.824569 0.076510 0.192739
Si Si7 0.835680 0.291818 0.688021
O O1 0.500000 0.915452 0.066082
O O2 0.214013 0.919313 0.106157
O O3 0.307789 0.000000 0.998499
O O4 0.281987 0.864210 0.981675
O O5 0.500000 0.227868 0.947481
O O6 0.279254 0.193640 0.860186
O O7 0.237875 0.274168 0.984544
O O8 0.229521 0.105933 0.743038
O O9 0.140910 0.233924 0.748011
O O10 0.000000 0.145263 0.830795
O O11 0.254076 0.129391 0.595455
O O12 0.000000 0.090755 0.652445
O O13 0.227971 0.000000 0.648304
O O14 0.500000 0.196690 0.564876
O O15 0.727351 0.266704 0.621579
O O16 0.733110 0.140062 0.230373
O O17 0.000000 0.088861 0.205556
O O18 0.776659 0.000000 0.224867
O O19 0.000000 0.310018 0.652960
#
# Coordination Sequence:
#
# PCOD8188474 Si02
#       7
#     8   8   8   8   8   8   8
#     4   9  18  31  46  67  99 137 171 204 245 297
#     4  11  21  33  51  76 108 145 183 221 267 322
#     4   9  20  35  52  76 106 139 177 219 269 324
#     4   9  19  38  61  83 110 145 184 226 276 334
#     4  11  21  33  54  80 107 139 179 229 274 316
#     4  10  19  29  46  74 102 129 164 207 254 302
#     4  10  19  34  53  73 100 136 177 218 261 314
#
# _framework density 18.400832999999999
#
# number of rings (size 3 to 8) (size 9 to 14) (size 15 to 20)
#    0.000    2.143    1.429    3.429    0.000    5.143 
#    0.000    0.000    0.000    0.857    0.000    4.000 
#    0.000    0.000    0.000    0.000    0.000    0.000 
#
# Total GULP energy -346898.908769 kJ/mol
# GULP energy per Si atom -12389.246742 kJ/mol
# Density = 1.835895 g / cm^3
# Si number density = 18.400833 Si / 1000 Ang^3
#
#
#
# Elastic Constant Matrix: (Units=GPa)
#
#
# Indices 1 2 3 4 5 6 
#
# 1 84.0363 40.9446 20.7592 0.0000 0.0000 0.0000
# 2 40.9446 125.8391 26.1831 0.0000 0.0000 0.0000
# 3 20.7592 26.1831 58.2156 0.0000 0.0000 0.0000
# 4 0.0000 0.0000 0.0000 14.3448 0.0000 0.0000
# 5 0.0000 0.0000 0.0000 0.0000 25.7542 0.0000
# 6 0.0000 0.0000 0.0000 0.0000 0.0000 27.3789
#
#
#
# Elastic Compliance Matrix: (Units=1/GPa)
#
#
# Indices 1 2 3 4 5 6 
#
# 1 0.014733 -0.004083 -0.003417 0.000000 0.000000 0.000000
# 2 -0.004083 0.009898 -0.002996 0.000000 0.000000 0.000000
# 3 -0.003417 -0.002996 0.019744 0.000000 0.000000 0.000000
# 4 0.000000 0.000000 0.000000 0.069712 0.000000 0.000000
# 5 0.000000 0.000000 0.000000 0.000000 0.038829 0.000000
# 6 0.000000 0.000000 0.000000 0.000000 0.000000 0.036525
#
#
# Mechanical properties :
#
#
# Convention : Reuss Voigt Hill
#
# Bulk Modulus (GPa) = 42.76661 49.31833 46.04247
# Shear Modulus (GPa) = 22.91198 25.50918 24.21058
#
# Velocity S-wave (km/s) = 3.53251 3.72735 3.63124
# Velocity P-wave (km/s) = 6.31904 6.73681 6.53127
#
# Compressibility (1/GPa) = 0.02338273
#
# Stress axis : x y z
#
# Youngs Moduli (GPa) = 67.87491 101.02614 50.64914
#
# Poissons Ratio (x) = 0.41245 0.17309
# Poissons Ratio (y) = 0.27711 0.15175
# Poissons Ratio (z) = 0.23196 0.30268
#
# Static dielectric constant tensor:
#      x y z
#    x 2.926150 0.000000 0.000000 
#    y 0.000000 3.843650 0.000000 
#    z 0.000000 0.000000 3.154170 
# 
# 
# High freq. dielectric constant tensor:
#      x y z
#    x 1.716780 0.000000 0.000000 
#    y 0.000000 1.726710 0.000000 
#    z 0.000000 0.000000 1.671060 
# 
# From -- ./inp_files/20685.got.cif
#   From: 2010.03.12/outbox.cif.g09.slc.cpg/sg44_11_cif.got.tgz:20685.got - 2010.04.14 02:36:11.
