data_PCOD8188108
_publ_section_title
;
Structure prediction by ZEFSAII (Michael W. Deem and Ramdas Pophale) SiO2 
 PCOD8188108
Probable space group: I M M 2
;
_chemical_formula_sum "Si O2"
_cell_formula_units_Z 48
_cell_length_a 18.418945
_cell_length_b 9.140452
_cell_length_c 15.215330
_cell_angle_alpha 90.000000
_cell_angle_beta 90.000000
_cell_angle_gamma 90.000000
_cell_volume 2561.614657
_symmetry_space_group_name_H-M "I M M 2"
_symmetry_group_IT_number 44
_symmetry_cell_setting 'orthorhombic'
loop_
_space_group_symop_operation_xyz
x,y,z
-x,-y,z
-x,y,z
x,-y,z
1/2+x,1/2+y,1/2+z
1/2-x,1/2-y,1/2+z
1/2-x,1/2+y,1/2+z
1/2+x,1/2-y,1/2+z
loop_
_atom_site_type_symbol
_atom_site_label
_atom_site_fract_x
_atom_site_fract_y
_atom_site_fract_z
Si Si1 0.266252 0.334716 0.947290
Si Si2 0.921137 0.326211 0.192480
Si Si3 0.500000 0.673359 0.179355
Si Si4 0.893199 0.335911 0.004219
Si Si5 0.229605 0.674067 0.266351
Si Si6 0.000000 0.327176 0.862209
Si Si7 0.656331 0.673901 0.118261
O O1 0.286142 0.500000 0.917351
O O2 0.192638 0.332770 0.002000
O O3 0.254743 0.233927 0.863074
O O4 0.323197 0.272013 0.019519
O O5 0.912659 0.500000 0.187447
O O6 0.851772 0.266072 0.245549
O O7 0.000000 0.283225 0.234890
O O8 0.918423 0.257914 0.094222
O O9 0.500000 0.500000 0.183158
O O10 0.500000 0.734284 0.275809
O O11 0.573791 0.729750 0.132554
O O12 0.923712 0.500000 0.007959
O O13 0.929756 0.270407 0.916815
O O14 0.232944 0.500000 0.269844
O O15 0.288749 0.733404 0.194837
O O16 0.000000 0.500000 0.839114
O O17 0.661690 0.500000 0.120240
#
# Coordination Sequence:
#
# PCOD8188108 Si02
#       7
#     8   8   4   8   8   4   8
#     4  10  19  33  52  74  98 131 169 203 241 289
#     4   9  15  27  49  74  97 123 158 199 241 290
#     4  10  20  34  50  69  96 134 172 199 232 285
#     4   9  15  26  48  74  97 122 158 199 242 294
#     4  10  19  33  53  76  99 127 165 206 246 291
#     4  10  18  28  48  79 102 118 152 207 260 295
#     4   9  18  34  54  71  96 135 173 201 233 292
#
# _framework density 18.738181000000001
#
# number of rings (size 3 to 8) (size 9 to 14) (size 15 to 20)
#    0.000    2.500    2.500    1.000    0.000    0.000 
#    1.500    1.667    0.000    1.000    0.000    0.000 
#    0.000    0.000    0.000    0.000    0.000    0.000 
#
# Total GULP energy -297315.406727 kJ/mol
# GULP energy per Si atom -12388.141947 kJ/mol
# Density = 1.869553 g / cm^3
# Si number density = 18.738181 Si / 1000 Ang^3
#
#
#
# Elastic Constant Matrix: (Units=GPa)
#
#
# Indices 1 2 3 4 5 6 
#
# 1 132.9595 14.1658 36.1642 0.0000 0.0000 0.0000
# 2 14.1658 9.3944 11.3042 0.0000 0.0000 0.0000
# 3 36.1642 11.3042 89.3273 0.0000 0.0000 0.0000
# 4 0.0000 0.0000 0.0000 23.0247 0.0000 0.0000
# 5 0.0000 0.0000 0.0000 0.0000 32.3170 0.0000
# 6 0.0000 0.0000 0.0000 0.0000 0.0000 8.5409
#
#
#
# Elastic Compliance Matrix: (Units=1/GPa)
#
#
# Indices 1 2 3 4 5 6 
#
# 1 0.009366 -0.011277 -0.002365 0.000000 0.000000 0.000000
# 2 -0.011277 0.139146 -0.013043 0.000000 0.000000 0.000000
# 3 -0.002365 -0.013043 0.013803 0.000000 0.000000 0.000000
# 4 0.000000 0.000000 0.000000 0.043432 0.000000 0.000000
# 5 0.000000 0.000000 0.000000 0.000000 0.030943 0.000000
# 6 0.000000 0.000000 0.000000 0.000000 0.000000 0.117084
#
#
# Mechanical properties :
#
#
# Convention : Reuss Voigt Hill
#
# Bulk Modulus (GPa) = 9.17898 39.43885 24.30892
# Shear Modulus (GPa) = 11.27501 24.11298 17.69399
#
# Velocity S-wave (km/s) = 2.45565 3.59114 3.07624
# Velocity P-wave (km/s) = 3.59853 6.18774 5.06150
#
# Compressibility (1/GPa) = 0.10894459
#
# Stress axis : x y z
#
# Youngs Moduli (GPa) = 106.77196 7.18669 72.44960
#
# Poissons Ratio (x) = 0.08105 0.17132
# Poissons Ratio (y) = 1.20410 0.94497
# Poissons Ratio (z) = 0.25247 0.09374
#
# Static dielectric constant tensor:
#      x y z
#    x 3.976620 0.000000 0.000000 
#    y 0.000000 2.841550 0.000000 
#    z 0.000000 0.000000 3.413370 
# 
# 
# High freq. dielectric constant tensor:
#      x y z
#    x 1.747550 0.000000 0.000000 
#    y 0.000000 1.658090 0.000000 
#    z 0.000000 0.000000 1.727460 
# 
# From -- ./inp_files/12408.got.cif
#   From: 2010.03.12/outbox.cif.g09.slc.cpg/sg44_7_cif.got.tgz:12408.got - 2010.04.14 02:36:11.
