data_PCOD8188098
_publ_section_title
;
Structure prediction by ZEFSAII (Michael W. Deem and Ramdas Pophale) SiO2 
 PCOD8188098
Probable space group: I M M 2
;
_chemical_formula_sum "Si O2"
_cell_formula_units_Z 56
_cell_length_a 32.600202
_cell_length_b 7.778338
_cell_length_c 13.684461
_cell_angle_alpha 90.000000
_cell_angle_beta 90.000000
_cell_angle_gamma 90.000000
_cell_volume 3470.042535
_symmetry_space_group_name_H-M "I M M 2"
_symmetry_group_IT_number 44
_symmetry_cell_setting 'orthorhombic'
loop_
_space_group_symop_operation_xyz
x,y,z
-x,-y,z
-x,y,z
x,-y,z
1/2+x,1/2+y,1/2+z
1/2-x,1/2-y,1/2+z
1/2-x,1/2+y,1/2+z
1/2+x,1/2-y,1/2+z
loop_
_atom_site_type_symbol
_atom_site_label
_atom_site_fract_x
_atom_site_fract_y
_atom_site_fract_z
Si Si1 0.768470 0.701078 0.681210
Si Si2 0.688535 0.796394 0.374054
Si Si3 0.397602 0.809162 0.690235
Si Si4 0.684819 0.297585 0.782776
Si Si5 0.545864 0.500000 0.694166
Si Si6 0.604366 0.199763 0.462651
Si Si7 0.954468 0.000000 0.962400
Si Si8 0.730800 0.303309 0.967116
O O1 0.770834 0.500000 0.665821
O O2 0.801158 0.761058 0.763091
O O3 0.722605 0.755165 0.712200
O O4 0.781809 0.786006 0.579369
O O5 0.644443 0.727212 0.407032
O O6 0.724440 0.720081 0.444676
O O7 0.686991 0.000000 0.383337
O O8 0.355504 0.801718 0.749970
O O9 0.430241 0.670509 0.730360
O O10 0.387230 0.775201 0.577216
O O11 0.416540 0.000000 0.703823
O O12 0.675954 0.500000 0.776902
O O13 0.696028 0.232067 0.892865
O O14 0.500000 0.500000 0.739542
O O15 0.542896 0.500000 0.578428
O O16 0.567734 0.324424 0.427371
O O17 0.593920 0.000000 0.437703
O O18 0.000000 0.000000 0.916607
O O19 0.735063 0.500000 0.935769
#
# Coordination Sequence:
#
# PCOD8188098 Si02
#       8
#     8   8   8   8   4   8   4   8
#     4   9  17  28  42  59  84 118 151 187 226 260
#     4   8  15  29  43  57  84 119 149 180 222 262
#     4  10  18  28  47  68  87 119 156 183 215 267
#     4   9  17  29  43  59  87 123 151 183 228 266
#     4   9  18  32  46  64  95 121 143 187 232 266
#     4   9  17  29  45  64  88 119 149 180 219 263
#     4   9  18  30  44  66  91 115 147 185 222 266
#     4   9  17  29  42  58  86 119 149 187 228 260
#
# _framework density 16.138131000000001
#
# number of rings (size 3 to 8) (size 9 to 14) (size 15 to 20)
#    0.000    3.000    0.714    2.571    0.000    2.857 
#    2.571    4.286    0.000    0.000    0.000    0.000 
#    0.000    2.286    0.000    3.714    0.000    0.286 
#
# Total GULP energy -347001.082686 kJ/mol
# GULP energy per Si atom -12392.895810 kJ/mol
# Density = 1.610140 g / cm^3
# Si number density = 16.138131 Si / 1000 Ang^3
#
#
#
# Elastic Constant Matrix: (Units=GPa)
#
#
# Indices 1 2 3 4 5 6 
#
# 1 125.6169 48.1123 37.1513 0.0000 0.0000 0.0000
# 2 48.1123 69.8884 17.2360 0.0000 0.0000 0.0000
# 3 37.1513 17.2360 75.0206 0.0000 0.0000 0.0000
# 4 0.0000 0.0000 0.0000 16.5049 0.0000 0.0000
# 5 0.0000 0.0000 0.0000 0.0000 17.1065 0.0000
# 6 0.0000 0.0000 0.0000 0.0000 0.0000 18.8451
#
#
#
# Elastic Compliance Matrix: (Units=1/GPa)
#
#
# Indices 1 2 3 4 5 6 
#
# 1 0.011982 -0.007193 -0.004281 0.000000 0.000000 0.000000
# 2 -0.007193 0.019486 -0.000915 0.000000 0.000000 0.000000
# 3 -0.004281 -0.000915 0.015660 0.000000 0.000000 0.000000
# 4 0.000000 0.000000 0.000000 0.060588 0.000000 0.000000
# 5 0.000000 0.000000 0.000000 0.000000 0.058457 0.000000
# 6 0.000000 0.000000 0.000000 0.000000 0.000000 0.053064
#
#
# Mechanical properties :
#
#
# Convention : Reuss Voigt Hill
#
# Bulk Modulus (GPa) = 44.74243 52.83610 48.78926
# Shear Modulus (GPa) = 19.88357 21.69305 20.78831
#
# Velocity S-wave (km/s) = 3.51392 3.67033 3.59297
# Velocity P-wave (km/s) = 6.65194 7.12550 6.89279
#
# Compressibility (1/GPa) = 0.02235015
#
# Stress axis : x y z
#
# Youngs Moduli (GPa) = 83.46111 51.31981 63.85733
#
# Poissons Ratio (x) = 0.36912 0.27337
# Poissons Ratio (y) = 0.60030 0.05843
# Poissons Ratio (z) = 0.35730 0.04696
#
# Static dielectric constant tensor:
#      x y z
#    x 3.103200 0.000000 0.000000 
#    y 0.000000 3.001890 0.000000 
#    z 0.000000 0.000000 2.926740 
# 
# 
# High freq. dielectric constant tensor:
#      x y z
#    x 1.598970 0.000000 0.000000 
#    y 0.000000 1.621540 0.000000 
#    z 0.000000 0.000000 1.588120 
# 
# From -- ./inp_files/19674.got.cif
#   From: 2010.03.12/outbox.cif.g09.slc.cpg/sg44_10_cif.got.tgz:19674.got - 2010.04.14 02:36:11.
