data_PCOD8188927
_publ_section_title
;
Structure prediction by ZEFSAII (Michael W. Deem and Ramdas Pophale) SiO2 
 PCOD8188927
Probable space group: I M M 2
;
_chemical_formula_sum "Si O2"
_cell_formula_units_Z 48
_cell_length_a 8.771252
_cell_length_b 16.373100
_cell_length_c 18.295805
_cell_angle_alpha 90.000000
_cell_angle_beta 90.000000
_cell_angle_gamma 90.000000
_cell_volume 2627.507871
_symmetry_space_group_name_H-M "I M M 2"
_symmetry_group_IT_number 44
_symmetry_cell_setting 'orthorhombic'
loop_
_space_group_symop_operation_xyz
x,y,z
-x,-y,z
-x,y,z
x,-y,z
1/2+x,1/2+y,1/2+z
1/2-x,1/2-y,1/2+z
1/2-x,1/2+y,1/2+z
1/2+x,1/2-y,1/2+z
loop_
_atom_site_type_symbol
_atom_site_label
_atom_site_fract_x
_atom_site_fract_y
_atom_site_fract_z
Si Si1 0.323663 0.592740 0.125000
Si Si2 0.321027 0.000000 0.978682
Si Si3 0.176346 0.164823 0.159740
Si Si4 0.679548 0.000000 0.148417
Si Si5 0.821557 0.159884 0.909382
Si Si6 0.677951 0.257852 0.029183
Si Si7 0.674782 0.819300 0.755726
O O1 0.500000 0.605765 0.146568
O O2 0.289734 0.500000 0.101201
O O3 0.281014 0.650790 0.056510
O O4 0.222106 0.614789 0.194814
O O5 0.256267 0.920487 0.940223
O O6 0.500000 0.000000 0.968015
O O7 0.275278 0.000000 0.063315
O O8 0.271737 0.192275 0.089383
O O9 0.198179 0.228145 0.225535
O O10 0.000000 0.156852 0.137215
O O11 0.244644 0.078828 0.186499
O O12 0.500000 0.000000 0.162266
O O13 0.781732 0.170639 0.825020
O O14 0.000000 0.150446 0.918293
O O15 0.765000 0.239778 0.953713
O O16 0.500000 0.246588 0.014826
O O17 0.500000 0.835573 0.777433
#
# Coordination Sequence:
#
# PCOD8188927 Si02
#       7
#     8   4   8   4   8   8   8
#     4   9  19  36  58  83 110 141 182 226 271 323
#     4  11  23  37  55  83 114 145 178 219 274 328
#     4  10  20  35  56  81 109 143 185 226 270 323
#     4  11  21  33  57  85 112 143 178 225 274 322
#     4  12  24  37  56  81 112 148 183 224 272 326
#     4  10  19  34  56  80 109 144 182 225 274 324
#     4  10  22  38  56  80 112 148 182 222 273 326
#
# _framework density 18.268260000000001
#
# number of rings (size 3 to 8) (size 9 to 14) (size 15 to 20)
#    0.000    1.667    1.667    3.500    1.167    3.667 
#    0.000    0.000    1.833    0.000    0.000    0.000 
#    0.000    0.000    0.000    0.000    0.000    0.000 
#
# Total GULP energy -297701.444141 kJ/mol
# GULP energy per Si atom -12404.226839 kJ/mol
# Density = 1.822668 g / cm^3
# Si number density = 18.268260 Si / 1000 Ang^3
#
#
#
# Elastic Constant Matrix: (Units=GPa)
#
#
# Indices 1 2 3 4 5 6 
#
# 1 75.0443 36.7470 35.2757 0.0000 0.0000 0.0000
# 2 36.7470 131.4374 34.4141 0.0000 0.0000 0.0000
# 3 35.2757 34.4141 71.3373 0.0000 0.0000 0.0000
# 4 0.0000 0.0000 0.0000 20.0442 0.0000 0.0000
# 5 0.0000 0.0000 0.0000 0.0000 30.9938 0.0000
# 6 0.0000 0.0000 0.0000 0.0000 0.0000 26.0538
#
#
#
# Elastic Compliance Matrix: (Units=1/GPa)
#
#
# Indices 1 2 3 4 5 6 
#
# 1 0.018446 -0.003169 -0.007593 0.000000 0.000000 0.000000
# 2 -0.003169 0.009253 -0.002896 0.000000 0.000000 0.000000
# 3 -0.007593 -0.002896 0.019170 0.000000 0.000000 0.000000
# 4 0.000000 0.000000 0.000000 0.049890 0.000000 0.000000
# 5 0.000000 0.000000 0.000000 0.000000 0.032265 0.000000
# 6 0.000000 0.000000 0.000000 0.000000 0.000000 0.038382
#
#
# Mechanical properties :
#
#
# Convention : Reuss Voigt Hill
#
# Bulk Modulus (GPa) = 51.14567 54.52140 52.83354
# Shear Modulus (GPa) = 24.84606 26.84383 25.84495
#
# Velocity S-wave (km/s) = 3.69191 3.83747 3.76539
# Velocity P-wave (km/s) = 6.79937 7.03879 6.92011
#
# Compressibility (1/GPa) = 0.01955200
#
# Stress axis : x y z
#
# Youngs Moduli (GPa) = 54.21116 108.07778 52.16565
#
# Poissons Ratio (x) = 0.34252 0.39608
# Poissons Ratio (y) = 0.17181 0.15109
# Poissons Ratio (z) = 0.41161 0.31304
#
# Static dielectric constant tensor:
#      x y z
#    x 3.487250 0.000000 0.000000 
#    y 0.000000 3.354900 0.000000 
#    z 0.000000 0.000000 3.223470 
# 
# 
# High freq. dielectric constant tensor:
#      x y z
#    x 1.723640 0.000000 0.000000 
#    y 0.000000 1.713920 0.000000 
#    z 0.000000 0.000000 1.685450 
# 
# From -- ./inp_files/16201.got.cif
#   From: 2010.03.12/outbox.cif.g09.slc.cpg/sg44_9_cif.got.tgz:16201.got - 2010.04.14 02:36:11.
