data_PCOD8188518
_publ_section_title
;
Structure prediction by ZEFSAII (Michael W. Deem and Ramdas Pophale) SiO2 
 PCOD8188518
Probable space group: I M M 2
;
_chemical_formula_sum "Si O2"
_cell_formula_units_Z 64
_cell_length_a 28.110421
_cell_length_b 9.038580
_cell_length_c 14.444996
_cell_angle_alpha 90.000000
_cell_angle_beta 90.000000
_cell_angle_gamma 90.000000
_cell_volume 3670.159869
_symmetry_space_group_name_H-M "I M M 2"
_symmetry_group_IT_number 44
_symmetry_cell_setting 'orthorhombic'
loop_
_space_group_symop_operation_xyz
x,y,z
-x,-y,z
-x,y,z
x,-y,z
1/2+x,1/2+y,1/2+z
1/2-x,1/2-y,1/2+z
1/2-x,1/2+y,1/2+z
1/2+x,1/2-y,1/2+z
loop_
_atom_site_type_symbol
_atom_site_label
_atom_site_fract_x
_atom_site_fract_y
_atom_site_fract_z
Si Si1 0.275886 0.329437 0.875000
Si Si2 0.822086 0.827154 0.870629
Si Si3 0.860731 0.324150 0.702043
Si Si4 0.366605 0.670021 0.761966
Si Si5 0.817107 0.830241 0.079398
Si Si6 0.779188 0.829703 0.588663
Si Si7 0.445828 0.827227 0.871604
Si Si8 0.447169 0.824029 0.078453
O O1 0.263010 0.500000 0.853076
O O2 0.230846 0.229991 0.848602
O O3 0.319588 0.271197 0.813870
O O4 0.291057 0.308593 0.981021
O O5 0.859821 0.743242 0.805305
O O6 0.824148 0.000000 0.848841
O O7 0.835960 0.790883 0.976813
O O8 0.860055 0.500000 0.707648
O O9 0.815107 0.269648 0.646242
O O10 0.908455 0.264780 0.651492
O O11 0.374143 0.500000 0.787559
O O12 0.359998 0.694403 0.651778
O O13 0.413065 0.754862 0.794249
O O14 0.773971 0.725181 0.108974
O O15 0.798960 0.000000 0.082260
O O16 0.783767 0.000000 0.619496
O O17 0.500000 0.789265 0.845722
O O18 0.436275 0.000000 0.868555
O O19 0.434301 0.766581 0.975036
O O20 0.500000 0.767241 0.106910
O O21 0.447250 0.000000 0.076280
#
# Coordination Sequence:
#
# PCOD8188518 Si02
#       8
#     8   8   8   8   8   8   8   8
#     4   9  18  31  47  71 102 129 156 194 237 282
#     4  10  20  33  48  67  95 130 166 202 238 278
#     4  11  20  30  49  72  94 125 163 201 240 282
#     4  10  19  31  49  71  95 125 159 194 233 280
#     4   9  19  34  49  67  95 131 166 199 236 277
#     4  10  19  30  46  71 102 131 158 192 235 284
#     4   9  18  33  52  74  99 123 149 187 234 284
#     4   8  16  32  52  73  96 122 153 189 233 287
#
# _framework density 17.437933000000001
#
# number of rings (size 3 to 8) (size 9 to 14) (size 15 to 20)
#    0.000    2.500    0.000    3.375    0.000    3.250 
#    0.000    0.625    0.000    3.750    0.000    3.500 
#    0.000    0.000    0.000    0.000    0.000    0.000 
#
# Total GULP energy -396797.559383 kJ/mol
# GULP energy per Si atom -12399.923731 kJ/mol
# Density = 1.739824 g / cm^3
# Si number density = 17.437933 Si / 1000 Ang^3
#
#
#
# Elastic Constant Matrix: (Units=GPa)
#
#
# Indices 1 2 3 4 5 6 
#
# 1 97.4160 44.1292 77.7310 0.0000 0.0000 0.0000
# 2 44.1292 58.9837 41.0094 0.0000 0.0000 0.0000
# 3 77.7310 41.0094 115.1157 0.0000 0.0000 0.0000
# 4 0.0000 0.0000 0.0000 27.6190 0.0000 0.0000
# 5 0.0000 0.0000 0.0000 0.0000 31.0996 0.0000
# 6 0.0000 0.0000 0.0000 0.0000 0.0000 24.1090
#
#
#
# Elastic Compliance Matrix: (Units=1/GPa)
#
#
# Indices 1 2 3 4 5 6 
#
# 1 0.025747 -0.009538 -0.013988 0.000000 0.000000 0.000000
# 2 -0.009538 0.026069 -0.002847 0.000000 0.000000 0.000000
# 3 -0.013988 -0.002847 0.019146 0.000000 0.000000 0.000000
# 4 0.000000 0.000000 0.000000 0.036207 0.000000 0.000000
# 5 0.000000 0.000000 0.000000 0.000000 0.032155 0.000000
# 6 0.000000 0.000000 0.000000 0.000000 0.000000 0.041478
#
#
# Mechanical properties :
#
#
# Convention : Reuss Voigt Hill
#
# Bulk Modulus (GPa) = 54.89138 66.36164 60.62651
# Shear Modulus (GPa) = 20.86652 23.80858 22.33755
#
# Velocity S-wave (km/s) = 3.46297 3.69905 3.58295
# Velocity P-wave (km/s) = 6.89464 7.50883 7.20828
#
# Compressibility (1/GPa) = 0.01821780
#
# Stress axis : x y z
#
# Youngs Moduli (GPa) = 38.83943 38.36026 52.22993
#
# Poissons Ratio (x) = 0.36587 0.73058
# Poissons Ratio (y) = 0.37044 0.14868
# Poissons Ratio (z) = 0.54328 0.10920
#
# Static dielectric constant tensor:
#      x y z
#    x 3.154540 0.000000 0.000000 
#    y 0.000000 3.149090 0.000000 
#    z 0.000000 0.000000 3.460640 
# 
# 
# High freq. dielectric constant tensor:
#      x y z
#    x 1.649680 0.000000 0.000000 
#    y 0.000000 1.665870 0.000000 
#    z 0.000000 0.000000 1.680230 
# 
# From -- ./inp_files/19470.got.cif
#   From: 2010.03.12/outbox.cif.g09.slc.cpg/sg44_10_cif.got.tgz:19470.got - 2010.04.14 02:36:11.
