data_PCOD8188288
_publ_section_title
;
Structure prediction by ZEFSAII (Michael W. Deem and Ramdas Pophale) SiO2 
 PCOD8188288
Probable space group: I M M 2
;
_chemical_formula_sum "Si O2"
_cell_formula_units_Z 48
_cell_length_a 11.877145
_cell_length_b 9.371382
_cell_length_c 25.550716
_cell_angle_alpha 90.000000
_cell_angle_beta 90.000000
_cell_angle_gamma 90.000000
_cell_volume 2843.929161
_symmetry_space_group_name_H-M "I M M 2"
_symmetry_group_IT_number 44
_symmetry_cell_setting 'orthorhombic'
loop_
_space_group_symop_operation_xyz
x,y,z
-x,-y,z
-x,y,z
x,-y,z
1/2+x,1/2+y,1/2+z
1/2-x,1/2-y,1/2+z
1/2-x,1/2+y,1/2+z
1/2+x,1/2-y,1/2+z
loop_
_atom_site_type_symbol
_atom_site_label
_atom_site_fract_x
_atom_site_fract_y
_atom_site_fract_z
Si Si1 0.254734 0.166585 0.436310
Si Si2 0.874785 0.167838 0.537313
Si Si3 0.000000 0.664632 0.967110
Si Si4 0.500000 0.669563 0.572606
Si Si5 0.199731 0.335591 0.122382
Si Si6 0.369291 0.333555 0.835024
Si Si7 0.629158 0.837724 0.735055
O O1 0.199340 0.232452 0.489271
O O2 0.388384 0.195944 0.433262
O O3 0.197923 0.232520 0.384410
O O4 0.228290 0.000000 0.436524
O O5 0.816566 0.201474 0.593188
O O6 0.000000 0.236180 0.537125
O O7 0.884473 0.000000 0.529545
O O8 0.000000 0.500000 0.987269
O O9 0.000000 0.773421 0.014228
O O10 0.500000 0.500000 0.572699
O O11 0.609045 0.725952 0.601637
O O12 0.163476 0.500000 0.110387
O O13 0.209537 0.312484 0.184804
O O14 0.500000 0.300347 0.844571
O O15 0.345533 0.500000 0.828213
O O16 0.325716 0.259314 0.782167
O O17 0.500000 0.798867 0.719888
O O18 0.636522 0.000000 0.754207
#
# Coordination Sequence:
#
# PCOD8188288 Si02
#       7
#     8   8   4   4   8   8   8
#     4   9  16  27  48  73  96 121 157 201 240 282
#     4   9  16  26  47  77  99 119 157 204 241 278
#     4  10  18  32  52  72  94 128 168 201 240 289
#     4  12  22  30  46  76 106 128 156 197 252 301
#     4  10  18  32  52  72  98 130 163 200 242 289
#     4   9  17  29  46  70  97 121 152 198 245 283
#     4   9  17  29  47  69  93 123 160 196 235 286
#
# _framework density 16.878057999999999
#
# number of rings (size 3 to 8) (size 9 to 14) (size 15 to 20)
#    0.000    2.500    2.500    1.250    0.000    2.667 
#    0.000    0.833    1.833    0.500    0.000    0.000 
#    0.000    0.000    0.000    0.000    0.000    0.000 
#
# Total GULP energy -297496.576023 kJ/mol
# GULP energy per Si atom -12395.690668 kJ/mol
# Density = 1.683964 g / cm^3
# Si number density = 16.878058 Si / 1000 Ang^3
#
#
#
# Elastic Constant Matrix: (Units=GPa)
#
#
# Indices 1 2 3 4 5 6 
#
# 1 114.0136 27.7465 68.8200 0.0000 0.0000 0.0000
# 2 27.7465 51.2852 37.4385 0.0000 0.0000 0.0000
# 3 68.8200 37.4385 150.7219 0.0000 0.0000 0.0000
# 4 0.0000 0.0000 0.0000 24.4918 0.0000 0.0000
# 5 0.0000 0.0000 0.0000 0.0000 33.1138 0.0000
# 6 0.0000 0.0000 0.0000 0.0000 0.0000 -27.6324
#
#
#
# Elastic Compliance Matrix: (Units=1/GPa)
#
#
# Indices 1 2 3 4 5 6 
#
# 1 0.012518 -0.003176 -0.004927 0.000000 0.000000 0.000000
# 2 -0.003176 0.024623 -0.004666 0.000000 0.000000 0.000000
# 3 -0.004927 -0.004666 0.010043 0.000000 0.000000 0.000000
# 4 0.000000 0.000000 0.000000 0.040830 0.000000 0.000000
# 5 0.000000 0.000000 0.000000 0.000000 0.030199 0.000000
# 6 0.000000 0.000000 0.000000 0.000000 0.000000 -0.036189
#
#
# Mechanical properties :
#
#
# Convention : Reuss Voigt Hill
#
# Bulk Modulus (GPa) = 46.19615 64.89231 55.54423
# Shear Modulus (GPa) = 43.56279 18.12901 30.84590
#
# Velocity S-wave (km/s) = 5.08590 3.28093 4.27965
# Velocity P-wave (km/s) = 7.86883 7.27213 7.57635
#
# Compressibility (1/GPa) = 0.02164682
#
# Stress axis : x y z
#
# Youngs Moduli (GPa) = 79.88766 40.61185 99.56824
#
# Poissons Ratio (x) = 0.12897 0.49054
# Poissons Ratio (y) = 0.25370 0.46461
# Poissons Ratio (z) = 0.39358 0.18950
#
# Static dielectric constant tensor:
#      x y z
#    x 3.207320 0.000000 0.000000 
#    y 0.000000 2.812940 0.000000 
#    z 0.000000 0.000000 3.339050 
# 
# 
# High freq. dielectric constant tensor:
#      x y z
#    x 1.635590 0.000000 0.000000 
#    y 0.000000 1.608410 0.000000 
#    z 0.000000 0.000000 1.655290 
# 
# From -- ./inp_files/23729.got.cif
#   From: 2010.03.12/outbox.cif.g09.slc.cpg/sg44_12_cif.got.tgz:23729.got - 2010.04.14 02:36:11.
