data_PCOD8188728
_publ_section_title
;
Structure prediction by ZEFSAII (Michael W. Deem and Ramdas Pophale) SiO2 
 PCOD8188728
Probable space group: I M M 2
;
_chemical_formula_sum "Si O2"
_cell_formula_units_Z 48
_cell_length_a 16.538598
_cell_length_b 8.752769
_cell_length_c 18.626908
_cell_angle_alpha 90.000000
_cell_angle_beta 90.000000
_cell_angle_gamma 90.000000
_cell_volume 2696.403781
_symmetry_space_group_name_H-M "I M M 2"
_symmetry_group_IT_number 44
_symmetry_cell_setting 'orthorhombic'
loop_
_space_group_symop_operation_xyz
x,y,z
-x,-y,z
-x,y,z
x,-y,z
1/2+x,1/2+y,1/2+z
1/2-x,1/2-y,1/2+z
1/2-x,1/2+y,1/2+z
1/2+x,1/2-y,1/2+z
loop_
_atom_site_type_symbol
_atom_site_label
_atom_site_fract_x
_atom_site_fract_y
_atom_site_fract_z
Si Si1 0.500000 0.177621 0.066391
Si Si2 0.666093 0.177995 0.142400
Si Si3 0.411028 0.819819 0.436369
Si Si4 0.000000 0.179849 0.412350
Si Si5 0.165131 0.319549 0.388084
Si Si6 0.805646 0.680079 0.804333
Si Si7 0.256696 0.180100 0.518907
O O1 0.577658 0.219643 0.113745
O O2 0.500000 0.000000 0.043609
O O3 0.500000 0.280313 0.996274
O O4 0.668675 0.229824 0.224941
O O5 0.685107 0.000000 0.134302
O O6 0.735595 0.269320 0.099500
O O7 0.500000 0.744982 0.448509
O O8 0.376007 0.767256 0.359205
O O9 0.348694 0.769660 0.499260
O O10 0.420397 0.000000 0.436726
O O11 0.922586 0.250126 0.372618
O O12 0.000000 0.000000 0.402606
O O13 0.159579 0.500000 0.389954
O O14 0.223133 0.265422 0.324230
O O15 0.194637 0.262481 0.465683
O O16 0.790390 0.500000 0.811236
O O17 0.245882 0.000000 0.508913
#
# Coordination Sequence:
#
# PCOD8188728 Si02
#       7
#     4   8   8   4   8   8   8
#     4  10  20  32  50  82 114 145 176 211 258 318
#     4  10  20  33  52  78 111 143 176 214 261 318
#     4   8  15  29  51  76  99 126 170 221 263 308
#     4  12  22  34  56  82 108 137 174 225 270 318
#     4  11  21  35  54  77 106 141 179 220 265 319
#     4   9  19  34  53  78 106 139 175 216 267 322
#     4  10  19  32  52  77 104 138 180 220 266 317
#
# _framework density 17.801489
#
# number of rings (size 3 to 8) (size 9 to 14) (size 15 to 20)
#    0.000    2.167    1.667    3.750    1.167    0.667 
#    0.000    0.000    1.833   12.500    0.000    0.000 
#    0.000    0.000    0.000    0.000    0.000    0.000 
#
# Total GULP energy -297602.739194 kJ/mol
# GULP energy per Si atom -12400.114133 kJ/mol
# Density = 1.776097 g / cm^3
# Si number density = 17.801489 Si / 1000 Ang^3
#
#
#
# Elastic Constant Matrix: (Units=GPa)
#
#
# Indices 1 2 3 4 5 6 
#
# 1 160.8911 42.2367 54.9411 0.0000 0.0000 0.0000
# 2 42.2367 75.9312 25.3750 0.0000 0.0000 0.0000
# 3 54.9411 25.3750 91.3530 0.0000 0.0000 0.0000
# 4 0.0000 0.0000 0.0000 26.7893 0.0000 0.0000
# 5 0.0000 0.0000 0.0000 0.0000 19.2907 0.0000
# 6 0.0000 0.0000 0.0000 0.0000 0.0000 21.0777
#
#
#
# Elastic Compliance Matrix: (Units=1/GPa)
#
#
# Indices 1 2 3 4 5 6 
#
# 1 0.008526 -0.003339 -0.004200 0.000000 0.000000 0.000000
# 2 -0.003339 0.015825 -0.002388 0.000000 0.000000 0.000000
# 3 -0.004200 -0.002388 0.014136 0.000000 0.000000 0.000000
# 4 0.000000 0.000000 0.000000 0.037328 0.000000 0.000000
# 5 0.000000 0.000000 0.000000 0.000000 0.051838 0.000000
# 6 0.000000 0.000000 0.000000 0.000000 0.000000 0.047443
#
#
# Mechanical properties :
#
#
# Convention : Reuss Voigt Hill
#
# Bulk Modulus (GPa) = 53.66731 63.69787 58.68259
# Shear Modulus (GPa) = 24.85555 27.13972 25.99763
#
# Velocity S-wave (km/s) = 3.74071 3.90882 3.82569
# Velocity P-wave (km/s) = 6.99073 7.49879 7.24921
#
# Compressibility (1/GPa) = 0.01863332
#
# Stress axis : x y z
#
# Youngs Moduli (GPa) = 117.28452 63.19096 70.74195
#
# Poissons Ratio (x) = 0.21100 0.29714
# Poissons Ratio (y) = 0.39162 0.16890
# Poissons Ratio (z) = 0.49264 0.15087
#
# Static dielectric constant tensor:
#      x y z
#    x 3.756150 0.000000 0.000000 
#    y 0.000000 3.133160 0.000000 
#    z 0.000000 0.000000 3.228410 
# 
# 
# High freq. dielectric constant tensor:
#      x y z
#    x 1.697020 0.000000 0.000000 
#    y 0.000000 1.675710 0.000000 
#    z 0.000000 0.000000 1.671030 
# 
# From -- ./inp_files/21735.got.cif
#   From: 2010.03.12/outbox.cif.g09.slc.cpg/sg44_11_cif.got.tgz:21735.got - 2010.04.14 02:36:11.
