data_PCOD8188121
_publ_section_title
;
Structure prediction by ZEFSAII (Michael W. Deem and Ramdas Pophale) SiO2 
 PCOD8188121
Probable space group: I M M 2
;
_chemical_formula_sum "Si O2"
_cell_formula_units_Z 56
_cell_length_a 7.977447
_cell_length_b 13.617651
_cell_length_c 31.768544
_cell_angle_alpha 90.000000
_cell_angle_beta 90.000000
_cell_angle_gamma 90.000000
_cell_volume 3451.146840
_symmetry_space_group_name_H-M "I M M 2"
_symmetry_group_IT_number 44
_symmetry_cell_setting 'orthorhombic'
loop_
_space_group_symop_operation_xyz
x,y,z
-x,-y,z
-x,y,z
x,-y,z
1/2+x,1/2+y,1/2+z
1/2-x,1/2-y,1/2+z
1/2-x,1/2+y,1/2+z
1/2+x,1/2-y,1/2+z
loop_
_atom_site_type_symbol
_atom_site_label
_atom_site_fract_x
_atom_site_fract_y
_atom_site_fract_z
Si Si1 0.810362 0.390584 0.418720
Si Si2 0.694050 0.300283 0.130871
Si Si3 0.500000 0.883619 0.779729
Si Si4 0.814292 0.796725 0.998998
Si Si5 0.500000 0.116861 0.682957
Si Si6 0.694311 0.110020 0.082598
Si Si7 0.306301 0.390632 0.040911
Si Si8 0.684735 0.616904 0.331313
O O1 0.746002 0.500000 0.430525
O O2 0.804263 0.323653 0.460202
O O3 0.706301 0.346197 0.379516
O O4 0.000000 0.395033 0.402632
O O5 0.500000 0.310399 0.147102
O O6 0.828245 0.337838 0.164584
O O7 0.737636 0.186592 0.119803
O O8 0.720807 0.365632 0.089627
O O9 0.500000 0.851907 0.731390
O O10 0.668753 0.839733 0.801394
O O11 0.500000 0.000000 0.784009
O O12 0.000000 0.814304 0.982243
O O13 0.787952 0.864982 0.039572
O O14 0.792999 0.682988 0.010993
O O15 0.500000 0.000000 0.676194
O O16 0.500000 0.119777 0.071344
O O17 0.742661 0.000000 0.097530
O O18 0.500000 0.381313 0.029194
O O19 0.237743 0.500000 0.032782
O O20 0.500000 0.650768 0.315204
O O21 0.698437 0.500000 0.331292
#
# Coordination Sequence:
#
# PCOD8188121 Si02
#       8
#     8   8   4   8   4   8   8   8
#     4  10  18  29  45  63  90 126 159 191 228 274
#     4   9  19  34  49  70  95 122 162 202 239 288
#     4   9  18  32  44  65  93 119 155 194 234 283
#     4  11  21  28  39  67  97 120 157 199 233 276
#     4  11  22  32  49  71  95 127 166 204 241 283
#     4   9  18  33  49  64  90 127 160 195 243 286
#     4   9  18  33  49  61  82 122 165 202 241 278
#     4   9  16  28  46  65  88 120 154 186 228 283
#
# _framework density 16.226489999999998
#
# number of rings (size 3 to 8) (size 9 to 14) (size 15 to 20)
#    0.000    2.429    0.714    3.429    4.000    4.571 
#    0.000    1.429    0.000    0.000    0.000    0.000 
#    0.000    2.286    0.000    4.000    0.000    0.143 
#
# Total GULP energy -347071.679050 kJ/mol
# GULP energy per Si atom -12395.417109 kJ/mol
# Density = 1.618956 g / cm^3
# Si number density = 16.226490 Si / 1000 Ang^3
#
#
#
# Elastic Constant Matrix: (Units=GPa)
#
#
# Indices 1 2 3 4 5 6 
#
# 1 100.8414 25.7600 52.5767 0.0000 0.0000 0.0000
# 2 25.7600 85.6262 34.6421 0.0000 0.0000 0.0000
# 3 52.5767 34.6421 94.9569 0.0000 0.0000 0.0000
# 4 0.0000 0.0000 0.0000 15.4329 0.0000 0.0000
# 5 0.0000 0.0000 0.0000 0.0000 21.7408 0.0000
# 6 0.0000 0.0000 0.0000 0.0000 0.0000 15.4823
#
#
#
# Elastic Compliance Matrix: (Units=1/GPa)
#
#
# Indices 1 2 3 4 5 6 
#
# 1 0.014057 -0.001267 -0.007321 0.000000 0.000000 0.000000
# 2 -0.001267 0.013815 -0.004338 0.000000 0.000000 0.000000
# 3 -0.007321 -0.004338 0.016167 0.000000 0.000000 0.000000
# 4 0.000000 0.000000 0.000000 0.064797 0.000000 0.000000
# 5 0.000000 0.000000 0.000000 0.000000 0.045996 0.000000
# 6 0.000000 0.000000 0.000000 0.000000 0.000000 0.064590
#
#
# Mechanical properties :
#
#
# Convention : Reuss Voigt Hill
#
# Bulk Modulus (GPa) = 54.98570 56.37581 55.68075
# Shear Modulus (GPa) = 19.89352 21.76093 20.82723
#
# Velocity S-wave (km/s) = 3.50521 3.66604 3.58653
# Velocity P-wave (km/s) = 7.09521 7.26211 7.17915
#
# Compressibility (1/GPa) = 0.01818655
#
# Stress axis : x y z
#
# Youngs Moduli (GPa) = 71.13720 72.38471 61.85250
#
# Poissons Ratio (x) = 0.09172 0.45283
# Poissons Ratio (y) = 0.09014 0.26834
# Poissons Ratio (z) = 0.52081 0.31404
#
# Static dielectric constant tensor:
#      x y z
#    x 3.199150 0.000000 0.000000 
#    y 0.000000 2.977570 0.000000 
#    z 0.000000 0.000000 2.842530 
# 
# 
# High freq. dielectric constant tensor:
#      x y z
#    x 1.639840 0.000000 0.000000 
#    y 0.000000 1.589040 0.000000 
#    z 0.000000 0.000000 1.599030 
# 
# From -- ./inp_files/27259.got.cif
#   From: 2010.03.12/outbox.cif.g09.slc.cpg/sg44_14_cif.got.tgz:27259.got - 2010.04.14 02:36:11.
