data_PCOD8188835
_publ_section_title
;
Structure prediction by ZEFSAII (Michael W. Deem and Ramdas Pophale) SiO2 
 PCOD8188835
Probable space group: I M M 2
;
_chemical_formula_sum "Si O2"
_cell_formula_units_Z 64
_cell_length_a 15.839895
_cell_length_b 8.881432
_cell_length_c 23.135844
_cell_angle_alpha 90.000000
_cell_angle_beta 90.000000
_cell_angle_gamma 90.000000
_cell_volume 3254.772521
_symmetry_space_group_name_H-M "I M M 2"
_symmetry_group_IT_number 44
_symmetry_cell_setting 'orthorhombic'
loop_
_space_group_symop_operation_xyz
x,y,z
-x,-y,z
-x,y,z
x,-y,z
1/2+x,1/2+y,1/2+z
1/2-x,1/2-y,1/2+z
1/2-x,1/2+y,1/2+z
1/2+x,1/2-y,1/2+z
loop_
_atom_site_type_symbol
_atom_site_label
_atom_site_fract_x
_atom_site_fract_y
_atom_site_fract_z
Si Si1 0.902994 0.322204 0.568850
Si Si2 0.594792 0.820794 0.534419
Si Si3 0.361989 0.829256 0.194576
Si Si4 0.686609 0.670228 0.751296
Si Si5 0.269289 0.679150 0.981702
Si Si6 0.406878 0.173930 0.317484
Si Si7 0.751224 0.322586 0.363789
Si Si8 0.903134 0.337705 0.160242
O O1 0.883796 0.500000 0.566870
O O2 0.887850 0.253691 0.633700
O O3 0.837970 0.239859 0.526735
O O4 0.000000 0.288761 0.550609
O O5 0.500000 0.758899 0.516688
O O6 0.672351 0.765966 0.494070
O O7 0.623285 0.765573 0.598550
O O8 0.590263 0.000000 0.534025
O O9 0.262657 0.813548 0.205622
O O10 0.407652 0.760965 0.251704
O O11 0.392749 0.000000 0.189414
O O12 0.673506 0.500000 0.772246
O O13 0.697108 0.772889 0.807438
O O14 0.607997 0.726204 0.714106
O O15 0.274953 0.500000 0.981065
O O16 0.293559 0.745456 0.919315
O O17 0.500000 0.184907 0.344476
O O18 0.345848 0.269716 0.358026
O O19 0.374244 0.000000 0.316397
O O20 0.755784 0.500000 0.370894
O O21 0.856690 0.500000 0.170860
O O22 0.000000 0.372882 0.154221
#
# Coordination Sequence:
#
# PCOD8188835 Si02
#       8
#     8   8   8   8   8   8   8   8
#     4  10  20  35  56  81 110 145 182 220 268 325
#     4   8  16  32  55  83 113 145 179 214 260 323
#     4   8  15  29  52  81 109 138 172 210 256 315
#     4  10  19  33  54  79 106 136 174 218 266 318
#     4  11  22  37  57  79 106 142 186 233 276 318
#     4   9  17  32  55  82 112 144 176 211 256 313
#     4  11  23  38  54  73 102 139 182 227 269 318
#     4   9  17  31  52  79 110 140 170 207 257 319
#
# _framework density 19.663430999999999
#
# number of rings (size 3 to 8) (size 9 to 14) (size 15 to 20)
#    0.000    2.500    0.000    4.500    0.000    2.750 
#    0.000    5.000    0.000    9.375    0.000    0.000 
#    0.000    0.000    0.000    0.000    0.000    0.000 
#
# Total GULP energy -396508.494053 kJ/mol
# GULP energy per Si atom -12390.890439 kJ/mol
# Density = 1.961868 g / cm^3
# Si number density = 19.663431 Si / 1000 Ang^3
#
#
#
# Elastic Constant Matrix: (Units=GPa)
#
#
# Indices 1 2 3 4 5 6 
#
# 1 51.9155 26.4599 39.6305 0.0000 0.0000 0.0000
# 2 26.4599 74.8201 36.7786 0.0000 0.0000 0.0000
# 3 39.6305 36.7786 104.4510 0.0000 0.0000 0.0000
# 4 0.0000 0.0000 0.0000 27.3986 0.0000 0.0000
# 5 0.0000 0.0000 0.0000 0.0000 15.6471 0.0000
# 6 0.0000 0.0000 0.0000 0.0000 0.0000 25.4497
#
#
#
# Elastic Compliance Matrix: (Units=1/GPa)
#
#
# Indices 1 2 3 4 5 6 
#
# 1 0.029111 -0.005884 -0.008973 0.000000 0.000000 0.000000
# 2 -0.005884 0.017352 -0.003877 0.000000 0.000000 0.000000
# 3 -0.008973 -0.003877 0.014344 0.000000 0.000000 0.000000
# 4 0.000000 0.000000 0.000000 0.036498 0.000000 0.000000
# 5 0.000000 0.000000 0.000000 0.000000 0.063910 0.000000
# 6 0.000000 0.000000 0.000000 0.000000 0.000000 0.039293
#
#
# Mechanical properties :
#
#
# Convention : Reuss Voigt Hill
#
# Bulk Modulus (GPa) = 42.84981 48.54717 45.69849
# Shear Modulus (GPa) = 20.34530 22.25358 21.29944
#
# Velocity S-wave (km/s) = 3.22013 3.36776 3.29477
# Velocity P-wave (km/s) = 5.97198 6.31388 6.14531
#
# Compressibility (1/GPa) = 0.02333733
#
# Stress axis : x y z
#
# Youngs Moduli (GPa) = 34.35135 57.62933 69.71643
#
# Poissons Ratio (x) = 0.33909 0.62559
# Poissons Ratio (y) = 0.20212 0.27032
# Poissons Ratio (z) = 0.30825 0.22346
#
# Static dielectric constant tensor:
#      x y z
#    x 3.538750 0.000000 0.000000 
#    y 0.000000 3.269940 0.000000 
#    z 0.000000 0.000000 3.675470 
# 
# 
# High freq. dielectric constant tensor:
#      x y z
#    x 1.756220 0.000000 0.000000 
#    y 0.000000 1.734130 0.000000 
#    z 0.000000 0.000000 1.769810 
# 
# From -- ./inp_files/24361.got.cif
#   From: 2010.03.12/outbox.cif.g09.slc.cpg/sg44_13_cif.got.tgz:24361.got - 2010.04.14 02:36:11.
