data_PCOD8188089
_publ_section_title
;
Structure prediction by ZEFSAII (Michael W. Deem and Ramdas Pophale) SiO2 
 PCOD8188089
Probable space group: I M M 2
;
_chemical_formula_sum "Si O2"
_cell_formula_units_Z 64
_cell_length_a 27.850026
_cell_length_b 8.790396
_cell_length_c 14.772589
_cell_angle_alpha 90.000000
_cell_angle_beta 90.000000
_cell_angle_gamma 90.000000
_cell_volume 3616.518243
_symmetry_space_group_name_H-M "I M M 2"
_symmetry_group_IT_number 44
_symmetry_cell_setting 'orthorhombic'
loop_
_space_group_symop_operation_xyz
x,y,z
-x,-y,z
-x,y,z
x,-y,z
1/2+x,1/2+y,1/2+z
1/2-x,1/2-y,1/2+z
1/2-x,1/2+y,1/2+z
1/2+x,1/2-y,1/2+z
loop_
_atom_site_type_symbol
_atom_site_label
_atom_site_fract_x
_atom_site_fract_y
_atom_site_fract_z
Si Si1 0.134383 0.323761 0.536620
Si Si2 0.365865 0.178075 0.473114
Si Si3 0.819683 0.676922 0.352543
Si Si4 0.824758 0.320517 0.153140
Si Si5 0.054702 0.821611 0.651311
Si Si6 0.719865 0.822786 0.341373
Si Si7 0.715817 0.320706 0.154065
Si Si8 0.554394 0.180360 0.340376
O O1 0.127219 0.500000 0.558774
O O2 0.140217 0.294814 0.428935
O O3 0.087385 0.234787 0.568917
O O4 0.182297 0.266123 0.584299
O O5 0.359820 0.248080 0.574961
O O6 0.316600 0.213417 0.421772
O O7 0.411546 0.248245 0.419728
O O8 0.375394 0.000000 0.479484
O O9 0.804231 0.500000 0.348195
O O10 0.841245 0.727757 0.254462
O O11 0.772467 0.773953 0.375201
O O12 0.825774 0.500000 0.142589
O O13 0.770226 0.266239 0.135955
O O14 0.072111 0.746395 0.744751
O O15 0.000000 0.774787 0.629436
O O16 0.060641 0.000000 0.662127
O O17 0.701938 0.726020 0.255757
O O18 0.719964 0.000000 0.315634
O O19 0.708593 0.500000 0.141701
O O20 0.500000 0.232073 0.361714
O O21 0.558907 0.000000 0.333150
#
# Coordination Sequence:
#
# PCOD8188089 Si02
#       8
#     8   8   8   8   8   8   8   8
#     4  11  21  32  49  72  97 127 163 201 243 291
#     4   9  16  26  44  68  92 121 157 192 230 279
#     4   9  19  33  47  66  95 130 163 198 241 285
#     4   8  15  29  46  64  91 127 162 196 233 273
#     4  10  21  36  53  73  96 123 155 192 239 295
#     4  10  18  28  45  70  98 128 162 199 240 288
#     4  10  19  31  47  68  96 130 165 201 244 290
#     4   9  17  30  49  73  99 124 151 190 240 288
#
# _framework density 17.696579
#
# number of rings (size 3 to 8) (size 9 to 14) (size 15 to 20)
#    0.000    2.500    0.000    3.750    0.000    3.750 
#    0.000    0.625    0.000    5.250    0.000    3.500 
#    0.000    2.000    0.000    0.000    0.000    0.000 
#
# Total GULP energy -396690.597487 kJ/mol
# GULP energy per Si atom -12396.581171 kJ/mol
# Density = 1.765630 g / cm^3
# Si number density = 17.696579 Si / 1000 Ang^3
#
#
#
# Elastic Constant Matrix: (Units=GPa)
#
#
# Indices 1 2 3 4 5 6 
#
# 1 86.9745 20.2322 71.5528 0.0000 0.0000 0.0000
# 2 20.2322 20.8468 17.7991 0.0000 0.0000 0.0000
# 3 71.5528 17.7991 130.4641 0.0000 0.0000 0.0000
# 4 0.0000 0.0000 0.0000 16.0504 0.0000 0.0000
# 5 0.0000 0.0000 0.0000 0.0000 27.1204 0.0000
# 6 0.0000 0.0000 0.0000 0.0000 0.0000 21.6983
#
#
#
# Elastic Compliance Matrix: (Units=1/GPa)
#
#
# Indices 1 2 3 4 5 6 
#
# 1 0.023935 -0.013606 -0.011271 0.000000 0.000000 0.000000
# 2 -0.013606 0.062028 -0.001000 0.000000 0.000000 0.000000
# 3 -0.011271 -0.001000 0.013983 0.000000 0.000000 0.000000
# 4 0.000000 0.000000 0.000000 0.062304 0.000000 0.000000
# 5 0.000000 0.000000 0.000000 0.000000 0.036873 0.000000
# 6 0.000000 0.000000 0.000000 0.000000 0.000000 0.046087
#
#
# Mechanical properties :
#
#
# Convention : Reuss Voigt Hill
#
# Bulk Modulus (GPa) = 20.75058 50.82819 35.78938
# Shear Modulus (GPa) = 15.97304 21.55390 18.76347
#
# Velocity S-wave (km/s) = 3.00760 3.49373 3.25974
# Velocity P-wave (km/s) = 4.87976 6.71262 5.86819
#
# Compressibility (1/GPa) = 0.04819143
#
# Stress axis : x y z
#
# Youngs Moduli (GPa) = 41.77940 16.12176 71.51592
#
# Poissons Ratio (x) = 0.21936 0.80605
# Poissons Ratio (y) = 0.56847 0.07152
# Poissons Ratio (z) = 0.47089 0.01612
#
# Static dielectric constant tensor:
#      x y z
#    x 3.273190 0.000000 0.000000 
#    y 0.000000 3.140700 0.000000 
#    z 0.000000 0.000000 3.616400 
# 
# 
# High freq. dielectric constant tensor:
#      x y z
#    x 1.663390 0.000000 0.000000 
#    y 0.000000 1.667580 0.000000 
#    z 0.000000 0.000000 1.689770 
# 
# From -- ./inp_files/17139.got.cif
#   From: 2010.03.12/outbox.cif.g09.slc.cpg/sg44_9_cif.got.tgz:17139.got - 2010.04.14 02:36:11.
