data_PCOD8188310
_publ_section_title
;
Structure prediction by ZEFSAII (Michael W. Deem and Ramdas Pophale) SiO2 
 PCOD8188310
Probable space group: I M M 2
;
_chemical_formula_sum "Si O2"
_cell_formula_units_Z 56
_cell_length_a 18.166534
_cell_length_b 18.000833
_cell_length_c 8.532340
_cell_angle_alpha 90.000000
_cell_angle_beta 90.000000
_cell_angle_gamma 90.000000
_cell_volume 2790.183922
_symmetry_space_group_name_H-M "I M M 2"
_symmetry_group_IT_number 44
_symmetry_cell_setting 'orthorhombic'
loop_
_space_group_symop_operation_xyz
x,y,z
-x,-y,z
-x,y,z
x,-y,z
1/2+x,1/2+y,1/2+z
1/2-x,1/2-y,1/2+z
1/2-x,1/2+y,1/2+z
1/2+x,1/2-y,1/2+z
loop_
_atom_site_type_symbol
_atom_site_label
_atom_site_fract_x
_atom_site_fract_y
_atom_site_fract_z
Si Si1 0.797485 0.915676 0.799500
Si Si2 0.301811 0.193643 0.608915
Si Si3 0.582907 0.916489 0.605174
Si Si4 0.771030 0.586521 0.615070
Si Si5 0.585106 0.414047 0.052997
Si Si6 0.692573 0.682685 0.851857
Si Si7 0.420559 0.913515 0.973456
O O1 0.738451 0.867139 0.711973
O O2 0.878604 0.902533 0.725536
O O3 0.771702 0.000000 0.772069
O O4 0.792973 0.897845 0.984736
O O5 0.368396 0.148526 0.524574
O O6 0.332887 0.259671 0.718334
O O7 0.243513 0.224905 0.481140
O O8 0.500000 0.907689 0.543445
O O9 0.610805 0.000000 0.564837
O O10 0.588113 0.900702 0.789571
O O11 0.781220 0.500000 0.644238
O O12 0.745916 0.621385 0.777234
O O13 0.850056 0.622076 0.561842
O O14 0.500000 0.391997 0.066870
O O15 0.594462 0.500000 0.998549
O O16 0.622471 0.358836 0.927011
O O17 0.500000 0.879079 0.028547
O O18 0.422146 0.000000 0.010571
#
# Coordination Sequence:
#
# PCOD8188310 Si02
#       7
#     8   8   8   8   8   8   8
#     4   9  17  32  58  83 107 140 181 229 284 340
#     4  11  21  35  52  77 111 148 188 230 274 326
#     4   9  17  31  55  84 109 139 178 219 270 330
#     4  10  18  32  54  82 113 146 189 236 282 334
#     4   9  19  38  61  85 112 144 187 239 294 347
#     4  11  24  36  55  79 113 151 196 233 282 333
#     4   8  14  26  49  80 110 141 177 217 263 319
#
# _framework density 20.070360999999998
#
# number of rings (size 3 to 8) (size 9 to 14) (size 15 to 20)
#    0.000    2.429    1.429    2.571    0.000    2.286 
#    0.000    1.429    0.000   11.143    0.000    0.000 
#    0.000    0.000    0.000    0.000    0.000    0.000 
#
# Total GULP energy -346942.343472 kJ/mol
# GULP energy per Si atom -12390.797981 kJ/mol
# Density = 2.002468 g / cm^3
# Si number density = 20.070361 Si / 1000 Ang^3
#
#
#
# Elastic Constant Matrix: (Units=GPa)
#
#
# Indices 1 2 3 4 5 6 
#
# 1 131.7743 44.2204 30.3750 0.0000 0.0000 0.0000
# 2 44.2204 64.6350 19.6473 0.0000 0.0000 0.0000
# 3 30.3750 19.6473 52.7927 0.0000 0.0000 0.0000
# 4 0.0000 0.0000 0.0000 24.9446 0.0000 0.0000
# 5 0.0000 0.0000 0.0000 0.0000 24.9675 0.0000
# 6 0.0000 0.0000 0.0000 0.0000 0.0000 17.3442
#
#
#
# Elastic Compliance Matrix: (Units=1/GPa)
#
#
# Indices 1 2 3 4 5 6 
#
# 1 0.010483 -0.006019 -0.003791 0.000000 0.000000 0.000000
# 2 -0.006019 0.020901 -0.004315 0.000000 0.000000 0.000000
# 3 -0.003791 -0.004315 0.022729 0.000000 0.000000 0.000000
# 4 0.000000 0.000000 0.000000 0.040089 0.000000 0.000000
# 5 0.000000 0.000000 0.000000 0.000000 0.040052 0.000000
# 6 0.000000 0.000000 0.000000 0.000000 0.000000 0.057656
#
#
# Mechanical properties :
#
#
# Convention : Reuss Voigt Hill
#
# Bulk Modulus (GPa) = 38.66729 48.63192 43.64961
# Shear Modulus (GPa) = 21.85483 23.78188 22.81835
#
# Velocity S-wave (km/s) = 3.30344 3.44601 3.37548
# Velocity P-wave (km/s) = 5.81876 6.33377 6.08172
#
# Compressibility (1/GPa) = 0.02586165
#
# Stress axis : x y z
#
# Youngs Moduli (GPa) = 95.39649 47.84370 43.99609
#
# Poissons Ratio (x) = 0.28799 0.16680
# Poissons Ratio (y) = 0.57422 0.18986
# Poissons Ratio (z) = 0.36166 0.20646
#
# Static dielectric constant tensor:
#      x y z
#    x 3.968920 0.000000 0.000000 
#    y 0.000000 3.542920 0.000000 
#    z 0.000000 0.000000 3.541840 
# 
# 
# High freq. dielectric constant tensor:
#      x y z
#    x 1.778620 0.000000 0.000000 
#    y 0.000000 1.770330 0.000000 
#    z 0.000000 0.000000 1.758810 
# 
# From -- ./inp_files/8408.got.cif
#   From: 2010.03.12/outbox.cif.g09.slc.cpg/sg44_5_cif.got.tgz:8408.got - 2010.04.14 02:36:11.
