data_PCOD8188566
_publ_section_title
;
Structure prediction by ZEFSAII (Michael W. Deem and Ramdas Pophale) SiO2 
 PCOD8188566
Probable space group: I M M 2
;
_chemical_formula_sum "Si O2"
_cell_formula_units_Z 64
_cell_length_a 30.626414
_cell_length_b 9.163271
_cell_length_c 14.372202
_cell_angle_alpha 90.000000
_cell_angle_beta 90.000000
_cell_angle_gamma 90.000000
_cell_volume 4033.387911
_symmetry_space_group_name_H-M "I M M 2"
_symmetry_group_IT_number 44
_symmetry_cell_setting 'orthorhombic'
loop_
_space_group_symop_operation_xyz
x,y,z
-x,-y,z
-x,y,z
x,-y,z
1/2+x,1/2+y,1/2+z
1/2-x,1/2-y,1/2+z
1/2-x,1/2+y,1/2+z
1/2+x,1/2-y,1/2+z
loop_
_atom_site_type_symbol
_atom_site_label
_atom_site_fract_x
_atom_site_fract_y
_atom_site_fract_z
Si Si1 0.701403 0.331140 0.893960
Si Si2 0.451909 0.667612 0.133564
Si Si3 0.729446 0.827005 0.721843
Si Si4 0.316432 0.835248 0.211601
Si Si5 0.637247 0.666643 0.051441
Si Si6 0.715175 0.173777 0.512077
Si Si7 0.451646 0.826745 0.325557
Si Si8 0.134976 0.335891 0.899973
O O1 0.709202 0.500000 0.868425
O O2 0.696855 0.238749 0.799124
O O3 0.655517 0.308515 0.947674
O O4 0.741478 0.271933 0.958069
O O5 0.500000 0.704088 0.091468
O O6 0.449635 0.500000 0.165245
O O7 0.414741 0.700160 0.055881
O O8 0.442688 0.762441 0.224158
O O9 0.776742 0.764109 0.745664
O O10 0.715684 0.774133 0.618815
O O11 0.729892 0.000000 0.729055
O O12 0.336990 0.773896 0.118247
O O13 0.351820 0.831477 0.292422
O O14 0.300068 0.000000 0.193408
O O15 0.647162 0.500000 0.082620
O O16 0.671253 0.243263 0.464840
O O17 0.714506 0.000000 0.505033
O O18 0.500000 0.781720 0.361753
O O19 0.414483 0.768701 0.398818
O O20 0.447364 0.000000 0.315457
O O21 0.132152 0.500000 0.937791
#
# Coordination Sequence:
#
# PCOD8188566 Si02
#       8
#     8   8   8   8   8   8   8   8
#     4  10  19  33  48  64  89 122 153 186 228 270
#     4   9  17  28  43  65  92 120 149 182 224 273
#     4  11  21  33  47  66  90 119 155 194 227 265
#     4  11  19  28  46  68  92 123 155 186 222 268
#     4  10  19  31  46  65  93 126 155 187 227 271
#     4   9  17  30  46  62  86 118 149 179 222 268
#     4   9  16  26  42  65  90 114 145 184 221 264
#     4   9  16  27  43  63  86 119 150 174 215 268
#
# _framework density 15.867554
#
# number of rings (size 3 to 8) (size 9 to 14) (size 15 to 20)
#    0.000    2.250    3.750    0.750    0.000    0.500 
#    0.000    0.000    0.000    0.000    0.000    0.875 
#    0.000    1.000    0.000    0.000    0.000    0.000 
#
# Total GULP energy -396536.747334 kJ/mol
# GULP energy per Si atom -12391.773354 kJ/mol
# Density = 1.583144 g / cm^3
# Si number density = 15.867554 Si / 1000 Ang^3
#
#
#
# Elastic Constant Matrix: (Units=GPa)
#
#
# Indices 1 2 3 4 5 6 
#
# 1 117.7516 18.3361 37.0502 0.0000 0.0000 0.0000
# 2 18.3361 40.1620 25.0944 0.0000 0.0000 0.0000
# 3 37.0502 25.0944 75.1280 0.0000 0.0000 0.0000
# 4 0.0000 0.0000 0.0000 21.1428 0.0000 0.0000
# 5 0.0000 0.0000 0.0000 0.0000 24.7874 0.0000
# 6 0.0000 0.0000 0.0000 0.0000 0.0000 15.0231
#
#
#
# Elastic Compliance Matrix: (Units=1/GPa)
#
#
# Indices 1 2 3 4 5 6 
#
# 1 0.010167 -0.001907 -0.004377 0.000000 0.000000 0.000000
# 2 -0.001907 0.031824 -0.009690 0.000000 0.000000 0.000000
# 3 -0.004377 -0.009690 0.018706 0.000000 0.000000 0.000000
# 4 0.000000 0.000000 0.000000 0.047297 0.000000 0.000000
# 5 0.000000 0.000000 0.000000 0.000000 0.040343 0.000000
# 6 0.000000 0.000000 0.000000 0.000000 0.000000 0.066564
#
#
# Mechanical properties :
#
#
# Convention : Reuss Voigt Hill
#
# Bulk Modulus (GPa) = 34.78284 43.77812 39.28048
# Shear Modulus (GPa) = 19.49845 22.36138 20.92991
#
# Velocity S-wave (km/s) = 3.50926 3.75807 3.63580
# Velocity P-wave (km/s) = 6.19582 6.81766 6.51416
#
# Compressibility (1/GPa) = 0.02874981
#
# Stress axis : x y z
#
# Youngs Moduli (GPa) = 98.36193 31.42279 53.45982
#
# Poissons Ratio (x) = 0.05992 0.23399
# Poissons Ratio (y) = 0.18755 0.51800
# Poissons Ratio (z) = 0.43051 0.30447
#
# Static dielectric constant tensor:
#      x y z
#    x 3.398420 0.000000 0.000000 
#    y 0.000000 2.903760 0.000000 
#    z 0.000000 0.000000 2.888400 
# 
# 
# High freq. dielectric constant tensor:
#      x y z
#    x 1.611200 0.000000 0.000000 
#    y 0.000000 1.592060 0.000000 
#    z 0.000000 0.000000 1.578170 
# 
# From -- ./inp_files/17123.got.cif
#   From: 2010.03.12/outbox.cif.g09.slc.cpg/sg44_9_cif.got.tgz:17123.got - 2010.04.14 02:36:11.
