data_PCOD8188754
_publ_section_title
;
Structure prediction by ZEFSAII (Michael W. Deem and Ramdas Pophale) SiO2 
 PCOD8188754
Probable space group: I M M 2
;
_chemical_formula_sum "Si O2"
_cell_formula_units_Z 64
_cell_length_a 9.294757
_cell_length_b 17.836957
_cell_length_c 19.516940
_cell_angle_alpha 90.000000
_cell_angle_beta 90.000000
_cell_angle_gamma 90.000000
_cell_volume 3235.717014
_symmetry_space_group_name_H-M "I M M 2"
_symmetry_group_IT_number 44
_symmetry_cell_setting 'orthorhombic'
loop_
_space_group_symop_operation_xyz
x,y,z
-x,-y,z
-x,y,z
x,-y,z
1/2+x,1/2+y,1/2+z
1/2-x,1/2-y,1/2+z
1/2-x,1/2+y,1/2+z
1/2+x,1/2-y,1/2+z
loop_
_atom_site_type_symbol
_atom_site_label
_atom_site_fract_x
_atom_site_fract_y
_atom_site_fract_z
Si Si1 0.161643 0.911154 0.408460
Si Si2 0.338982 0.912591 0.282794
Si Si3 0.661493 0.846928 0.148019
Si Si4 0.162315 0.585115 0.513527
Si Si5 0.170796 0.913681 0.761206
Si Si6 0.662853 0.681744 0.132906
Si Si7 0.169691 0.159101 0.902713
Si Si8 0.829244 0.696803 0.993191
O O1 0.230983 0.879422 0.338702
O O2 0.262609 0.881450 0.468579
O O3 0.000000 0.879442 0.414805
O O4 0.161064 0.000000 0.412466
O O5 0.500000 0.876426 0.290385
O O6 0.266869 0.893271 0.209815
O O7 0.352445 0.000000 0.293231
O O8 0.500000 0.878785 0.138828
O O9 0.734250 0.864342 0.074418
O O10 0.659312 0.760997 0.171794
O O11 0.164984 0.500000 0.538513
O O12 0.260052 0.592995 0.446727
O O13 0.000000 0.611600 0.495484
O O14 0.223823 0.878985 0.687933
O O15 0.220753 0.858757 0.824176
O O16 0.000000 0.914897 0.760072
O O17 0.228626 0.000000 0.768619
O O18 0.500000 0.659801 0.108570
O O19 0.766686 0.700768 0.069621
O O20 0.219466 0.237737 0.938951
O O21 0.000000 0.152278 0.907333
O O22 0.000000 0.692243 0.997662
#
# Coordination Sequence:
#
# PCOD8188754 Si02
#       8
#     8   8   8   8   8   8   8   8
#     4  10  22  39  58  82 112 147 187 232 288 350
#     4   9  17  31  53  80 110 145 185 228 275 330
#     4   9  17  30  51  78 110 149 190 230 276 338
#     4  10  19  32  53  81 113 150 190 232 284 346
#     4   9  19  36  59  86 112 145 195 246 289 342
#     4  10  20  36  59  82 110 149 191 236 290 343
#     4  10  21  37  58  83 114 150 190 238 292 348
#     4  11  23  38  59  86 116 150 192 239 292 352
#
# _framework density 19.779232
#
# number of rings (size 3 to 8) (size 9 to 14) (size 15 to 20)
#    0.000    2.250    1.250    1.500    1.750    4.000 
#    0.000    3.125    0.000    2.250    0.000    0.000 
#    0.000    0.000    0.000    0.000    0.000    0.000 
#
# Total GULP energy -396432.162610 kJ/mol
# GULP energy per Si atom -12388.505082 kJ/mol
# Density = 1.973421 g / cm^3
# Si number density = 19.779232 Si / 1000 Ang^3
#
#
#
# Elastic Constant Matrix: (Units=GPa)
#
#
# Indices 1 2 3 4 5 6 
#
# 1 57.5817 29.6751 42.7856 0.0000 0.0000 0.0000
# 2 29.6751 59.9859 53.7206 0.0000 0.0000 0.0000
# 3 42.7856 53.7206 126.2566 0.0000 0.0000 0.0000
# 4 0.0000 0.0000 0.0000 37.2280 0.0000 0.0000
# 5 0.0000 0.0000 0.0000 0.0000 26.2217 0.0000
# 6 0.0000 0.0000 0.0000 0.0000 0.0000 17.7572
#
#
#
# Elastic Compliance Matrix: (Units=1/GPa)
#
#
# Indices 1 2 3 4 5 6 
#
# 1 0.025291 -0.007813 -0.005246 0.000000 0.000000 0.000000
# 2 -0.007813 0.029347 -0.009839 0.000000 0.000000 0.000000
# 3 -0.005246 -0.009839 0.013885 0.000000 0.000000 0.000000
# 4 0.000000 0.000000 0.000000 0.026861 0.000000 0.000000
# 5 0.000000 0.000000 0.000000 0.000000 0.038136 0.000000
# 6 0.000000 0.000000 0.000000 0.000000 0.000000 0.056315
#
#
# Mechanical properties :
#
#
# Convention : Reuss Voigt Hill
#
# Bulk Modulus (GPa) = 44.00267 55.13186 49.56726
# Shear Modulus (GPa) = 20.55841 24.08424 22.32132
#
# Velocity S-wave (km/s) = 3.22746 3.49327 3.36299
# Velocity P-wave (km/s) = 6.01530 6.64866 6.33990
#
# Compressibility (1/GPa) = 0.02272589
#
# Stress axis : x y z
#
# Youngs Moduli (GPa) = 39.53899 34.07456 72.02211
#
# Poissons Ratio (x) = 0.26624 0.37784
# Poissons Ratio (y) = 0.30894 0.70864
# Poissons Ratio (z) = 0.20743 0.33526
#
# Static dielectric constant tensor:
#      x y z
#    x 3.407470 0.000000 0.000000 
#    y 0.000000 3.612010 0.000000 
#    z 0.000000 0.000000 3.803910 
# 
# 
# High freq. dielectric constant tensor:
#      x y z
#    x 1.732830 0.000000 0.000000 
#    y 0.000000 1.769110 0.000000 
#    z 0.000000 0.000000 1.780010 
# 
# From -- ./inp_files/23294.got.cif
#   From: 2010.03.12/outbox.cif.g09.slc.cpg/sg44_12_cif.got.tgz:23294.got - 2010.04.14 02:36:11.
