data_PCOD8188201
_publ_section_title
;
Structure prediction by ZEFSAII (Michael W. Deem and Ramdas Pophale) SiO2 
 PCOD8188201
Probable space group: I M M 2
;
_chemical_formula_sum "Si O2"
_cell_formula_units_Z 48
_cell_length_a 16.593041
_cell_length_b 8.795056
_cell_length_c 18.755777
_cell_angle_alpha 90.000000
_cell_angle_beta 90.000000
_cell_angle_gamma 90.000000
_cell_volume 2737.156667
_symmetry_space_group_name_H-M "I M M 2"
_symmetry_group_IT_number 44
_symmetry_cell_setting 'orthorhombic'
loop_
_space_group_symop_operation_xyz
x,y,z
-x,-y,z
-x,y,z
x,-y,z
1/2+x,1/2+y,1/2+z
1/2-x,1/2-y,1/2+z
1/2-x,1/2+y,1/2+z
1/2+x,1/2-y,1/2+z
loop_
_atom_site_type_symbol
_atom_site_label
_atom_site_fract_x
_atom_site_fract_y
_atom_site_fract_z
Si Si1 0.661935 0.180588 0.841780
Si Si2 0.233333 0.179324 0.971565
Si Si3 0.408286 0.180740 0.549970
Si Si4 0.000000 0.319944 0.576105
Si Si5 0.163345 0.177484 0.594053
Si Si6 0.186975 0.676766 0.185448
Si Si7 0.000000 0.319130 0.413206
O O1 0.737682 0.224525 0.892008
O O2 0.674100 0.252986 0.762992
O O3 0.578925 0.246627 0.873906
O O4 0.655812 0.000000 0.837345
O O5 0.227395 0.000000 0.981599
O O6 0.145773 0.252123 0.986028
O O7 0.300978 0.240768 0.024906
O O8 0.500000 0.235789 0.540256
O O9 0.374417 0.243226 0.625791
O O10 0.400809 0.000000 0.546960
O O11 0.078162 0.251050 0.614793
O O12 0.000000 0.500000 0.583716
O O13 0.000000 0.263165 0.494492
O O14 0.221425 0.205808 0.661421
O O15 0.154512 0.000000 0.577064
O O16 0.168047 0.500000 0.192337
O O17 0.000000 0.500000 0.411845
#
# Coordination Sequence:
#
# PCOD8188201 Si02
#       7
#     8   8   8   4   8   8   4
#     4   9  16  27  46  73 100 125 157 201 243 284
#     4  10  18  30  50  73  98 129 164 202 245 289
#     4   9  18  32  50  73  97 125 162 204 247 291
#     4  11  19  31  51  77 101 126 165 206 242 289
#     4  10  19  32  49  73 101 132 165 200 245 292
#     4   8  16  29  47  71  98 125 159 200 243 289
#     4   9  16  25  43  75 103 120 149 194 244 285
#
# _framework density 17.536445000000001
#
# number of rings (size 3 to 8) (size 9 to 14) (size 15 to 20)
#    0.000    2.667    1.667    2.250    1.167    0.333 
#    0.000    0.000    1.833   10.000    0.000    0.000 
#    0.000    0.000    0.000    0.000    0.000    0.000 
#
# Total GULP energy -297517.236855 kJ/mol
# GULP energy per Si atom -12396.551536 kJ/mol
# Density = 1.749653 g / cm^3
# Si number density = 17.536445 Si / 1000 Ang^3
#
#
#
# Elastic Constant Matrix: (Units=GPa)
#
#
# Indices 1 2 3 4 5 6 
#
# 1 161.0490 34.1424 57.7479 0.0000 0.0000 0.0000
# 2 34.1424 35.3766 19.6934 0.0000 0.0000 0.0000
# 3 57.7479 19.6934 97.8914 0.0000 0.0000 0.0000
# 4 0.0000 0.0000 0.0000 16.5403 0.0000 0.0000
# 5 0.0000 0.0000 0.0000 0.0000 20.7706 0.0000
# 6 0.0000 0.0000 0.0000 0.0000 0.0000 28.2653
#
#
#
# Elastic Compliance Matrix: (Units=1/GPa)
#
#
# Indices 1 2 3 4 5 6 
#
# 1 0.009023 -0.006469 -0.004021 0.000000 0.000000 0.000000
# 2 -0.006469 0.036471 -0.003521 0.000000 0.000000 0.000000
# 3 -0.004021 -0.003521 0.013296 0.000000 0.000000 0.000000
# 4 0.000000 0.000000 0.000000 0.060458 0.000000 0.000000
# 5 0.000000 0.000000 0.000000 0.000000 0.048145 0.000000
# 6 0.000000 0.000000 0.000000 0.000000 0.000000 0.035379
#
#
# Mechanical properties :
#
#
# Convention : Reuss Voigt Hill
#
# Bulk Modulus (GPa) = 32.50240 57.49827 45.00034
# Shear Modulus (GPa) = 20.74259 25.29746 23.02003
#
# Velocity S-wave (km/s) = 3.44296 3.80223 3.62705
# Velocity P-wave (km/s) = 5.86342 7.22046 6.57703
#
# Compressibility (1/GPa) = 0.03076696
#
# Stress axis : x y z
#
# Youngs Moduli (GPa) = 110.83176 27.41910 75.21158
#
# Poissons Ratio (x) = 0.17739 0.30244
# Poissons Ratio (y) = 0.71702 0.26479
# Poissons Ratio (z) = 0.44567 0.09653
#
# Static dielectric constant tensor:
#      x y z
#    x 3.436100 0.000000 0.000000 
#    y 0.000000 2.942930 0.000000 
#    z 0.000000 0.000000 3.399450 
# 
# 
# High freq. dielectric constant tensor:
#      x y z
#    x 1.684560 0.000000 0.000000 
#    y 0.000000 1.645530 0.000000 
#    z 0.000000 0.000000 1.662420 
# 
# From -- ./inp_files/24304.got.cif
#   From: 2010.03.12/outbox.cif.g09.slc.cpg/sg44_13_cif.got.tgz:24304.got - 2010.04.14 02:36:11.
