data_PCOD8188799
_publ_section_title
;
Structure prediction by ZEFSAII (Michael W. Deem and Ramdas Pophale) SiO2 
 PCOD8188799
Probable space group: I M M 2
;
_chemical_formula_sum "Si O2"
_cell_formula_units_Z 64
_cell_length_a 23.374767
_cell_length_b 8.656128
_cell_length_c 18.854521
_cell_angle_alpha 90.000000
_cell_angle_beta 90.000000
_cell_angle_gamma 90.000000
_cell_volume 3814.929037
_symmetry_space_group_name_H-M "I M M 2"
_symmetry_group_IT_number 44
_symmetry_cell_setting 'orthorhombic'
loop_
_space_group_symop_operation_xyz
x,y,z
-x,-y,z
-x,y,z
x,-y,z
1/2+x,1/2+y,1/2+z
1/2-x,1/2-y,1/2+z
1/2-x,1/2+y,1/2+z
1/2+x,1/2-y,1/2+z
loop_
_atom_site_type_symbol
_atom_site_label
_atom_site_fract_x
_atom_site_fract_y
_atom_site_fract_z
Si Si1 0.566188 0.320342 0.725400
Si Si2 0.063711 0.683611 0.514692
Si Si3 0.769669 0.179293 0.731955
Si Si4 0.337699 0.179857 0.636026
Si Si5 0.273584 0.678186 0.512407
Si Si6 0.238204 0.179465 0.372229
Si Si7 0.385406 0.817942 0.867006
Si Si8 0.165520 0.320434 0.609561
O O1 0.500000 0.282324 0.713181
O O2 0.579833 0.500000 0.716746
O O3 0.600743 0.227931 0.665500
O O4 0.584024 0.269425 0.803487
O O5 0.065018 0.500000 0.512476
O O6 0.085117 0.744203 0.438659
O O7 0.105626 0.740627 0.577296
O O8 0.000000 0.746989 0.529898
O O9 0.709615 0.222829 0.694928
O O10 0.775619 0.279709 0.803058
O O11 0.821843 0.222931 0.680048
O O12 0.773106 0.000000 0.751215
O O13 0.325329 0.270913 0.563418
O O14 0.336308 0.000000 0.618442
O O15 0.281110 0.500000 0.492365
O O16 0.275678 0.778672 0.440998
O O17 0.213344 0.710292 0.550356
O O18 0.181550 0.283043 0.370310
O O19 0.222004 0.000000 0.372650
O O20 0.393667 0.000000 0.855956
O O21 0.163325 0.500000 0.630135
#
# Coordination Sequence:
#
# PCOD8188799 Si02
#       8
#     8   8   8   8   8   8   8   8
#     4  11  23  36  50  72 103 139 176 213 255 300
#     4   9  17  30  49  72  99 133 172 208 242 286
#     4  10  20  33  50  72  98 129 167 209 255 303
#     4  10  20  34  52  74  99 131 172 213 254 302
#     4  10  19  33  52  73 101 132 166 209 256 305
#     4  12  22  32  50  75 103 135 169 207 256 307
#     4  11  20  33  49  71 101 138 180 213 247 292
#     4   9  17  31  49  71  98 130 167 206 249 293
#
# _framework density 16.776195999999999
#
# number of rings (size 3 to 8) (size 9 to 14) (size 15 to 20)
#    0.000    1.750    2.500    3.375    0.000    3.000 
#    0.000    0.000    0.000    1.875    0.000    0.875 
#    0.000    5.000    0.000    0.000    0.000    0.000 
#
# Total GULP energy -396920.874735 kJ/mol
# GULP energy per Si atom -12403.777335 kJ/mol
# Density = 1.673801 g / cm^3
# Si number density = 16.776196 Si / 1000 Ang^3
#
#
#
# Elastic Constant Matrix: (Units=GPa)
#
#
# Indices 1 2 3 4 5 6 
#
# 1 87.8127 15.6078 49.9908 0.0000 0.0000 0.0000
# 2 15.6078 32.8466 29.6158 0.0000 0.0000 0.0000
# 3 49.9908 29.6158 99.5062 0.0000 0.0000 0.0000
# 4 0.0000 0.0000 0.0000 29.1764 0.0000 0.0000
# 5 0.0000 0.0000 0.0000 0.0000 22.9273 0.0000
# 6 0.0000 0.0000 0.0000 0.0000 0.0000 20.3898
#
#
#
# Elastic Compliance Matrix: (Units=1/GPa)
#
#
# Indices 1 2 3 4 5 6 
#
# 1 0.015955 -0.000484 -0.007872 0.000000 0.000000 0.000000
# 2 -0.000484 0.041626 -0.012146 0.000000 0.000000 0.000000
# 3 -0.007872 -0.012146 0.017619 0.000000 0.000000 0.000000
# 4 0.000000 0.000000 0.000000 0.034274 0.000000 0.000000
# 5 0.000000 0.000000 0.000000 0.000000 0.043616 0.000000
# 6 0.000000 0.000000 0.000000 0.000000 0.000000 0.049044
#
#
# Mechanical properties :
#
#
# Convention : Reuss Voigt Hill
#
# Bulk Modulus (GPa) = 29.24229 45.62156 37.43192
# Shear Modulus (GPa) = 19.64356 22.82877 21.23616
#
# Velocity S-wave (km/s) = 3.42558 3.69288 3.56174
# Velocity P-wave (km/s) = 5.75455 6.74065 6.26703
#
# Compressibility (1/GPa) = 0.03419705
#
# Stress axis : x y z
#
# Youngs Moduli (GPa) = 62.67572 24.02367 56.75649
#
# Poissons Ratio (x) = 0.01163 0.44676
# Poissons Ratio (y) = 0.03034 0.68935
# Poissons Ratio (z) = 0.49336 0.29178
#
# Static dielectric constant tensor:
#      x y z
#    x 3.088810 0.000000 0.000000 
#    y 0.000000 3.089600 0.000000 
#    z 0.000000 0.000000 3.224780 
# 
# 
# High freq. dielectric constant tensor:
#      x y z
#    x 1.618610 0.000000 0.000000 
#    y 0.000000 1.649270 0.000000 
#    z 0.000000 0.000000 1.643120 
# 
# From -- ./inp_files/19483.got.cif
#   From: 2010.03.12/outbox.cif.g09.slc.cpg/sg44_10_cif.got.tgz:19483.got - 2010.04.14 02:36:11.
