data_PCOD8188256
_publ_section_title
;
Structure prediction by ZEFSAII (Michael W. Deem and Ramdas Pophale) SiO2 
 PCOD8188256
Probable space group: I M M 2
;
_chemical_formula_sum "Si O2"
_cell_formula_units_Z 64
_cell_length_a 20.761791
_cell_length_b 8.973632
_cell_length_c 19.938791
_cell_angle_alpha 90.000000
_cell_angle_beta 90.000000
_cell_angle_gamma 90.000000
_cell_volume 3714.769674
_symmetry_space_group_name_H-M "I M M 2"
_symmetry_group_IT_number 44
_symmetry_cell_setting 'orthorhombic'
loop_
_space_group_symop_operation_xyz
x,y,z
-x,-y,z
-x,y,z
x,-y,z
1/2+x,1/2+y,1/2+z
1/2-x,1/2-y,1/2+z
1/2-x,1/2+y,1/2+z
1/2+x,1/2-y,1/2+z
loop_
_atom_site_type_symbol
_atom_site_label
_atom_site_fract_x
_atom_site_fract_y
_atom_site_fract_z
Si Si1 0.268540 0.823211 0.897240
Si Si2 0.571316 0.826446 0.124158
Si Si3 0.765901 0.676222 0.251949
Si Si4 0.188010 0.677032 0.111254
Si Si5 0.072926 0.174068 0.037758
Si Si6 0.119415 0.824235 0.751781
Si Si7 0.624686 0.323815 0.398690
Si Si8 0.691066 0.177169 0.038560
O O1 0.293259 0.763598 0.824095
O O2 0.196616 0.759890 0.909730
O O3 0.265836 0.000000 0.894446
O O4 0.312975 0.773502 0.959957
O O5 0.500000 0.793904 0.094302
O O6 0.574824 0.752199 0.196888
O O7 0.625775 0.763263 0.073587
O O8 0.582779 0.000000 0.134227
O O9 0.765351 0.500000 0.254537
O O10 0.808376 0.730545 0.189087
O O11 0.692728 0.730573 0.241088
O O12 0.192943 0.500000 0.104446
O O13 0.119449 0.732273 0.085155
O O14 0.246584 0.748671 0.070936
O O15 0.000000 0.205326 0.060591
O O16 0.090581 0.000000 0.043884
O O17 0.080432 0.228666 0.960523
O O18 0.096577 0.772319 0.826425
O O19 0.112795 0.000000 0.742531
O O20 0.628998 0.500000 0.396673
O O21 0.698681 0.000000 0.045197
#
# Coordination Sequence:
#
# PCOD8188256 Si02
#       8
#     8   8   8   8   8   8   8   8
#     4   8  13  25  48  72  91 116 155 200 240 275
#     4  10  21  33  44  67 103 134 158 194 244 289
#     4   8  15  27  46  73  98 119 149 197 245 280
#     4  11  20  31  50  74 101 126 154 199 247 289
#     4  10  20  34  51  71  97 130 167 200 232 279
#     4   9  16  29  49  71  94 125 165 199 230 277
#     4   8  14  26  47  72  94 119 161 206 231 264
#     4  10  18  31  53  72  91 126 167 202 235 282
#
# _framework density 17.228524
#
# number of rings (size 3 to 8) (size 9 to 14) (size 15 to 20)
#    0.000    2.750    2.500    1.875    0.000    1.000 
#    0.000    1.875    0.000    2.250    0.000    3.500 
#    0.000    0.000    0.000    0.000    0.000    0.000 
#
# Total GULP energy -396483.906420 kJ/mol
# GULP energy per Si atom -12390.122076 kJ/mol
# Density = 1.718931 g / cm^3
# Si number density = 17.228524 Si / 1000 Ang^3
#
#
#
# Elastic Constant Matrix: (Units=GPa)
#
#
# Indices 1 2 3 4 5 6 
#
# 1 89.1118 22.1014 60.2555 0.0000 0.0000 0.0000
# 2 22.1014 22.5404 24.6314 0.0000 0.0000 0.0000
# 3 60.2555 24.6314 141.1803 0.0000 0.0000 0.0000
# 4 0.0000 0.0000 0.0000 20.7999 0.0000 0.0000
# 5 0.0000 0.0000 0.0000 0.0000 25.0176 0.0000
# 6 0.0000 0.0000 0.0000 0.0000 0.0000 14.0709
#
#
#
# Elastic Compliance Matrix: (Units=1/GPa)
#
#
# Indices 1 2 3 4 5 6 
#
# 1 0.017847 -0.011337 -0.005639 0.000000 0.000000 0.000000
# 2 -0.011337 0.062017 -0.005981 0.000000 0.000000 0.000000
# 3 -0.005639 -0.005981 0.010533 0.000000 0.000000 0.000000
# 4 0.000000 0.000000 0.000000 0.048077 0.000000 0.000000
# 5 0.000000 0.000000 0.000000 0.000000 0.039972 0.000000
# 6 0.000000 0.000000 0.000000 0.000000 0.000000 0.071068
#
#
# Mechanical properties :
#
#
# Convention : Reuss Voigt Hill
#
# Bulk Modulus (GPa) = 22.48067 51.86767 37.17417
# Shear Modulus (GPa) = 16.11567 21.70063 18.90815
#
# Velocity S-wave (km/s) = 3.06176 3.55290 3.31643
# Velocity P-wave (km/s) = 5.05727 6.85579 6.02403
#
# Compressibility (1/GPa) = 0.04448266
#
# Stress axis : x y z
#
# Youngs Moduli (GPa) = 56.03311 16.12451 94.93603
#
# Poissons Ratio (x) = 0.18280 0.53534
# Poissons Ratio (y) = 0.63525 0.56785
# Poissons Ratio (z) = 0.31597 0.09645
#
# Static dielectric constant tensor:
#      x y z
#    x 3.108820 0.000000 0.000000 
#    y 0.000000 2.837390 0.000000 
#    z 0.000000 0.000000 3.923020 
# 
# 
# High freq. dielectric constant tensor:
#      x y z
#    x 1.639620 0.000000 0.000000 
#    y 0.000000 1.624720 0.000000 
#    z 0.000000 0.000000 1.678840 
# 
# From -- ./inp_files/24343.got.cif
#   From: 2010.03.12/outbox.cif.g09.slc.cpg/sg44_13_cif.got.tgz:24343.got - 2010.04.14 02:36:11.
