data_PCOD8188345
_publ_section_title
;
Structure prediction by ZEFSAII (Michael W. Deem and Ramdas Pophale) SiO2 
 PCOD8188345
Probable space group: I M M 2
;
_chemical_formula_sum "Si O2"
_cell_formula_units_Z 64
_cell_length_a 19.309564
_cell_length_b 13.906854
_cell_length_c 12.538206
_cell_angle_alpha 90.000000
_cell_angle_beta 90.000000
_cell_angle_gamma 90.000000
_cell_volume 3366.950751
_symmetry_space_group_name_H-M "I M M 2"
_symmetry_group_IT_number 44
_symmetry_cell_setting 'orthorhombic'
loop_
_space_group_symop_operation_xyz
x,y,z
-x,-y,z
-x,y,z
x,-y,z
1/2+x,1/2+y,1/2+z
1/2-x,1/2-y,1/2+z
1/2-x,1/2+y,1/2+z
1/2+x,1/2-y,1/2+z
loop_
_atom_site_type_symbol
_atom_site_label
_atom_site_fract_x
_atom_site_fract_y
_atom_site_fract_z
Si Si1 0.335758 0.112224 0.237920
Si Si2 0.250912 0.887540 0.041069
Si Si3 0.577493 0.731650 0.346878
Si Si4 0.787166 0.886723 0.391819
Si Si5 0.616589 0.269723 0.585199
Si Si6 0.716866 0.113949 0.605760
Si Si7 0.424081 0.389173 0.777549
Si Si8 0.790644 0.112480 0.814450
O O1 0.319434 0.134967 0.112590
O O2 0.400471 0.170609 0.285315
O O3 0.267680 0.146218 0.302805
O O4 0.352143 0.000000 0.255535
O O5 0.184784 0.834759 0.087089
O O6 0.234328 0.000000 0.050637
O O7 0.257375 0.857126 0.916100
O O8 0.500000 0.705821 0.308005
O O9 0.575509 0.738680 0.474753
O O10 0.630733 0.648162 0.317759
O O11 0.761689 0.844686 0.505624
O O12 0.864557 0.852352 0.359431
O O13 0.787220 0.000000 0.403664
O O14 0.640463 0.160171 0.608674
O O15 0.569813 0.317805 0.676203
O O16 0.755575 0.154066 0.709418
O O17 0.707359 0.000000 0.602673
O O18 0.500000 0.384087 0.833431
O O19 0.408615 0.500000 0.742033
O O20 0.796310 0.000000 0.805932
#
# Coordination Sequence:
#
# PCOD8188345 Si02
#       8
#     8   8   8   8   8   8   8   8
#     4  10  18  33  55  77 104 136 174 222 269 306
#     4   9  17  30  52  79 102 130 173 221 266 310
#     4  11  23  35  49  76 111 144 178 213 263 323
#     4   9  17  32  54  78 104 135 173 218 264 308
#     4  11  19  31  52  75 108 142 172 215 269 316
#     4  10  20  34  54  80 107 138 181 224 258 305
#     4  10  20  33  52  82 114 139 170 216 271 327
#     4   9  20  36  53  78 108 139 177 217 261 313
#
# _framework density 19.008298
#
# number of rings (size 3 to 8) (size 9 to 14) (size 15 to 20)
#    0.000    2.125    2.500    1.500    0.000    1.000 
#    0.000    0.625    0.000    3.375    0.000    0.875 
#    0.000    6.000    0.000    0.000    0.000    0.000 
#
# Total GULP energy -396558.118712 kJ/mol
# GULP energy per Si atom -12392.441210 kJ/mol
# Density = 1.896503 g / cm^3
# Si number density = 19.008298 Si / 1000 Ang^3
#
#
#
# Elastic Constant Matrix: (Units=GPa)
#
#
# Indices 1 2 3 4 5 6 
#
# 1 68.9235 10.8007 24.7482 0.0000 0.0000 0.0000
# 2 10.8007 21.8682 29.1018 0.0000 0.0000 0.0000
# 3 24.7482 29.1018 97.4089 0.0000 0.0000 0.0000
# 4 0.0000 0.0000 0.0000 22.2231 0.0000 0.0000
# 5 0.0000 0.0000 0.0000 0.0000 22.3700 0.0000
# 6 0.0000 0.0000 0.0000 0.0000 0.0000 23.1589
#
#
#
# Elastic Compliance Matrix: (Units=1/GPa)
#
#
# Indices 1 2 3 4 5 6 
#
# 1 0.016193 -0.004188 -0.002863 0.000000 0.000000 0.000000
# 2 -0.004188 0.076991 -0.021938 0.000000 0.000000 0.000000
# 3 -0.002863 -0.021938 0.017548 0.000000 0.000000 0.000000
# 4 0.000000 0.000000 0.000000 0.044998 0.000000 0.000000
# 5 0.000000 0.000000 0.000000 0.000000 0.044703 0.000000
# 6 0.000000 0.000000 0.000000 0.000000 0.000000 0.043180
#
#
# Mechanical properties :
#
#
# Convention : Reuss Voigt Hill
#
# Bulk Modulus (GPa) = 18.95569 35.27799 27.11684
# Shear Modulus (GPa) = 15.66541 21.78708 18.72624
#
# Velocity S-wave (km/s) = 2.87389 3.38921 3.14213
# Velocity P-wave (km/s) = 4.58326 5.82368 5.24030
#
# Compressibility (1/GPa) = 0.05275460
#
# Stress axis : x y z
#
# Youngs Moduli (GPa) = 61.75478 12.98850 56.98812
#
# Poissons Ratio (x) = 0.05439 0.16315
# Poissons Ratio (y) = 0.25861 1.25020
# Poissons Ratio (z) = 0.17680 0.28494
#
# Static dielectric constant tensor:
#      x y z
#    x 3.238960 0.000000 0.000000 
#    y 0.000000 3.502130 0.000000 
#    z 0.000000 0.000000 3.843140 
# 
# 
# High freq. dielectric constant tensor:
#      x y z
#    x 1.705170 0.000000 0.000000 
#    y 0.000000 1.744850 0.000000 
#    z 0.000000 0.000000 1.739590 
# 
# From -- ./inp_files/13422.got.cif
#   From: 2010.03.12/outbox.cif.g09.slc.cpg/sg44_7_cif.got.tgz:13422.got - 2010.04.14 02:36:11.
