data_PCOD8188359
_publ_section_title
;
Structure prediction by ZEFSAII (Michael W. Deem and Ramdas Pophale) SiO2 
 PCOD8188359
Probable space group: I M M 2
;
_chemical_formula_sum "Si O2"
_cell_formula_units_Z 64
_cell_length_a 17.532062
_cell_length_b 15.395721
_cell_length_c 12.038082
_cell_angle_alpha 90.000000
_cell_angle_beta 90.000000
_cell_angle_gamma 90.000000
_cell_volume 3249.303867
_symmetry_space_group_name_H-M "I M M 2"
_symmetry_group_IT_number 44
_symmetry_cell_setting 'orthorhombic'
loop_
_space_group_symop_operation_xyz
x,y,z
-x,-y,z
-x,y,z
x,-y,z
1/2+x,1/2+y,1/2+z
1/2-x,1/2-y,1/2+z
1/2-x,1/2+y,1/2+z
1/2+x,1/2-y,1/2+z
loop_
_atom_site_type_symbol
_atom_site_label
_atom_site_fract_x
_atom_site_fract_y
_atom_site_fract_z
Si Si1 0.090423 0.095637 0.098180
Si Si2 0.087204 0.647557 0.316564
Si Si3 0.090423 0.404363 0.556285
Si Si4 0.412796 0.352440 0.837901
Si Si5 0.662727 0.400484 0.063374
Si Si6 0.590400 0.247709 0.451745
Si Si7 0.662727 0.900485 0.591091
Si Si8 0.409600 0.252291 0.202721
O O1 0.119655 0.106936 0.224090
O O2 0.000000 0.106328 0.099754
O O3 0.114746 0.000000 0.054571
O O4 0.125457 0.169714 0.018296
O O5 0.119656 0.606934 0.430375
O O6 0.092940 0.749999 0.327232
O O7 0.139514 0.612189 0.218528
O O8 0.000000 0.618926 0.293356
O O9 0.114738 0.500000 0.599897
O O10 0.125457 0.330287 0.636170
O O11 0.000000 0.393663 0.554704
O O12 0.500000 0.381071 0.861111
O O13 0.360486 0.387808 0.935938
O O14 0.650013 0.500000 0.099405
O O15 0.750000 0.372354 0.077233
O O16 0.611776 0.341786 0.143650
O O17 0.500000 0.254445 0.448941
O O18 0.611776 0.158214 0.510816
O O19 0.624066 0.250000 0.327233
O O20 0.650015 0.000000 0.555057
O O21 0.500000 0.245555 0.205527
#
# Coordination Sequence:
#
# PCOD8188359 Si02
#       8
#     8   8   8   8   8   8   8   8
#     4   9  17  31  55  87 115 138 175 233 292 339
#     4  10  18  33  61  89 112 144 188 241 296 339
#     4   9  17  31  55  87 115 138 175 233 292 339
#     4  10  18  33  61  89 112 144 188 241 296 339
#     4  11  24  39  56  82 118 157 193 233 285 344
#     4  10  21  38  59  83 113 151 193 236 285 341
#     4  11  24  39  56  82 118 157 193 233 285 344
#     4  10  21  38  59  83 113 151 193 236 285 341
#
# _framework density 19.696528000000001
#
# number of rings (size 3 to 8) (size 9 to 14) (size 15 to 20)
#    0.000    2.000    2.500    1.500    0.000    5.000 
#    0.000    2.500    0.000    0.750    0.000    0.000 
#    0.000    0.000    0.000    0.000    0.000    0.000 
#
# Total GULP energy -396820.490861 kJ/mol
# GULP energy per Si atom -12400.640339 kJ/mol
# Density = 1.965170 g / cm^3
# Si number density = 19.696528 Si / 1000 Ang^3
#
#
#
# Elastic Constant Matrix: (Units=GPa)
#
#
# Indices 1 2 3 4 5 6 
#
# 1 35.1914 14.8803 32.8235 0.0000 0.0000 0.0000
# 2 14.8803 120.7129 64.8315 0.0000 0.0000 0.0000
# 3 32.8235 64.8315 165.6672 0.0000 0.0000 0.0000
# 4 0.0000 0.0000 0.0000 20.2848 0.0000 0.0000
# 5 0.0000 0.0000 0.0000 0.0000 3.9855 0.0000
# 6 0.0000 0.0000 0.0000 0.0000 0.0000 16.9370
#
#
#
# Elastic Compliance Matrix: (Units=1/GPa)
#
#
# Indices 1 2 3 4 5 6 
#
# 1 0.034911 -0.000745 -0.006625 0.000000 0.000000 0.000000
# 2 -0.000745 0.010504 -0.003963 0.000000 0.000000 0.000000
# 3 -0.006625 -0.003963 0.008900 0.000000 0.000000 0.000000
# 4 0.000000 0.000000 0.000000 0.049298 0.000000 0.000000
# 5 0.000000 0.000000 0.000000 0.000000 0.250908 0.000000
# 6 0.000000 0.000000 0.000000 0.000000 0.000000 0.059042
#
#
# Mechanical properties :
#
#
# Convention : Reuss Voigt Hill
#
# Bulk Modulus (GPa) = 31.59784 60.73800 46.16792
# Shear Modulus (GPa) = 11.19120 22.17722 16.68421
#
# Velocity S-wave (km/s) = 2.38624 3.35915 2.91359
# Velocity P-wave (km/s) = 4.86512 6.77857 5.89993
#
# Compressibility (1/GPa) = 0.03164773
#
# Stress axis : x y z
#
# Youngs Moduli (GPa) = 28.64463 95.19765 112.36279
#
# Poissons Ratio (x) = 0.07095 0.74442
# Poissons Ratio (y) = 0.02135 0.44531
# Poissons Ratio (z) = 0.18978 0.37728
#
# Static dielectric constant tensor:
#      x y z
#    x 3.197690 0.000000 0.000000 
#    y 0.000000 3.752750 0.000000 
#    z 0.000000 0.000000 3.852300 
# 
# 
# High freq. dielectric constant tensor:
#      x y z
#    x 1.723180 0.000000 0.000000 
#    y 0.000000 1.784850 0.000000 
#    z 0.000000 0.000000 1.774440 
# 
# From -- ./inp_files/13996.got.cif
#   From: 2010.03.12/outbox.cif.g09.slc.cpg/sg44_7_cif.got.tgz:13996.got - 2010.04.14 02:36:11.
