data_PCOD8188751
_publ_section_title
;
Structure prediction by ZEFSAII (Michael W. Deem and Ramdas Pophale) SiO2 
 PCOD8188751
Probable space group: I M M 2
;
_chemical_formula_sum "Si O2"
_cell_formula_units_Z 56
_cell_length_a 23.728063
_cell_length_b 9.201930
_cell_length_c 13.565407
_cell_angle_alpha 90.000000
_cell_angle_beta 90.000000
_cell_angle_gamma 90.000000
_cell_volume 2961.924884
_symmetry_space_group_name_H-M "I M M 2"
_symmetry_group_IT_number 44
_symmetry_cell_setting 'orthorhombic'
loop_
_space_group_symop_operation_xyz
x,y,z
-x,-y,z
-x,y,z
x,-y,z
1/2+x,1/2+y,1/2+z
1/2-x,1/2-y,1/2+z
1/2-x,1/2+y,1/2+z
1/2+x,1/2-y,1/2+z
loop_
_atom_site_type_symbol
_atom_site_label
_atom_site_fract_x
_atom_site_fract_y
_atom_site_fract_z
Si Si1 0.338312 0.330306 0.763150
Si Si2 0.064378 0.332199 0.364116
Si Si3 0.936083 0.667668 0.937506
Si Si4 0.124886 0.330980 0.564498
Si Si5 0.435220 0.330654 0.237788
Si Si6 0.167185 0.666491 0.067780
Si Si7 0.279545 0.666464 0.961660
O O1 0.346255 0.500000 0.748103
O O2 0.398797 0.263932 0.790689
O O3 0.316520 0.262705 0.661599
O O4 0.292481 0.293460 0.847869
O O5 0.074585 0.500000 0.337224
O O6 0.080495 0.302066 0.477257
O O7 0.000000 0.286219 0.348977
O O8 0.926858 0.500000 0.906605
O O9 0.921927 0.767810 0.844992
O O10 0.000000 0.693771 0.974842
O O11 0.893772 0.711738 0.025175
O O12 0.131054 0.500000 0.589242
O O13 0.104373 0.249144 0.660851
O O14 0.185585 0.269492 0.534377
O O15 0.500000 0.301290 0.209253
O O16 0.420725 0.500000 0.238056
O O17 0.166743 0.500000 0.102526
O O18 0.213613 0.691742 0.982388
O O19 0.297579 0.500000 0.981939
#
# Coordination Sequence:
#
# PCOD8188751 Si02
#       7
#     8   8   8   8   8   8   8
#     4  10  21  36  54  79 110 140 175 221 268 316
#     4   9  18  33  53  77 106 142 183 223 264 315
#     4   9  19  36  56  78 105 139 181 225 266 313
#     4  10  19  32  53  80 109 142 182 225 268 316
#     4  10  20  33  51  78 112 147 181 220 268 319
#     4  10  21  38  59  80 105 141 180 218 265 319
#     4   9  20  38  55  75 107 142 178 221 267 317
#
# _framework density 18.906624000000001
#
# number of rings (size 3 to 8) (size 9 to 14) (size 15 to 20)
#    0.000    2.429    0.000    1.714    0.000    5.714 
#    0.000    2.857    0.000    0.000    0.000    0.000 
#    0.000    0.000    0.000    0.000    0.000    0.000 
#
# Total GULP energy -347286.254256 kJ/mol
# GULP energy per Si atom -12403.080509 kJ/mol
# Density = 1.886359 g / cm^3
# Si number density = 18.906624 Si / 1000 Ang^3
#
#
#
# Elastic Constant Matrix: (Units=GPa)
#
#
# Indices 1 2 3 4 5 6 
#
# 1 108.1661 47.1863 60.8923 0.0000 0.0000 0.0000
# 2 47.1863 89.6652 56.5705 0.0000 0.0000 0.0000
# 3 60.8923 56.5705 107.9015 0.0000 0.0000 0.0000
# 4 0.0000 0.0000 0.0000 35.2253 0.0000 0.0000
# 5 0.0000 0.0000 0.0000 0.0000 25.2684 0.0000
# 6 0.0000 0.0000 0.0000 0.0000 0.0000 26.5029
#
#
#
# Elastic Compliance Matrix: (Units=1/GPa)
#
#
# Indices 1 2 3 4 5 6 
#
# 1 0.014302 -0.003637 -0.006164 0.000000 0.000000 0.000000
# 2 -0.003637 0.017590 -0.007169 0.000000 0.000000 0.000000
# 3 -0.006164 -0.007169 0.016505 0.000000 0.000000 0.000000
# 4 0.000000 0.000000 0.000000 0.028389 0.000000 0.000000
# 5 0.000000 0.000000 0.000000 0.000000 0.039575 0.000000
# 6 0.000000 0.000000 0.000000 0.000000 0.000000 0.037732
#
#
# Mechanical properties :
#
#
# Convention : Reuss Voigt Hill
#
# Bulk Modulus (GPa) = 69.17868 70.55900 69.86884
# Shear Modulus (GPa) = 25.92658 26.80489 26.36574
#
# Velocity S-wave (km/s) = 3.70712 3.76939 3.73838
# Velocity P-wave (km/s) = 7.41571 7.50634 7.46116
#
# Compressibility (1/GPa) = 0.01445532
#
# Stress axis : x y z
#
# Youngs Moduli (GPa) = 69.92100 56.85053 60.58787
#
# Poissons Ratio (x) = 0.20679 0.37346
# Poissons Ratio (y) = 0.25433 0.43437
# Poissons Ratio (z) = 0.43099 0.40758
#
# Static dielectric constant tensor:
#      x y z
#    x 3.457660 0.000000 0.000000 
#    y 0.000000 3.522440 0.000000 
#    z 0.000000 0.000000 3.343750 
# 
# 
# High freq. dielectric constant tensor:
#      x y z
#    x 1.732320 0.000000 0.000000 
#    y 0.000000 1.737230 0.000000 
#    z 0.000000 0.000000 1.728770 
# 
# From -- ./inp_files/16472.got.cif
#   From: 2010.03.12/outbox.cif.g09.slc.cpg/sg44_9_cif.got.tgz:16472.got - 2010.04.14 02:36:11.
