data_PCOD8188232
_publ_section_title
;
Structure prediction by ZEFSAII (Michael W. Deem and Ramdas Pophale) SiO2 
 PCOD8188232
Probable space group: I M M 2
;
_chemical_formula_sum "Si O2"
_cell_formula_units_Z 40
_cell_length_a 8.883507
_cell_length_b 25.725074
_cell_length_c 9.042861
_cell_angle_alpha 90.000000
_cell_angle_beta 90.000000
_cell_angle_gamma 90.000000
_cell_volume 2066.554851
_symmetry_space_group_name_H-M "I M M 2"
_symmetry_group_IT_number 44
_symmetry_cell_setting 'orthorhombic'
loop_
_space_group_symop_operation_xyz
x,y,z
-x,-y,z
-x,y,z
x,-y,z
1/2+x,1/2+y,1/2+z
1/2-x,1/2-y,1/2+z
1/2-x,1/2+y,1/2+z
1/2+x,1/2-y,1/2+z
loop_
_atom_site_type_symbol
_atom_site_label
_atom_site_fract_x
_atom_site_fract_y
_atom_site_fract_z
Si Si1 0.324751 0.395275 0.602920
Si Si2 0.170802 0.112682 0.448413
Si Si3 0.825594 0.299561 0.446509
Si Si4 0.175178 0.500000 0.610954
Si Si5 0.326091 0.204379 0.601678
Si Si6 0.829694 0.000000 0.413407
O O1 0.500000 0.402090 0.576429
O O2 0.288104 0.385296 0.775045
O O3 0.268913 0.346918 0.509197
O O4 0.245783 0.447577 0.542038
O O5 0.285940 0.147688 0.539137
O O6 0.189726 0.053006 0.507660
O O7 0.000000 0.132301 0.473870
O O8 0.777639 0.246349 0.522975
O O9 0.791337 0.294068 0.274218
O O10 0.000000 0.309887 0.478543
O O11 0.206528 0.500000 0.785407
O O12 0.000000 0.500000 0.577190
O O13 0.500000 0.216532 0.568472
O O14 0.000000 0.000000 0.342674
#
# Coordination Sequence:
#
# PCOD8188232 Si02
#       6
#     8   8   8   4   8   4
#     4  10  20  36  58  84 113 146 185 227 271 321
#     4   9  18  34  57  83 111 144 183 226 269 320
#     4  11  24  40  57  80 109 142 183 229 276 329
#     4  10  18  30  53  84 115 148 184 222 268 320
#     4  11  24  39  56  81 111 143 181 227 278 331
#     4   8  16  32  53  80 113 146 184 228 270 318
#
# _framework density 19.355885000000001
#
# number of rings (size 3 to 8) (size 9 to 14) (size 15 to 20)
#    0.000    2.000    0.000    5.100    0.000   12.000 
#    0.000    1.000    0.000    4.800    0.000    0.000 
#    0.000    0.000    0.000    0.000    0.000    0.000 
#
# Total GULP energy -248008.179841 kJ/mol
# GULP energy per Si atom -12400.408992 kJ/mol
# Density = 1.931183 g / cm^3
# Si number density = 19.355885 Si / 1000 Ang^3
#
#
#
# Elastic Constant Matrix: (Units=GPa)
#
#
# Indices 1 2 3 4 5 6 
#
# 1 91.3230 45.9449 47.5421 0.0002 -0.0001 0.0000
# 2 45.9449 138.0450 42.2708 -0.0003 -0.0003 0.0000
# 3 47.5421 42.2708 68.9413 -0.0028 0.0004 -0.0001
# 4 0.0002 -0.0003 -0.0028 27.5746 -0.0001 0.0000
# 5 -0.0001 -0.0003 0.0004 -0.0001 26.5827 -0.0002
# 6 0.0000 0.0000 -0.0001 0.0000 -0.0002 40.2244
#
#
#
# Elastic Compliance Matrix: (Units=1/GPa)
#
#
# Indices 1 2 3 4 5 6 
#
# 1 0.017850 -0.002674 -0.010670 -0.000001 0.000000 0.000000
# 2 -0.002674 0.009319 -0.003870 0.000000 0.000000 0.000000
# 3 -0.010670 -0.003870 0.024236 0.000003 0.000000 0.000000
# 4 -0.000001 0.000000 0.000003 0.036265 0.000000 0.000000
# 5 0.000000 0.000000 0.000000 0.000000 0.037618 0.000000
# 6 0.000000 0.000000 0.000000 0.000000 0.000000 0.024861
#
#
# Mechanical properties :
#
#
# Convention : Reuss Voigt Hill
#
# Bulk Modulus (GPa) = 58.90168 63.31387 61.10777
# Shear Modulus (GPa) = 26.28312 29.71309 27.99811
#
# Velocity S-wave (km/s) = 3.68895 3.92228 3.80740
# Velocity P-wave (km/s) = 6.97434 7.30026 7.13916
#
# Compressibility (1/GPa) = 0.01697744
#
# Stress axis : x y z
#
# Youngs Moduli (GPa) = 56.02235 107.30845 41.26078
#
# Poissons Ratio (x) = 0.28691 0.44026
# Poissons Ratio (y) = 0.14978 0.15968
# Poissons Ratio (z) = 0.59776 0.41529
#
# Static dielectric constant tensor:
#      x y z
#    x 3.532410 0.000000 0.000000 
#    y 0.000000 3.858440 0.000000 
#    z 0.000000 0.000000 3.268050 
# 
# 
# High freq. dielectric constant tensor:
#      x y z
#    x 1.760490 0.000000 0.000000 
#    y 0.000000 1.777730 0.000000 
#    z 0.000000 0.000000 1.719360 
# 
# From -- ./inp_files/4658.got.cif
#   From: 2010.03.12/outbox.cif.g09.slc.cpg/sg44_3_cif.got.tgz:4658.got - 2010.04.14 02:36:11.
