data_PCOD8188609
_publ_section_title
;
Structure prediction by ZEFSAII (Michael W. Deem and Ramdas Pophale) SiO2 
 PCOD8188609
Probable space group: I M M 2
;
_chemical_formula_sum "Si O2"
_cell_formula_units_Z 56
_cell_length_a 22.246223
_cell_length_b 8.926440
_cell_length_c 14.541466
_cell_angle_alpha 90.000000
_cell_angle_beta 90.000000
_cell_angle_gamma 90.000000
_cell_volume 2887.638136
_symmetry_space_group_name_H-M "I M M 2"
_symmetry_group_IT_number 44
_symmetry_cell_setting 'orthorhombic'
loop_
_space_group_symop_operation_xyz
x,y,z
-x,-y,z
-x,y,z
x,-y,z
1/2+x,1/2+y,1/2+z
1/2-x,1/2-y,1/2+z
1/2-x,1/2+y,1/2+z
1/2+x,1/2-y,1/2+z
loop_
_atom_site_type_symbol
_atom_site_label
_atom_site_fract_x
_atom_site_fract_y
_atom_site_fract_z
Si Si1 0.286746 0.325662 0.058400
Si Si2 0.000000 0.679396 0.357181
Si Si3 0.216512 0.325362 0.372537
Si Si4 0.384541 0.177699 0.178763
Si Si5 0.000000 0.677820 0.565631
Si Si6 0.388043 0.176963 0.743021
Si Si7 0.147219 0.674986 0.047764
Si Si8 0.645133 0.324921 0.360703
O O1 0.301081 0.500000 0.068782
O O2 0.322715 0.239012 0.136986
O O3 0.216557 0.290553 0.070216
O O4 0.307749 0.267920 0.959041
O O5 0.000000 0.741468 0.461483
O O6 0.057718 0.744701 0.303050
O O7 0.000000 0.500000 0.358650
O O8 0.209400 0.500000 0.397158
O O9 0.175760 0.276630 0.286673
O O10 0.284713 0.285491 0.347413
O O11 0.440744 0.235822 0.118347
O O12 0.392219 0.240530 0.281926
O O13 0.382280 0.000000 0.182587
O O14 0.000000 0.500000 0.563269
O O15 0.390332 0.230688 0.636898
O O16 0.393738 0.000000 0.743596
O O17 0.137942 0.500000 0.027089
O O18 0.123506 0.767110 0.960284
O O19 0.632307 0.500000 0.353378
#
# Coordination Sequence:
#
# PCOD8188609 Si02
#       8
#     8   4   8   8   4   8   8   8
#     4  10  19  31  49  76 108 138 170 211 257 309
#     4   9  16  28  49  77 102 124 161 211 252 289
#     4   9  17  31  51  75 105 139 171 206 254 309
#     4  11  21  35  55  76 101 136 175 217 266 316
#     4   9  20  36  54  77 102 130 171 217 258 313
#     4   9  16  28  49  74 100 131 166 207 251 293
#     4   9  18  33  51  74 106 140 172 208 254 309
#     4  10  20  34  52  76 104 134 171 215 261 311
#
# _framework density 19.393011000000001
#
# number of rings (size 3 to 8) (size 9 to 14) (size 15 to 20)
#    0.000    2.429    0.000    3.000    0.000    5.714 
#    0.000    2.857    0.000    2.571    0.000    1.000 
#    0.000    0.000    0.000    0.000    0.000    0.000 
#
# Total GULP energy -347204.612819 kJ/mol
# GULP energy per Si atom -12400.164744 kJ/mol
# Density = 1.934887 g / cm^3
# Si number density = 19.393011 Si / 1000 Ang^3
#
#
#
# Elastic Constant Matrix: (Units=GPa)
#
#
# Indices 1 2 3 4 5 6 
#
# 1 63.0627 20.9984 62.1820 0.0000 0.0000 0.0000
# 2 20.9984 53.6098 42.5227 0.0000 0.0000 0.0000
# 3 62.1820 42.5227 181.8433 0.0000 0.0000 0.0000
# 4 0.0000 0.0000 0.0000 31.6537 0.0000 0.0000
# 5 0.0000 0.0000 0.0000 0.0000 32.9479 0.0000
# 6 0.0000 0.0000 0.0000 0.0000 0.0000 15.4524
#
#
#
# Elastic Compliance Matrix: (Units=1/GPa)
#
#
# Indices 1 2 3 4 5 6 
#
# 1 0.024483 -0.003621 -0.007525 0.000000 0.000000 0.000000
# 2 -0.003621 0.023436 -0.004242 0.000000 0.000000 0.000000
# 3 -0.007525 -0.004242 0.009065 0.000000 0.000000 0.000000
# 4 0.000000 0.000000 0.000000 0.031592 0.000000 0.000000
# 5 0.000000 0.000000 0.000000 0.000000 0.030351 0.000000
# 6 0.000000 0.000000 0.000000 0.000000 0.000000 0.064715
#
#
# Mechanical properties :
#
#
# Convention : Reuss Voigt Hill
#
# Bulk Modulus (GPa) = 38.15728 61.10243 49.62986
# Shear Modulus (GPa) = 22.40596 27.53163 24.96879
#
# Velocity S-wave (km/s) = 3.40275 3.77194 3.59209
# Velocity P-wave (km/s) = 5.92932 7.10956 6.54609
#
# Compressibility (1/GPa) = 0.02620732
#
# Stress axis : x y z
#
# Youngs Moduli (GPa) = 40.84432 42.66857 110.31895
#
# Poissons Ratio (x) = 0.15449 0.83020
# Poissons Ratio (y) = 0.14789 0.46801
# Poissons Ratio (z) = 0.30737 0.18101
#
# Static dielectric constant tensor:
#      x y z
#    x 3.472880 0.000000 0.000000 
#    y 0.000000 3.249800 0.000000 
#    z 0.000000 0.000000 3.840570 
# 
# 
# High freq. dielectric constant tensor:
#      x y z
#    x 1.734760 0.000000 0.000000 
#    y 0.000000 1.723180 0.000000 
#    z 0.000000 0.000000 1.772680 
# 
# From -- ./inp_files/19220.got.cif
#   From: 2010.03.12/outbox.cif.g09.slc.cpg/sg44_10_cif.got.tgz:19220.got - 2010.04.14 02:36:11.
