data_PCOD8188351
_publ_section_title
;
Structure prediction by ZEFSAII (Michael W. Deem and Ramdas Pophale) SiO2 
 PCOD8188351
Probable space group: I M M 2
;
_chemical_formula_sum "Si O2"
_cell_formula_units_Z 40
_cell_length_a 8.402810
_cell_length_b 18.471121
_cell_length_c 13.626232
_cell_angle_alpha 90.000000
_cell_angle_beta 90.000000
_cell_angle_gamma 90.000000
_cell_volume 2114.918206
_symmetry_space_group_name_H-M "I M M 2"
_symmetry_group_IT_number 44
_symmetry_cell_setting 'orthorhombic'
loop_
_space_group_symop_operation_xyz
x,y,z
-x,-y,z
-x,y,z
x,-y,z
1/2+x,1/2+y,1/2+z
1/2-x,1/2-y,1/2+z
1/2-x,1/2+y,1/2+z
1/2+x,1/2-y,1/2+z
loop_
_atom_site_type_symbol
_atom_site_label
_atom_site_fract_x
_atom_site_fract_y
_atom_site_fract_z
Si Si1 0.687526 0.856067 0.564040
Si Si2 0.815330 0.000000 0.468699
Si Si3 0.187101 0.219013 0.743188
Si Si4 0.182152 0.500000 0.756639
Si Si5 0.312229 0.287069 0.461295
Si Si6 0.814040 0.137144 0.152129
O O1 0.500000 0.852041 0.579742
O O2 0.733746 0.931005 0.516144
O O3 0.770552 0.846553 0.670115
O O4 0.751572 0.792057 0.493354
O O5 0.792964 0.000000 0.352008
O O6 0.000000 0.000000 0.493931
O O7 0.245716 0.194525 0.851657
O O8 0.282282 0.291423 0.716026
O O9 0.000000 0.235996 0.741762
O O10 0.213236 0.570476 0.691620
O O11 0.000000 0.500000 0.791742
O O12 0.500000 0.283764 0.465563
O O13 0.256059 0.347572 0.539948
O O14 0.000000 0.117744 0.157538
#
# Coordination Sequence:
#
# PCOD8188351 Si02
#       6
#     8   4   8   4   8   8
#     4  10  20  36  55  80 112 145 178 221 271 322
#     4  12  24  38  57  82 107 140 181 222 268 326
#     4  10  18  33  56  82 109 143 183 225 269 319
#     4  12  24  38  55  80 111 142 173 220 280 332
#     4   8  17  33  55  78 105 140 179 219 265 313
#     4  10  20  36  55  79 108 143 184 226 269 321
#
# _framework density 18.913260999999999
#
# number of rings (size 3 to 8) (size 9 to 14) (size 15 to 20)
#    0.000    2.000    0.000    6.000    0.000    1.600 
#    0.000   12.000    0.000    2.400    0.000    0.000 
#    0.000    0.000    0.000    0.000    0.000    0.000 
#
# Total GULP energy -247996.333980 kJ/mol
# GULP energy per Si atom -12399.816699 kJ/mol
# Density = 1.887021 g / cm^3
# Si number density = 18.913261 Si / 1000 Ang^3
#
#
#
# Elastic Constant Matrix: (Units=GPa)
#
#
# Indices 1 2 3 4 5 6 
#
# 1 48.8314 1.4649 13.3335 0.0000 0.0000 0.0000
# 2 1.4649 96.1116 53.4767 0.0000 0.0000 0.0000
# 3 13.3335 53.4767 165.4738 -0.0001 0.0000 0.0000
# 4 0.0000 0.0000 -0.0001 29.2438 0.0000 0.0000
# 5 0.0000 0.0000 0.0000 0.0000 26.5786 0.0000
# 6 0.0000 0.0000 0.0000 0.0000 0.0000 31.0127
#
#
#
# Elastic Compliance Matrix: (Units=1/GPa)
#
#
# Indices 1 2 3 4 5 6 
#
# 1 0.020984 0.000757 -0.001936 0.000000 0.000000 0.000000
# 2 0.000757 0.012713 -0.004169 0.000000 0.000000 0.000000
# 3 -0.001936 -0.004169 0.007547 0.000000 0.000000 0.000000
# 4 0.000000 0.000000 0.000000 0.034195 0.000000 0.000000
# 5 0.000000 0.000000 0.000000 0.000000 0.037624 0.000000
# 6 0.000000 0.000000 0.000000 0.000000 0.000000 0.032245
#
#
# Mechanical properties :
#
#
# Convention : Reuss Voigt Hill
#
# Bulk Modulus (GPa) = 32.73521 49.66302 41.19911
# Shear Modulus (GPa) = 30.08659 33.50980 31.79819
#
# Velocity S-wave (km/s) = 3.99277 4.21380 4.10477
# Velocity P-wave (km/s) = 6.21304 7.07037 6.65552
#
# Compressibility (1/GPa) = 0.03054815
#
# Stress axis : x y z
#
# Youngs Moduli (GPa) = 47.65445 78.65997 132.50855
#
# Poissons Ratio (x) = -0.05955 0.25648
# Poissons Ratio (y) = -0.03608 0.55249
# Poissons Ratio (z) = 0.09224 0.32797
#
# Static dielectric constant tensor:
#      x y z
#    x 3.386830 0.000000 0.000000 
#    y 0.000000 3.356710 0.000000 
#    z 0.000000 0.000000 3.901850 
# 
# 
# High freq. dielectric constant tensor:
#      x y z
#    x 1.732070 0.000000 0.000000 
#    y 0.000000 1.719930 0.000000 
#    z 0.000000 0.000000 1.746130 
# 
# From -- ./inp_files/10847.got.cif
#   From: 2010.03.12/outbox.cif.g09.slc.cpg/sg44_6_cif.got.tgz:10847.got - 2010.04.14 02:36:11.
