data_PCOD8188250
_publ_section_title
;
Structure prediction by ZEFSAII (Michael W. Deem and Ramdas Pophale) SiO2 
 PCOD8188250
Probable space group: I M M 2
;
_chemical_formula_sum "Si O2"
_cell_formula_units_Z 64
_cell_length_a 9.391377
_cell_length_b 19.584115
_cell_length_c 20.773566
_cell_angle_alpha 90.000000
_cell_angle_beta 90.000000
_cell_angle_gamma 90.000000
_cell_volume 3820.711800
_symmetry_space_group_name_H-M "I M M 2"
_symmetry_group_IT_number 44
_symmetry_cell_setting 'orthorhombic'
loop_
_space_group_symop_operation_xyz
x,y,z
-x,-y,z
-x,y,z
x,-y,z
1/2+x,1/2+y,1/2+z
1/2-x,1/2-y,1/2+z
1/2-x,1/2+y,1/2+z
1/2+x,1/2-y,1/2+z
loop_
_atom_site_type_symbol
_atom_site_label
_atom_site_fract_x
_atom_site_fract_y
_atom_site_fract_z
Si Si1 0.665219 0.421678 0.492710
Si Si2 0.667645 0.805191 0.935275
Si Si3 0.667598 0.716415 0.053371
Si Si4 0.336944 0.075470 0.727775
Si Si5 0.162197 0.423774 0.620610
Si Si6 0.336252 0.213466 0.791797
Si Si7 0.666533 0.425030 0.099145
Si Si8 0.835183 0.286765 0.683488
O O1 0.500000 0.401481 0.495789
O O2 0.686081 0.500000 0.471995
O O3 0.746650 0.375958 0.440378
O O4 0.732884 0.407661 0.562281
O O5 0.500000 0.820622 0.942351
O O6 0.700317 0.771318 0.866150
O O7 0.728007 0.753764 0.990050
O O8 0.500000 0.726731 0.052838
O O9 0.709641 0.635851 0.050180
O O10 0.726862 0.749799 0.119384
O O11 0.500000 0.080136 0.705145
O O12 0.301356 0.133390 0.779970
O O13 0.241639 0.089648 0.666111
O O14 0.304361 0.000000 0.756916
O O15 0.189241 0.500000 0.648472
O O16 0.189002 0.368385 0.676602
O O17 0.000000 0.416478 0.594784
O O18 0.500000 0.229297 0.776559
O O19 0.245295 0.262870 0.747007
O O20 0.500000 0.421843 0.113760
O O21 0.709238 0.500000 0.071053
O O22 0.000000 0.268222 0.692701
#
# Coordination Sequence:
#
# PCOD8188250 Si02
#       8
#     8   8   8   8   8   8   8   8
#     4  10  20  32  47  72 104 132 161 203 251 294
#     4  10  20  35  51  68  96 134 172 205 239 290
#     4   9  16  29  49  72  93 119 160 204 239 277
#     4   9  17  29  43  63  93 123 152 186 226 277
#     4   9  17  31  52  75  97 127 167 203 242 297
#     4  10  21  33  48  71  98 130 164 200 244 290
#     4   9  16  27  46  70  92 117 151 191 237 283
#     4  10  18  31  52  74  97 126 161 204 246 286
#
# _framework density 16.750805
#
# number of rings (size 3 to 8) (size 9 to 14) (size 15 to 20)
#    0.000    2.500    2.500    0.375    0.000    2.250 
#    0.000    1.875    0.000    2.250    0.000    1.750 
#    0.000    0.000    0.000    0.000    0.000    0.000 
#
# Total GULP energy -396654.251171 kJ/mol
# GULP energy per Si atom -12395.445349 kJ/mol
# Density = 1.671268 g / cm^3
# Si number density = 16.750805 Si / 1000 Ang^3
#
#
#
# Elastic Constant Matrix: (Units=GPa)
#
#
# Indices 1 2 3 4 5 6 
#
# 1 54.6094 39.6346 41.7429 0.0000 0.0000 0.0000
# 2 39.6346 112.9464 62.4049 0.0000 0.0000 0.0000
# 3 41.7429 62.4049 103.6089 0.0000 0.0000 0.0000
# 4 0.0000 0.0000 0.0000 23.4023 0.0000 0.0000
# 5 0.0000 0.0000 0.0000 0.0000 22.2008 0.0000
# 6 0.0000 0.0000 0.0000 0.0000 0.0000 21.5153
#
#
#
# Elastic Compliance Matrix: (Units=1/GPa)
#
#
# Indices 1 2 3 4 5 6 
#
# 1 0.028568 -0.005494 -0.008201 0.000000 0.000000 0.000000
# 2 -0.005494 0.014326 -0.006415 0.000000 0.000000 0.000000
# 3 -0.008201 -0.006415 0.016820 0.000000 0.000000 0.000000
# 4 0.000000 0.000000 0.000000 0.042731 0.000000 0.000000
# 5 0.000000 0.000000 0.000000 0.000000 0.045043 0.000000
# 6 0.000000 0.000000 0.000000 0.000000 0.000000 0.046479
#
#
# Mechanical properties :
#
#
# Convention : Reuss Voigt Hill
#
# Bulk Modulus (GPa) = 51.29825 62.08106 56.68965
# Shear Modulus (GPa) = 20.77411 21.91585 21.34498
#
# Velocity S-wave (km/s) = 3.52545 3.62103 3.57356
# Velocity P-wave (km/s) = 6.87478 7.39084 7.13747
#
# Compressibility (1/GPa) = 0.01949384
#
# Stress axis : x y z
#
# Youngs Moduli (GPa) = 35.00460 69.80165 59.45400
#
# Poissons Ratio (x) = 0.38348 0.48756
# Poissons Ratio (y) = 0.19231 0.38143
# Poissons Ratio (z) = 0.28706 0.44781
#
# Static dielectric constant tensor:
#      x y z
#    x 3.065220 0.000000 0.000000 
#    y 0.000000 3.466360 0.000000 
#    z 0.000000 0.000000 2.933810 
# 
# 
# High freq. dielectric constant tensor:
#      x y z
#    x 1.633270 0.000000 0.000000 
#    y 0.000000 1.655880 0.000000 
#    z 0.000000 0.000000 1.611460 
# 
# From -- ./inp_files/20745.got.cif
#   From: 2010.03.12/outbox.cif.g09.slc.cpg/sg44_11_cif.got.tgz:20745.got - 2010.04.14 02:36:11.
