data_PCOD8188788
_publ_section_title
;
Structure prediction by ZEFSAII (Michael W. Deem and Ramdas Pophale) SiO2 
 PCOD8188788
Probable space group: I M M 2
;
_chemical_formula_sum "Si O2"
_cell_formula_units_Z 64
_cell_length_a 9.367163
_cell_length_b 14.388925
_cell_length_c 23.780079
_cell_angle_alpha 90.000000
_cell_angle_beta 90.000000
_cell_angle_gamma 90.000000
_cell_volume 3205.160039
_symmetry_space_group_name_H-M "I M M 2"
_symmetry_group_IT_number 44
_symmetry_cell_setting 'orthorhombic'
loop_
_space_group_symop_operation_xyz
x,y,z
-x,-y,z
-x,y,z
x,-y,z
1/2+x,1/2+y,1/2+z
1/2-x,1/2-y,1/2+z
1/2-x,1/2+y,1/2+z
1/2+x,1/2-y,1/2+z
loop_
_atom_site_type_symbol
_atom_site_label
_atom_site_fract_x
_atom_site_fract_y
_atom_site_fract_z
Si Si1 0.662108 0.099717 0.934440
Si Si2 0.334588 0.106857 0.440179
Si Si3 0.157848 0.395836 0.678301
Si Si4 0.167969 0.261800 0.234030
Si Si5 0.242992 0.102583 0.056880
Si Si6 0.657483 0.197211 0.556209
Si Si7 0.667849 0.267786 0.863569
Si Si8 0.668056 0.608881 0.155727
O O1 0.500000 0.095893 0.913957
O O2 0.735437 0.182015 0.899175
O O3 0.735935 0.000000 0.920064
O O4 0.663227 0.116565 0.001107
O O5 0.500000 0.121950 0.426356
O O6 0.287791 0.164953 0.495131
O O7 0.245453 0.139947 0.385919
O O8 0.298011 0.000000 0.451749
O O9 0.190704 0.500000 0.699803
O O10 0.280846 0.330368 0.702158
O O11 0.154888 0.393106 0.610767
O O12 0.000000 0.364137 0.698698
O O13 0.204765 0.250126 0.299081
O O14 0.252762 0.351242 0.210829
O O15 0.000000 0.275062 0.222907
O O16 0.137539 0.190879 0.059032
O O17 0.165246 0.000000 0.055600
O O18 0.500000 0.154503 0.568183
O O19 0.770572 0.160633 0.601239
O O20 0.500000 0.280780 0.873382
O O21 0.500000 0.629914 0.159728
O O22 0.699859 0.500000 0.151577
#
# Coordination Sequence:
#
# PCOD8188788 Si02
#       8
#     8   8   8   8   8   8   8   8
#     4   9  17  32  56  85 116 149 185 231 289 351
#     4  10  22  40  61  87 121 160 200 244 298 359
#     4  10  21  37  59  88 120 155 196 243 298 359
#     4  11  24  40  60  88 120 158 201 251 305 352
#     4  10  19  32  58  93 124 151 187 236 296 358
#     4  11  22  38  62  92 127 162 194 240 304 367
#     4  10  22  39  60  87 117 152 200 249 292 344
#     4  11  25  43  64  90 119 156 204 254 302 358
#
# _framework density 19.9678
#
# number of rings (size 3 to 8) (size 9 to 14) (size 15 to 20)
#    0.000    1.750    2.500    1.500    0.000    6.750 
#    0.000    5.000    0.000    0.375    0.000    0.000 
#    0.000    0.000    0.000    0.000    0.000    0.000 
#
# Total GULP energy -396665.949157 kJ/mol
# GULP energy per Si atom -12395.810911 kJ/mol
# Density = 1.992235 g / cm^3
# Si number density = 19.967800 Si / 1000 Ang^3
#
#
#
# Elastic Constant Matrix: (Units=GPa)
#
#
# Indices 1 2 3 4 5 6 
#
# 1 82.7751 49.4442 48.4423 0.0000 0.0000 0.0000
# 2 49.4442 146.1734 60.9851 0.0000 0.0000 0.0000
# 3 48.4423 60.9851 127.2930 0.0000 0.0000 0.0000
# 4 0.0000 0.0000 0.0000 19.9045 0.0000 0.0000
# 5 0.0000 0.0000 0.0000 0.0000 27.1907 0.0000
# 6 0.0000 0.0000 0.0000 0.0000 0.0000 26.3986
#
#
#
# Elastic Compliance Matrix: (Units=1/GPa)
#
#
# Indices 1 2 3 4 5 6 
#
# 1 0.017107 -0.003838 -0.004672 0.000000 0.000000 0.000000
# 2 -0.003838 0.009411 -0.003048 0.000000 0.000000 0.000000
# 3 -0.004672 -0.003048 0.011094 0.000000 0.000000 0.000000
# 4 0.000000 0.000000 0.000000 0.050240 0.000000 0.000000
# 5 0.000000 0.000000 0.000000 0.000000 0.036777 0.000000
# 6 0.000000 0.000000 0.000000 0.000000 0.000000 0.037881
#
#
# Mechanical properties :
#
#
# Convention : Reuss Voigt Hill
#
# Bulk Modulus (GPa) = 68.97883 74.88721 71.93302
# Shear Modulus (GPa) = 26.25247 27.85674 27.05461
#
# Velocity S-wave (km/s) = 3.62987 3.73913 3.68491
# Velocity P-wave (km/s) = 7.22412 7.49846 7.36257
#
# Compressibility (1/GPa) = 0.01449720
#
# Stress axis : x y z
#
# Youngs Moduli (GPa) = 58.45473 106.25768 90.13711
#
# Poissons Ratio (x) = 0.40777 0.42110
# Poissons Ratio (y) = 0.22432 0.27477
# Poissons Ratio (z) = 0.27309 0.32391
#
# Static dielectric constant tensor:
#      x y z
#    x 3.353850 0.000000 0.000000 
#    y 0.000000 3.943530 0.000000 
#    z 0.000000 0.000000 3.586200 
# 
# 
# High freq. dielectric constant tensor:
#      x y z
#    x 1.759430 0.000000 0.000000 
#    y 0.000000 1.794650 0.000000 
#    z 0.000000 0.000000 1.774570 
# 
# From -- ./inp_files/25152.got.cif
#   From: 2010.03.12/outbox.cif.g09.slc.cpg/sg44_13_cif.got.tgz:25152.got - 2010.04.14 02:36:11.
