data_PCOD8188736
_publ_section_title
;
Structure prediction by ZEFSAII (Michael W. Deem and Ramdas Pophale) SiO2 
 PCOD8188736
Probable space group: I M M 2
;
_chemical_formula_sum "Si O2"
_cell_formula_units_Z 40
_cell_length_a 28.222935
_cell_length_b 8.838936
_cell_length_c 9.406330
_cell_angle_alpha 90.000000
_cell_angle_beta 90.000000
_cell_angle_gamma 90.000000
_cell_volume 2346.509819
_symmetry_space_group_name_H-M "I M M 2"
_symmetry_group_IT_number 44
_symmetry_cell_setting 'orthorhombic'
loop_
_space_group_symop_operation_xyz
x,y,z
-x,-y,z
-x,y,z
x,-y,z
1/2+x,1/2+y,1/2+z
1/2-x,1/2-y,1/2+z
1/2-x,1/2+y,1/2+z
1/2+x,1/2-y,1/2+z
loop_
_atom_site_type_symbol
_atom_site_label
_atom_site_fract_x
_atom_site_fract_y
_atom_site_fract_z
Si Si1 0.294094 0.176110 0.191740
Si Si2 0.947018 0.172875 0.318672
Si Si3 0.294162 0.676301 0.492054
Si Si4 0.358902 0.327325 0.981245
Si Si5 0.136652 0.678132 0.198637
O O1 0.284433 0.267385 0.334198
O O2 0.298758 0.000000 0.226710
O O3 0.251830 0.213807 0.084457
O O4 0.342615 0.233621 0.118493
O O5 0.916581 0.181902 0.466412
O O6 0.919052 0.271999 0.199745
O O7 0.000000 0.236856 0.342908
O O8 0.948740 0.000000 0.265054
O O9 0.305954 0.500000 0.490917
O O10 0.339362 0.764049 0.554721
O O11 0.341118 0.500000 0.993725
O O12 0.337192 0.255000 0.835496
O O13 0.141491 0.500000 0.210790
#
# Coordination Sequence:
#
# PCOD8188736 Si02
#       5
#     8   8   8   8   8
#     4  11  23  36  53  77 105 139 180 225 268 313
#     4   8  16  32  55  81 108 140 178 218 264 319
#     4  11  23  37  53  74 105 144 180 217 268 323
#     4   9  18  33  53  77 106 139 175 215 262 316
#     4  10  19  32  52  79 108 136 175 222 264 307
#
# _framework density 17.046595
#
# number of rings (size 3 to 8) (size 9 to 14) (size 15 to 20)
#    1.200    1.000    0.000    4.200    0.000    6.800 
#    0.000    0.000    0.000    1.200    0.000    2.800 
#    0.000    0.000    0.000    0.000    0.000    0.000 
#
# Total GULP energy -247862.593745 kJ/mol
# GULP energy per Si atom -12393.129687 kJ/mol
# Density = 1.700780 g / cm^3
# Si number density = 17.046595 Si / 1000 Ang^3
#
#
#
# Elastic Constant Matrix: (Units=GPa)
#
#
# Indices 1 2 3 4 5 6 
#
# 1 96.7888 40.8941 36.5936 0.0000 0.0000 0.0000
# 2 40.8941 89.8905 32.5966 0.0000 0.0000 0.0000
# 3 36.5936 32.5966 86.9848 0.0000 0.0000 0.0000
# 4 0.0000 0.0000 0.0000 32.2285 0.0000 0.0000
# 5 0.0000 0.0000 0.0000 0.0000 22.5949 0.0000
# 6 0.0000 0.0000 0.0000 0.0000 0.0000 18.3269
#
#
#
# Elastic Compliance Matrix: (Units=1/GPa)
#
#
# Indices 1 2 3 4 5 6 
#
# 1 0.013912 -0.004868 -0.004028 0.000000 0.000000 0.000000
# 2 -0.004868 0.014578 -0.003415 0.000000 0.000000 0.000000
# 3 -0.004028 -0.003415 0.014471 0.000000 0.000000 0.000000
# 4 0.000000 0.000000 0.000000 0.031028 0.000000 0.000000
# 5 0.000000 0.000000 0.000000 0.000000 0.044258 0.000000
# 6 0.000000 0.000000 0.000000 0.000000 0.000000 0.054565
#
#
# Mechanical properties :
#
#
# Convention : Reuss Voigt Hill
#
# Bulk Modulus (GPa) = 54.53313 54.87029 54.70171
# Shear Modulus (GPa) = 24.56455 25.53538 25.04997
#
# Velocity S-wave (km/s) = 3.80020 3.87457 3.83756
# Velocity P-wave (km/s) = 7.16348 7.23012 7.19688
#
# Compressibility (1/GPa) = 0.01833748
#
# Stress axis : x y z
#
# Youngs Moduli (GPa) = 71.88275 68.59845 69.10592
#
# Poissons Ratio (x) = 0.33394 0.27837
# Poissons Ratio (y) = 0.34993 0.23599
# Poissons Ratio (z) = 0.28956 0.23425
#
# Static dielectric constant tensor:
#      x y z
#    x 3.151320 0.000000 0.000000 
#    y 0.000000 3.205780 0.000000 
#    z 0.000000 0.000000 2.961390 
# 
# 
# High freq. dielectric constant tensor:
#      x y z
#    x 1.643550 0.000000 0.000000 
#    y 0.000000 1.671680 0.000000 
#    z 0.000000 0.000000 1.632340 
# 
# From -- ./inp_files/4731.got.cif
#   From: 2010.03.12/outbox.cif.g09.slc.cpg/sg44_3_cif.got.tgz:4731.got - 2010.04.14 02:36:11.
