data_PCOD8188638
_publ_section_title
;
Structure prediction by ZEFSAII (Michael W. Deem and Ramdas Pophale) SiO2 
 PCOD8188638
Probable space group: I M M 2
;
_chemical_formula_sum "Si O2"
_cell_formula_units_Z 56
_cell_length_a 8.622663
_cell_length_b 21.199639
_cell_length_c 14.318664
_cell_angle_alpha 90.000000
_cell_angle_beta 90.000000
_cell_angle_gamma 90.000000
_cell_volume 2617.413732
_symmetry_space_group_name_H-M "I M M 2"
_symmetry_group_IT_number 44
_symmetry_cell_setting 'orthorhombic'
loop_
_space_group_symop_operation_xyz
x,y,z
-x,-y,z
-x,y,z
x,-y,z
1/2+x,1/2+y,1/2+z
1/2-x,1/2-y,1/2+z
1/2-x,1/2+y,1/2+z
1/2+x,1/2-y,1/2+z
loop_
_atom_site_type_symbol
_atom_site_label
_atom_site_fract_x
_atom_site_fract_y
_atom_site_fract_z
Si Si1 0.681635 0.572027 0.548900
Si Si2 0.179930 0.124492 0.249371
Si Si3 0.182662 0.635326 0.380273
Si Si4 0.177227 0.659362 0.094780
Si Si5 0.819181 0.760217 0.745980
Si Si6 0.682552 0.071262 0.429562
Si Si7 0.671505 0.429615 0.226655
O O1 0.500000 0.578916 0.529812
O O2 0.736930 0.500000 0.528778
O O3 0.722688 0.587558 0.655626
O O4 0.770604 0.625800 0.488358
O O5 0.276493 0.188187 0.258909
O O6 0.225422 0.078589 0.333691
O O7 0.000000 0.141956 0.253815
O O8 0.238862 0.699631 0.329416
O O9 0.273016 0.576140 0.333375
O O10 0.000000 0.631000 0.369197
O O11 0.271520 0.717949 0.139833
O O12 0.192533 0.603892 0.169938
O O13 0.000000 0.680541 0.083163
O O14 0.241639 0.627411 0.999380
O O15 0.000000 0.768554 0.759013
O O16 0.500000 0.079769 0.413332
O O17 0.716932 0.000000 0.467777
O O18 0.500000 0.398094 0.213330
O O19 0.660430 0.500000 0.192632
#
# Coordination Sequence:
#
# PCOD8188638 Si02
#       7
#     8   8   8   8   8   8   8
#     4  10  22  41  63  88 120 158 198 242 297 355
#     4  11  24  42  64  88 117 157 204 252 297 348
#     4  11  22  36  58  87 118 153 195 244 294 350
#     4  10  20  36  59  86 118 155 195 241 292 350
#     4  11  23  41  63  88 121 159 198 244 299 356
#     4  10  22  40  62  90 124 161 199 242 296 353
#     4  10  19  31  50  79 116 155 193 237 291 350
#
# _framework density 21.395166
#
# number of rings (size 3 to 8) (size 9 to 14) (size 15 to 20)
#    0.000    1.571    0.000    6.857    0.000    8.000 
#    0.000    1.429    0.000    0.000    0.000    0.000 
#    0.000    0.000    0.000    0.000    0.000    0.000 
#
# Total GULP energy -346975.995483 kJ/mol
# GULP energy per Si atom -12391.999839 kJ/mol
# Density = 2.134647 g / cm^3
# Si number density = 21.395166 Si / 1000 Ang^3
#
#
#
# Elastic Constant Matrix: (Units=GPa)
#
#
# Indices 1 2 3 4 5 6 
#
# 1 70.2689 20.7423 18.4321 -0.0004 0.0000 0.0000
# 2 20.7423 87.8992 13.2936 -0.0003 0.0000 0.0000
# 3 18.4321 13.2936 96.5821 -0.0011 0.0001 0.0000
# 4 -0.0004 -0.0003 -0.0011 7.1740 0.0001 0.0001
# 5 0.0000 0.0000 0.0001 0.0001 33.9458 0.0000
# 6 0.0000 0.0000 0.0000 0.0001 0.0000 25.7198
#
#
#
# Elastic Compliance Matrix: (Units=1/GPa)
#
#
# Indices 1 2 3 4 5 6 
#
# 1 0.015898 -0.003363 -0.002571 0.000000 0.000000 0.000000
# 2 -0.003363 0.012330 -0.001055 0.000000 0.000000 0.000000
# 3 -0.002571 -0.001055 0.010990 0.000001 0.000000 0.000000
# 4 0.000000 0.000000 0.000001 0.139393 0.000000 0.000000
# 5 0.000000 0.000000 0.000000 0.000000 0.029459 0.000000
# 6 0.000000 0.000000 0.000000 0.000000 0.000000 0.038881
#
#
# Mechanical properties :
#
#
# Convention : Reuss Voigt Hill
#
# Bulk Modulus (GPa) = 39.62086 39.96511 39.79299
# Shear Modulus (GPa) = 18.56378 26.85339 22.70859
#
# Velocity S-wave (km/s) = 2.94881 3.54660 3.26143
# Velocity P-wave (km/s) = 5.49115 5.95745 5.72905
#
# Compressibility (1/GPa) = 0.02523923
#
# Stress axis : x y z
#
# Youngs Moduli (GPa) = 62.90048 81.10426 90.99310
#
# Poissons Ratio (x) = 0.27273 0.23396
# Poissons Ratio (y) = 0.21152 0.09603
# Poissons Ratio (z) = 0.16173 0.08559
#
# Static dielectric constant tensor:
#      x y z
#    x 3.841530 0.000000 0.000000 
#    y 0.000000 3.880860 0.000000 
#    z 0.000000 0.000000 4.008950 
# 
# 
# High freq. dielectric constant tensor:
#      x y z
#    x 1.838460 0.000000 0.000000 
#    y 0.000000 1.837090 0.000000 
#    z 0.000000 0.000000 1.840210 
# 
# From -- ./inp_files/16437.got.cif
#   From: 2010.03.12/outbox.cif.g09.slc.cpg/sg44_9_cif.got.tgz:16437.got - 2010.04.14 02:36:11.
