data_PCOD8188017
_publ_section_title
;
Structure prediction by ZEFSAII (Michael W. Deem and Ramdas Pophale) SiO2 
 PCOD8188017
Probable space group: I M M 2
;
_chemical_formula_sum "Si O2"
_cell_formula_units_Z 56
_cell_length_a 32.290411
_cell_length_b 7.794542
_cell_length_c 13.714044
_cell_angle_alpha 90.000000
_cell_angle_beta 90.000000
_cell_angle_gamma 90.000000
_cell_volume 3451.673537
_symmetry_space_group_name_H-M "I M M 2"
_symmetry_group_IT_number 44
_symmetry_cell_setting 'orthorhombic'
loop_
_space_group_symop_operation_xyz
x,y,z
-x,-y,z
-x,y,z
x,-y,z
1/2+x,1/2+y,1/2+z
1/2-x,1/2-y,1/2+z
1/2-x,1/2+y,1/2+z
1/2+x,1/2-y,1/2+z
loop_
_atom_site_type_symbol
_atom_site_label
_atom_site_fract_x
_atom_site_fract_y
_atom_site_fract_z
Si Si1 0.767911 0.702831 0.687020
Si Si2 0.691789 0.799211 0.381038
Si Si3 0.397388 0.809748 0.699230
Si Si4 0.685105 0.305010 0.784037
Si Si5 0.546111 0.500000 0.702357
Si Si6 0.605203 0.197800 0.472807
Si Si7 0.953859 0.000000 0.971161
Si Si8 0.725857 0.195578 0.972897
O O1 0.763212 0.500000 0.678943
O O2 0.802655 0.752975 0.767092
O O3 0.723330 0.774786 0.722544
O O4 0.780031 0.777281 0.581133
O O5 0.646200 0.746734 0.414725
O O6 0.725593 0.702352 0.446146
O O7 0.699942 0.000000 0.395462
O O8 0.355655 0.804223 0.762398
O O9 0.430227 0.670779 0.738655
O O10 0.385880 0.773856 0.586872
O O11 0.416870 0.000000 0.710746
O O12 0.675760 0.500000 0.753859
O O13 0.697106 0.300051 0.898290
O O14 0.500000 0.500000 0.747944
O O15 0.543157 0.500000 0.586811
O O16 0.569206 0.326127 0.436339
O O17 0.592581 0.000000 0.450654
O O18 0.000000 0.000000 0.925602
O O19 0.710801 0.000000 0.971053
#
# Coordination Sequence:
#
# PCOD8188017 Si02
#       8
#     8   8   8   8   4   8   4   8
#     4   8  16  28  42  58  84 119 153 188 229 263
#     4   9  17  30  43  59  84 118 152 188 226 266
#     4  10  18  29  46  69  90 119 155 186 219 269
#     4  10  18  30  44  60  87 123 153 187 228 267
#     4   9  18  32  46  66  93 123 149 185 232 270
#     4   9  18  29  46  67  91 120 153 186 221 268
#     4   9  18  30  46  66  93 121 151 187 228 272
#     4  10  18  27  41  62  84 115 154 194 226 261
#
# _framework density 16.224012999999999
#
# number of rings (size 3 to 8) (size 9 to 14) (size 15 to 20)
#    0.000    2.714    0.714    2.571    1.000    0.571 
#    0.000    9.286    0.000    0.000    0.000    0.000 
#    0.000    2.286    0.000    7.286    0.000    0.286 
#
# Total GULP energy -347108.471724 kJ/mol
# GULP energy per Si atom -12396.731133 kJ/mol
# Density = 1.618709 g / cm^3
# Si number density = 16.224013 Si / 1000 Ang^3
#
#
#
# Elastic Constant Matrix: (Units=GPa)
#
#
# Indices 1 2 3 4 5 6 
#
# 1 115.4897 44.2512 36.8981 0.0000 0.0000 0.0000
# 2 44.2512 74.8640 15.9989 0.0000 0.0000 0.0000
# 3 36.8981 15.9989 81.7360 0.0000 0.0000 0.0000
# 4 0.0000 0.0000 0.0000 14.8528 0.0000 0.0000
# 5 0.0000 0.0000 0.0000 0.0000 16.4886 0.0000
# 6 0.0000 0.0000 0.0000 0.0000 0.0000 22.2973
#
#
#
# Elastic Compliance Matrix: (Units=1/GPa)
#
#
# Indices 1 2 3 4 5 6 
#
# 1 0.012544 -0.006475 -0.004395 0.000000 0.000000 0.000000
# 2 -0.006475 0.017283 -0.000460 0.000000 0.000000 0.000000
# 3 -0.004395 -0.000460 0.014309 0.000000 0.000000 0.000000
# 4 0.000000 0.000000 0.000000 0.067327 0.000000 0.000000
# 5 0.000000 0.000000 0.000000 0.000000 0.060648 0.000000
# 6 0.000000 0.000000 0.000000 0.000000 0.000000 0.044848
#
#
# Mechanical properties :
#
#
# Convention : Reuss Voigt Hill
#
# Bulk Modulus (GPa) = 46.56555 51.82068 49.19312
# Shear Modulus (GPa) = 20.26099 22.39050 21.32574
#
# Velocity S-wave (km/s) = 3.53771 3.71898 3.62948
# Velocity P-wave (km/s) = 6.74174 7.10290 6.92467
#
# Compressibility (1/GPa) = 0.02147510
#
# Stress axis : x y z
#
# Youngs Moduli (GPa) = 79.71826 57.85914 69.88752
#
# Poissons Ratio (x) = 0.37466 0.30718
# Poissons Ratio (y) = 0.51621 0.03214
# Poissons Ratio (z) = 0.35039 0.02661
#
# Static dielectric constant tensor:
#      x y z
#    x 2.976160 0.000000 0.000000 
#    y 0.000000 3.081060 0.000000 
#    z 0.000000 0.000000 3.035600 
# 
# 
# High freq. dielectric constant tensor:
#      x y z
#    x 1.596820 0.000000 0.000000 
#    y 0.000000 1.631140 0.000000 
#    z 0.000000 0.000000 1.593440 
# 
# From -- ./inp_files/19673.got.cif
#   From: 2010.03.12/outbox.cif.g09.slc.cpg/sg44_10_cif.got.tgz:19673.got - 2010.04.14 02:36:11.
