data_PCOD8188500
_publ_section_title
;
Structure prediction by ZEFSAII (Michael W. Deem and Ramdas Pophale) SiO2 
 PCOD8188500
Probable space group: I M M 2
;
_chemical_formula_sum "Si O2"
_cell_formula_units_Z 64
_cell_length_a 21.437500
_cell_length_b 19.163243
_cell_length_c 9.666952
_cell_angle_alpha 90.000000
_cell_angle_beta 90.000000
_cell_angle_gamma 90.000000
_cell_volume 3971.300096
_symmetry_space_group_name_H-M "I M M 2"
_symmetry_group_IT_number 44
_symmetry_cell_setting 'orthorhombic'
loop_
_space_group_symop_operation_xyz
x,y,z
-x,-y,z
-x,y,z
x,-y,z
1/2+x,1/2+y,1/2+z
1/2-x,1/2-y,1/2+z
1/2-x,1/2+y,1/2+z
1/2+x,1/2-y,1/2+z
loop_
_atom_site_type_symbol
_atom_site_label
_atom_site_fract_x
_atom_site_fract_y
_atom_site_fract_z
Si Si1 0.571109 0.307848 0.228300
Si Si2 0.854867 0.841422 0.460771
Si Si3 0.818330 0.283879 0.810947
Si Si4 0.069888 0.076850 0.252588
Si Si5 0.254511 0.921236 0.347167
Si Si6 0.236451 0.075590 0.033606
Si Si7 0.901264 0.921927 0.944157
Si Si8 0.726138 0.220729 0.012457
O O1 0.500000 0.284113 0.193189
O O2 0.610487 0.240237 0.281255
O O3 0.567891 0.366934 0.343120
O O4 0.604665 0.345500 0.099343
O O5 0.896481 0.860719 0.330952
O O6 0.794760 0.893644 0.462693
O O7 0.829958 0.762401 0.438484
O O8 0.813677 0.367690 0.839456
O O9 0.792166 0.243572 0.945861
O O10 0.775445 0.263425 0.677533
O O11 0.000000 0.074552 0.308814
O O12 0.101069 0.000000 0.279527
O O13 0.069516 0.094599 0.092021
O O14 0.276984 0.000000 0.385062
O O15 0.220347 0.920434 0.197435
O O16 0.173295 0.085289 0.948261
O O17 0.283508 0.137506 0.989497
O O18 0.267192 0.000000 0.000135
O O19 0.919696 0.000000 0.896295
#
# Coordination Sequence:
#
# PCOD8188500 Si02
#       8
#     8   8   8   8   8   8   8   8
#     4  11  22  33  44  63  98 134 158 182 224 284
#     4  10  19  30  45  68  93 120 151 182 230 280
#     4   9  18  31  47  68  90 117 153 190 235 276
#     4  10  19  31  46  64  88 120 159 192 215 252
#     4   9  16  29  51  72  87 110 149 197 239 271
#     4   9  15  27  48  68  87 111 144 186 229 265
#     4  10  19  31  45  63  88 119 157 192 217 254
#     4   9  17  29  47  67  87 113 148 188 231 270
#
# _framework density 16.115628999999998
#
# number of rings (size 3 to 8) (size 9 to 14) (size 15 to 20)
#    0.000    2.375    2.500    1.125    0.000    1.750 
#    0.000    0.000    0.000    0.375    0.000    0.000 
#    0.000    1.500    0.000    0.750    0.000   21.375 
#
# Total GULP energy -396483.654537 kJ/mol
# GULP energy per Si atom -12390.114204 kJ/mol
# Density = 1.607895 g / cm^3
# Si number density = 16.115629 Si / 1000 Ang^3
#
#
#
# Elastic Constant Matrix: (Units=GPa)
#
#
# Indices 1 2 3 4 5 6 
#
# 1 73.1153 54.9239 34.5396 0.0000 0.0000 0.0000
# 2 54.9239 134.2877 40.5660 0.0000 0.0000 0.0000
# 3 34.5396 40.5660 43.0663 0.0000 0.0000 0.0000
# 4 0.0000 0.0000 0.0000 22.6192 0.0000 0.0000
# 5 0.0000 0.0000 0.0000 0.0000 13.4548 0.0000
# 6 0.0000 0.0000 0.0000 0.0000 0.0000 18.8488
#
#
#
# Elastic Compliance Matrix: (Units=1/GPa)
#
#
# Indices 1 2 3 4 5 6 
#
# 1 0.024878 -0.005797 -0.014491 0.000000 0.000000 0.000000
# 2 -0.005797 0.011759 -0.006427 0.000000 0.000000 0.000000
# 3 -0.014491 -0.006427 0.040896 0.000000 0.000000 0.000000
# 4 0.000000 0.000000 0.000000 0.044210 0.000000 0.000000
# 5 0.000000 0.000000 0.000000 0.000000 0.074323 0.000000
# 6 0.000000 0.000000 0.000000 0.000000 0.000000 0.053054
#
#
# Mechanical properties :
#
#
# Convention : Reuss Voigt Hill
#
# Bulk Modulus (GPa) = 41.49109 56.72535 49.10822
# Shear Modulus (GPa) = 16.09862 19.01387 17.55625
#
# Velocity S-wave (km/s) = 3.16404 3.43861 3.30418
# Velocity P-wave (km/s) = 6.25699 7.14428 6.71531
#
# Compressibility (1/GPa) = 0.02410156
#
# Stress axis : x y z
#
# Youngs Moduli (GPa) = 40.19659 85.03861 24.45226
#
# Poissons Ratio (x) = 0.49301 0.35434
# Poissons Ratio (y) = 0.23304 0.15716
# Poissons Ratio (z) = 0.58250 0.54654
#
# Static dielectric constant tensor:
#      x y z
#    x 2.881710 0.000000 0.000000 
#    y 0.000000 3.241010 0.000000 
#    z 0.000000 0.000000 3.003370 
# 
# 
# High freq. dielectric constant tensor:
#      x y z
#    x 1.587980 0.000000 0.000000 
#    y 0.000000 1.619010 0.000000 
#    z 0.000000 0.000000 1.610520 
# 
# From -- ./inp_files/8514.got.cif
#   From: 2010.03.12/outbox.cif.g09.slc.cpg/sg44_5_cif.got.tgz:8514.got - 2010.04.14 02:36:11.
