data_PCOD8188473
_publ_section_title
;
Structure prediction by ZEFSAII (Michael W. Deem and Ramdas Pophale) SiO2 
 PCOD8188473
Probable space group: I M M 2
;
_chemical_formula_sum "Si O2"
_cell_formula_units_Z 56
_cell_length_a 18.876501
_cell_length_b 8.960374
_cell_length_c 18.075289
_cell_angle_alpha 90.000000
_cell_angle_beta 90.000000
_cell_angle_gamma 90.000000
_cell_volume 3057.263578
_symmetry_space_group_name_H-M "I M M 2"
_symmetry_group_IT_number 44
_symmetry_cell_setting 'orthorhombic'
loop_
_space_group_symop_operation_xyz
x,y,z
-x,-y,z
-x,y,z
x,-y,z
1/2+x,1/2+y,1/2+z
1/2-x,1/2-y,1/2+z
1/2-x,1/2+y,1/2+z
1/2+x,1/2-y,1/2+z
loop_
_atom_site_type_symbol
_atom_site_label
_atom_site_fract_x
_atom_site_fract_y
_atom_site_fract_z
Si Si1 0.923107 0.169839 0.548690
Si Si2 0.711358 0.674521 0.953703
Si Si3 0.292035 0.676058 0.578269
Si Si4 0.207890 0.163155 0.698537
Si Si5 0.581441 0.324903 0.684895
Si Si6 0.335030 0.834760 0.807903
Si Si7 0.922396 0.673519 0.702359
O O1 0.863071 0.213145 0.491257
O O2 0.918408 0.282071 0.616776
O O3 0.000000 0.189587 0.509638
O O4 0.914097 0.000000 0.576820
O O5 0.727523 0.500000 0.948028
O O6 0.700035 0.739534 0.872628
O O7 0.777967 0.748722 0.997862
O O8 0.288566 0.500000 0.568068
O O9 0.227877 0.730164 0.630189
O O10 0.367495 0.724114 0.615997
O O11 0.271651 0.144171 0.752431
O O12 0.140391 0.234252 0.742238
O O13 0.187674 0.000000 0.666299
O O14 0.500000 0.283514 0.664930
O O15 0.590594 0.500000 0.698639
O O16 0.601967 0.246683 0.762746
O O17 0.360705 0.000000 0.834211
O O18 0.907441 0.500000 0.711916
O O19 0.000000 0.714769 0.735230
#
# Coordination Sequence:
#
# PCOD8188473 Si02
#       7
#     8   8   8   8   8   8   8
#     4   9  18  31  46  67  98 134 167 199 238 290
#     4  11  21  33  51  76 107 143 179 215 261 316
#     4  10  19  32  54  79 104 136 175 222 268 311
#     4  10  19  33  51  72  99 133 173 214 256 308
#     4   9  19  37  59  82 108 141 182 224 271 328
#     4  10  22  36  52  76 106 139 177 219 265 316
#     4  10  19  29  46  73 100 127 161 203 249 295
#
# _framework density 18.317034
#
# number of rings (size 3 to 8) (size 9 to 14) (size 15 to 20)
#    0.000    2.143    1.429    2.143    0.000    4.571 
#    0.000    1.429    0.000    0.857    0.000    2.000 
#    0.000    0.000    0.000    0.000    0.000    0.000 
#
# Total GULP energy -346928.135377 kJ/mol
# GULP energy per Si atom -12390.290549 kJ/mol
# Density = 1.827534 g / cm^3
# Si number density = 18.317034 Si / 1000 Ang^3
#
#
#
# Elastic Constant Matrix: (Units=GPa)
#
#
# Indices 1 2 3 4 5 6 
#
# 1 103.3977 40.4219 19.9409 0.0000 0.0000 0.0000
# 2 40.4219 87.6118 24.3065 0.0000 0.0000 0.0000
# 3 19.9409 24.3065 61.7689 0.0000 0.0000 0.0000
# 4 0.0000 0.0000 0.0000 27.1196 0.0000 0.0000
# 5 0.0000 0.0000 0.0000 0.0000 15.6800 0.0000
# 6 0.0000 0.0000 0.0000 0.0000 0.0000 26.3491
#
#
#
# Elastic Compliance Matrix: (Units=1/GPa)
#
#
# Indices 1 2 3 4 5 6 
#
# 1 0.011996 -0.005007 -0.001902 0.000000 0.000000 0.000000
# 2 -0.005007 0.014902 -0.004248 0.000000 0.000000 0.000000
# 3 -0.001902 -0.004248 0.018475 0.000000 0.000000 0.000000
# 4 0.000000 0.000000 0.000000 0.036874 0.000000 0.000000
# 5 0.000000 0.000000 0.000000 0.000000 0.063776 0.000000
# 6 0.000000 0.000000 0.000000 0.000000 0.000000 0.037952
#
#
# Mechanical properties :
#
#
# Convention : Reuss Voigt Hill
#
# Bulk Modulus (GPa) = 43.36664 46.90189 45.13426
# Shear Modulus (GPa) = 23.36724 25.03700 24.20212
#
# Velocity S-wave (km/s) = 3.57558 3.70113 3.63890
# Velocity P-wave (km/s) = 6.38540 6.62765 6.50765
#
# Compressibility (1/GPa) = 0.02305920
#
# Stress axis : x y z
#
# Youngs Moduli (GPa) = 83.36406 67.10297 54.12684
#
# Poissons Ratio (x) = 0.33596 0.10297
# Poissons Ratio (y) = 0.41738 0.22993
# Poissons Ratio (z) = 0.15859 0.28505
#
# Static dielectric constant tensor:
#      x y z
#    x 3.803540 0.000000 0.000000 
#    y 0.000000 3.483640 0.000000 
#    z 0.000000 0.000000 3.131840 
# 
# 
# High freq. dielectric constant tensor:
#      x y z
#    x 1.719220 0.000000 0.000000 
#    y 0.000000 1.722270 0.000000 
#    z 0.000000 0.000000 1.668940 
# 
# From -- ./inp_files/19185.got.cif
#   From: 2010.03.12/outbox.cif.g09.slc.cpg/sg44_10_cif.got.tgz:19185.got - 2010.04.14 02:36:11.
