data_PCOD8188443
_publ_section_title
;
Structure prediction by ZEFSAII (Michael W. Deem and Ramdas Pophale) SiO2 
 PCOD8188443
Probable space group: I M M 2
;
_chemical_formula_sum "Si O2"
_cell_formula_units_Z 64
_cell_length_a 9.171408
_cell_length_b 22.486773
_cell_length_c 20.345818
_cell_angle_alpha 90.000000
_cell_angle_beta 90.000000
_cell_angle_gamma 90.000000
_cell_volume 4196.027299
_symmetry_space_group_name_H-M "I M M 2"
_symmetry_group_IT_number 44
_symmetry_cell_setting 'orthorhombic'
loop_
_space_group_symop_operation_xyz
x,y,z
-x,-y,z
-x,y,z
x,-y,z
1/2+x,1/2+y,1/2+z
1/2-x,1/2-y,1/2+z
1/2-x,1/2+y,1/2+z
1/2+x,1/2-y,1/2+z
loop_
_atom_site_type_symbol
_atom_site_label
_atom_site_fract_x
_atom_site_fract_y
_atom_site_fract_z
Si Si1 0.168667 0.749268 0.390960
Si Si2 0.170019 0.931751 0.237909
Si Si3 0.829146 0.644487 0.480617
Si Si4 0.834111 0.172274 0.790513
Si Si5 0.667600 0.433204 0.373969
Si Si6 0.330065 0.350311 0.615022
Si Si7 0.660913 0.761198 0.191768
Si Si8 0.836035 0.342398 0.820287
O O1 0.199743 0.713355 0.458813
O O2 0.212486 0.704112 0.333816
O O3 0.259492 0.810704 0.383402
O O4 0.000000 0.765817 0.383606
O O5 0.209876 0.899480 0.169543
O O6 0.253759 0.902701 0.299472
O O7 0.000000 0.925170 0.252653
O O8 0.218579 0.000000 0.231410
O O9 0.762361 0.597783 0.429850
O O10 0.755674 0.632011 0.550168
O O11 0.000000 0.631660 0.485698
O O12 0.816501 0.101748 0.804006
O O13 0.809301 0.192274 0.714003
O O14 0.000000 0.192087 0.811030
O O15 0.500000 0.432648 0.397550
O O16 0.724206 0.500000 0.362537
O O17 0.500000 0.347528 0.599358
O O18 0.279012 0.285124 0.640234
O O19 0.500000 0.768034 0.159874
O O20 0.669890 0.797426 0.259558
O O21 0.000000 0.359086 0.840428
#
# Coordination Sequence:
#
# PCOD8188443 Si02
#       8
#     8   8   8   8   8   8   8   8
#     4   9  16  26  41  59  78 102 132 167 208 250
#     4   9  18  31  44  59  82 112 144 175 205 240
#     4  10  20  31  42  58  82 112 144 175 207 244
#     4   8  14  25  41  60  80 103 131 165 206 246
#     4   9  17  29  44  61  83 112 144 174 202 236
#     4  10  19  29  42  59  80 109 144 177 207 241
#     4   8  14  25  40  57  78 102 129 165 209 250
#     4   9  16  26  42  62  81 102 130 167 210 251
#
# _framework density 15.252522000000001
#
# number of rings (size 3 to 8) (size 9 to 14) (size 15 to 20)
#    0.000    3.000    0.000    2.250    0.000    6.000 
#    0.000    1.250    0.000    0.000    0.000    0.000 
#    0.000    1.000    0.000    7.750    0.000    2.375 
#
# Total GULP energy -396491.091571 kJ/mol
# GULP energy per Si atom -12390.346612 kJ/mol
# Density = 1.521781 g / cm^3
# Si number density = 15.252522 Si / 1000 Ang^3
#
#
#
# Elastic Constant Matrix: (Units=GPa)
#
#
# Indices 1 2 3 4 5 6 
#
# 1 76.3118 50.4692 26.1207 0.0000 0.0000 0.0000
# 2 50.4692 107.7887 52.0488 0.0000 0.0000 0.0000
# 3 26.1207 52.0488 28.1737 0.0000 0.0000 0.0000
# 4 0.0000 0.0000 0.0000 16.2711 0.0000 0.0000
# 5 0.0000 0.0000 0.0000 0.0000 21.2693 0.0000
# 6 0.0000 0.0000 0.0000 0.0000 0.0000 20.7669
#
#
#
# Elastic Compliance Matrix: (Units=1/GPa)
#
#
# Indices 1 2 3 4 5 6 
#
# 1 0.019352 -0.003682 -0.011140 0.000000 0.000000 0.000000
# 2 -0.003682 0.086668 -0.156699 0.000000 0.000000 0.000000
# 3 -0.011140 -0.156699 0.335312 0.000000 0.000000 0.000000
# 4 0.000000 0.000000 0.000000 0.061459 0.000000 0.000000
# 5 0.000000 0.000000 0.000000 0.000000 0.047016 0.000000
# 6 0.000000 0.000000 0.000000 0.000000 0.000000 0.048154
#
#
# Mechanical properties :
#
#
# Convention : Reuss Voigt Hill
#
# Bulk Modulus (GPa) = 10.17393 52.17241 31.17317
# Shear Modulus (GPa) = 5.13470 17.23715 11.18592
#
# Velocity S-wave (km/s) = 1.83678 3.36537 2.71104
# Velocity P-wave (km/s) = 3.34412 7.02716 5.50291
#
# Compressibility (1/GPa) = 0.09829042
#
# Stress axis : x y z
#
# Youngs Moduli (GPa) = 51.67335 11.53830 2.98229
#
# Poissons Ratio (x) = 0.04248 0.03322
# Poissons Ratio (y) = 0.19025 0.46732
# Poissons Ratio (z) = 0.57566 1.80804
#
# Static dielectric constant tensor:
#      x y z
#    x 3.033550 0.000000 0.000000 
#    y 0.000000 3.077260 0.000000 
#    z 0.000000 0.000000 2.763670 
# 
# 
# High freq. dielectric constant tensor:
#      x y z
#    x 1.596660 0.000000 0.000000 
#    y 0.000000 1.568290 0.000000 
#    z 0.000000 0.000000 1.543120 
# 
# From -- ./inp_files/20873.got.cif
#   From: 2010.03.12/outbox.cif.g09.slc.cpg/sg44_11_cif.got.tgz:20873.got - 2010.04.14 02:36:11.
