data_PCOD8188284
_publ_section_title
;
Structure prediction by ZEFSAII (Michael W. Deem and Ramdas Pophale) SiO2 
 PCOD8188284
Probable space group: I M M 2
;
_chemical_formula_sum "Si O2"
_cell_formula_units_Z 56
_cell_length_a 8.948133
_cell_length_b 16.228187
_cell_length_c 22.935840
_cell_angle_alpha 90.000000
_cell_angle_beta 90.000000
_cell_angle_gamma 90.000000
_cell_volume 3330.558639
_symmetry_space_group_name_H-M "I M M 2"
_symmetry_group_IT_number 44
_symmetry_cell_setting 'orthorhombic'
loop_
_space_group_symop_operation_xyz
x,y,z
-x,-y,z
-x,y,z
x,-y,z
1/2+x,1/2+y,1/2+z
1/2-x,1/2-y,1/2+z
1/2-x,1/2+y,1/2+z
1/2+x,1/2-y,1/2+z
loop_
_atom_site_type_symbol
_atom_site_label
_atom_site_fract_x
_atom_site_fract_y
_atom_site_fract_z
Si Si1 0.326593 0.596114 0.804940
Si Si2 0.324844 0.342275 0.678895
Si Si3 0.827517 0.593733 0.031122
Si Si4 0.177209 0.330457 0.469369
Si Si5 0.677463 0.500000 0.480363
Si Si6 0.176805 0.000000 0.113412
Si Si7 0.673293 0.818913 0.412085
Si Si8 0.675374 0.740225 0.087079
O O1 0.500000 0.605659 0.821776
O O2 0.287636 0.500000 0.794943
O O3 0.288729 0.648175 0.746953
O O4 0.224609 0.634542 0.854437
O O5 0.500000 0.333559 0.668023
O O6 0.256489 0.420639 0.645258
O O7 0.245170 0.264200 0.649483
O O8 0.777682 0.500000 0.039746
O O9 0.728011 0.647743 0.074359
O O10 0.000000 0.607522 0.047186
O O11 0.796732 0.617967 0.964458
O O12 0.252925 0.417490 0.452572
O O13 0.233060 0.264605 0.421689
O O14 0.228504 0.300287 0.534035
O O15 0.000000 0.338960 0.465064
O O16 0.500000 0.500000 0.471690
O O17 0.728406 0.500000 0.547195
O O18 0.000000 0.000000 0.120565
O O19 0.500000 0.795074 0.406828
O O20 0.500000 0.741684 0.092812
#
# Coordination Sequence:
#
# PCOD8188284 Si02
#       8
#     8   8   8   8   4   4   8   8
#     4  10  20  33  51  74 101 134 170 204 243 293
#     4  10  18  32  50  71 100 136 171 200 235 291
#     4   9  18  33  52  72  95 128 167 204 244 295
#     4  10  20  33  48  71 103 134 166 205 251 299
#     4  11  19  29  51  77 101 133 169 204 247 294
#     4   9  16  27  47  71  99 133 169 200 229 280
#     4  10  20  34  51  72 100 132 169 209 248 292
#     4  10  20  31  46  72 103 131 161 203 251 293
#
# _framework density 16.813995999999999
#
# number of rings (size 3 to 8) (size 9 to 14) (size 15 to 20)
#    0.000    2.143    2.143    1.929    0.000    3.429 
#    0.000    0.357    0.000    0.000    1.857    0.000 
#    0.000    0.000    0.000    0.000    0.000    0.000 
#
# Total GULP energy -347223.261631 kJ/mol
# GULP energy per Si atom -12400.830773 kJ/mol
# Density = 1.677573 g / cm^3
# Si number density = 16.813996 Si / 1000 Ang^3
#
#
#
# Elastic Constant Matrix: (Units=GPa)
#
#
# Indices 1 2 3 4 5 6 
#
# 1 65.5108 44.9480 37.7130 0.0000 0.0000 0.0000
# 2 44.9480 111.2248 44.0044 0.0000 0.0000 0.0000
# 3 37.7130 44.0044 78.4172 0.0000 0.0000 0.0000
# 4 0.0000 0.0000 0.0000 27.1896 0.0000 0.0000
# 5 0.0000 0.0000 0.0000 0.0000 27.0831 0.0000
# 6 0.0000 0.0000 0.0000 0.0000 0.0000 27.3702
#
#
#
# Elastic Compliance Matrix: (Units=1/GPa)
#
#
# Indices 1 2 3 4 5 6 
#
# 1 0.024488 -0.006731 -0.008000 0.000000 0.000000 0.000000
# 2 -0.006731 0.013407 -0.004286 0.000000 0.000000 0.000000
# 3 -0.008000 -0.004286 0.019005 0.000000 0.000000 0.000000
# 4 0.000000 0.000000 0.000000 0.036779 0.000000 0.000000
# 5 0.000000 0.000000 0.000000 0.000000 0.036923 0.000000
# 6 0.000000 0.000000 0.000000 0.000000 0.000000 0.036536
#
#
# Mechanical properties :
#
#
# Convention : Reuss Voigt Hill
#
# Bulk Modulus (GPa) = 53.00636 56.49817 54.75226
# Shear Modulus (GPa) = 23.64503 24.89441 24.26972
#
# Velocity S-wave (km/s) = 3.75410 3.85200 3.80336
# Velocity P-wave (km/s) = 7.09821 7.31155 7.20567
#
# Compressibility (1/GPa) = 0.01886566
#
# Stress axis : x y z
#
# Youngs Moduli (GPa) = 40.83570 74.58945 52.61820
#
# Poissons Ratio (x) = 0.50208 0.42094
# Poissons Ratio (y) = 0.27487 0.22553
# Poissons Ratio (z) = 0.32668 0.31970
#
# Static dielectric constant tensor:
#      x y z
#    x 3.046960 0.000000 0.000000 
#    y 0.000000 3.175270 0.000000 
#    z 0.000000 0.000000 2.954130 
# 
# 
# High freq. dielectric constant tensor:
#      x y z
#    x 1.648010 0.000000 0.000000 
#    y 0.000000 1.645590 0.000000 
#    z 0.000000 0.000000 1.622480 
# 
# From -- ./inp_files/23126.got.cif
#   From: 2010.03.12/outbox.cif.g09.slc.cpg/sg44_12_cif.got.tgz:23126.got - 2010.04.14 02:36:11.
