data_PCOD8188957
_publ_section_title
;
Structure prediction by ZEFSAII (Michael W. Deem and Ramdas Pophale) SiO2 
 PCOD8188957
Probable space group: I M M 2
;
_chemical_formula_sum "Si O2"
_cell_formula_units_Z 48
_cell_length_a 16.377539
_cell_length_b 14.165917
_cell_length_c 10.168908
_cell_angle_alpha 90.000000
_cell_angle_beta 90.000000
_cell_angle_gamma 90.000000
_cell_volume 2359.215720
_symmetry_space_group_name_H-M "I M M 2"
_symmetry_group_IT_number 44
_symmetry_cell_setting 'orthorhombic'
loop_
_space_group_symop_operation_xyz
x,y,z
-x,-y,z
-x,y,z
x,-y,z
1/2+x,1/2+y,1/2+z
1/2-x,1/2-y,1/2+z
1/2-x,1/2+y,1/2+z
1/2+x,1/2-y,1/2+z
loop_
_atom_site_type_symbol
_atom_site_label
_atom_site_fract_x
_atom_site_fract_y
_atom_site_fract_z
Si Si1 0.836186 0.110710 0.485700
Si Si2 0.096921 0.778767 0.239333
Si Si3 0.593051 0.898359 0.312446
Si Si4 0.905329 0.204107 0.731778
Si Si5 0.903282 0.896197 0.986057
Si Si6 0.656281 0.892720 0.591269
O O1 0.854562 0.172538 0.357628
O O2 0.896942 0.146972 0.598059
O O3 0.746104 0.131398 0.537749
O O4 0.851936 0.000000 0.456577
O O5 0.129135 0.672241 0.214434
O O6 0.000000 0.780330 0.267764
O O7 0.122761 0.834502 0.109458
O O8 0.500000 0.910510 0.270334
O O9 0.632764 0.811185 0.230014
O O10 0.595916 0.875700 0.468405
O O11 0.638352 0.000000 0.284878
O O12 0.864928 0.147011 0.852567
O O13 0.000000 0.217574 0.764341
O O14 0.000000 0.902627 0.974812
O O15 0.865473 0.000000 0.004196
O O16 0.651849 0.000000 0.643049
#
# Coordination Sequence:
#
# PCOD8188957 Si02
#       6
#     8   8   8   8   8   8
#     4  11  25  40  58  87 128 168 198 245 316 379
#     4  11  22  38  62  91 121 161 209 261 314 365
#     4   9  17  33  59  86 110 143 196 253 295 345
#     4  10  19  34  57  85 115 156 201 245 302 363
#     4   9  17  30  52  81 111 146 197 250 291 346
#     4  10  22  39  60  86 118 160 205 248 304 366
#
# _framework density 20.345745000000001
#
# number of rings (size 3 to 8) (size 9 to 14) (size 15 to 20)
#    0.000    2.000    1.667    2.000    2.333    3.667 
#    0.000    0.833    0.000    3.000    0.000    0.000 
#    0.000    0.000    0.000    0.000    0.000    0.000 
#
# Total GULP energy -297462.897536 kJ/mol
# GULP energy per Si atom -12394.287397 kJ/mol
# Density = 2.029944 g / cm^3
# Si number density = 20.345745 Si / 1000 Ang^3
#
#
#
# Elastic Constant Matrix: (Units=GPa)
#
#
# Indices 1 2 3 4 5 6 
#
# 1 34.8555 34.8937 11.9152 0.0000 0.0000 0.0000
# 2 34.8937 157.5714 58.2390 0.0000 0.0000 0.0000
# 3 11.9152 58.2390 108.8498 0.0000 0.0000 0.0000
# 4 0.0000 0.0000 0.0000 40.4113 0.0000 0.0000
# 5 0.0000 0.0000 0.0000 0.0000 20.2036 0.0000
# 6 0.0000 0.0000 0.0000 0.0000 0.0000 20.9657
#
#
#
# Elastic Compliance Matrix: (Units=1/GPa)
#
#
# Indices 1 2 3 4 5 6 
#
# 1 0.036877 -0.008319 0.000415 0.000000 0.000000 0.000000
# 2 -0.008319 0.009788 -0.004326 0.000000 0.000000 0.000000
# 3 0.000415 -0.004326 0.011456 0.000000 0.000000 0.000000
# 4 0.000000 0.000000 0.000000 0.024746 0.000000 0.000000
# 5 0.000000 0.000000 0.000000 0.000000 0.049496 0.000000
# 6 0.000000 0.000000 0.000000 0.000000 0.000000 0.047697
#
#
# Mechanical properties :
#
#
# Convention : Reuss Voigt Hill
#
# Bulk Modulus (GPa) = 29.71008 56.81918 43.26463
# Shear Modulus (GPa) = 23.17598 29.39806 26.28702
#
# Velocity S-wave (km/s) = 3.37873 3.80534 3.59836
# Velocity P-wave (km/s) = 5.46401 6.87713 6.21089
#
# Compressibility (1/GPa) = 0.03365861
#
# Stress axis : x y z
#
# Youngs Moduli (GPa) = 27.11732 102.17024 87.28892
#
# Poissons Ratio (x) = 0.85000 -0.03619
# Poissons Ratio (y) = 0.22560 0.37762
# Poissons Ratio (z) = -0.01124 0.44200
#
# Static dielectric constant tensor:
#      x y z
#    x 3.356660 0.000000 0.000000 
#    y 0.000000 4.244530 0.000000 
#    z 0.000000 0.000000 3.467500 
# 
# 
# High freq. dielectric constant tensor:
#      x y z
#    x 1.764970 0.000000 0.000000 
#    y 0.000000 1.821400 0.000000 
#    z 0.000000 0.000000 1.772230 
# 
# From -- ./inp_files/7110.got.cif
#   From: 2010.03.12/outbox.cif.g09.slc.cpg/sg44_4_cif.got.tgz:7110.got - 2010.04.14 02:36:11.
