data_PCOD8188615
_publ_section_title
;
Structure prediction by ZEFSAII (Michael W. Deem and Ramdas Pophale) SiO2 
 PCOD8188615
Probable space group: I M M 2
;
_chemical_formula_sum "Si O2"
_cell_formula_units_Z 64
_cell_length_a 27.331604
_cell_length_b 8.993208
_cell_length_c 14.588725
_cell_angle_alpha 90.000000
_cell_angle_beta 90.000000
_cell_angle_gamma 90.000000
_cell_volume 3585.891095
_symmetry_space_group_name_H-M "I M M 2"
_symmetry_group_IT_number 44
_symmetry_cell_setting 'orthorhombic'
loop_
_space_group_symop_operation_xyz
x,y,z
-x,-y,z
-x,y,z
x,-y,z
1/2+x,1/2+y,1/2+z
1/2-x,1/2-y,1/2+z
1/2-x,1/2+y,1/2+z
1/2+x,1/2-y,1/2+z
loop_
_atom_site_type_symbol
_atom_site_label
_atom_site_fract_x
_atom_site_fract_y
_atom_site_fract_z
Si Si1 0.716003 0.673352 0.222600
Si Si2 0.168757 0.826531 0.026178
Si Si3 0.718939 0.829027 0.038817
Si Si4 0.366700 0.829176 0.905172
Si Si5 0.557096 0.327792 0.231491
Si Si6 0.362148 0.823812 0.348391
Si Si7 0.171473 0.327760 0.211192
Si Si8 0.445797 0.324482 0.025261
O O1 0.704173 0.500000 0.233431
O O2 0.700259 0.725828 0.121431
O O3 0.685453 0.761051 0.297825
O O4 0.772817 0.710241 0.238192
O O5 0.225874 0.790319 0.009915
O O6 0.152932 0.771959 0.127085
O O7 0.157192 0.000000 0.016847
O O8 0.137233 0.737501 0.951866
O O9 0.715155 0.000000 0.070902
O O10 0.685312 0.794291 0.951811
O O11 0.362436 0.789432 0.798034
O O12 0.380669 0.000000 0.919449
O O13 0.409336 0.733456 0.948768
O O14 0.500000 0.302705 0.252028
O O15 0.571330 0.500000 0.245557
O O16 0.588032 0.227138 0.300010
O O17 0.569961 0.276141 0.127841
O O18 0.359824 0.000000 0.349711
O O19 0.167522 0.500000 0.183067
O O20 0.500000 0.261634 0.003999
O O21 0.446807 0.500000 0.020799
#
# Coordination Sequence:
#
# PCOD8188615 Si02
#       8
#     8   8   8   8   8   8   8   8
#     4  10  19  32  50  72 102 139 174 208 249 297
#     4  10  20  35  53  72  99 136 175 212 251 297
#     4   9  18  32  49  74 106 135 166 207 252 298
#     4  10  19  31  50  74 101 133 166 202 248 299
#     4   9  19  37  58  78 102 132 165 204 254 309
#     4  12  23  33  50  76 105 136 171 210 252 300
#     4   9  19  35  51  71 102 136 170 212 257 296
#     4   9  19  35  53  75 103 131 161 201 247 296
#
# _framework density 17.847726999999999
#
# number of rings (size 3 to 8) (size 9 to 14) (size 15 to 20)
#    0.000    2.250    0.000    4.125    0.000    7.000 
#    0.000    2.500    0.000    0.750    0.000    3.500 
#    0.000    0.000    0.000    0.000    0.000    0.000 
#
# Total GULP energy -396872.133009 kJ/mol
# GULP energy per Si atom -12402.254157 kJ/mol
# Density = 1.780710 g / cm^3
# Si number density = 17.847727 Si / 1000 Ang^3
#
#
#
# Elastic Constant Matrix: (Units=GPa)
#
#
# Indices 1 2 3 4 5 6 
#
# 1 68.2385 33.8317 53.0026 0.0000 0.0000 0.0000
# 2 33.8317 84.3218 54.2637 0.0000 0.0000 0.0000
# 3 53.0026 54.2637 117.0425 0.0000 0.0000 0.0000
# 4 0.0000 0.0000 0.0000 33.9180 0.0000 0.0000
# 5 0.0000 0.0000 0.0000 0.0000 24.2925 0.0000
# 6 0.0000 0.0000 0.0000 0.0000 0.0000 26.8382
#
#
#
# Elastic Compliance Matrix: (Units=1/GPa)
#
#
# Indices 1 2 3 4 5 6 
#
# 1 0.023371 -0.003657 -0.008888 0.000000 0.000000 0.000000
# 2 -0.003657 0.017475 -0.006445 0.000000 0.000000 0.000000
# 3 -0.008888 -0.006445 0.015557 0.000000 0.000000 0.000000
# 4 0.000000 0.000000 0.000000 0.029483 0.000000 0.000000
# 5 0.000000 0.000000 0.000000 0.000000 0.041165 0.000000
# 6 0.000000 0.000000 0.000000 0.000000 0.000000 0.037260
#
#
# Mechanical properties :
#
#
# Convention : Reuss Voigt Hill
#
# Bulk Modulus (GPa) = 54.28474 61.31098 57.79786
# Shear Modulus (GPa) = 23.98851 25.57672 24.78262
#
# Velocity S-wave (km/s) = 3.67013 3.78967 3.73038
# Velocity P-wave (km/s) = 6.95998 7.31954 7.14202
#
# Compressibility (1/GPa) = 0.01842138
#
# Stress axis : x y z
#
# Youngs Moduli (GPa) = 42.78752 57.22604 64.27946
#
# Poissons Ratio (x) = 0.20930 0.57132
# Poissons Ratio (y) = 0.15649 0.41431
# Poissons Ratio (z) = 0.38030 0.36884
#
# Static dielectric constant tensor:
#      x y z
#    x 3.134450 0.000000 0.000000 
#    y 0.000000 3.277310 0.000000 
#    z 0.000000 0.000000 3.353860 
# 
# 
# High freq. dielectric constant tensor:
#      x y z
#    x 1.670420 0.000000 0.000000 
#    y 0.000000 1.690350 0.000000 
#    z 0.000000 0.000000 1.691950 
# 
# From -- ./inp_files/16766.got.cif
#   From: 2010.03.12/outbox.cif.g09.slc.cpg/sg44_9_cif.got.tgz:16766.got - 2010.04.14 02:36:11.
