data_PCOD8188462
_publ_section_title
;
Structure prediction by ZEFSAII (Michael W. Deem and Ramdas Pophale) SiO2 
 PCOD8188462
Probable space group: I M M 2
;
_chemical_formula_sum "Si O2"
_cell_formula_units_Z 64
_cell_length_a 8.972203
_cell_length_b 30.039110
_cell_length_c 14.694328
_cell_angle_alpha 90.000000
_cell_angle_beta 90.000000
_cell_angle_gamma 90.000000
_cell_volume 3960.371095
_symmetry_space_group_name_H-M "I M M 2"
_symmetry_group_IT_number 44
_symmetry_cell_setting 'orthorhombic'
loop_
_space_group_symop_operation_xyz
x,y,z
-x,-y,z
-x,y,z
x,-y,z
1/2+x,1/2+y,1/2+z
1/2-x,1/2-y,1/2+z
1/2-x,1/2+y,1/2+z
1/2+x,1/2-y,1/2+z
loop_
_atom_site_type_symbol
_atom_site_label
_atom_site_fract_x
_atom_site_fract_y
_atom_site_fract_z
Si Si1 0.325152 0.796179 0.354620
Si Si2 0.832821 0.277180 0.047164
Si Si3 0.822223 0.284919 0.247703
Si Si4 0.328743 0.049400 0.114541
Si Si5 0.324501 0.550066 0.425896
Si Si6 0.170712 0.361700 0.702969
Si Si7 0.332471 0.673936 0.535507
Si Si8 0.825601 0.632884 0.368853
O O1 0.500000 0.784233 0.359001
O O2 0.261530 0.801636 0.458340
O O3 0.245724 0.756178 0.302061
O O4 0.296799 0.843420 0.304380
O O5 0.753994 0.285892 0.144656
O O6 0.828265 0.226020 0.019012
O O7 0.000000 0.294757 0.060141
O O8 0.774198 0.331697 0.292918
O O9 0.000000 0.278375 0.248156
O O10 0.500000 0.051378 0.082393
O O11 0.298093 0.085174 0.194974
O O12 0.288573 0.000000 0.151567
O O13 0.228840 0.061951 0.027851
O O14 0.500000 0.554686 0.422480
O O15 0.273372 0.500000 0.399839
O O16 0.253685 0.584968 0.354077
O O17 0.280855 0.335025 0.637756
O O18 0.000000 0.351130 0.675704
O O19 0.500000 0.655461 0.520361
O O20 0.218603 0.650552 0.467808
O O21 0.000000 0.625009 0.365262
#
# Coordination Sequence:
#
# PCOD8188462 Si02
#       8
#     8   8   8   8   8   8   8   8
#     4  10  19  31  47  67  91 120 157 195 232 273
#     4   9  18  32  46  63  90 124 158 191 231 270
#     4  10  20  33  47  65  90 122 159 191 227 276
#     4   9  17  29  44  64  93 124 152 186 230 276
#     4  10  20  32  47  68  93 121 154 189 229 280
#     4  10  19  29  44  68  93 122 158 191 228 273
#     4  11  19  28  46  66  92 127 158 189 226 272
#     4  11  21  31  46  68  94 124 158 194 231 274
#
# _framework density 16.160101999999998
#
# number of rings (size 3 to 8) (size 9 to 14) (size 15 to 20)
#    0.000    2.000    3.750    1.125    0.000    1.250 
#    0.000    0.625    0.000    0.000    0.000    0.875 
#    0.000    5.000    0.000    3.375    0.000    3.125 
#
# Total GULP energy -396599.040943 kJ/mol
# GULP energy per Si atom -12393.720029 kJ/mol
# Density = 1.612332 g / cm^3
# Si number density = 16.160102 Si / 1000 Ang^3
#
#
#
# Elastic Constant Matrix: (Units=GPa)
#
#
# Indices 1 2 3 4 5 6 
#
# 1 36.5871 29.4589 17.3414 0.0001 0.0000 0.0000
# 2 29.4589 103.6379 47.7869 0.0003 0.0000 0.0000
# 3 17.3414 47.7869 96.1475 -0.0004 0.0000 0.0001
# 4 0.0001 0.0003 -0.0004 25.2177 -0.0001 0.0000
# 5 0.0000 0.0000 0.0000 -0.0001 13.6888 -0.0001
# 6 0.0000 0.0000 0.0001 0.0000 -0.0001 21.7230
#
#
#
# Elastic Compliance Matrix: (Units=1/GPa)
#
#
# Indices 1 2 3 4 5 6 
#
# 1 0.035685 -0.009309 -0.001810 0.000000 0.000000 0.000000
# 2 -0.009309 0.014946 -0.005749 0.000000 0.000000 0.000000
# 3 -0.001810 -0.005749 0.013585 0.000000 0.000000 0.000000
# 4 0.000000 0.000000 0.000000 0.039655 0.000000 0.000000
# 5 0.000000 0.000000 0.000000 0.000000 0.073052 0.000000
# 6 0.000000 0.000000 0.000000 0.000000 0.000000 0.046034
#
#
# Mechanical properties :
#
#
# Convention : Reuss Voigt Hill
#
# Bulk Modulus (GPa) = 32.80864 47.28299 40.04581
# Shear Modulus (GPa) = 18.73692 21.57826 20.15759
#
# Velocity S-wave (km/s) = 3.40877 3.65811 3.53564
# Velocity P-wave (km/s) = 5.98659 6.86768 6.44222
#
# Compressibility (1/GPa) = 0.03047978
#
# Stress axis : x y z
#
# Youngs Moduli (GPa) = 28.02293 66.90709 73.61262
#
# Poissons Ratio (x) = 0.62284 0.13320
# Poissons Ratio (y) = 0.26087 0.42323
# Poissons Ratio (z) = 0.05071 0.38468
#
# Static dielectric constant tensor:
#      x y z
#    x 3.027720 0.000000 0.000000 
#    y 0.000000 3.276520 0.000000 
#    z 0.000000 0.000000 3.102090 
# 
# 
# High freq. dielectric constant tensor:
#      x y z
#    x 1.615170 0.000000 0.000000 
#    y 0.000000 1.618190 0.000000 
#    z 0.000000 0.000000 1.595050 
# 
# From -- ./inp_files/17091.got.cif
#   From: 2010.03.12/outbox.cif.g09.slc.cpg/sg44_9_cif.got.tgz:17091.got - 2010.04.14 02:36:11.
