data_PCOD8188935
_publ_section_title
;
Structure prediction by ZEFSAII (Michael W. Deem and Ramdas Pophale) SiO2 
 PCOD8188935
Probable space group: I M M 2
;
_chemical_formula_sum "Si O2"
_cell_formula_units_Z 64
_cell_length_a 8.812512
_cell_length_b 23.954019
_cell_length_c 15.553445
_cell_angle_alpha 90.000000
_cell_angle_beta 90.000000
_cell_angle_gamma 90.000000
_cell_volume 3283.255715
_symmetry_space_group_name_H-M "I M M 2"
_symmetry_group_IT_number 44
_symmetry_cell_setting 'orthorhombic'
loop_
_space_group_symop_operation_xyz
x,y,z
-x,-y,z
-x,y,z
x,-y,z
1/2+x,1/2+y,1/2+z
1/2-x,1/2-y,1/2+z
1/2-x,1/2+y,1/2+z
1/2+x,1/2-y,1/2+z
loop_
_atom_site_type_symbol
_atom_site_label
_atom_site_fract_x
_atom_site_fract_y
_atom_site_fract_z
Si Si1 0.181130 0.436732 0.705440
Si Si2 0.822698 0.131961 0.542132
Si Si3 0.180453 0.366634 0.356378
Si Si4 0.176084 0.434677 0.193626
Si Si5 0.321525 0.746348 0.798329
Si Si6 0.324947 0.249316 0.117404
Si Si7 0.176468 0.630766 0.544107
Si Si8 0.320535 0.863637 0.364950
O O1 0.242313 0.500000 0.707720
O O2 0.249971 0.406010 0.620723
O O3 0.240902 0.404209 0.789598
O O4 0.000000 0.435392 0.704085
O O5 0.774026 0.090796 0.617548
O O6 0.778490 0.195351 0.565855
O O7 0.736487 0.113104 0.456066
O O8 0.000000 0.125844 0.525779
O O9 0.235728 0.410010 0.284139
O O10 0.241085 0.305244 0.332880
O O11 0.244798 0.384999 0.450217
O O12 0.000000 0.365042 0.360308
O O13 0.203966 0.500000 0.196212
O O14 0.000000 0.419351 0.179013
O O15 0.500000 0.740245 0.811854
O O16 0.282884 0.741688 0.698465
O O17 0.241199 0.698424 0.852513
O O18 0.500000 0.251844 0.148262
O O19 0.296313 0.196658 0.056192
O O20 0.000000 0.616689 0.544965
O O21 0.500000 0.862175 0.364140
#
# Coordination Sequence:
#
# PCOD8188935 Si02
#       8
#     8   8   8   8   8   8   8   8
#     4   9  18  32  52  79 108 141 184 231 275 324
#     4  11  23  38  59  85 114 147 191 241 293 346
#     4   9  18  32  53  82 115 147 181 228 284 338
#     4  10  21  38  58  82 114 152 196 242 288 342
#     4  11  20  33  56  84 116 149 186 229 280 341
#     4  10  19  34  56  82 112 147 182 227 287 342
#     4   9  16  30  53  80 111 141 175 224 279 333
#     4  11  22  37  57  83 117 151 189 232 287 349
#
# _framework density 19.492844999999999
#
# number of rings (size 3 to 8) (size 9 to 14) (size 15 to 20)
#    0.000    2.000    2.500    1.875    0.000    3.750 
#    0.000    3.750    0.000    1.875    0.000    0.000 
#    0.000    0.000    0.000    0.000    0.000    0.000 
#
# Total GULP energy -396816.523166 kJ/mol
# GULP energy per Si atom -12400.516349 kJ/mol
# Density = 1.944848 g / cm^3
# Si number density = 19.492845 Si / 1000 Ang^3
#
#
#
# Elastic Constant Matrix: (Units=GPa)
#
#
# Indices 1 2 3 4 5 6 
#
# 1 35.0828 17.5517 22.0464 0.0001 0.0000 0.0000
# 2 17.5517 110.9237 47.3089 0.0003 0.0000 0.0000
# 3 22.0464 47.3089 152.1257 0.0013 0.0004 0.0001
# 4 0.0001 0.0003 0.0013 14.0810 0.0001 0.0000
# 5 0.0000 0.0000 0.0004 0.0001 20.7776 0.0000
# 6 0.0000 0.0000 0.0001 0.0000 0.0000 22.3172
#
#
#
# Elastic Compliance Matrix: (Units=1/GPa)
#
#
# Indices 1 2 3 4 5 6 
#
# 1 0.032575 -0.003621 -0.003595 0.000000 0.000000 0.000000
# 2 -0.003621 0.010796 -0.002833 0.000000 0.000000 0.000000
# 3 -0.003595 -0.002833 0.007975 -0.000001 0.000000 0.000000
# 4 0.000000 0.000000 -0.000001 0.071018 -0.000001 0.000000
# 5 0.000000 0.000000 0.000000 -0.000001 0.048129 0.000000
# 6 0.000000 0.000000 0.000000 0.000000 0.000000 0.044808
#
#
# Mechanical properties :
#
#
# Convention : Reuss Voigt Hill
#
# Bulk Modulus (GPa) = 32.00084 52.43846 42.21965
# Shear Modulus (GPa) = 20.34051 25.51684 22.92867
#
# Velocity S-wave (km/s) = 3.23381 3.62199 3.43339
# Velocity P-wave (km/s) = 5.51323 6.66720 6.11748
#
# Compressibility (1/GPa) = 0.03124918
#
# Stress axis : x y z
#
# Youngs Moduli (GPa) = 30.69875 92.62387 125.38571
#
# Poissons Ratio (x) = 0.33541 0.45072
# Poissons Ratio (y) = 0.11117 0.35518
# Poissons Ratio (z) = 0.11035 0.26238
#
# Static dielectric constant tensor:
#      x y z
#    x 3.193150 0.000000 0.000000 
#    y 0.000000 3.641710 0.000000 
#    z 0.000000 0.000000 3.893290 
# 
# 
# High freq. dielectric constant tensor:
#      x y z
#    x 1.716500 0.000000 0.000000 
#    y 0.000000 1.759210 0.000000 
#    z 0.000000 0.000000 1.777120 
# 
# From -- ./inp_files/16801.got.cif
#   From: 2010.03.12/outbox.cif.g09.slc.cpg/sg44_9_cif.got.tgz:16801.got - 2010.04.14 02:36:11.
