data_PCOD8188967
_publ_section_title
;
Structure prediction by ZEFSAII (Michael W. Deem and Ramdas Pophale) SiO2 
 PCOD8188967
Probable space group: I M M 2
;
_chemical_formula_sum "Si O2"
_cell_formula_units_Z 56
_cell_length_a 10.224511
_cell_length_b 20.306593
_cell_length_c 13.339659
_cell_angle_alpha 90.000000
_cell_angle_beta 90.000000
_cell_angle_gamma 90.000000
_cell_volume 2769.646480
_symmetry_space_group_name_H-M "I M M 2"
_symmetry_group_IT_number 44
_symmetry_cell_setting 'orthorhombic'
loop_
_space_group_symop_operation_xyz
x,y,z
-x,-y,z
-x,y,z
x,-y,z
1/2+x,1/2+y,1/2+z
1/2-x,1/2-y,1/2+z
1/2-x,1/2+y,1/2+z
1/2+x,1/2-y,1/2+z
loop_
_atom_site_type_symbol
_atom_site_label
_atom_site_fract_x
_atom_site_fract_y
_atom_site_fract_z
Si Si1 0.142149 0.834053 0.329740
Si Si2 0.349089 0.859319 0.816227
Si Si3 0.344939 0.000000 0.087666
Si Si4 0.146897 0.641128 0.668350
Si Si5 0.645400 0.169446 0.595974
Si Si6 0.284179 0.225638 0.983380
Si Si7 0.851338 0.925026 0.501335
Si Si8 0.653480 0.000000 0.864018
O O1 0.257951 0.825218 0.249881
O O2 0.136738 0.780370 0.419892
O O3 0.160958 0.904079 0.384916
O O4 0.000000 0.830971 0.275318
O O5 0.500000 0.855902 0.855466
O O6 0.336834 0.817498 0.714481
O O7 0.250457 0.829217 0.899495
O O8 0.304466 0.935233 0.801458
O O9 0.299180 0.067548 0.142570
O O10 0.500000 0.000000 0.082372
O O11 0.284181 0.000000 0.975618
O O12 0.137449 0.688468 0.571324
O O13 0.000000 0.636772 0.713085
O O14 0.500000 0.141881 0.574124
O O15 0.661034 0.237828 0.534946
O O16 0.752776 0.115977 0.569158
O O17 0.000000 0.914309 0.539966
O O18 0.807669 0.000000 0.509248
O O19 0.500000 0.000000 0.878115
#
# Coordination Sequence:
#
# PCOD8188967 Si02
#       8
#     8   8   4   8   8   8   8   4
#     4  10  22  38  58  83 115 156 199 237 287 350
#     4  10  19  34  58  88 119 153 196 245 294 351
#     4   9  18  34  55  88 119 144 188 247 297 346
#     4  11  22  37  61  89 118 151 195 247 298 347
#     4  10  23  39  59  90 121 151 196 252 301 344
#     4  11  21  37  58  81 119 160 197 237 291 350
#     4   9  20  40  62  84 117 161 202 238 285 355
#     4   9  16  30  56  86 115 148 192 241 293 352
#
# _framework density 20.219187000000002
#
# number of rings (size 3 to 8) (size 9 to 14) (size 15 to 20)
#    0.000    2.000    1.429    2.143    2.000    5.429 
#    0.000    0.714    0.000    0.000    0.000    0.000 
#    0.000    0.000    0.000    0.000    0.000    0.000 
#
# Total GULP energy -346893.193463 kJ/mol
# GULP energy per Si atom -12389.042624 kJ/mol
# Density = 2.017317 g / cm^3
# Si number density = 20.219187 Si / 1000 Ang^3
#
#
#
# Elastic Constant Matrix: (Units=GPa)
#
#
# Indices 1 2 3 4 5 6 
#
# 1 91.1532 39.4675 54.2746 -0.0001 0.0000 0.0000
# 2 39.4675 127.0984 49.3742 -0.0002 0.0000 0.0000
# 3 54.2746 49.3742 112.1550 -0.0004 0.0000 0.0000
# 4 -0.0001 -0.0002 -0.0004 29.1192 0.0000 0.0000
# 5 0.0000 0.0000 0.0000 0.0000 26.9905 0.0000
# 6 0.0000 0.0000 0.0000 0.0000 0.0000 18.5874
#
#
#
# Elastic Compliance Matrix: (Units=1/GPa)
#
#
# Indices 1 2 3 4 5 6 
#
# 1 0.015978 -0.002362 -0.006692 0.000000 0.000000 0.000000
# 2 -0.002362 0.009840 -0.003189 0.000000 0.000000 0.000000
# 3 -0.006692 -0.003189 0.013559 0.000000 0.000000 0.000000
# 4 0.000000 0.000000 0.000000 0.034342 0.000000 0.000000
# 5 0.000000 0.000000 0.000000 0.000000 0.037050 0.000000
# 6 0.000000 0.000000 0.000000 0.000000 0.000000 0.053800
#
#
# Mechanical properties :
#
#
# Convention : Reuss Voigt Hill
#
# Bulk Modulus (GPa) = 67.15706 68.51546 67.83626
# Shear Modulus (GPa) = 25.77076 27.42544 26.59810
#
# Velocity S-wave (km/s) = 3.57398 3.68694 3.63090
# Velocity P-wave (km/s) = 7.09350 7.21697 7.15550
#
# Compressibility (1/GPa) = 0.01489047
#
# Stress axis : x y z
#
# Youngs Moduli (GPa) = 62.58631 101.62432 73.75302
#
# Poissons Ratio (x) = 0.24001 0.49358
# Poissons Ratio (y) = 0.14781 0.23520
# Poissons Ratio (z) = 0.41885 0.32408
#
# Static dielectric constant tensor:
#      x y z
#    x 3.309750 0.000000 0.000000 
#    y 0.000000 4.067940 0.000000 
#    z 0.000000 0.000000 3.626670 
# 
# 
# High freq. dielectric constant tensor:
#      x y z
#    x 1.747480 0.000000 0.000000 
#    y 0.000000 1.806580 0.000000 
#    z 0.000000 0.000000 1.785480 
# 
# From -- ./inp_files/16578.got.cif
#   From: 2010.03.12/outbox.cif.g09.slc.cpg/sg44_9_cif.got.tgz:16578.got - 2010.04.14 02:36:11.
