data_PCOD8188362
_publ_section_title
;
Structure prediction by ZEFSAII (Michael W. Deem and Ramdas Pophale) SiO2 
 PCOD8188362
Probable space group: I M M 2
;
_chemical_formula_sum "Si O2"
_cell_formula_units_Z 64
_cell_length_a 13.724605
_cell_length_b 17.946464
_cell_length_c 13.536253
_cell_angle_alpha 90.000000
_cell_angle_beta 90.000000
_cell_angle_gamma 90.000000
_cell_volume 3334.089158
_symmetry_space_group_name_H-M "I M M 2"
_symmetry_group_IT_number 44
_symmetry_cell_setting 'orthorhombic'
loop_
_space_group_symop_operation_xyz
x,y,z
-x,-y,z
-x,y,z
x,-y,z
1/2+x,1/2+y,1/2+z
1/2-x,1/2-y,1/2+z
1/2-x,1/2+y,1/2+z
1/2+x,1/2-y,1/2+z
loop_
_atom_site_type_symbol
_atom_site_label
_atom_site_fract_x
_atom_site_fract_y
_atom_site_fract_z
Si Si1 0.387841 0.302933 0.711190
Si Si2 0.779900 0.083835 0.494469
Si Si3 0.243925 0.415515 0.769821
Si Si4 0.387248 0.780589 0.282904
Si Si5 0.388825 0.085210 0.805375
Si Si6 0.390695 0.157139 0.597194
Si Si7 0.209314 0.281168 0.387622
Si Si8 0.888624 0.215184 0.569164
O O1 0.500000 0.326881 0.712093
O O2 0.321541 0.376571 0.695283
O O3 0.366420 0.242654 0.625518
O O4 0.360561 0.266705 0.816272
O O5 0.795079 0.084054 0.377148
O O6 0.678502 0.127368 0.511423
O O7 0.866013 0.127492 0.551506
O O8 0.777181 0.000000 0.536212
O O9 0.220449 0.500000 0.735239
O O10 0.144618 0.367009 0.769996
O O11 0.500000 0.777229 0.314480
O O12 0.322358 0.739185 0.366218
O O13 0.366590 0.736338 0.181747
O O14 0.500000 0.103510 0.837082
O O15 0.375016 0.104023 0.690880
O O16 0.312821 0.131775 0.871284
O O17 0.362670 0.000000 0.824011
O O18 0.500000 0.150859 0.556242
O O19 0.183416 0.262562 0.500104
O O20 0.000000 0.232401 0.542164
#
# Coordination Sequence:
#
# PCOD8188362 Si02
#       8
#     8   8   8   8   8   8   8   8
#     4   9  16  31  53  77 105 139 178 223 275 330
#     4  11  21  32  50  81 115 147 180 223 281 340
#     4  10  21  35  52  76 111 153 186 222 281 335
#     4  10  22  39  57  78 109 151 195 231 277 335
#     4   9  16  27  48  78 109 139 172 224 291 337
#     4   9  18  31  50  75 107 143 179 223 273 331
#     4  10  18  34  55  76 108 142 186 233 277 326
#     4  11  21  36  59  82 108 147 189 232 277 332
#
# _framework density 19.195647999999998
#
# number of rings (size 3 to 8) (size 9 to 14) (size 15 to 20)
#    0.000    2.125    2.500    4.500    0.000    2.000 
#    0.000    3.125    0.000    2.625    0.000    0.000 
#    0.000    0.000    0.000    0.000    0.000    0.000 
#
# Total GULP energy -396724.899697 kJ/mol
# GULP energy per Si atom -12397.653116 kJ/mol
# Density = 1.915196 g / cm^3
# Si number density = 19.195648 Si / 1000 Ang^3
#
#
#
# Elastic Constant Matrix: (Units=GPa)
#
#
# Indices 1 2 3 4 5 6 
#
# 1 118.6728 53.6833 23.7834 0.0000 0.0000 0.0000
# 2 53.6833 132.5585 18.9242 0.0000 0.0000 0.0000
# 3 23.7834 18.9242 39.5508 0.0001 0.0000 0.0000
# 4 0.0000 0.0000 0.0001 22.3460 0.0000 0.0000
# 5 0.0000 0.0000 0.0000 0.0000 23.5288 0.0000
# 6 0.0000 0.0000 0.0000 0.0000 0.0000 25.5429
#
#
#
# Elastic Compliance Matrix: (Units=1/GPa)
#
#
# Indices 1 2 3 4 5 6 
#
# 1 0.011126 -0.003811 -0.004867 0.000000 0.000000 0.000000
# 2 -0.003811 0.009402 -0.002207 0.000000 0.000000 0.000000
# 3 -0.004867 -0.002207 0.029267 0.000000 0.000000 0.000000
# 4 0.000000 0.000000 0.000000 0.044751 0.000000 0.000000
# 5 0.000000 0.000000 0.000000 0.000000 0.042501 0.000000
# 6 0.000000 0.000000 0.000000 0.000000 0.000000 0.039150
#
#
# Mechanical properties :
#
#
# Convention : Reuss Voigt Hill
#
# Bulk Modulus (GPa) = 35.68268 53.72932 44.70600
# Shear Modulus (GPa) = 24.11870 27.24296 25.68083
#
# Velocity S-wave (km/s) = 3.54851 3.77135 3.66163
# Velocity P-wave (km/s) = 5.95135 6.85676 6.42004
#
# Compressibility (1/GPa) = 0.02802480
#
# Stress axis : x y z
#
# Youngs Moduli (GPa) = 89.88083 106.35729 34.16855
#
# Poissons Ratio (x) = 0.40532 0.16630
# Poissons Ratio (y) = 0.34253 0.07541
# Poissons Ratio (z) = 0.43745 0.23474
#
# Static dielectric constant tensor:
#      x y z
#    x 3.553510 0.000000 0.000000 
#    y 0.000000 3.772930 0.000000 
#    z 0.000000 0.000000 3.237910 
# 
# 
# High freq. dielectric constant tensor:
#      x y z
#    x 1.743770 0.000000 0.000000 
#    y 0.000000 1.742470 0.000000 
#    z 0.000000 0.000000 1.721500 
# 
# From -- ./inp_files/18608.got.cif
#   From: 2010.03.12/outbox.cif.g09.slc.cpg/sg44_10_cif.got.tgz:18608.got - 2010.04.14 02:36:11.
