data_PCOD8188672
_publ_section_title
;
Structure prediction by ZEFSAII (Michael W. Deem and Ramdas Pophale) SiO2 
 PCOD8188672
Probable space group: I M M 2
;
_chemical_formula_sum "Si O2"
_cell_formula_units_Z 48
_cell_length_a 7.972035
_cell_length_b 9.588984
_cell_length_c 34.503166
_cell_angle_alpha 90.000000
_cell_angle_beta 90.000000
_cell_angle_gamma 90.000000
_cell_volume 2637.550225
_symmetry_space_group_name_H-M "I M M 2"
_symmetry_group_IT_number 44
_symmetry_cell_setting 'orthorhombic'
loop_
_space_group_symop_operation_xyz
x,y,z
-x,-y,z
-x,y,z
x,-y,z
1/2+x,1/2+y,1/2+z
1/2-x,1/2-y,1/2+z
1/2-x,1/2+y,1/2+z
1/2+x,1/2-y,1/2+z
loop_
_atom_site_type_symbol
_atom_site_label
_atom_site_fract_x
_atom_site_fract_y
_atom_site_fract_z
Si Si1 0.185128 0.165751 0.313830
Si Si2 0.304266 0.344326 0.543101
Si Si3 0.691318 0.160375 0.962701
Si Si4 0.500000 0.166615 0.265569
Si Si5 0.000000 0.333887 0.677991
Si Si6 0.190986 0.344553 0.894817
Si Si7 0.811841 0.166810 0.127966
O O1 0.331776 0.226327 0.286198
O O2 0.207326 0.217419 0.358152
O O3 0.000000 0.213712 0.299103
O O4 0.199581 0.000000 0.313530
O O5 0.500000 0.345313 0.534588
O O6 0.230660 0.500000 0.545682
O O7 0.216092 0.272720 0.505831
O O8 0.268749 0.272252 0.584867
O O9 0.500000 0.172159 0.950102
O O10 0.797529 0.246096 0.931874
O O11 0.754223 0.000000 0.962432
O O12 0.500000 0.223014 0.221659
O O13 0.500000 0.000000 0.266050
O O14 0.169366 0.277284 0.657212
O O15 0.000000 0.500000 0.676876
O O16 0.256083 0.500000 0.905723
O O17 0.000000 0.352299 0.880957
O O18 0.000000 0.216117 0.140777
O O19 0.811912 0.000000 0.125961
#
# Coordination Sequence:
#
# PCOD8188672 Si02
#       7
#     8   8   8   4   4   8   8
#     4   9  16  27  43  59  79 110 146 185 226 272
#     4   8  14  25  39  54  77 111 148 183 221 267
#     4  10  20  30  43  67  94 120 154 195 235 277
#     4   9  16  26  36  56  81 105 145 187 225 273
#     4   9  16  22  34  52  76 107 141 185 223 259
#     4  10  19  32  49  66  87 119 160 198 233 279
#     4   8  14  23  34  50  73 106 145 179 217 266
#
# _framework density 18.198705
#
# number of rings (size 3 to 8) (size 9 to 14) (size 15 to 20)
#    0.000    3.000    0.833    2.000    1.167    2.667 
#    0.000    3.333    0.000    0.000    0.000    0.000 
#    0.000    0.000    0.000    3.000    0.000   20.333 
#
# Total GULP energy -297366.744566 kJ/mol
# GULP energy per Si atom -12390.281024 kJ/mol
# Density = 1.815728 g / cm^3
# Si number density = 18.198705 Si / 1000 Ang^3
#
#
#
# Elastic Constant Matrix: (Units=GPa)
#
#
# Indices 1 2 3 4 5 6 
#
# 1 120.9699 11.2152 74.0180 0.0000 0.0000 0.0000
# 2 11.2152 17.6495 19.9973 0.0000 0.0000 0.0000
# 3 74.0180 19.9973 147.8952 0.0000 0.0000 0.0000
# 4 0.0000 0.0000 0.0000 13.4592 0.0000 0.0000
# 5 0.0000 0.0000 0.0000 0.0000 30.5741 0.0000
# 6 0.0000 0.0000 0.0000 0.0000 0.0000 9.2342
#
#
#
# Elastic Compliance Matrix: (Units=1/GPa)
#
#
# Indices 1 2 3 4 5 6 
#
# 1 0.011929 -0.000963 -0.005840 0.000000 0.000000 0.000000
# 2 -0.000963 0.066987 -0.008575 0.000000 0.000000 0.000000
# 3 -0.005840 -0.008575 0.010844 0.000000 0.000000 0.000000
# 4 0.000000 0.000000 0.000000 0.074299 0.000000 0.000000
# 5 0.000000 0.000000 0.000000 0.000000 0.032707 0.000000
# 6 0.000000 0.000000 0.000000 0.000000 0.000000 0.108293
#
#
# Mechanical properties :
#
#
# Convention : Reuss Voigt Hill
#
# Bulk Modulus (GPa) = 16.94839 55.21952 36.08396
# Shear Modulus (GPa) = 14.06533 22.73911 18.40222
#
# Velocity S-wave (km/s) = 2.78308 3.53865 3.18336
# Velocity P-wave (km/s) = 4.43402 6.86327 5.77776
#
# Compressibility (1/GPa) = 0.05900264
#
# Stress axis : x y z
#
# Youngs Moduli (GPa) = 83.82815 14.92823 92.21840
#
# Poissons Ratio (x) = 0.01438 0.53856
# Poissons Ratio (y) = 0.08076 0.79081
# Poissons Ratio (z) = 0.48956 0.12801
#
# Static dielectric constant tensor:
#      x y z
#    x 3.502700 0.000000 0.000000 
#    y 0.000000 2.567480 0.000000 
#    z 0.000000 0.000000 3.518570 
# 
# 
# High freq. dielectric constant tensor:
#      x y z
#    x 1.719500 0.000000 0.000000 
#    y 0.000000 1.604830 0.000000 
#    z 0.000000 0.000000 1.713720 
# 
# From -- ./inp_files/26932.got.cif
#   From: 2010.03.12/outbox.cif.g09.slc.cpg/sg44_14_cif.got.tgz:26932.got - 2010.04.14 02:36:11.
