data_PCOD8188333
_publ_section_title
;
Structure prediction by ZEFSAII (Michael W. Deem and Ramdas Pophale) SiO2 
 PCOD8188333
Probable space group: I M M 2
;
_chemical_formula_sum "Si O2"
_cell_formula_units_Z 64
_cell_length_a 8.969276
_cell_length_b 15.367397
_cell_length_c 23.872466
_cell_angle_alpha 90.000000
_cell_angle_beta 90.000000
_cell_angle_gamma 90.000000
_cell_volume 3290.447627
_symmetry_space_group_name_H-M "I M M 2"
_symmetry_group_IT_number 44
_symmetry_cell_setting 'orthorhombic'
loop_
_space_group_symop_operation_xyz
x,y,z
-x,-y,z
-x,y,z
x,-y,z
1/2+x,1/2+y,1/2+z
1/2-x,1/2-y,1/2+z
1/2-x,1/2+y,1/2+z
1/2+x,1/2-y,1/2+z
loop_
_atom_site_type_symbol
_atom_site_label
_atom_site_fract_x
_atom_site_fract_y
_atom_site_fract_z
Si Si1 0.670548 0.597476 0.018910
Si Si2 0.175593 0.254503 0.947897
Si Si3 0.173958 0.599761 0.250127
Si Si4 0.169925 0.402106 0.507169
Si Si5 0.829257 0.332963 0.627075
Si Si6 0.176523 0.404465 0.745592
Si Si7 0.176552 0.753242 0.819919
Si Si8 0.675666 0.846882 0.626951
O O1 0.500000 0.627941 0.024988
O O2 0.681961 0.500000 0.993969
O O3 0.744611 0.595685 0.080007
O O4 0.751554 0.663132 0.977494
O O5 0.228641 0.254576 0.883774
O O6 0.000000 0.264697 0.953453
O O7 0.222350 0.164056 0.975785
O O8 0.209202 0.500000 0.264741
O O9 0.259646 0.658288 0.294612
O O10 0.230550 0.620460 0.187508
O O11 0.000000 0.620632 0.254820
O O12 0.213538 0.500000 0.489261
O O13 0.187586 0.395883 0.574094
O O14 0.000000 0.381033 0.489846
O O15 0.776035 0.384403 0.681969
O O16 0.720335 0.252510 0.617561
O O17 0.000000 0.300237 0.633948
O O18 0.240685 0.500000 0.761869
O O19 0.241955 0.330534 0.786741
O O20 0.000000 0.406120 0.751035
O O21 0.000000 0.757541 0.814408
O O22 0.500000 0.858312 0.619945
#
# Coordination Sequence:
#
# PCOD8188333 Si02
#       8
#     8   8   8   8   8   8   8   8
#     4  11  24  41  62  88 117 153 197 242 291 352
#     4  11  24  40  59  85 118 155 196 247 298 340
#     4  10  22  39  59  85 118 155 192 233 288 350
#     4  10  21  37  59  87 117 152 194 239 290 349
#     4  10  18  32  58  87 116 147 185 234 287 348
#     4   9  17  32  57  86 114 145 183 229 281 339
#     4  10  22  39  59  85 114 149 196 243 286 334
#     4  11  21  35  59  89 122 155 187 233 295 354
#
# _framework density 19.450240999999998
#
# number of rings (size 3 to 8) (size 9 to 14) (size 15 to 20)
#    0.000    1.750    2.500    1.875    0.000    6.000 
#    0.000    3.750    0.000    2.250    0.000    0.000 
#    0.000    0.000    0.000    0.000    0.000    0.000 
#
# Total GULP energy -396876.907272 kJ/mol
# GULP energy per Si atom -12402.403352 kJ/mol
# Density = 1.940597 g / cm^3
# Si number density = 19.450241 Si / 1000 Ang^3
#
#
#
# Elastic Constant Matrix: (Units=GPa)
#
#
# Indices 1 2 3 4 5 6 
#
# 1 61.3012 34.7399 47.5957 0.0000 0.0000 0.0000
# 2 34.7399 131.8765 60.2632 0.0000 0.0000 0.0000
# 3 47.5957 60.2632 139.4810 0.0000 0.0000 0.0000
# 4 0.0000 0.0000 0.0000 11.0078 0.0000 0.0000
# 5 0.0000 0.0000 0.0000 0.0000 27.7350 0.0000
# 6 0.0000 0.0000 0.0000 0.0000 0.0000 18.5236
#
#
#
# Elastic Compliance Matrix: (Units=1/GPa)
#
#
# Indices 1 2 3 4 5 6 
#
# 1 0.023169 -0.003103 -0.006565 0.000000 0.000000 0.000000
# 2 -0.003103 0.009864 -0.003203 0.000000 0.000000 0.000000
# 3 -0.006565 -0.003203 0.010794 0.000000 0.000000 0.000000
# 4 0.000000 0.000000 0.000000 0.090844 0.000000 0.000000
# 5 0.000000 0.000000 0.000000 0.000000 0.036056 0.000000
# 6 0.000000 0.000000 0.000000 0.000000 0.000000 0.053985
#
#
# Mechanical properties :
#
#
# Convention : Reuss Voigt Hill
#
# Bulk Modulus (GPa) = 55.29824 68.65069 61.97447
# Shear Modulus (GPa) = 19.49455 24.12395 21.80925
#
# Velocity S-wave (km/s) = 3.16931 3.52560 3.35219
# Velocity P-wave (km/s) = 6.47187 7.20731 6.84946
#
# Compressibility (1/GPa) = 0.01808376
#
# Stress axis : x y z
#
# Youngs Moduli (GPa) = 43.16117 101.37977 92.64811
#
# Poissons Ratio (x) = 0.31460 0.60826
# Poissons Ratio (y) = 0.13394 0.29673
# Poissons Ratio (z) = 0.28337 0.32470
#
# Static dielectric constant tensor:
#      x y z
#    x 3.400940 0.000000 0.000000 
#    y 0.000000 3.656950 0.000000 
#    z 0.000000 0.000000 3.661290 
# 
# 
# High freq. dielectric constant tensor:
#      x y z
#    x 1.739820 0.000000 0.000000 
#    y 0.000000 1.769480 0.000000 
#    z 0.000000 0.000000 1.758430 
# 
# From -- ./inp_files/25110.got.cif
#   From: 2010.03.12/outbox.cif.g09.slc.cpg/sg44_13_cif.got.tgz:25110.got - 2010.04.14 02:36:11.
