data_PCOD8188478
_publ_section_title
;
Structure prediction by ZEFSAII (Michael W. Deem and Ramdas Pophale) SiO2 
 PCOD8188478
Probable space group: I M M 2
;
_chemical_formula_sum "Si O2"
_cell_formula_units_Z 52
_cell_length_a 7.579062
_cell_length_b 14.347357
_cell_length_c 26.446229
_cell_angle_alpha 90.000000
_cell_angle_beta 90.000000
_cell_angle_gamma 90.000000
_cell_volume 2875.749936
_symmetry_space_group_name_H-M "I M M 2"
_symmetry_group_IT_number 44
_symmetry_cell_setting 'orthorhombic'
loop_
_space_group_symop_operation_xyz
x,y,z
-x,-y,z
-x,y,z
x,-y,z
1/2+x,1/2+y,1/2+z
1/2-x,1/2-y,1/2+z
1/2-x,1/2+y,1/2+z
1/2+x,1/2-y,1/2+z
loop_
_atom_site_type_symbol
_atom_site_label
_atom_site_fract_x
_atom_site_fract_y
_atom_site_fract_z
Si Si1 0.297547 0.712329 0.175250
Si Si2 0.000000 0.894087 0.304128
Si Si3 0.205196 0.390650 0.969872
Si Si4 0.500000 0.290765 0.907134
Si Si5 0.000000 0.607680 0.354518
Si Si6 0.701929 0.607519 0.274065
Si Si7 0.298958 0.103678 0.224911
Si Si8 0.799394 0.600218 0.080850
O O1 0.500000 0.685419 0.170400
O O2 0.222264 0.663368 0.225617
O O3 0.263174 0.823235 0.179669
O O4 0.209814 0.677983 0.123837
O O5 0.825035 0.873853 0.271906
O O6 0.000000 0.823796 0.349677
O O7 0.000000 0.000000 0.324038
O O8 0.233999 0.500000 0.957612
O O9 0.322552 0.327182 0.933339
O O10 0.000000 0.363123 0.961897
O O11 0.278619 0.368105 0.026656
O O12 0.500000 0.177331 0.902966
O O13 0.824669 0.628704 0.321869
O O14 0.000000 0.500000 0.373393
O O15 0.500000 0.636988 0.287001
O O16 0.713153 0.500000 0.258843
O O17 0.500000 0.114034 0.244347
O O18 0.261614 0.000000 0.203418
O O19 0.715632 0.500000 0.098268
O O20 0.000000 0.581108 0.067626
#
# Coordination Sequence:
#
# PCOD8188478 Si02
#       8
#     8   4   8   4   4   8   8   8
#     4  10  19  29  48  76 101 135 176 206 245 301
#     4  10  20  32  50  78 102 132 176 216 259 306
#     4   9  20  38  55  77 108 134 163 213 271 322
#     4  12  22  34  58  80 100 138 184 218 262 314
#     4  10  22  36  52  76 106 142 180 218 259 302
#     4   9  18  32  48  72 108 139 167 208 256 308
#     4   9  19  34  48  68 105 141 170 210 253 296
#     4   9  19  33  50  75 105 133 162 203 257 312
#
# _framework density 18.082239999999999
#
# number of rings (size 3 to 8) (size 9 to 14) (size 15 to 20)
#    0.000    2.462    0.000    3.000    3.231    2.154 
#    0.000    1.538    0.000    0.923    0.000    2.154 
#    0.000    0.000    0.000    0.000    0.000    0.000 
#
# Total GULP energy -322250.741675 kJ/mol
# GULP energy per Si atom -12394.259295 kJ/mol
# Density = 1.804108 g / cm^3
# Si number density = 18.082240 Si / 1000 Ang^3
#
#
#
# Elastic Constant Matrix: (Units=GPa)
#
#
# Indices 1 2 3 4 5 6 
#
# 1 82.1633 41.7199 41.5979 0.0000 0.0000 0.0000
# 2 41.7199 114.6516 71.5378 0.0000 0.0000 0.0000
# 3 41.5979 71.5378 95.4393 0.0000 0.0000 0.0000
# 4 0.0000 0.0000 0.0000 29.2534 0.0000 0.0000
# 5 0.0000 0.0000 0.0000 0.0000 78.2620 0.0000
# 6 0.0000 0.0000 0.0000 0.0000 0.0000 19.6670
#
#
#
# Elastic Compliance Matrix: (Units=1/GPa)
#
#
# Indices 1 2 3 4 5 6 
#
# 1 0.016074 -0.002776 -0.004925 0.000000 0.000000 0.000000
# 2 -0.002776 0.016865 -0.011431 0.000000 0.000000 0.000000
# 3 -0.004925 -0.011431 0.021193 0.000000 0.000000 0.000000
# 4 0.000000 0.000000 0.000000 0.034184 0.000000 0.000000
# 5 0.000000 0.000000 0.000000 0.000000 0.012778 0.000000
# 6 0.000000 0.000000 0.000000 0.000000 0.000000 0.050847
#
#
# Mechanical properties :
#
#
# Convention : Reuss Voigt Hill
#
# Bulk Modulus (GPa) = 63.02433 66.88503 64.95468
# Shear Modulus (GPa) = 25.57620 34.59640 30.08630
#
# Velocity S-wave (km/s) = 3.76498 4.37885 4.08347
# Velocity P-wave (km/s) = 7.33690 7.91426 7.63104
#
# Compressibility (1/GPa) = 0.01586689
#
# Stress axis : x y z
#
# Youngs Moduli (GPa) = 62.21239 59.29476 47.18516
#
# Poissons Ratio (x) = 0.16460 0.23240
# Poissons Ratio (y) = 0.17270 0.53939
# Poissons Ratio (z) = 0.30641 0.67782
#
# Static dielectric constant tensor:
#      x y z
#    x 3.263300 0.000000 0.000000 
#    y 0.000000 3.425170 0.000000 
#    z 0.000000 0.000000 3.101230 
# 
# 
# High freq. dielectric constant tensor:
#      x y z
#    x 1.710900 0.000000 0.000000 
#    y 0.000000 1.696160 0.000000 
#    z 0.000000 0.000000 1.670230 
# 
# From -- ./inp_files/22975.got.cif
#   From: 2010.03.12/outbox.cif.g09.slc.cpg/sg44_12_cif.got.tgz:22975.got - 2010.04.14 02:36:11.
