data_PCOD8188339
_publ_section_title
;
Structure prediction by ZEFSAII (Michael W. Deem and Ramdas Pophale) SiO2 
 PCOD8188339
Probable space group: I M M 2
;
_chemical_formula_sum "Si O2"
_cell_formula_units_Z 36
_cell_length_a 12.642562
_cell_length_b 14.800055
_cell_length_c 7.927757
_cell_angle_alpha 90.000000
_cell_angle_beta 90.000000
_cell_angle_gamma 90.000000
_cell_volume 1483.367472
_symmetry_space_group_name_H-M "I M M 2"
_symmetry_group_IT_number 44
_symmetry_cell_setting 'orthorhombic'
loop_
_space_group_symop_operation_xyz
x,y,z
-x,-y,z
-x,y,z
x,-y,z
1/2+x,1/2+y,1/2+z
1/2-x,1/2-y,1/2+z
1/2-x,1/2+y,1/2+z
1/2+x,1/2-y,1/2+z
loop_
_atom_site_type_symbol
_atom_site_label
_atom_site_fract_x
_atom_site_fract_y
_atom_site_fract_z
Si Si1 0.324570 0.000000 0.400230
Si Si2 0.620614 0.195906 0.426352
Si Si3 0.878373 0.195061 0.618062
Si Si4 0.884133 0.000000 0.507548
Si Si5 0.378323 0.000000 0.772927
Si Si6 0.124496 0.695509 0.305669
O O1 0.379580 0.906373 0.346681
O O2 0.311058 0.000000 0.603130
O O3 0.199233 0.000000 0.351085
O O4 0.500000 0.225637 0.451033
O O5 0.675251 0.263617 0.289084
O O6 0.675832 0.202173 0.613884
O O7 0.827302 0.233317 0.441637
O O8 0.000000 0.228943 0.618382
O O9 0.869908 0.087591 0.626098
O O10 0.000000 0.000000 0.422426
O O11 0.355700 0.907335 0.876001
O O12 0.500000 0.000000 0.709647
O O13 0.000000 0.713853 0.284593
#
# Coordination Sequence:
#
# PCOD8188339 Si02
#       6
#     4   8   8   4   4   8
#     4  10  18  33  53  83 113 144 180 230 286 332
#     4   9  17  32  57  87 113 138 176 231 292 339
#     4   9  18  34  55  76 106 150 191 227 269 324
#     4  10  22  40  55  74 114 161 197 228 265 321
#     4   8  14  27  50  81 113 137 167 222 293 343
#     4   8  14  27  50  80 111 142 174 217 277 337
#
# _framework density 24.269103999999999
#
# number of rings (size 3 to 8) (size 9 to 14) (size 15 to 20)
#    0.000    3.111    0.000    2.333    0.000    0.889 
#    8.000    4.444    0.000   12.000    0.000    0.000 
#    0.000    0.000    0.000    0.000    0.000    0.000 
#
# Total GULP energy -223031.245784 kJ/mol
# GULP energy per Si atom -12390.624766 kJ/mol
# Density = 2.421387 g / cm^3
# Si number density = 24.269104 Si / 1000 Ang^3
#
#
#
# Elastic Constant Matrix: (Units=GPa)
#
#
# Indices 1 2 3 4 5 6 
#
# 1 42.9902 6.2927 32.2019 0.0000 0.0000 0.0000
# 2 6.2927 200.5496 96.7180 0.0000 0.0000 0.0000
# 3 32.2019 96.7180 138.2744 0.0000 0.0000 0.0000
# 4 0.0000 0.0000 0.0000 29.8605 0.0000 0.0000
# 5 0.0000 0.0000 0.0000 0.0000 34.1211 0.0000
# 6 0.0000 0.0000 0.0000 0.0000 0.0000 11.0390
#
#
#
# Elastic Compliance Matrix: (Units=1/GPa)
#
#
# Indices 1 2 3 4 5 6 
#
# 1 0.029843 0.003645 -0.009499 0.000000 0.000000 0.000000
# 2 0.003645 0.007970 -0.006423 0.000000 0.000000 0.000000
# 3 -0.009499 -0.006423 0.013937 0.000000 0.000000 0.000000
# 4 0.000000 0.000000 0.000000 0.033489 0.000000 0.000000
# 5 0.000000 0.000000 0.000000 0.000000 0.029307 0.000000
# 6 0.000000 0.000000 0.000000 0.000000 0.000000 0.090588
#
#
# Mechanical properties :
#
#
# Convention : Reuss Voigt Hill
#
# Bulk Modulus (GPa) = 36.77263 72.47103 54.62183
# Shear Modulus (GPa) = 20.94197 31.44422 26.19309
#
# Velocity S-wave (km/s) = 2.94071 3.60342 3.28880
# Velocity P-wave (km/s) = 5.16869 6.87307 6.08089
#
# Compressibility (1/GPa) = 0.02719414
#
# Stress axis : x y z
#
# Youngs Moduli (GPa) = 33.50855 125.47563 71.75073
#
# Poissons Ratio (x) = -0.45734 0.68159
# Poissons Ratio (y) = -0.12213 0.46088
# Poissons Ratio (z) = 0.31831 0.80597
#
# Static dielectric constant tensor:
#      x y z
#    x 4.650230 0.000000 0.000000 
#    y 0.000000 4.330570 0.000000 
#    z 0.000000 0.000000 4.270840 
# 
# 
# High freq. dielectric constant tensor:
#      x y z
#    x 2.012810 0.000000 0.000000 
#    y 0.000000 1.962150 0.000000 
#    z 0.000000 0.000000 1.913910 
# 
# From -- ./inp_files/6772.got.cif
#   From: 2010.03.12/outbox.cif.g09.slc.cpg/sg44_4_cif.got.tgz:6772.got - 2010.04.14 02:36:11.
