data_PCOD8188265
_publ_section_title
;
Structure prediction by ZEFSAII (Michael W. Deem and Ramdas Pophale) SiO2 
 PCOD8188265
Probable space group: I M M 2
;
_chemical_formula_sum "Si O2"
_cell_formula_units_Z 56
_cell_length_a 14.182833
_cell_length_b 8.882728
_cell_length_c 23.297558
_cell_angle_alpha 90.000000
_cell_angle_beta 90.000000
_cell_angle_gamma 90.000000
_cell_volume 2935.078725
_symmetry_space_group_name_H-M "I M M 2"
_symmetry_group_IT_number 44
_symmetry_cell_setting 'orthorhombic'
loop_
_space_group_symop_operation_xyz
x,y,z
-x,-y,z
-x,y,z
x,-y,z
1/2+x,1/2+y,1/2+z
1/2-x,1/2-y,1/2+z
1/2-x,1/2+y,1/2+z
1/2+x,1/2-y,1/2+z
loop_
_atom_site_type_symbol
_atom_site_label
_atom_site_fract_x
_atom_site_fract_y
_atom_site_fract_z
Si Si1 0.721227 0.822694 0.756940
Si Si2 0.106757 0.320832 0.366705
Si Si3 0.704479 0.178394 0.982224
Si Si4 0.888765 0.170096 0.590532
Si Si5 0.897547 0.178072 0.029120
Si Si6 0.890103 0.828700 0.157894
Si Si7 0.607179 0.822198 0.208025
O O1 0.663520 0.760411 0.811647
O O2 0.664720 0.781581 0.699892
O O3 0.824692 0.746327 0.756762
O O4 0.735097 0.000000 0.760881
O O5 0.104309 0.500000 0.366551
O O6 0.160340 0.260399 0.423206
O O7 0.000000 0.256903 0.365622
O O8 0.650470 0.251338 0.034537
O O9 0.815134 0.226585 0.985127
O O10 0.692972 0.000000 0.987172
O O11 0.856513 0.261218 0.646723
O O12 0.000000 0.172989 0.585178
O O13 0.850529 0.000000 0.595447
O O14 0.871507 0.232203 0.093429
O O15 0.000000 0.244743 0.009813
O O16 0.906668 0.000000 0.032022
O O17 0.000000 0.820702 0.172625
O O18 0.853001 0.000000 0.165542
O O19 0.500000 0.769692 0.220716
O O20 0.615129 0.000000 0.207612
#
# Coordination Sequence:
#
# PCOD8188265 Si02
#       7
#     8   8   8   8   8   8   8
#     4  11  21  33  51  74 103 138 175 221 271 311
#     4   9  19  34  50  73 106 140 175 214 256 306
#     4  10  18  31  54  77 100 139 184 218 251 299
#     4  10  20  33  51  79 112 138 163 206 264 317
#     4   8  15  28  47  73 101 125 157 207 258 299
#     4   9  17  30  49  74 104 136 171 214 264 320
#     4  10  21  37  56  77 102 134 172 213 260 319
#
# _framework density 19.079556
#
# number of rings (size 3 to 8) (size 9 to 14) (size 15 to 20)
#    0.000    2.429    0.000    3.857    0.000    4.286 
#    0.000    2.143    0.000    7.286    0.000    0.000 
#    0.000    0.000    0.000    0.000    0.000    0.000 
#
# Total GULP energy -347154.743201 kJ/mol
# GULP energy per Si atom -12398.383686 kJ/mol
# Density = 1.903613 g / cm^3
# Si number density = 19.079556 Si / 1000 Ang^3
#
#
#
# Elastic Constant Matrix: (Units=GPa)
#
#
# Indices 1 2 3 4 5 6 
#
# 1 114.1335 28.2384 99.2037 0.0000 0.0000 0.0000
# 2 28.2384 48.0177 28.5215 0.0000 0.0000 0.0000
# 3 99.2037 28.5215 112.9008 0.0000 0.0000 0.0000
# 4 0.0000 0.0000 0.0000 21.7506 0.0000 0.0000
# 5 0.0000 0.0000 0.0000 0.0000 35.1417 0.0000
# 6 0.0000 0.0000 0.0000 0.0000 0.0000 24.8582
#
#
#
# Elastic Compliance Matrix: (Units=1/GPa)
#
#
# Indices 1 2 3 4 5 6 
#
# 1 0.037428 -0.002914 -0.032151 0.000000 0.000000 0.000000
# 2 -0.002914 0.024729 -0.003687 0.000000 0.000000 0.000000
# 3 -0.032151 -0.003687 0.038040 0.000000 0.000000 0.000000
# 4 0.000000 0.000000 0.000000 0.045976 0.000000 0.000000
# 5 0.000000 0.000000 0.000000 0.000000 0.028456 0.000000
# 6 0.000000 0.000000 0.000000 0.000000 0.000000 0.040228
#
#
# Mechanical properties :
#
#
# Convention : Reuss Voigt Hill
#
# Bulk Modulus (GPa) = 44.06682 65.21991 54.64337
# Shear Modulus (GPa) = 16.67083 24.28934 20.48009
#
# Velocity S-wave (km/s) = 2.95914 3.57186 3.27984
# Velocity P-wave (km/s) = 5.90100 7.16019 6.56087
#
# Compressibility (1/GPa) = 0.02269281
#
# Stress axis : x y z
#
# Youngs Moduli (GPa) = 26.71785 40.43812 26.28845
#
# Poissons Ratio (x) = 0.11782 0.84521
# Poissons Ratio (y) = 0.07785 0.09693
# Poissons Ratio (z) = 0.85901 0.14910
#
# Static dielectric constant tensor:
#      x y z
#    x 4.224170 0.000000 0.000000 
#    y 0.000000 3.222300 0.000000 
#    z 0.000000 0.000000 3.469310 
# 
# 
# High freq. dielectric constant tensor:
#      x y z
#    x 1.761610 0.000000 0.000000 
#    y 0.000000 1.712220 0.000000 
#    z 0.000000 0.000000 1.723980 
# 
# From -- ./inp_files/23037.got.cif
#   From: 2010.03.12/outbox.cif.g09.slc.cpg/sg44_12_cif.got.tgz:23037.got - 2010.04.14 02:36:11.
