data_PCOD8188887
_publ_section_title
;
Structure prediction by ZEFSAII (Michael W. Deem and Ramdas Pophale) SiO2 
 PCOD8188887
Probable space group: I M M 2
;
_chemical_formula_sum "Si O2"
_cell_formula_units_Z 48
_cell_length_a 8.666295
_cell_length_b 18.086753
_cell_length_c 14.958934
_cell_angle_alpha 90.000000
_cell_angle_beta 90.000000
_cell_angle_gamma 90.000000
_cell_volume 2344.740161
_symmetry_space_group_name_H-M "I M M 2"
_symmetry_group_IT_number 44
_symmetry_cell_setting 'orthorhombic'
loop_
_space_group_symop_operation_xyz
x,y,z
-x,-y,z
-x,y,z
x,-y,z
1/2+x,1/2+y,1/2+z
1/2-x,1/2-y,1/2+z
1/2-x,1/2+y,1/2+z
1/2+x,1/2-y,1/2+z
loop_
_atom_site_type_symbol
_atom_site_label
_atom_site_fract_x
_atom_site_fract_y
_atom_site_fract_z
Si Si1 0.319358 0.500000 0.760110
Si Si2 0.180904 0.231735 0.873696
Si Si3 0.325171 0.233048 0.683530
Si Si4 0.826014 0.108558 0.112582
Si Si5 0.316395 0.500000 0.955513
Si Si6 0.682722 0.341936 0.022207
Si Si7 0.677724 0.082416 0.931975
O O1 0.500000 0.500000 0.778030
O O2 0.270315 0.572998 0.705749
O O3 0.239769 0.500000 0.856703
O O4 0.238068 0.252208 0.774910
O O5 0.257352 0.284015 0.948132
O O6 0.217722 0.144862 0.886564
O O7 0.000000 0.243740 0.880703
O O8 0.500000 0.208515 0.705775
O O9 0.322726 0.304000 0.619988
O O10 0.241761 0.171760 0.623076
O O11 0.000000 0.081591 0.089179
O O12 0.709091 0.081449 0.037502
O O13 0.500000 0.500000 0.953021
O O14 0.258226 0.574930 0.002621
O O15 0.500000 0.335723 0.020477
O O16 0.500000 0.102417 0.914892
O O17 0.715087 0.000000 0.893578
#
# Coordination Sequence:
#
# PCOD8188887 Si02
#       7
#     4   8   8   8   4   8   8
#     4   9  16  30  55  88 119 156 199 245 296 368
#     4  12  25  42  65  93 125 168 214 261 316 378
#     4  11  23  40  63  93 125 166 213 259 314 377
#     4  10  19  33  59  89 122 159 201 247 306 378
#     4   9  20  38  61  90 125 166 207 251 312 372
#     4  11  22  41  67  94 128 167 210 264 314 374
#     4  11  23  39  61  90 126 162 202 258 318 371
#
# _framework density 20.471353000000001
#
# number of rings (size 3 to 8) (size 9 to 14) (size 15 to 20)
#    0.000    1.333    2.500    4.000    0.000    4.333 
#    1.500    1.667    0.000    1.000    0.000    0.000 
#    0.000    0.000    0.000    0.000    0.000    0.000 
#
# Total GULP energy -297552.288062 kJ/mol
# GULP energy per Si atom -12398.012003 kJ/mol
# Density = 2.042476 g / cm^3
# Si number density = 20.471353 Si / 1000 Ang^3
#
#
#
# Elastic Constant Matrix: (Units=GPa)
#
#
# Indices 1 2 3 4 5 6 
#
# 1 89.4599 30.9592 20.5643 0.0000 0.0000 0.0000
# 2 30.9592 112.4054 22.8181 0.0000 0.0000 0.0000
# 3 20.5643 22.8181 80.1109 0.0001 0.0000 0.0000
# 4 0.0000 0.0000 0.0001 28.0084 0.0000 0.0000
# 5 0.0000 0.0000 0.0000 0.0000 34.9681 0.0000
# 6 0.0000 0.0000 0.0000 0.0000 0.0000 20.4453
#
#
#
# Elastic Compliance Matrix: (Units=1/GPa)
#
#
# Indices 1 2 3 4 5 6 
#
# 1 0.012783 -0.003030 -0.002418 0.000000 0.000000 0.000000
# 2 -0.003030 0.010160 -0.002116 0.000000 0.000000 0.000000
# 3 -0.002418 -0.002116 0.013706 0.000000 0.000000 0.000000
# 4 0.000000 0.000000 0.000000 0.035704 0.000000 0.000000
# 5 0.000000 0.000000 0.000000 0.000000 0.028597 0.000000
# 6 0.000000 0.000000 0.000000 0.000000 0.000000 0.048911
#
#
# Mechanical properties :
#
#
# Convention : Reuss Voigt Hill
#
# Bulk Modulus (GPa) = 46.46704 47.85107 47.15906
# Shear Modulus (GPa) = 29.04216 30.52668 29.78442
#
# Velocity S-wave (km/s) = 3.77061 3.86578 3.81849
# Velocity P-wave (km/s) = 6.45791 6.58415 6.52134
#
# Compressibility (1/GPa) = 0.02152063
#
# Stress axis : x y z
#
# Youngs Moduli (GPa) = 78.23149 98.42104 72.95939
#
# Poissons Ratio (x) = 0.29819 0.17644
# Poissons Ratio (y) = 0.23702 0.15440
# Poissons Ratio (z) = 0.18919 0.20829
#
# Static dielectric constant tensor:
#      x y z
#    x 3.597970 0.000000 0.000000 
#    y 0.000000 3.942630 0.000000 
#    z 0.000000 0.000000 3.700620 
# 
# 
# High freq. dielectric constant tensor:
#      x y z
#    x 1.786870 0.000000 0.000000 
#    y 0.000000 1.810490 0.000000 
#    z 0.000000 0.000000 1.797250 
# 
# From -- ./inp_files/16187.got.cif
#   From: 2010.03.12/outbox.cif.g09.slc.cpg/sg44_9_cif.got.tgz:16187.got - 2010.04.14 02:36:11.
