data_PCOD8188092
_publ_section_title
;
Structure prediction by ZEFSAII (Michael W. Deem and Ramdas Pophale) SiO2 
 PCOD8188092
Probable space group: I M M 2
;
_chemical_formula_sum "Si O2"
_cell_formula_units_Z 64
_cell_length_a 9.093186
_cell_length_b 14.286310
_cell_length_c 28.774793
_cell_angle_alpha 90.000000
_cell_angle_beta 90.000000
_cell_angle_gamma 90.000000
_cell_volume 3738.077941
_symmetry_space_group_name_H-M "I M M 2"
_symmetry_group_IT_number 44
_symmetry_cell_setting 'orthorhombic'
loop_
_space_group_symop_operation_xyz
x,y,z
-x,-y,z
-x,y,z
x,-y,z
1/2+x,1/2+y,1/2+z
1/2-x,1/2-y,1/2+z
1/2-x,1/2+y,1/2+z
1/2+x,1/2-y,1/2+z
loop_
_atom_site_type_symbol
_atom_site_label
_atom_site_fract_x
_atom_site_fract_y
_atom_site_fract_z
Si Si1 0.668645 0.109818 0.057410
Si Si2 0.174383 0.767911 0.698601
Si Si3 0.674439 0.395400 0.384818
Si Si4 0.170025 0.604080 0.019957
Si Si5 0.328314 0.289108 0.473914
Si Si6 0.174915 0.894906 0.781903
Si Si7 0.827933 0.893791 0.612425
Si Si8 0.327701 0.608244 0.651983
O O1 0.500000 0.141790 0.062982
O O2 0.753423 0.140374 0.103852
O O3 0.682498 0.000000 0.049313
O O4 0.739295 0.158374 0.013310
O O5 0.234155 0.819412 0.744928
O O6 0.223516 0.831625 0.655397
O O7 0.256126 0.668362 0.693743
O O8 0.000000 0.751772 0.700371
O O9 0.500000 0.395520 0.383955
O O10 0.731282 0.500000 0.396981
O O11 0.731893 0.322703 0.423686
O O12 0.731029 0.365707 0.333492
O O13 0.225927 0.500000 0.005264
O O14 0.252730 0.642536 0.065377
O O15 0.000000 0.600560 0.033101
O O16 0.198589 0.677201 0.978057
O O17 0.500000 0.314296 0.479827
O O18 0.000000 0.895861 0.779743
O O19 0.231473 0.000000 0.769905
O O20 0.000000 0.886035 0.604521
O O21 0.779444 0.000000 0.622973
O O22 0.500000 0.627961 0.648430
O O23 0.294104 0.500000 0.662813
#
# Coordination Sequence:
#
# PCOD8188092 Si02
#       8
#     8   8   8   8   8   8   8   8
#     4  10  20  32  46  67  95 122 148 184 230 275
#     4  10  18  28  47  71  92 116 148 187 228 268
#     4   8  14  25  43  68  94 118 148 186 225 269
#     4   9  18  30  41  57  85 119 151 184 222 259
#     4  10  18  28  46  68  90 121 159 193 225 267
#     4   8  14  26  45  70  98 123 147 180 225 275
#     4   9  17  28  42  63  90 117 145 177 216 266
#     4  10  21  35  48  63  88 123 158 189 223 267
#
# _framework density 17.121098
#
# number of rings (size 3 to 8) (size 9 to 14) (size 15 to 20)
#    0.000    2.750    0.000    3.000    0.000    6.500 
#    0.000    0.000    0.000    2.625    0.000    5.250 
#    0.000    2.000    0.000    0.000    0.000    0.000 
#
# Total GULP energy -396694.371208 kJ/mol
# GULP energy per Si atom -12396.699100 kJ/mol
# Density = 1.708213 g / cm^3
# Si number density = 17.121098 Si / 1000 Ang^3
#
#
#
# Elastic Constant Matrix: (Units=GPa)
#
#
# Indices 1 2 3 4 5 6 
#
# 1 41.2518 34.2124 34.1617 0.0000 0.0000 0.0000
# 2 34.2124 92.7678 87.2786 0.0000 0.0000 0.0000
# 3 34.1617 87.2786 134.1292 0.0000 0.0000 0.0000
# 4 0.0000 0.0000 0.0000 32.2535 0.0000 0.0000
# 5 0.0000 0.0000 0.0000 0.0000 16.7781 0.0000
# 6 0.0000 0.0000 0.0000 0.0000 0.0000 21.5783
#
#
#
# Elastic Compliance Matrix: (Units=1/GPa)
#
#
# Indices 1 2 3 4 5 6 
#
# 1 0.035015 -0.011663 -0.001329 0.000000 0.000000 0.000000
# 2 -0.011663 0.031682 -0.017645 0.000000 0.000000 0.000000
# 3 -0.001329 -0.017645 0.019276 0.000000 0.000000 0.000000
# 4 0.000000 0.000000 0.000000 0.031004 0.000000 0.000000
# 5 0.000000 0.000000 0.000000 0.000000 0.059601 0.000000
# 6 0.000000 0.000000 0.000000 0.000000 0.000000 0.046343
#
#
# Mechanical properties :
#
#
# Convention : Reuss Voigt Hill
#
# Bulk Modulus (GPa) = 40.48860 64.38379 52.43619
# Shear Modulus (GPa) = 17.09825 21.62171 19.35998
#
# Velocity S-wave (km/s) = 3.16360 3.55754 3.36634
# Velocity P-wave (km/s) = 6.08639 7.38657 6.76777
#
# Compressibility (1/GPa) = 0.02469831
#
# Stress axis : x y z
#
# Youngs Moduli (GPa) = 28.55954 31.56373 51.87894
#
# Poissons Ratio (x) = 0.36813 0.06893
# Poissons Ratio (y) = 0.33310 0.91541
# Poissons Ratio (z) = 0.03795 0.55694
#
# Static dielectric constant tensor:
#      x y z
#    x 2.953740 0.000000 0.000000 
#    y 0.000000 3.439800 0.000000 
#    z 0.000000 0.000000 3.358450 
# 
# 
# High freq. dielectric constant tensor:
#      x y z
#    x 1.633910 0.000000 0.000000 
#    y 0.000000 1.664750 0.000000 
#    z 0.000000 0.000000 1.644680 
# 
# From -- ./inp_files/27310.got.cif
#   From: 2010.03.12/outbox.cif.g09.slc.cpg/sg44_14_cif.got.tgz:27310.got - 2010.04.14 02:36:11.
