data_PCOD8188931
_publ_section_title
;
Structure prediction by ZEFSAII (Michael W. Deem and Ramdas Pophale) SiO2 
 PCOD8188931
Probable space group: I M M 2
;
_chemical_formula_sum "Si O2"
_cell_formula_units_Z 56
_cell_length_a 22.385946
_cell_length_b 8.735673
_cell_length_c 14.402966
_cell_angle_alpha 90.000000
_cell_angle_beta 90.000000
_cell_angle_gamma 90.000000
_cell_volume 2816.590798
_symmetry_space_group_name_H-M "I M M 2"
_symmetry_group_IT_number 44
_symmetry_cell_setting 'orthorhombic'
loop_
_space_group_symop_operation_xyz
x,y,z
-x,-y,z
-x,y,z
x,-y,z
1/2+x,1/2+y,1/2+z
1/2-x,1/2-y,1/2+z
1/2-x,1/2+y,1/2+z
1/2+x,1/2-y,1/2+z
loop_
_atom_site_type_symbol
_atom_site_label
_atom_site_fract_x
_atom_site_fract_y
_atom_site_fract_z
Si Si1 0.116552 0.176817 0.270380
Si Si2 0.714981 0.678859 0.461869
Si Si3 0.659212 0.324361 0.965178
Si Si4 0.500000 0.318038 0.666481
Si Si5 0.111068 0.678735 0.849682
Si Si6 0.785315 0.323172 0.154343
Si Si7 0.852908 0.824265 0.669561
Si Si8 0.000000 0.181142 0.955342
O O1 0.111379 0.195600 0.382243
O O2 0.173935 0.272838 0.239690
O O3 0.057866 0.244881 0.221073
O O4 0.126032 0.000000 0.243287
O O5 0.704694 0.500000 0.445886
O O6 0.783733 0.719774 0.444398
O O7 0.674806 0.769436 0.388623
O O8 0.695176 0.723969 0.565500
O O9 0.682081 0.500000 0.972979
O O10 0.628812 0.279824 0.063611
O O11 0.500000 0.500000 0.670073
O O12 0.500000 0.256041 0.561226
O O13 0.101554 0.500000 0.862191
O O14 0.109216 0.720688 0.740341
O O15 0.058754 0.763133 0.903879
O O16 0.795398 0.500000 0.130016
O O17 0.717309 0.291235 0.182594
O O18 0.868168 0.000000 0.691523
O O19 0.000000 0.000000 0.956748
#
# Coordination Sequence:
#
# PCOD8188931 Si02
#       8
#     8   8   8   4   8   8   8   4
#     4  10  19  34  56  81 111 147 186 226 274 330
#     4  11  21  34  55  82 113 149 186 227 280 339
#     4   9  19  35  56  83 114 146 184 231 277 328
#     4   9  20  37  58  83 108 138 179 223 266 323
#     4  12  24  38  57  82 112 147 188 234 283 333
#     4  10  20  34  54  83 116 146 183 231 280 333
#     4   9  19  36  55  80 113 146 182 227 279 335
#     4  11  23  41  62  83 110 146 187 229 276 333
#
# _framework density 19.882192
#
# number of rings (size 3 to 8) (size 9 to 14) (size 15 to 20)
#    0.000    1.857    0.000    5.786    0.000    6.857 
#    0.000    1.786    0.000    2.571    0.000    0.000 
#    0.000    0.000    0.000    0.000    0.000    0.000 
#
# Total GULP energy -347258.607803 kJ/mol
# GULP energy per Si atom -12402.093136 kJ/mol
# Density = 1.983694 g / cm^3
# Si number density = 19.882192 Si / 1000 Ang^3
#
#
#
# Elastic Constant Matrix: (Units=GPa)
#
#
# Indices 1 2 3 4 5 6 
#
# 1 63.9691 27.7516 63.3878 0.0000 0.0000 0.0000
# 2 27.7516 71.4531 35.9133 0.0000 0.0000 0.0000
# 3 63.3878 35.9133 158.9125 0.0000 0.0000 0.0000
# 4 0.0000 0.0000 0.0000 26.4373 0.0000 0.0000
# 5 0.0000 0.0000 0.0000 0.0000 32.3567 0.0000
# 6 0.0000 0.0000 0.0000 0.0000 0.0000 26.1787
#
#
#
# Elastic Compliance Matrix: (Units=1/GPa)
#
#
# Indices 1 2 3 4 5 6 
#
# 1 0.027903 -0.005915 -0.009793 0.000000 0.000000 0.000000
# 2 -0.005915 0.017042 -0.001492 0.000000 0.000000 0.000000
# 3 -0.009793 -0.001492 0.010536 0.000000 0.000000 0.000000
# 4 0.000000 0.000000 0.000000 0.037825 0.000000 0.000000
# 5 0.000000 0.000000 0.000000 0.000000 0.030906 0.000000
# 6 0.000000 0.000000 0.000000 0.000000 0.000000 0.038199
#
#
# Mechanical properties :
#
#
# Convention : Reuss Voigt Hill
#
# Bulk Modulus (GPa) = 47.43604 60.93779 54.18691
# Shear Modulus (GPa) = 24.52912 28.14667 26.33790
#
# Velocity S-wave (km/s) = 3.51625 3.76662 3.64359
# Velocity P-wave (km/s) = 6.35576 7.04504 6.70926
#
# Compressibility (1/GPa) = 0.02108102
#
# Stress axis : x y z
#
# Youngs Moduli (GPa) = 35.83856 58.67704 94.90927
#
# Poissons Ratio (x) = 0.34707 0.92948
# Poissons Ratio (y) = 0.21198 0.14162
# Poissons Ratio (z) = 0.35098 0.08755
#
# Static dielectric constant tensor:
#      x y z
#    x 3.398200 0.000000 0.000000 
#    y 0.000000 3.480540 0.000000 
#    z 0.000000 0.000000 3.905010 
# 
# 
# High freq. dielectric constant tensor:
#      x y z
#    x 1.748110 0.000000 0.000000 
#    y 0.000000 1.765420 0.000000 
#    z 0.000000 0.000000 1.794910 
# 
# From -- ./inp_files/19236.got.cif
#   From: 2010.03.12/outbox.cif.g09.slc.cpg/sg44_10_cif.got.tgz:19236.got - 2010.04.14 02:36:11.
