data_PCOD8188537
_publ_section_title
;
Structure prediction by ZEFSAII (Michael W. Deem and Ramdas Pophale) SiO2 
 PCOD8188537
Probable space group: I M M 2
;
_chemical_formula_sum "Si O2"
_cell_formula_units_Z 64
_cell_length_a 21.867352
_cell_length_b 8.850069
_cell_length_c 15.353444
_cell_angle_alpha 90.000000
_cell_angle_beta 90.000000
_cell_angle_gamma 90.000000
_cell_volume 2971.314771
_symmetry_space_group_name_H-M "I M M 2"
_symmetry_group_IT_number 44
_symmetry_cell_setting 'orthorhombic'
loop_
_space_group_symop_operation_xyz
x,y,z
-x,-y,z
-x,y,z
x,-y,z
1/2+x,1/2+y,1/2+z
1/2-x,1/2-y,1/2+z
1/2-x,1/2+y,1/2+z
1/2+x,1/2-y,1/2+z
loop_
_atom_site_type_symbol
_atom_site_label
_atom_site_fract_x
_atom_site_fract_y
_atom_site_fract_z
Si Si1 0.243637 0.171205 0.610400
Si Si2 0.567193 0.826274 0.200487
Si Si3 0.304763 0.821510 0.278527
Si Si4 0.427751 0.667904 0.696515
Si Si5 0.683260 0.321522 0.456444
Si Si6 0.071222 0.674417 0.367441
Si Si7 0.070230 0.676692 0.021115
Si Si8 0.609230 0.668753 0.036062
O O1 0.239409 0.255278 0.703550
O O2 0.288482 0.259184 0.545808
O O3 0.178041 0.170535 0.567192
O O4 0.267396 0.000000 0.624227
O O5 0.500000 0.803299 0.245840
O O6 0.623706 0.777168 0.261834
O O7 0.576731 0.000000 0.173788
O O8 0.565922 0.730652 0.112029
O O9 0.284910 0.748858 0.370656
O O10 0.295145 0.000000 0.283043
O O11 0.500000 0.661206 0.705117
O O12 0.400991 0.500000 0.679389
O O13 0.400759 0.734008 0.785950
O O14 0.409345 0.779266 0.618706
O O15 0.689938 0.500000 0.453031
O O16 0.612050 0.270675 0.454373
O O17 0.083203 0.500000 0.348959
O O18 0.106850 0.724228 0.452839
O O19 0.000000 0.709653 0.380961
O O20 0.081246 0.500000 0.006489
O O21 0.000000 0.721496 0.003494
O O22 0.587484 0.500000 0.011581
#
# Coordination Sequence:
#
# PCOD8188537 Si02
#       8
#     8   8   8   8   8   8   8   8
#     4  10  22  43  65  87 119 158 204 258 312 366
#     4   9  18  33  55  84 119 159 199 239 292 360
#     4  10  21  40  65  92 125 163 205 255 308 364
#     4   9  17  31  51  76 110 149 190 240 295 350
#     4  12  25  42  66  95 125 161 205 253 307 367
#     4  10  19  30  47  74 111 155 201 247 299 361
#     4  10  21  39  63  90 122 159 198 243 300 365
#     4  10  20  33  52  79 112 151 197 252 305 355
#
# _framework density 21.539285
#
# number of rings (size 3 to 8) (size 9 to 14) (size 15 to 20)
#    0.000    2.000    0.000    3.750    0.000    7.250 
#    2.250    1.250    0.000    0.000    0.000    0.000 
#    0.000    0.000    0.000    0.000    0.000    0.000 
#
# Total GULP energy -396806.943617 kJ/mol
# GULP energy per Si atom -12400.216988 kJ/mol
# Density = 2.149026 g / cm^3
# Si number density = 21.539285 Si / 1000 Ang^3
#
#
#
# Elastic Constant Matrix: (Units=GPa)
#
#
# Indices 1 2 3 4 5 6 
#
# 1 45.6751 30.3056 31.1809 0.0000 0.0000 0.0000
# 2 30.3056 130.6193 53.8138 0.0000 0.0000 0.0000
# 3 31.1809 53.8138 122.9893 0.0000 0.0000 0.0000
# 4 0.0000 0.0000 0.0000 41.2674 0.0000 0.0000
# 5 0.0000 0.0000 0.0000 0.0000 20.3475 0.0000
# 6 0.0000 0.0000 0.0000 0.0000 0.0000 26.6996
#
#
#
# Elastic Compliance Matrix: (Units=1/GPa)
#
#
# Indices 1 2 3 4 5 6 
#
# 1 0.028428 -0.004424 -0.005271 0.000000 0.000000 0.000000
# 2 -0.004424 0.010028 -0.003266 0.000000 0.000000 0.000000
# 3 -0.005271 -0.003266 0.010896 0.000000 0.000000 0.000000
# 4 0.000000 0.000000 0.000000 0.024232 0.000000 0.000000
# 5 0.000000 0.000000 0.000000 0.000000 0.049146 0.000000
# 6 0.000000 0.000000 0.000000 0.000000 0.000000 0.037454
#
#
# Mechanical properties :
#
#
# Convention : Reuss Voigt Hill
#
# Bulk Modulus (GPa) = 42.68221 58.87604 50.77912
# Shear Modulus (GPa) = 25.78431 29.92846 27.85638
#
# Velocity S-wave (km/s) = 3.46364 3.73162 3.60013
# Velocity P-wave (km/s) = 5.98788 6.77940 6.39590
#
# Compressibility (1/GPa) = 0.02342897
#
# Stress axis : x y z
#
# Youngs Moduli (GPa) = 35.17698 99.72238 91.77408
#
# Poissons Ratio (x) = 0.44116 0.48378
# Poissons Ratio (y) = 0.15562 0.29974
# Poissons Ratio (z) = 0.18543 0.32570
#
# Static dielectric constant tensor:
#      x y z
#    x 3.804800 0.000000 0.000000 
#    y 0.000000 4.014620 0.000000 
#    z 0.000000 0.000000 3.883220 
# 
# 
# High freq. dielectric constant tensor:
#      x y z
#    x 1.831630 0.000000 0.000000 
#    y 0.000000 1.852960 0.000000 
#    z 0.000000 0.000000 1.844190 
# 
# From -- ./inp_files/19454.got.cif
#   From: 2010.03.12/outbox.cif.g09.slc.cpg/sg44_10_cif.got.tgz:19454.got - 2010.04.14 02:36:11.
