data_PCOD8188409
_publ_section_title
;
Structure prediction by ZEFSAII (Michael W. Deem and Ramdas Pophale) SiO2 
 PCOD8188409
Probable space group: I M M 2
;
_chemical_formula_sum "Si O2"
_cell_formula_units_Z 40
_cell_length_a 23.044678
_cell_length_b 8.243602
_cell_length_c 10.260679
_cell_angle_alpha 90.000000
_cell_angle_beta 90.000000
_cell_angle_gamma 90.000000
_cell_volume 1949.233027
_symmetry_space_group_name_H-M "I M M 2"
_symmetry_group_IT_number 44
_symmetry_cell_setting 'orthorhombic'
loop_
_space_group_symop_operation_xyz
x,y,z
-x,-y,z
-x,y,z
x,-y,z
1/2+x,1/2+y,1/2+z
1/2-x,1/2-y,1/2+z
1/2-x,1/2+y,1/2+z
1/2+x,1/2-y,1/2+z
loop_
_atom_site_type_symbol
_atom_site_label
_atom_site_fract_x
_atom_site_fract_y
_atom_site_fract_z
Si Si1 0.000000 0.312447 0.114290
Si Si2 0.672934 0.688341 0.957944
Si Si3 0.300184 0.688961 0.465631
Si Si4 0.000000 0.808878 0.826470
Si Si5 0.122691 0.808416 0.727475
Si Si6 0.123950 0.311166 0.194969
O O1 0.941189 0.238169 0.176897
O O2 0.000000 0.500000 0.147910
O O3 0.000000 0.285980 0.960843
O O4 0.657411 0.500000 0.940287
O O5 0.741728 0.708451 0.962013
O O6 0.643856 0.789185 0.842653
O O7 0.646625 0.761324 0.091716
O O8 0.285465 0.500000 0.447579
O O9 0.340027 0.758216 0.348815
O O10 0.332536 0.713486 0.602221
O O11 0.944058 0.755294 0.743662
O O12 0.000000 0.000000 0.857492
O O13 0.128628 0.000000 0.726748
O O14 0.126256 0.500000 0.156587
#
# Coordination Sequence:
#
# PCOD8188409 Si02
#       6
#     4   8   8   4   8   8
#     4  10  22  39  60  86 118 154 198 251 300 348
#     4  11  23  39  58  88 124 159 197 243 301 360
#     4  11  21  38  63  90 117 156 201 245 301 360
#     4  10  18  37  64  86 110 146 194 249 298 356
#     4   9  20  36  59  87 115 145 190 246 296 349
#     4  11  23  40  60  87 122 160 202 249 297 353
#
# _framework density 20.520892
#
# number of rings (size 3 to 8) (size 9 to 14) (size 15 to 20)
#    0.000    1.600    2.000    3.000    0.000    3.200 
#    0.000    6.000    0.000    0.000    0.000    0.000 
#    0.000    0.000    0.000    0.000    0.000    0.000 
#
# Total GULP energy -248074.351425 kJ/mol
# GULP energy per Si atom -12403.717571 kJ/mol
# Density = 2.047419 g / cm^3
# Si number density = 20.520892 Si / 1000 Ang^3
#
#
#
# Elastic Constant Matrix: (Units=GPa)
#
#
# Indices 1 2 3 4 5 6 
#
# 1 168.9893 4.0570 70.9879 0.0000 0.0000 0.0000
# 2 4.0570 28.7116 1.5869 0.0000 0.0000 0.0000
# 3 70.9879 1.5869 153.9375 0.0000 0.0000 0.0000
# 4 0.0000 0.0000 0.0000 25.3576 0.0000 0.0000
# 5 0.0000 0.0000 0.0000 0.0000 0.6327 0.0000
# 6 0.0000 0.0000 0.0000 0.0000 0.0000 20.3887
#
#
#
# Elastic Compliance Matrix: (Units=1/GPa)
#
#
# Indices 1 2 3 4 5 6 
#
# 1 0.007360 -0.000853 -0.003385 0.000000 0.000000 0.000000
# 2 -0.000853 0.034948 0.000033 0.000000 0.000000 0.000000
# 3 -0.003385 0.000033 0.008057 0.000000 0.000000 0.000000
# 4 0.000000 0.000000 0.000000 0.039436 0.000000 0.000000
# 5 0.000000 0.000000 0.000000 0.000000 1.580612 0.000000
# 6 0.000000 0.000000 0.000000 0.000000 0.000000 0.049047
#
#
# Mechanical properties :
#
#
# Convention : Reuss Voigt Hill
#
# Bulk Modulus (GPa) = 23.83530 56.10022 39.96776
# Shear Modulus (GPa) = 2.87050 27.60955 15.24003
#
# Velocity S-wave (km/s) = 1.18400 3.67200 2.72813
# Velocity P-wave (km/s) = 3.67553 6.73614 5.42610
#
# Compressibility (1/GPa) = 0.04195458
#
# Stress axis : x y z
#
# Youngs Moduli (GPa) = 135.86813 28.61405 124.11688
#
# Poissons Ratio (x) = 0.02440 0.42017
# Poissons Ratio (y) = 0.11588 -0.00410
# Poissons Ratio (z) = 0.45995 -0.00095
#
# Static dielectric constant tensor:
#      x y z
#    x 4.094660 0.000000 0.000000 
#    y 0.000000 3.387840 0.000000 
#    z 0.000000 0.000000 3.827790 
# 
# 
# High freq. dielectric constant tensor:
#      x y z
#    x 1.818820 0.000000 0.000000 
#    y 0.000000 1.780970 0.000000 
#    z 0.000000 0.000000 1.806030 
# 
# From -- ./inp_files/9614.got.cif
#   From: 2010.03.12/outbox.cif.g09.slc.cpg/sg44_5_cif.got.tgz:9614.got - 2010.04.14 02:36:11.
