data_PCOD8188434
_publ_section_title
;
Structure prediction by ZEFSAII (Michael W. Deem and Ramdas Pophale) SiO2 
 PCOD8188434
Probable space group: I M M 2
;
_chemical_formula_sum "Si O2"
_cell_formula_units_Z 64
_cell_length_a 18.514526
_cell_length_b 8.670795
_cell_length_c 26.691898
_cell_angle_alpha 90.000000
_cell_angle_beta 90.000000
_cell_angle_gamma 90.000000
_cell_volume 4285.001448
_symmetry_space_group_name_H-M "I M M 2"
_symmetry_group_IT_number 44
_symmetry_cell_setting 'orthorhombic'
loop_
_space_group_symop_operation_xyz
x,y,z
-x,-y,z
-x,y,z
x,-y,z
1/2+x,1/2+y,1/2+z
1/2-x,1/2-y,1/2+z
1/2-x,1/2+y,1/2+z
1/2+x,1/2-y,1/2+z
loop_
_atom_site_type_symbol
_atom_site_label
_atom_site_fract_x
_atom_site_fract_y
_atom_site_fract_z
Si Si1 0.084675 0.821952 0.156540
Si Si2 0.919217 0.317673 0.460004
Si Si3 0.285004 0.821267 0.017638
Si Si4 0.582283 0.318255 0.468333
Si Si5 0.209982 0.320862 0.924610
Si Si6 0.080373 0.816632 0.267820
Si Si7 0.842625 0.179257 0.364640
Si Si8 0.658046 0.821031 0.563998
O O1 0.104566 0.762189 0.212461
O O2 0.130326 0.717665 0.119069
O O3 0.000000 0.799370 0.146258
O O4 0.106323 0.000000 0.148989
O O5 0.917301 0.500000 0.454421
O O6 0.868040 0.268356 0.507155
O O7 0.891316 0.251483 0.407794
O O8 0.000000 0.256750 0.470970
O O9 0.243543 0.724378 0.060651
O O10 0.280812 0.000000 0.032213
O O11 0.243517 0.791058 0.966005
O O12 0.500000 0.262860 0.463885
O O13 0.589053 0.500000 0.461697
O O14 0.626298 0.232832 0.422914
O O15 0.612143 0.272337 0.522948
O O16 0.215368 0.500000 0.940772
O O17 0.256461 0.292712 0.873855
O O18 0.135212 0.752229 0.310301
O O19 0.000000 0.754198 0.280088
O O20 0.078692 0.000000 0.266805
O O21 0.861022 0.000000 0.365424
O O22 0.648264 0.000000 0.552968
#
# Coordination Sequence:
#
# PCOD8188434 Si02
#       8
#     8   8   8   8   8   8   8   8
#     4   9  17  29  43  57  75 102 135 165 192 227
#     4   9  17  27  39  58  82 106 132 161 192 225
#     4   9  16  27  41  54  74 104 133 159 188 227
#     4  10  19  29  41  56  75 102 135 164 190 229
#     4   9  16  25  38  57  80 102 126 159 195 228
#     4   8  14  25  41  59  78 102 133 165 190 217
#     4   9  16  26  41  60  80 105 135 161 189 226
#     4  11  20  28  40  57  78 102 129 163 200 234
#
# _framework density 14.935817
#
# number of rings (size 3 to 8) (size 9 to 14) (size 15 to 20)
#    0.000    2.750    0.000    5.250    0.000    4.500 
#    0.000    0.625    0.000    0.750    0.000    0.000 
#    0.000    1.000    0.000    7.250    0.000    2.125 
#
# Total GULP energy -396468.718933 kJ/mol
# GULP energy per Si atom -12389.647467 kJ/mol
# Density = 1.490182 g / cm^3
# Si number density = 14.935817 Si / 1000 Ang^3
#
#
#
# Elastic Constant Matrix: (Units=GPa)
#
#
# Indices 1 2 3 4 5 6 
#
# 1 114.6073 23.9305 57.4210 0.0000 0.0000 0.0000
# 2 23.9305 30.0054 17.5255 0.0000 0.0000 0.0000
# 3 57.4210 17.5255 84.6024 0.0000 0.0000 0.0000
# 4 0.0000 0.0000 0.0000 16.0473 0.0000 0.0000
# 5 0.0000 0.0000 0.0000 0.0000 27.2871 0.0000
# 6 0.0000 0.0000 0.0000 0.0000 0.0000 17.2465
#
#
#
# Elastic Compliance Matrix: (Units=1/GPa)
#
#
# Indices 1 2 3 4 5 6 
#
# 1 0.014257 -0.006506 -0.008329 0.000000 0.000000 0.000000
# 2 -0.006506 0.040883 -0.004054 0.000000 0.000000 0.000000
# 3 -0.008329 -0.004054 0.018312 0.000000 0.000000 0.000000
# 4 0.000000 0.000000 0.000000 0.062316 0.000000 0.000000
# 5 0.000000 0.000000 0.000000 0.000000 0.036647 0.000000
# 6 0.000000 0.000000 0.000000 0.000000 0.000000 0.057983
#
#
# Mechanical properties :
#
#
# Convention : Reuss Voigt Hill
#
# Bulk Modulus (GPa) = 28.02933 47.44101 37.73517
# Shear Modulus (GPa) = 17.85291 20.80540 19.32915
#
# Velocity S-wave (km/s) = 3.46107 3.73632 3.60133
# Velocity P-wave (km/s) = 5.89740 7.10251 6.52782
#
# Compressibility (1/GPa) = 0.03567691
#
# Stress axis : x y z
#
# Youngs Moduli (GPa) = 70.14261 24.45979 54.60774
#
# Poissons Ratio (x) = 0.15913 0.45480
# Poissons Ratio (y) = 0.45633 0.22135
# Poissons Ratio (z) = 0.58419 0.09915
#
# Static dielectric constant tensor:
#      x y z
#    x 3.373800 0.000000 0.000000 
#    y 0.000000 2.794910 0.000000 
#    z 0.000000 0.000000 2.876530 
# 
# 
# High freq. dielectric constant tensor:
#      x y z
#    x 1.565960 0.000000 0.000000 
#    y 0.000000 1.569540 0.000000 
#    z 0.000000 0.000000 1.536260 
# 
# From -- ./inp_files/26606.got.cif
#   From: 2010.03.12/outbox.cif.g09.slc.cpg/sg44_14_cif.got.tgz:26606.got - 2010.04.14 02:36:11.
