data_PCOD8188827
_publ_section_title
;
Structure prediction by ZEFSAII (Michael W. Deem and Ramdas Pophale) SiO2 
 PCOD8188827
Probable space group: I M M 2
;
_chemical_formula_sum "Si O2"
_cell_formula_units_Z 64
_cell_length_a 9.227274
_cell_length_b 24.774166
_cell_length_c 14.902699
_cell_angle_alpha 90.000000
_cell_angle_beta 90.000000
_cell_angle_gamma 90.000000
_cell_volume 3406.727451
_symmetry_space_group_name_H-M "I M M 2"
_symmetry_group_IT_number 44
_symmetry_cell_setting 'orthorhombic'
loop_
_space_group_symop_operation_xyz
x,y,z
-x,-y,z
-x,y,z
x,-y,z
1/2+x,1/2+y,1/2+z
1/2-x,1/2-y,1/2+z
1/2-x,1/2+y,1/2+z
1/2+x,1/2-y,1/2+z
loop_
_atom_site_type_symbol
_atom_site_label
_atom_site_fract_x
_atom_site_fract_y
_atom_site_fract_z
Si Si1 0.833240 0.327121 0.004750
Si Si2 0.667368 0.938612 0.838616
Si Si3 0.672036 0.614186 0.496157
Si Si4 0.332125 0.778525 0.019449
Si Si5 0.334002 0.759204 0.226357
Si Si6 0.329734 0.561337 0.682896
Si Si7 0.168988 0.346444 0.204464
Si Si8 0.666576 0.867431 0.318308
O O1 0.785762 0.353119 0.099822
O O2 0.000000 0.307514 0.008626
O O3 0.734354 0.276107 0.979657
O O4 0.812739 0.371498 0.926112
O O5 0.500000 0.927847 0.864692
O O6 0.716981 0.900324 0.756506
O O7 0.690323 0.000000 0.806606
O O8 0.767957 0.928373 0.924436
O O9 0.500000 0.619064 0.486551
O O10 0.746551 0.671451 0.476601
O O11 0.718289 0.593696 0.594518
O O12 0.500000 0.782755 0.992398
O O13 0.307952 0.778973 0.125567
O O14 0.500000 0.744514 0.244686
O O15 0.244254 0.705529 0.248847
O O16 0.280051 0.807901 0.288954
O O17 0.500000 0.564432 0.696494
O O18 0.276488 0.500000 0.672756
O O19 0.258207 0.586153 0.771438
O O20 0.000000 0.336231 0.213765
O O21 0.500000 0.875281 0.289553
#
# Coordination Sequence:
#
# PCOD8188827 Si02
#       8
#     8   8   8   8   8   8   8   8
#     4   9  19  35  55  81 114 147 183 226 272 324
#     4  10  22  39  57  79 108 144 188 235 279 325
#     4  11  22  36  56  81 111 145 182 225 275 330
#     4  10  19  33  53  80 113 147 183 219 267 326
#     4   9  18  32  51  78 112 144 176 220 269 320
#     4  10  22  39  57  79 110 147 186 227 273 327
#     4   9  19  36  56  79 108 144 186 227 272 324
#     4  10  20  35  55  82 114 146 183 225 272 323
#
# _framework density 18.786358
#
# number of rings (size 3 to 8) (size 9 to 14) (size 15 to 20)
#    0.000    2.250    1.250    1.125    1.750    3.500 
#    0.000    0.625    0.000    2.250    0.000    0.000 
#    0.000    0.000    0.000    0.000    0.000    0.000 
#
# Total GULP energy -396870.467993 kJ/mol
# GULP energy per Si atom -12402.202125 kJ/mol
# Density = 1.874360 g / cm^3
# Si number density = 18.786358 Si / 1000 Ang^3
#
#
#
# Elastic Constant Matrix: (Units=GPa)
#
#
# Indices 1 2 3 4 5 6 
#
# 1 59.8990 46.2470 31.9236 0.0001 0.0000 0.0000
# 2 46.2470 105.9790 39.9846 0.0001 0.0000 0.0000
# 3 31.9236 39.9846 75.3536 0.0002 -0.0001 0.0000
# 4 0.0001 0.0001 0.0002 28.9510 0.0000 0.0000
# 5 0.0000 0.0000 -0.0001 0.0000 24.5834 0.0000
# 6 0.0000 0.0000 0.0000 0.0000 0.0000 30.3339
#
#
#
# Elastic Compliance Matrix: (Units=1/GPa)
#
#
# Indices 1 2 3 4 5 6 
#
# 1 0.027593 -0.009541 -0.006627 0.000000 0.000000 0.000000
# 2 -0.009541 0.015096 -0.003969 0.000000 0.000000 0.000000
# 3 -0.006627 -0.003969 0.018184 0.000000 0.000000 0.000000
# 4 0.000000 0.000000 0.000000 0.034541 0.000000 0.000000
# 5 0.000000 0.000000 0.000000 0.000000 0.040678 0.000000
# 6 0.000000 0.000000 0.000000 0.000000 0.000000 0.032966
#
#
# Mechanical properties :
#
#
# Convention : Reuss Voigt Hill
#
# Bulk Modulus (GPa) = 48.54233 53.06024 50.80129
# Shear Modulus (GPa) = 23.12682 24.97875 24.05279
#
# Velocity S-wave (km/s) = 3.51243 3.65035 3.58206
# Velocity P-wave (km/s) = 6.50729 6.78764 6.64894
#
# Compressibility (1/GPa) = 0.02060058
#
# Stress axis : x y z
#
# Youngs Moduli (GPa) = 36.24116 66.24054 54.99245
#
# Poissons Ratio (x) = 0.63197 0.36445
# Poissons Ratio (y) = 0.34576 0.21825
# Poissons Ratio (z) = 0.24018 0.26289
#
# Static dielectric constant tensor:
#      x y z
#    x 3.394040 0.000000 0.000000 
#    y 0.000000 3.344340 0.000000 
#    z 0.000000 0.000000 3.543390 
# 
# 
# High freq. dielectric constant tensor:
#      x y z
#    x 1.725060 0.000000 0.000000 
#    y 0.000000 1.717390 0.000000 
#    z 0.000000 0.000000 1.731510 
# 
# From -- ./inp_files/16771.got.cif
#   From: 2010.03.12/outbox.cif.g09.slc.cpg/sg44_9_cif.got.tgz:16771.got - 2010.04.14 02:36:11.
