data_PCOD8188891
_publ_section_title
;
Structure prediction by ZEFSAII (Michael W. Deem and Ramdas Pophale) SiO2 
 PCOD8188891
Probable space group: I M M 2
;
_chemical_formula_sum "Si O2"
_cell_formula_units_Z 56
_cell_length_a 19.918651
_cell_length_b 13.450033
_cell_length_c 11.318761
_cell_angle_alpha 90.000000
_cell_angle_beta 90.000000
_cell_angle_gamma 90.000000
_cell_volume 3032.369794
_symmetry_space_group_name_H-M "I M M 2"
_symmetry_group_IT_number 44
_symmetry_cell_setting 'orthorhombic'
loop_
_space_group_symop_operation_xyz
x,y,z
-x,-y,z
-x,y,z
x,-y,z
1/2+x,1/2+y,1/2+z
1/2-x,1/2-y,1/2+z
1/2-x,1/2+y,1/2+z
1/2+x,1/2-y,1/2+z
loop_
_atom_site_type_symbol
_atom_site_label
_atom_site_fract_x
_atom_site_fract_y
_atom_site_fract_z
Si Si1 0.420529 0.268413 0.701550
Si Si2 0.420529 0.768415 0.430438
Si Si3 0.131978 0.249999 0.565995
Si Si4 0.577197 0.107670 0.881488
Si Si5 0.675202 0.612669 0.861851
Si Si6 0.824798 0.387331 0.770136
Si Si7 0.577197 0.607670 0.250503
O O1 0.500000 0.290838 0.718221
O O2 0.401682 0.249997 0.565994
O O3 0.396530 0.168708 0.768631
O O4 0.378271 0.358405 0.759160
O O5 0.500000 0.790839 0.413766
O O6 0.378272 0.858406 0.372827
O O7 0.396529 0.668709 0.363359
O O8 0.085928 0.330501 0.501112
O O9 0.175549 0.188437 0.472060
O O10 0.175550 0.311562 0.659928
O O11 0.085928 0.169498 0.630879
O O12 0.500000 0.087256 0.863065
O O13 0.614369 0.000000 0.887585
O O14 0.657529 0.500000 0.901501
O O15 0.750000 0.618396 0.815995
O O16 0.842470 0.500000 0.730485
O O17 0.500000 0.587258 0.268928
O O18 0.614368 0.500000 0.244406
#
# Coordination Sequence:
#
# PCOD8188891 Si02
#       7
#     8   8   8   8   8   8   8
#     4   9  19  35  56  81 110 144 183 225 274 324
#     4   9  19  35  56  81 110 144 183 225 274 324
#     4  10  19  34  54  72 103 138 178 218 268 320
#     4   9  17  30  50  77 106 134 168 213 262 315
#     4  10  22  37  55  80 109 143 184 228 277 331
#     4  10  22  37  55  80 109 143 184 228 277 331
#     4   9  17  30  50  77 106 134 168 213 262 315
#
# _framework density 18.467404999999999
#
# number of rings (size 3 to 8) (size 9 to 14) (size 15 to 20)
#    0.000    2.571    0.000    1.286    2.000    2.857 
#    0.000    2.857    0.000    4.286    0.000    0.000 
#    0.000    0.000    0.000    0.000    0.000    0.000 
#
# Total GULP energy -346992.520726 kJ/mol
# GULP energy per Si atom -12392.590026 kJ/mol
# Density = 1.842537 g / cm^3
# Si number density = 18.467405 Si / 1000 Ang^3
#
#
#
# Elastic Constant Matrix: (Units=GPa)
#
#
# Indices 1 2 3 4 5 6 
#
# 1 54.1393 34.2769 27.5474 0.0000 0.0000 0.0000
# 2 34.2769 148.3077 61.7503 0.0000 0.0000 0.0000
# 3 27.5474 61.7503 129.4711 0.0000 0.0000 0.0000
# 4 0.0000 0.0000 0.0000 24.3132 0.0000 0.0000
# 5 0.0000 0.0000 0.0000 0.0000 19.1214 0.0000
# 6 0.0000 0.0000 0.0000 0.0000 0.0000 22.7514
#
#
#
# Elastic Compliance Matrix: (Units=1/GPa)
#
#
# Indices 1 2 3 4 5 6 
#
# 1 0.022463 -0.003995 -0.002874 0.000000 0.000000 0.000000
# 2 -0.003995 0.009124 -0.003502 0.000000 0.000000 0.000000
# 3 -0.002874 -0.003502 0.010005 0.000000 0.000000 0.000000
# 4 0.000000 0.000000 0.000000 0.041130 0.000000 0.000000
# 5 0.000000 0.000000 0.000000 0.000000 0.052297 0.000000
# 6 0.000000 0.000000 0.000000 0.000000 0.000000 0.043953
#
#
# Mechanical properties :
#
#
# Convention : Reuss Voigt Hill
#
# Bulk Modulus (GPa) = 47.95987 64.34084 56.15035
# Shear Modulus (GPa) = 24.19389 27.12677 25.66033
#
# Velocity S-wave (km/s) = 3.62344 3.83678 3.73163
# Velocity P-wave (km/s) = 6.59789 7.38537 7.00271
#
# Compressibility (1/GPa) = 0.02085077
#
# Stress axis : x y z
#
# Youngs Moduli (GPa) = 44.51859 109.60094 99.94701
#
# Poissons Ratio (x) = 0.43785 0.28725
# Poissons Ratio (y) = 0.17785 0.34998
# Poissons Ratio (z) = 0.12795 0.38378
#
# Static dielectric constant tensor:
#      x y z
#    x 3.103130 0.000000 0.000000 
#    y 0.000000 4.226780 0.000000 
#    z 0.000000 0.000000 3.454980 
# 
# 
# High freq. dielectric constant tensor:
#      x y z
#    x 1.690080 0.000000 0.000000 
#    y 0.000000 1.731180 0.000000 
#    z 0.000000 0.000000 1.722280 
# 
# From -- ./inp_files/14323.got.cif
#   From: 2010.03.12/outbox.cif.g09.slc.cpg/sg44_8_cif.got.tgz:14323.got - 2010.04.14 02:36:11.
