data_PCOD8188784
_publ_section_title
;
Structure prediction by ZEFSAII (Michael W. Deem and Ramdas Pophale) SiO2 
 PCOD8188784
Probable space group: I M M 2
;
_chemical_formula_sum "Si O2"
_cell_formula_units_Z 64
_cell_length_a 8.646105
_cell_length_b 24.631602
_cell_length_c 15.096862
_cell_angle_alpha 90.000000
_cell_angle_beta 90.000000
_cell_angle_gamma 90.000000
_cell_volume 3215.139708
_symmetry_space_group_name_H-M "I M M 2"
_symmetry_group_IT_number 44
_symmetry_cell_setting 'orthorhombic'
loop_
_space_group_symop_operation_xyz
x,y,z
-x,-y,z
-x,y,z
x,-y,z
1/2+x,1/2+y,1/2+z
1/2-x,1/2-y,1/2+z
1/2-x,1/2+y,1/2+z
1/2+x,1/2-y,1/2+z
loop_
_atom_site_type_symbol
_atom_site_label
_atom_site_fract_x
_atom_site_fract_y
_atom_site_fract_z
Si Si1 0.181184 0.785524 0.494190
Si Si2 0.322636 0.131457 0.203046
Si Si3 0.322350 0.438030 0.201342
Si Si4 0.676658 0.235519 0.312597
Si Si5 0.318279 0.151897 0.821765
Si Si6 0.683030 0.834273 0.018139
Si Si7 0.178158 0.062955 0.352994
Si Si8 0.679806 0.104975 0.530428
O O1 0.215479 0.788758 0.389526
O O2 0.243044 0.727568 0.528754
O O3 0.273418 0.832424 0.545639
O O4 0.000000 0.794541 0.510272
O O5 0.500000 0.111577 0.210812
O O6 0.309295 0.194503 0.230716
O O7 0.260566 0.129187 0.101086
O O8 0.216951 0.092177 0.260893
O O9 0.500000 0.420884 0.210974
O O10 0.296252 0.500000 0.230596
O O11 0.219969 0.400688 0.264682
O O12 0.272124 0.432210 0.099371
O O13 0.500000 0.239023 0.346337
O O14 0.733148 0.295132 0.282231
O O15 0.500000 0.163232 0.818772
O O16 0.262213 0.141596 0.923538
O O17 0.500000 0.831559 0.020888
O O18 0.282519 0.086970 0.430901
O O19 0.000000 0.073140 0.377376
O O20 0.215608 0.000000 0.340652
O O21 0.500000 0.097566 0.548781
#
# Coordination Sequence:
#
# PCOD8188784 Si02
#       8
#     8   8   8   8   8   8   8   8
#     4  10  19  34  57  84 121 162 197 238 293 353
#     4  10  20  36  59  87 119 157 201 246 294 349
#     4  11  25  44  64  86 115 154 201 252 307 364
#     4  10  19  32  55  87 122 157 196 243 294 351
#     4  10  21  39  62  87 119 157 200 250 302 357
#     4   8  18  36  58  86 119 156 196 240 292 348
#     4  11  24  41  60  84 118 160 202 246 300 358
#     4  12  24  38  59  90 121 154 197 243 297 362
#
# _framework density 19.905822000000001
#
# number of rings (size 3 to 8) (size 9 to 14) (size 15 to 20)
#    0.000    1.750    1.250    4.125    1.750    4.000 
#    0.000    4.375    0.000    3.750    0.000    0.000 
#    0.000    0.000    0.000    0.000    0.000    0.000 
#
# Total GULP energy -396841.219745 kJ/mol
# GULP energy per Si atom -12401.288117 kJ/mol
# Density = 1.986052 g / cm^3
# Si number density = 19.905822 Si / 1000 Ang^3
#
#
#
# Elastic Constant Matrix: (Units=GPa)
#
#
# Indices 1 2 3 4 5 6 
#
# 1 53.2095 25.6394 10.4932 0.0002 0.0000 0.0000
# 2 25.6394 88.1128 34.8754 -0.0001 0.0000 0.0000
# 3 10.4932 34.8754 84.9352 0.0004 0.0001 -0.0002
# 4 0.0002 -0.0001 0.0004 30.4102 0.0000 0.0000
# 5 0.0000 0.0000 0.0001 0.0000 26.1520 0.0000
# 6 0.0000 0.0000 -0.0002 0.0000 0.0000 27.6766
#
#
#
# Elastic Compliance Matrix: (Units=1/GPa)
#
#
# Indices 1 2 3 4 5 6 
#
# 1 0.021859 -0.006319 -0.000106 0.000000 0.000000 0.000000
# 2 -0.006319 0.015378 -0.005534 0.000000 0.000000 0.000000
# 3 -0.000106 -0.005534 0.014059 0.000000 0.000000 0.000000
# 4 0.000000 0.000000 0.000000 0.032884 0.000000 0.000000
# 5 0.000000 0.000000 0.000000 0.000000 0.038238 0.000000
# 6 0.000000 0.000000 0.000000 0.000000 0.000000 0.036132
#
#
# Mechanical properties :
#
#
# Convention : Reuss Voigt Hill
#
# Bulk Modulus (GPa) = 36.52398 40.91929 38.72163
# Shear Modulus (GPa) = 26.09697 27.19772 26.64734
#
# Velocity S-wave (km/s) = 3.62473 3.70039 3.66275
# Velocity P-wave (km/s) = 5.99220 6.23364 6.11411
#
# Compressibility (1/GPa) = 0.02737927
#
# Stress axis : x y z
#
# Youngs Moduli (GPa) = 45.74712 65.02782 71.12872
#
# Poissons Ratio (x) = 0.41089 0.00754
# Poissons Ratio (y) = 0.28906 0.39361
# Poissons Ratio (z) = 0.00485 0.35985
#
# Static dielectric constant tensor:
#      x y z
#    x 3.541230 0.000000 0.000000 
#    y 0.000000 3.597560 0.000000 
#    z 0.000000 0.000000 3.689120 
# 
# 
# High freq. dielectric constant tensor:
#      x y z
#    x 1.771970 0.000000 0.000000 
#    y 0.000000 1.768660 0.000000 
#    z 0.000000 0.000000 1.773920 
# 
# From -- ./inp_files/16863.got.cif
#   From: 2010.03.12/outbox.cif.g09.slc.cpg/sg44_9_cif.got.tgz:16863.got - 2010.04.14 02:36:11.
