data_PCOD8188195
_publ_section_title
;
Structure prediction by ZEFSAII (Michael W. Deem and Ramdas Pophale) SiO2 
 PCOD8188195
Probable space group: I M M 2
;
_chemical_formula_sum "Si O2"
_cell_formula_units_Z 64
_cell_length_a 19.756486
_cell_length_b 9.441586
_cell_length_c 20.737076
_cell_angle_alpha 90.000000
_cell_angle_beta 90.000000
_cell_angle_gamma 90.000000
_cell_volume 3868.139907
_symmetry_space_group_name_H-M "I M M 2"
_symmetry_group_IT_number 44
_symmetry_cell_setting 'orthorhombic'
loop_
_space_group_symop_operation_xyz
x,y,z
-x,-y,z
-x,y,z
x,-y,z
1/2+x,1/2+y,1/2+z
1/2-x,1/2-y,1/2+z
1/2-x,1/2+y,1/2+z
1/2+x,1/2-y,1/2+z
loop_
_atom_site_type_symbol
_atom_site_label
_atom_site_fract_x
_atom_site_fract_y
_atom_site_fract_z
Si Si1 0.695581 0.662961 0.029350
Si Si2 0.695582 0.662961 0.885750
Si Si3 0.576873 0.163600 0.834922
Si Si4 0.783987 0.332494 0.766048
Si Si5 0.923126 0.336404 0.580179
Si Si6 0.783988 0.332493 0.149051
Si Si7 0.572967 0.832652 0.689564
Si Si8 0.572966 0.167346 0.225536
O O1 0.677726 0.500000 0.041768
O O2 0.626201 0.749153 0.034297
O O3 0.750896 0.714855 0.081518
O O4 0.725789 0.685883 0.957550
O O5 0.677724 0.500000 0.873334
O O6 0.626203 0.749158 0.880803
O O7 0.750897 0.714850 0.833583
O O8 0.500000 0.185350 0.858805
O O9 0.585492 0.222480 0.762195
O O10 0.597908 0.000000 0.839149
O O11 0.776469 0.500000 0.753270
O O12 0.750001 0.249996 0.707551
O O13 0.863544 0.287693 0.769935
O O14 0.902083 0.500000 0.575953
O O15 0.914511 0.277516 0.652905
O O16 0.000000 0.314671 0.556294
O O17 0.776473 0.500000 0.161827
O O18 0.863543 0.287686 0.145166
O O19 0.500000 0.773059 0.663552
O O20 0.567119 0.000000 0.693312
O O21 0.500000 0.226931 0.251550
O O22 0.567120 0.000000 0.221779
#
# Coordination Sequence:
#
# PCOD8188195 Si02
#       8
#     8   8   8   8   8   8   8   8
#     4  10  21  33  44  65  98 130 154 183 231 283
#     4  10  21  33  44  65  98 130 154 183 231 283
#     4   9  17  30  48  69  92 120 158 197 227 264
#     4  10  18  30  50  70  90 119 154 192 228 270
#     4   9  17  30  48  69  92 120 158 197 227 264
#     4  10  18  30  50  70  90 119 154 192 228 270
#     4   8  14  26  46  70  91 112 144 189 234 267
#     4   8  14  26  46  70  91 112 144 189 234 267
#
# _framework density 16.545421000000001
#
# number of rings (size 3 to 8) (size 9 to 14) (size 15 to 20)
#    0.000    2.750    2.500    1.500    0.000    1.500 
#    0.000    2.500    0.000    1.500    0.000    5.250 
#    0.000    0.000    0.000    4.500    0.000    5.000 
#
# Total GULP energy -396563.978513 kJ/mol
# GULP energy per Si atom -12392.624329 kJ/mol
# Density = 1.650776 g / cm^3
# Si number density = 16.545421 Si / 1000 Ang^3
#
#
#
# Elastic Constant Matrix: (Units=GPa)
#
#
# Indices 1 2 3 4 5 6 
#
# 1 132.4182 33.8174 67.2844 0.0000 0.0000 0.0000
# 2 33.8174 31.5978 31.2421 0.0000 0.0000 0.0000
# 3 67.2844 31.2421 102.9427 0.0000 0.0000 0.0000
# 4 0.0000 0.0000 0.0000 17.2948 0.0000 0.0000
# 5 0.0000 0.0000 0.0000 0.0000 22.4138 0.0000
# 6 0.0000 0.0000 0.0000 0.0000 0.0000 20.5815
#
#
#
# Elastic Compliance Matrix: (Units=1/GPa)
#
#
# Indices 1 2 3 4 5 6 
#
# 1 0.012449 -0.007542 -0.005848 0.000000 0.000000 0.000000
# 2 -0.007542 0.049784 -0.010180 0.000000 0.000000 0.000000
# 3 -0.005848 -0.010180 0.016626 0.000000 0.000000 0.000000
# 4 0.000000 0.000000 0.000000 0.057821 0.000000 0.000000
# 5 0.000000 0.000000 0.000000 0.000000 0.044615 0.000000
# 6 0.000000 0.000000 0.000000 0.000000 0.000000 0.048587
#
#
# Mechanical properties :
#
#
# Convention : Reuss Voigt Hill
#
# Bulk Modulus (GPa) = 31.52526 59.07183 45.29854
# Shear Modulus (GPa) = 17.38547 21.03233 19.20890
#
# Velocity S-wave (km/s) = 3.24508 3.56924 3.41101
# Velocity P-wave (km/s) = 5.75637 7.26404 6.55371
#
# Compressibility (1/GPa) = 0.03172060
#
# Stress axis : x y z
#
# Youngs Moduli (GPa) = 80.32473 20.08663 60.14621
#
# Poissons Ratio (x) = 0.15148 0.35175
# Poissons Ratio (y) = 0.60577 0.61228
# Poissons Ratio (z) = 0.46977 0.20448
#
# Static dielectric constant tensor:
#      x y z
#    x 3.634720 0.000000 0.000000 
#    y 0.000000 2.861090 0.000000 
#    z 0.000000 0.000000 3.031610 
# 
# 
# High freq. dielectric constant tensor:
#      x y z
#    x 1.644790 0.000000 0.000000 
#    y 0.000000 1.610110 0.000000 
#    z 0.000000 0.000000 1.613150 
# 
# From -- ./inp_files/9113.got.cif
#   From: 2010.03.12/outbox.cif.g09.slc.cpg/sg44_5_cif.got.tgz:9113.got - 2010.04.14 02:36:11.
