data_PCOD8188054
_publ_section_title
;
Structure prediction by ZEFSAII (Michael W. Deem and Ramdas Pophale) SiO2 
 PCOD8188054
Probable space group: I M M 2
;
_chemical_formula_sum "Si O2"
_cell_formula_units_Z 64
_cell_length_a 8.914233
_cell_length_b 26.301132
_cell_length_c 18.543274
_cell_angle_alpha 90.000000
_cell_angle_beta 90.000000
_cell_angle_gamma 90.000000
_cell_volume 4347.552529
_symmetry_space_group_name_H-M "I M M 2"
_symmetry_group_IT_number 44
_symmetry_cell_setting 'orthorhombic'
loop_
_space_group_symop_operation_xyz
x,y,z
-x,-y,z
-x,y,z
x,-y,z
1/2+x,1/2+y,1/2+z
1/2-x,1/2-y,1/2+z
1/2-x,1/2+y,1/2+z
1/2+x,1/2-y,1/2+z
loop_
_atom_site_type_symbol
_atom_site_label
_atom_site_fract_x
_atom_site_fract_y
_atom_site_fract_z
Si Si1 0.324326 0.698351 0.804400
Si Si2 0.674878 0.706304 0.375270
Si Si3 0.174133 0.557831 0.162503
Si Si4 0.323902 0.147635 0.763595
Si Si5 0.674884 0.441195 0.014490
Si Si6 0.677251 0.243412 0.671281
Si Si7 0.325556 0.239712 0.512824
Si Si8 0.677458 0.142662 0.423900
O O1 0.500000 0.688335 0.814247
O O2 0.279665 0.750869 0.841522
O O3 0.280980 0.706794 0.719715
O O4 0.234979 0.652024 0.841793
O O5 0.500000 0.715756 0.357092
O O6 0.733518 0.653601 0.339734
O O7 0.700048 0.710474 0.461974
O O8 0.212826 0.500000 0.184224
O O9 0.218411 0.593070 0.230022
O O10 0.000000 0.564604 0.142735
O O11 0.266154 0.575630 0.092784
O O12 0.500000 0.152002 0.779462
O O13 0.266803 0.191127 0.708191
O O14 0.500000 0.429751 0.010908
O O15 0.712625 0.500000 0.000683
O O16 0.757272 0.410134 0.952053
O O17 0.500000 0.240138 0.664857
O O18 0.750473 0.248476 0.591293
O O19 0.500000 0.230043 0.524621
O O20 0.262041 0.188794 0.474345
O O21 0.500000 0.139739 0.422337
#
# Coordination Sequence:
#
# PCOD8188054 Si02
#       8
#     8   8   8   8   8   8   8   8
#     4   9  16  26  40  57  78 103 131 165 203 240
#     4   9  16  25  38  56  78 104 134 167 199 235
#     4   9  17  29  44  60  78 104 139 173 203 239
#     4   9  16  26  40  56  77 106 135 163 199 242
#     4  10  20  31  42  59  83 107 133 169 207 238
#     4   8  13  22  37  55  75 101 130 158 192 234
#     4   8  14  24  38  57  78 101 132 165 195 231
#     4  10  18  28  43  59  79 109 140 167 196 236
#
# _framework density 14.720926
#
# number of rings (size 3 to 8) (size 9 to 14) (size 15 to 20)
#    0.000    3.000    0.000    3.750    0.000    3.250 
#    0.000    0.000    0.000   14.250    0.000    0.000 
#    0.000    1.000    0.000    9.250    0.000    1.875 
#
# Total GULP energy -396495.531846 kJ/mol
# GULP energy per Si atom -12390.485370 kJ/mol
# Density = 1.468742 g / cm^3
# Si number density = 14.720926 Si / 1000 Ang^3
#
#
#
# Elastic Constant Matrix: (Units=GPa)
#
#
# Indices 1 2 3 4 5 6 
#
# 1 43.8870 27.1498 28.8550 0.0000 0.0000 0.0000
# 2 27.1498 64.6795 45.3618 0.0000 0.0000 0.0000
# 3 28.8550 45.3618 97.8498 -0.0001 0.0000 0.0000
# 4 0.0000 0.0000 -0.0001 27.0582 0.0000 0.0000
# 5 0.0000 0.0000 0.0000 0.0000 20.3121 0.0000
# 6 0.0000 0.0000 0.0000 0.0000 0.0000 18.3805
#
#
#
# Elastic Compliance Matrix: (Units=1/GPa)
#
#
# Indices 1 2 3 4 5 6 
#
# 1 0.032225 -0.010168 -0.004789 0.000000 0.000000 0.000000
# 2 -0.010168 0.026118 -0.009109 0.000000 0.000000 0.000000
# 3 -0.004789 -0.009109 0.015855 0.000000 0.000000 0.000000
# 4 0.000000 0.000000 0.000000 0.036957 0.000000 0.000000
# 5 0.000000 0.000000 0.000000 0.000000 0.049232 0.000000
# 6 0.000000 0.000000 0.000000 0.000000 0.000000 0.054405
#
#
# Mechanical properties :
#
#
# Convention : Reuss Voigt Hill
#
# Bulk Modulus (GPa) = 38.36611 45.46105 41.91358
# Shear Modulus (GPa) = 18.40859 20.15349 19.28104
#
# Velocity S-wave (km/s) = 3.54008 3.70406 3.62300
# Velocity P-wave (km/s) = 6.54435 7.01729 6.78494
#
# Compressibility (1/GPa) = 0.02606467
#
# Stress axis : x y z
#
# Youngs Moduli (GPa) = 31.03212 38.28844 63.07177
#
# Poissons Ratio (x) = 0.38931 0.30206
# Poissons Ratio (y) = 0.31553 0.57454
# Poissons Ratio (z) = 0.14862 0.34878
#
# Static dielectric constant tensor:
#      x y z
#    x 2.784660 0.000000 0.000000 
#    y 0.000000 2.764550 0.000000 
#    z 0.000000 0.000000 3.250580 
# 
# 
# High freq. dielectric constant tensor:
#      x y z
#    x 1.555770 0.000000 0.000000 
#    y 0.000000 1.527970 0.000000 
#    z 0.000000 0.000000 1.555480 
# 
# From -- ./inp_files/20896.got.cif
#   From: 2010.03.12/outbox.cif.g09.slc.cpg/sg44_11_cif.got.tgz:20896.got - 2010.04.14 02:36:11.
