data_PCOD8188342
_publ_section_title
;
Structure prediction by ZEFSAII (Michael W. Deem and Ramdas Pophale) SiO2 
 PCOD8188342
Probable space group: I M M 2
;
_chemical_formula_sum "Si O2"
_cell_formula_units_Z 48
_cell_length_a 8.851981
_cell_length_b 14.538534
_cell_length_c 20.316767
_cell_angle_alpha 90.000000
_cell_angle_beta 90.000000
_cell_angle_gamma 90.000000
_cell_volume 2614.662809
_symmetry_space_group_name_H-M "I M M 2"
_symmetry_group_IT_number 44
_symmetry_cell_setting 'orthorhombic'
loop_
_space_group_symop_operation_xyz
x,y,z
-x,-y,z
-x,y,z
x,-y,z
1/2+x,1/2+y,1/2+z
1/2-x,1/2-y,1/2+z
1/2-x,1/2+y,1/2+z
1/2+x,1/2-y,1/2+z
loop_
_atom_site_type_symbol
_atom_site_label
_atom_site_fract_x
_atom_site_fract_y
_atom_site_fract_z
Si Si1 0.320744 0.500000 0.674070
Si Si2 0.678154 0.500000 0.824104
Si Si3 0.321595 0.500000 0.220512
Si Si4 0.676342 0.819418 0.377238
Si Si5 0.820917 0.195315 0.759088
Si Si6 0.172485 0.500000 0.082658
Si Si7 0.326564 0.196344 0.526300
Si Si8 0.678245 0.186429 0.135915
O O1 0.500000 0.500000 0.671256
O O2 0.259682 0.500000 0.749226
O O3 0.259007 0.588353 0.635783
O O4 0.500000 0.500000 0.823328
O O5 0.734215 0.588240 0.863119
O O6 0.500000 0.500000 0.227528
O O7 0.253854 0.591735 0.254762
O O8 0.283718 0.500000 0.143922
O O9 0.500000 0.841015 0.367352
O O10 0.732888 0.740346 0.327264
O O11 0.710596 0.783255 0.450249
O O12 0.759459 0.254958 0.697844
O O13 0.000000 0.191311 0.754444
O O14 0.206883 0.411019 0.038584
O O15 0.000000 0.500000 0.107987
O O16 0.500000 0.220168 0.543032
O O17 0.218548 0.260332 0.569242
O O18 0.500000 0.171512 0.139876
#
# Coordination Sequence:
#
# PCOD8188342 Si02
#       8
#     4   4   4   8   8   4   8   8
#     4  11  23  38  57  85 117 147 185 238 291 340
#     4  11  22  34  54  86 116 144 182 240 296 334
#     4  10  18  33  54  81 107 133 178 230 273 319
#     4  10  20  37  57  79 112 153 191 227 276 345
#     4   9  18  32  55  81 106 142 188 230 269 323
#     4  10  19  31  49  78 110 142 177 218 276 337
#     4  10  21  36  55  81 115 151 186 230 283 336
#     4  11  21  36  59  84 111 149 191 233 279 334
#
# _framework density 18.358008000000002
#
# number of rings (size 3 to 8) (size 9 to 14) (size 15 to 20)
#    0.000    1.833    3.333    1.500    0.000    2.667 
#    0.000    2.500    0.000    3.000    0.000    0.000 
#    0.000    0.000    0.000    0.000    0.000    0.000 
#
# Total GULP energy -297661.573352 kJ/mol
# GULP energy per Si atom -12402.565556 kJ/mol
# Density = 1.831622 g / cm^3
# Si number density = 18.358008 Si / 1000 Ang^3
#
#
#
# Elastic Constant Matrix: (Units=GPa)
#
#
# Indices 1 2 3 4 5 6 
#
# 1 43.7217 31.9166 26.6148 0.0000 0.0000 0.0000
# 2 31.9166 148.2120 61.2682 0.0000 0.0000 0.0000
# 3 26.6148 61.2682 124.2407 0.0000 0.0000 0.0000
# 4 0.0000 0.0000 0.0000 21.3252 0.0000 0.0000
# 5 0.0000 0.0000 0.0000 0.0000 26.4059 0.0000
# 6 0.0000 0.0000 0.0000 0.0000 0.0000 22.5789
#
#
#
# Elastic Compliance Matrix: (Units=1/GPa)
#
#
# Indices 1 2 3 4 5 6 
#
# 1 0.028549 -0.004547 -0.003874 0.000000 0.000000 0.000000
# 2 -0.004547 0.009199 -0.003562 0.000000 0.000000 0.000000
# 3 -0.003874 -0.003562 0.010635 0.000000 0.000000 0.000000
# 4 0.000000 0.000000 0.000000 0.046893 0.000000 0.000000
# 5 0.000000 0.000000 0.000000 0.000000 0.037870 0.000000
# 6 0.000000 0.000000 0.000000 0.000000 0.000000 0.044289
#
#
# Mechanical properties :
#
#
# Convention : Reuss Voigt Hill
#
# Bulk Modulus (GPa) = 40.95325 61.75260 51.35293
# Shear Modulus (GPa) = 23.86181 27.15366 25.50774
#
# Velocity S-wave (km/s) = 3.60919 3.85010 3.73159
# Velocity P-wave (km/s) = 6.30277 7.31269 6.82643
#
# Compressibility (1/GPa) = 0.02441808
#
# Stress axis : x y z
#
# Youngs Moduli (GPa) = 35.02758 108.71022 94.02531
#
# Poissons Ratio (x) = 0.49426 0.36422
# Poissons Ratio (y) = 0.15925 0.33495
# Poissons Ratio (z) = 0.13568 0.38726
#
# Static dielectric constant tensor:
#      x y z
#    x 3.168300 0.000000 0.000000 
#    y 0.000000 3.809680 0.000000 
#    z 0.000000 0.000000 3.384880 
# 
# 
# High freq. dielectric constant tensor:
#      x y z
#    x 1.693260 0.000000 0.000000 
#    y 0.000000 1.718390 0.000000 
#    z 0.000000 0.000000 1.708130 
# 
# From -- ./inp_files/20372.got.cif
#   From: 2010.03.12/outbox.cif.g09.slc.cpg/sg44_11_cif.got.tgz:20372.got - 2010.04.14 02:36:11.
