data_PCOD8188034
_publ_section_title
;
Structure prediction by ZEFSAII (Michael W. Deem and Ramdas Pophale) SiO2 
 PCOD8188034
Probable space group: I M M 2
;
_chemical_formula_sum "Si O2"
_cell_formula_units_Z 56
_cell_length_a 31.634604
_cell_length_b 9.172615
_cell_length_c 13.898205
_cell_angle_alpha 90.000000
_cell_angle_beta 90.000000
_cell_angle_gamma 90.000000
_cell_volume 4032.870541
_symmetry_space_group_name_H-M "I M M 2"
_symmetry_group_IT_number 44
_symmetry_cell_setting 'orthorhombic'
loop_
_space_group_symop_operation_xyz
x,y,z
-x,-y,z
-x,y,z
x,-y,z
1/2+x,1/2+y,1/2+z
1/2-x,1/2-y,1/2+z
1/2-x,1/2+y,1/2+z
1/2+x,1/2-y,1/2+z
loop_
_atom_site_type_symbol
_atom_site_label
_atom_site_fract_x
_atom_site_fract_y
_atom_site_fract_z
Si Si1 0.230228 0.329830 0.247640
Si Si2 0.380384 0.671351 0.225239
Si Si3 0.873481 0.666773 0.541660
Si Si4 0.311295 0.666972 0.372047
Si Si5 0.315400 0.672054 0.908432
Si Si6 0.547373 0.165880 0.149954
Si Si7 0.266424 0.829173 0.529027
O O1 0.218557 0.500000 0.253822
O O2 0.275929 0.297804 0.292459
O O3 0.194716 0.237439 0.303685
O O4 0.231212 0.273169 0.138159
O O5 0.380515 0.500000 0.203058
O O6 0.355491 0.752326 0.137683
O O7 0.356595 0.705460 0.325101
O O8 0.428550 0.734290 0.230056
O O9 0.857323 0.500000 0.538182
O O10 0.858233 0.753000 0.447267
O O11 0.925096 0.673302 0.550482
O O12 0.309121 0.500000 0.403591
O O13 0.304784 0.760194 0.468262
O O14 0.321959 0.500000 0.900100
O O15 0.278242 0.716645 0.982484
O O16 0.500000 0.224910 0.131672
O O17 0.546316 0.000000 0.188230
O O18 0.272319 0.000000 0.524058
#
# Coordination Sequence:
#
# PCOD8188034 Si02
#       7
#     8   8   8   8   8   8   8
#     4   9  17  29  41  54  77 109 140 174 209 241
#     4   9  16  26  41  61  83 108 136 168 202 244
#     4   9  17  27  41  59  80 110 137 163 200 246
#     4   9  17  28  41  57  80 107 137 172 210 245
#     4  10  18  28  41  59  80 104 138 177 209 242
#     4   8  16  29  42  60  86 112 137 166 202 247
#     4   9  18  29  41  56  78 107 141 178 209 239
#
# _framework density 13.885891000000001
#
# number of rings (size 3 to 8) (size 9 to 14) (size 15 to 20)
#    0.857    2.143    0.000    1.714    0.000    4.857 
#    0.000    2.857    0.000    0.000    0.000    0.000 
#    0.000    1.143    0.000   10.286    0.000    6.000 
#
# Total GULP energy -346949.200657 kJ/mol
# GULP energy per Si atom -12391.042881 kJ/mol
# Density = 1.385429 g / cm^3
# Si number density = 13.885891 Si / 1000 Ang^3
#
#
#
# Elastic Constant Matrix: (Units=GPa)
#
#
# Indices 1 2 3 4 5 6 
#
# 1 74.7988 33.5040 36.5892 0.0000 0.0000 0.0000
# 2 33.5040 60.3254 35.4362 0.0000 0.0000 0.0000
# 3 36.5892 35.4362 90.7717 0.0000 0.0000 0.0000
# 4 0.0000 0.0000 0.0000 24.3728 0.0000 0.0000
# 5 0.0000 0.0000 0.0000 0.0000 16.5746 0.0000
# 6 0.0000 0.0000 0.0000 0.0000 0.0000 19.5757
#
#
#
# Elastic Compliance Matrix: (Units=1/GPa)
#
#
# Indices 1 2 3 4 5 6 
#
# 1 0.019192 -0.007934 -0.004639 0.000000 0.000000 0.000000
# 2 -0.007934 0.024789 -0.006479 0.000000 0.000000 0.000000
# 3 -0.004639 -0.006479 0.015416 0.000000 0.000000 0.000000
# 4 0.000000 0.000000 0.000000 0.041029 0.000000 0.000000
# 5 0.000000 0.000000 0.000000 0.000000 0.060333 0.000000
# 6 0.000000 0.000000 0.000000 0.000000 0.000000 0.051084
#
#
# Mechanical properties :
#
#
# Convention : Reuss Voigt Hill
#
# Bulk Modulus (GPa) = 46.96383 48.55052 47.75718
# Shear Modulus (GPa) = 19.45175 20.12905 19.79040
#
# Velocity S-wave (km/s) = 3.74683 3.81150 3.77930
# Velocity P-wave (km/s) = 7.25348 7.37630 7.31515
#
# Compressibility (1/GPa) = 0.02129298
#
# Stress axis : x y z
#
# Youngs Moduli (GPa) = 52.10426 40.33986 64.86799
#
# Poissons Ratio (x) = 0.32007 0.30091
# Poissons Ratio (y) = 0.41341 0.42030
# Poissons Ratio (z) = 0.24170 0.26137
#
# Static dielectric constant tensor:
#      x y z
#    x 2.599910 0.000000 0.000000 
#    y 0.000000 2.755940 0.000000 
#    z 0.000000 0.000000 2.634040 
# 
# 
# High freq. dielectric constant tensor:
#      x y z
#    x 1.499890 0.000000 0.000000 
#    y 0.000000 1.540560 0.000000 
#    z 0.000000 0.000000 1.504770 
# 
# From -- ./inp_files/19655.got.cif
#   From: 2010.03.12/outbox.cif.g09.slc.cpg/sg44_10_cif.got.tgz:19655.got - 2010.04.14 02:36:11.
