data_PCOD8188950
_publ_section_title
;
Structure prediction by ZEFSAII (Michael W. Deem and Ramdas Pophale) SiO2 
 PCOD8188950
Probable space group: I M M 2
;
_chemical_formula_sum "Si O2"
_cell_formula_units_Z 40
_cell_length_a 25.752159
_cell_length_b 9.021671
_cell_length_c 8.998495
_cell_angle_alpha 90.000000
_cell_angle_beta 90.000000
_cell_angle_gamma 90.000000
_cell_volume 2090.597901
_symmetry_space_group_name_H-M "I M M 2"
_symmetry_group_IT_number 44
_symmetry_cell_setting 'orthorhombic'
loop_
_space_group_symop_operation_xyz
x,y,z
-x,-y,z
-x,y,z
x,-y,z
1/2+x,1/2+y,1/2+z
1/2-x,1/2-y,1/2+z
1/2-x,1/2+y,1/2+z
1/2+x,1/2-y,1/2+z
loop_
_atom_site_type_symbol
_atom_site_label
_atom_site_fract_x
_atom_site_fract_y
_atom_site_fract_z
Si Si1 0.000000 0.332051 0.437630
Si Si2 0.000000 0.333419 0.084206
Si Si3 0.303466 0.828333 0.098228
Si Si4 0.896574 0.825215 0.433747
Si Si5 0.702159 0.671287 0.404943
Si Si6 0.397828 0.327001 0.593038
O O1 0.000000 0.325902 0.260868
O O2 0.051026 0.248807 0.497467
O O3 0.000000 0.500000 0.497115
O O4 0.051834 0.253893 0.024605
O O5 0.000000 0.500000 0.023426
O O6 0.292634 0.777424 0.264969
O O7 0.319569 0.000000 0.096119
O O8 0.349031 0.731106 0.030272
O O9 0.251432 0.799760 0.007357
O O10 0.887091 0.778546 0.262840
O O11 0.901838 0.000000 0.452387
O O12 0.698607 0.500000 0.355105
O O13 0.651530 0.719598 0.496769
O O14 0.409342 0.500000 0.585448
#
# Coordination Sequence:
#
# PCOD8188950 Si02
#       6
#     4   4   8   8   8   8
#     4   9  17  31  52  81 114 145 182 226 268 315
#     4   9  17  29  50  81 112 141 176 220 268 315
#     4  11  23  38  57  82 110 141 180 227 276 326
#     4  10  19  34  57  83 112 147 184 222 269 324
#     4  10  22  39  57  79 108 142 181 224 272 327
#     4   9  18  34  56  80 108 144 183 220 262 319
#
# _framework density 19.133282000000001
#
# number of rings (size 3 to 8) (size 9 to 14) (size 15 to 20)
#    0.000    2.200    0.000    3.000    0.000    7.200 
#    0.000    1.000    0.000    3.600    0.000    0.000 
#    0.000    0.000    0.000    0.000    0.000    0.000 
#
# Total GULP energy -248068.061612 kJ/mol
# GULP energy per Si atom -12403.403081 kJ/mol
# Density = 1.908973 g / cm^3
# Si number density = 19.133282 Si / 1000 Ang^3
#
#
#
# Elastic Constant Matrix: (Units=GPa)
#
#
# Indices 1 2 3 4 5 6 
#
# 1 151.2423 60.5293 42.9386 0.0000 0.0000 0.0000
# 2 60.5293 90.4968 39.2879 0.0000 0.0000 0.0000
# 3 42.9386 39.2879 75.0019 0.0000 0.0000 0.0000
# 4 0.0000 0.0000 0.0000 26.6937 0.0000 0.0000
# 5 0.0000 0.0000 0.0000 0.0000 31.2988 0.0000
# 6 0.0000 0.0000 0.0000 0.0000 0.0000 19.2638
#
#
#
# Elastic Compliance Matrix: (Units=1/GPa)
#
#
# Indices 1 2 3 4 5 6 
#
# 1 0.009437 -0.005134 -0.002713 0.000000 0.000000 0.000000
# 2 -0.005134 0.017096 -0.006016 0.000000 0.000000 0.000000
# 3 -0.002713 -0.006016 0.018038 0.000000 0.000000 0.000000
# 4 0.000000 0.000000 0.000000 0.037462 0.000000 0.000000
# 5 0.000000 0.000000 0.000000 0.000000 0.031950 0.000000
# 6 0.000000 0.000000 0.000000 0.000000 0.000000 0.051911
#
#
# Mechanical properties :
#
#
# Convention : Reuss Voigt Hill
#
# Bulk Modulus (GPa) = 59.36905 66.91694 63.14300
# Shear Modulus (GPa) = 25.09604 27.05027 26.07315
#
# Velocity S-wave (km/s) = 3.62559 3.76411 3.69550
# Velocity P-wave (km/s) = 6.97303 7.34448 7.16116
#
# Compressibility (1/GPa) = 0.01684379
#
# Stress axis : x y z
#
# Youngs Moduli (GPa) = 105.96655 58.49397 55.43942
#
# Poissons Ratio (x) = 0.30031 0.15043
# Poissons Ratio (y) = 0.54403 0.33352
# Poissons Ratio (z) = 0.28752 0.35190
#
# Static dielectric constant tensor:
#      x y z
#    x 3.708430 0.000000 0.000000 
#    y 0.000000 3.566880 0.000000 
#    z 0.000000 0.000000 3.261390 
# 
# 
# High freq. dielectric constant tensor:
#      x y z
#    x 1.762630 0.000000 0.000000 
#    y 0.000000 1.750250 0.000000 
#    z 0.000000 0.000000 1.719050 
# 
# From -- ./inp_files/4480.got.cif
#   From: 2010.03.12/outbox.cif.g09.slc.cpg/sg44_3_cif.got.tgz:4480.got - 2010.04.14 02:36:11.
