data_PCOD8188759
_publ_section_title
;
Structure prediction by ZEFSAII (Michael W. Deem and Ramdas Pophale) SiO2 
 PCOD8188759
Probable space group: I M M 2
;
_chemical_formula_sum "Si O2"
_cell_formula_units_Z 64
_cell_length_a 20.615308
_cell_length_b 8.817904
_cell_length_c 19.756648
_cell_angle_alpha 90.000000
_cell_angle_beta 90.000000
_cell_angle_gamma 90.000000
_cell_volume 3591.438685
_symmetry_space_group_name_H-M "I M M 2"
_symmetry_group_IT_number 44
_symmetry_cell_setting 'orthorhombic'
loop_
_space_group_symop_operation_xyz
x,y,z
-x,-y,z
-x,y,z
x,-y,z
1/2+x,1/2+y,1/2+z
1/2-x,1/2-y,1/2+z
1/2-x,1/2+y,1/2+z
1/2+x,1/2-y,1/2+z
loop_
_atom_site_type_symbol
_atom_site_label
_atom_site_fract_x
_atom_site_fract_y
_atom_site_fract_z
Si Si1 0.305144 0.824031 0.489130
Si Si2 0.258585 0.175437 0.346225
Si Si3 0.734622 0.822300 0.198857
Si Si4 0.571882 0.174879 0.572992
Si Si5 0.573257 0.673386 0.974334
Si Si6 0.183348 0.320357 0.560195
Si Si7 0.121115 0.678666 0.343093
Si Si8 0.880761 0.179004 0.204161
O O1 0.308213 0.797146 0.407905
O O2 0.374283 0.770237 0.518929
O O3 0.248006 0.723627 0.519750
O O4 0.291141 0.000000 0.505343
O O5 0.292141 0.220504 0.274074
O O6 0.194877 0.274160 0.358479
O O7 0.236291 0.000000 0.342302
O O8 0.690262 0.759140 0.137867
O O9 0.807779 0.759348 0.191620
O O10 0.737575 0.000000 0.188080
O O11 0.500000 0.200494 0.541697
O O12 0.575357 0.269747 0.641861
O O13 0.583352 0.000000 0.591294
O O14 0.500000 0.685765 0.001963
O O15 0.593659 0.500000 0.961061
O O16 0.577142 0.764110 0.904418
O O17 0.619981 0.741805 0.030983
O O18 0.174268 0.500000 0.555123
O O19 0.116314 0.500000 0.338184
O O20 0.093276 0.749367 0.273854
O O21 0.883802 0.000000 0.211683
#
# Coordination Sequence:
#
# PCOD8188759 Si02
#       8
#     8   8   8   8   8   8   8   8
#     4  10  19  32  54  78 105 143 181 221 267 316
#     4   9  17  32  53  77 106 139 177 216 261 317
#     4   8  16  30  50  77 105 133 166 214 265 313
#     4  10  21  35  50  75 110 145 183 226 268 312
#     4  11  24  40  55  74 104 143 182 217 262 323
#     4  11  20  33  55  81 107 135 173 224 272 315
#     4  11  21  33  52  79 108 138 175 218 265 313
#     4  10  19  34  53  74 105 144 183 216 259 318
#
# _framework density 17.820156000000001
#
# number of rings (size 3 to 8) (size 9 to 14) (size 15 to 20)
#    0.000    2.000    2.500    3.000    0.000    1.750 
#    0.000    0.625    0.000    0.750    0.000    3.500 
#    0.000    0.000    0.000    0.000    0.000    0.000 
#
# Total GULP energy -396717.540365 kJ/mol
# GULP energy per Si atom -12397.423136 kJ/mol
# Density = 1.777960 g / cm^3
# Si number density = 17.820156 Si / 1000 Ang^3
#
#
#
# Elastic Constant Matrix: (Units=GPa)
#
#
# Indices 1 2 3 4 5 6 
#
# 1 94.3017 34.9951 59.9449 0.0000 0.0000 0.0000
# 2 34.9951 81.8414 35.3885 0.0000 0.0000 0.0000
# 3 59.9449 35.3885 132.7364 0.0000 0.0000 0.0000
# 4 0.0000 0.0000 0.0000 24.5509 0.0000 0.0000
# 5 0.0000 0.0000 0.0000 0.0000 24.7554 0.0000
# 6 0.0000 0.0000 0.0000 0.0000 0.0000 15.9531
#
#
#
# Elastic Compliance Matrix: (Units=1/GPa)
#
#
# Indices 1 2 3 4 5 6 
#
# 1 0.016068 -0.004219 -0.006131 0.000000 0.000000 0.000000
# 2 -0.004219 0.014919 -0.002072 0.000000 0.000000 0.000000
# 3 -0.006131 -0.002072 0.010855 0.000000 0.000000 0.000000
# 4 0.000000 0.000000 0.000000 0.040732 0.000000 0.000000
# 5 0.000000 0.000000 0.000000 0.000000 0.040395 0.000000
# 6 0.000000 0.000000 0.000000 0.000000 0.000000 0.062684
#
#
# Mechanical properties :
#
#
# Convention : Reuss Voigt Hill
#
# Bulk Modulus (GPa) = 58.83642 63.28182 61.05912
# Shear Modulus (GPa) = 23.13072 24.95528 24.04300
#
# Velocity S-wave (km/s) = 3.60670 3.74625 3.67713
# Velocity P-wave (km/s) = 7.10161 7.36892 7.23650
#
# Compressibility (1/GPa) = 0.01699628
#
# Stress axis : x y z
#
# Youngs Moduli (GPa) = 62.23737 67.02942 92.12233
#
# Poissons Ratio (x) = 0.28281 0.56484
# Poissons Ratio (y) = 0.26259 0.19088
# Poissons Ratio (z) = 0.38160 0.13889
#
# Static dielectric constant tensor:
#      x y z
#    x 3.138890 0.000000 0.000000 
#    y 0.000000 3.232260 0.000000 
#    z 0.000000 0.000000 3.651770 
# 
# 
# High freq. dielectric constant tensor:
#      x y z
#    x 1.659590 0.000000 0.000000 
#    y 0.000000 1.685190 0.000000 
#    z 0.000000 0.000000 1.697510 
# 
# From -- ./inp_files/23287.got.cif
#   From: 2010.03.12/outbox.cif.g09.slc.cpg/sg44_12_cif.got.tgz:23287.got - 2010.04.14 02:36:11.
