data_PCOD8188151
_publ_section_title
;
Structure prediction by ZEFSAII (Michael W. Deem and Ramdas Pophale) SiO2 
 PCOD8188151
Probable space group: I M M 2
;
_chemical_formula_sum "Si O2"
_cell_formula_units_Z 64
_cell_length_a 18.893182
_cell_length_b 8.729277
_cell_length_c 20.988349
_cell_angle_alpha 90.000000
_cell_angle_beta 90.000000
_cell_angle_gamma 90.000000
_cell_volume 3461.478673
_symmetry_space_group_name_H-M "I M M 2"
_symmetry_group_IT_number 44
_symmetry_cell_setting 'orthorhombic'
loop_
_space_group_symop_operation_xyz
x,y,z
-x,-y,z
-x,y,z
x,-y,z
1/2+x,1/2+y,1/2+z
1/2-x,1/2-y,1/2+z
1/2-x,1/2+y,1/2+z
1/2+x,1/2-y,1/2+z
loop_
_atom_site_type_symbol
_atom_site_label
_atom_site_fract_x
_atom_site_fract_y
_atom_site_fract_z
Si Si1 0.326462 0.183935 0.278620
Si Si2 0.920768 0.681852 0.894758
Si Si3 0.326224 0.181256 0.511963
Si Si4 0.079233 0.681855 0.390121
Si Si5 0.167711 0.169706 0.142440
Si Si6 0.173538 0.683935 0.506261
Si Si7 0.673778 0.181257 0.772919
Si Si8 0.164400 0.332531 0.642440
O O1 0.378952 0.244406 0.333031
O O2 0.248818 0.247843 0.292430
O O3 0.356045 0.248165 0.209735
O O4 0.321229 0.000000 0.276048
O O5 0.923043 0.500000 0.891687
O O6 0.881780 0.736049 0.958670
O O7 0.000000 0.750229 0.894152
O O8 0.356576 0.239816 0.579391
O O9 0.251182 0.252148 0.492452
O O10 0.318121 0.000000 0.514571
O O11 0.076965 0.500000 0.393186
O O12 0.121048 0.744404 0.451850
O O13 0.118221 0.736063 0.326210
O O14 0.000000 0.750224 0.390726
O O15 0.143433 0.260198 0.205487
O O16 0.251410 0.154743 0.142430
O O17 0.133488 0.000000 0.142445
O O18 0.178775 0.500000 0.508834
O O19 0.143948 0.748161 0.575144
O O20 0.681879 0.000000 0.770321
O O21 0.128905 0.500000 0.642443
#
# Coordination Sequence:
#
# PCOD8188151 Si02
#       8
#     8   8   8   8   8   8   8   8
#     4   9  16  29  49  70  96 129 162 197 238 284
#     4   9  18  31  46  67  97 132 168 203 236 276
#     4  10  18  29  49  74  96 121 159 204 245 284
#     4   9  18  31  46  67  97 132 168 203 236 276
#     4   9  17  31  50  71  96 122 152 194 244 298
#     4   9  16  29  49  70  96 129 162 197 238 284
#     4  10  18  29  49  74  96 121 159 204 245 284
#     4   7  12  23  42  68  90 112 146 187 228 268
#
# _framework density 18.489208999999999
#
# number of rings (size 3 to 8) (size 9 to 14) (size 15 to 20)
#    0.000    3.000    0.000    3.375    0.000    0.000 
#    0.000    2.500    0.000   14.250    0.000    0.000 
#    0.000    6.000    0.000    0.000    0.000    0.000 
#
# Total GULP energy -396515.959982 kJ/mol
# GULP energy per Si atom -12391.123749 kJ/mol
# Density = 1.844713 g / cm^3
# Si number density = 18.489209 Si / 1000 Ang^3
#
#
#
# Elastic Constant Matrix: (Units=GPa)
#
#
# Indices 1 2 3 4 5 6 
#
# 1 109.4399 20.9499 91.2924 0.0000 0.0000 0.0000
# 2 20.9499 42.2924 30.9921 0.0000 0.0000 0.0000
# 3 91.2924 30.9921 211.3889 0.0000 0.0000 0.0000
# 4 0.0000 0.0000 0.0000 20.7657 0.0000 0.0000
# 5 0.0000 0.0000 0.0000 0.0000 6.7564 0.0000
# 6 0.0000 0.0000 0.0000 0.0000 0.0000 15.8250
#
#
#
# Elastic Compliance Matrix: (Units=1/GPa)
#
#
# Indices 1 2 3 4 5 6 
#
# 1 0.014599 -0.002926 -0.005876 0.000000 0.000000 0.000000
# 2 -0.002926 0.027077 -0.002706 0.000000 0.000000 0.000000
# 3 -0.005876 -0.002706 0.007665 0.000000 0.000000 0.000000
# 4 0.000000 0.000000 0.000000 0.048156 0.000000 0.000000
# 5 0.000000 0.000000 0.000000 0.000000 0.148008 0.000000
# 6 0.000000 0.000000 0.000000 0.000000 0.000000 0.063191
#
#
# Mechanical properties :
#
#
# Convention : Reuss Voigt Hill
#
# Bulk Modulus (GPa) = 37.98610 72.17663 55.08137
# Shear Modulus (GPa) = 14.68478 23.32853 19.00665
#
# Velocity S-wave (km/s) = 2.82127 3.55595 3.20970
# Velocity P-wave (km/s) = 5.58591 7.48209 6.60242
#
# Compressibility (1/GPa) = 0.02632542
#
# Stress axis : x y z
#
# Youngs Moduli (GPa) = 68.49728 36.93110 130.46265
#
# Poissons Ratio (x) = 0.10806 0.76659
# Poissons Ratio (y) = 0.20041 0.35307
# Poissons Ratio (z) = 0.40249 0.09995
#
# Static dielectric constant tensor:
#      x y z
#    x 3.203090 0.000000 0.000000 
#    y 0.000000 3.094950 0.000000 
#    z 0.000000 0.000000 4.025150 
# 
# 
# High freq. dielectric constant tensor:
#      x y z
#    x 1.679140 0.000000 0.000000 
#    y 0.000000 1.681170 0.000000 
#    z 0.000000 0.000000 1.746260 
# 
# From -- ./inp_files/24386.got.cif
#   From: 2010.03.12/outbox.cif.g09.slc.cpg/sg44_13_cif.got.tgz:24386.got - 2010.04.14 02:36:11.
