data_PCOD8188293
_publ_section_title
;
Structure prediction by ZEFSAII (Michael W. Deem and Ramdas Pophale) SiO2 
 PCOD8188293
Probable space group: I M M 2
;
_chemical_formula_sum "Si O2"
_cell_formula_units_Z 64
_cell_length_a 20.698713
_cell_length_b 8.448007
_cell_length_c 19.614572
_cell_angle_alpha 90.000000
_cell_angle_beta 90.000000
_cell_angle_gamma 90.000000
_cell_volume 3429.860399
_symmetry_space_group_name_H-M "I M M 2"
_symmetry_group_IT_number 44
_symmetry_cell_setting 'orthorhombic'
loop_
_space_group_symop_operation_xyz
x,y,z
-x,-y,z
-x,y,z
x,-y,z
1/2+x,1/2+y,1/2+z
1/2-x,1/2-y,1/2+z
1/2-x,1/2+y,1/2+z
1/2+x,1/2-y,1/2+z
loop_
_atom_site_type_symbol
_atom_site_label
_atom_site_fract_x
_atom_site_fract_y
_atom_site_fract_z
Si Si1 0.876164 0.816135 0.511300
Si Si2 0.571015 0.187833 0.295270
Si Si3 0.263723 0.815107 0.659986
Si Si4 0.073503 0.682354 0.377055
Si Si5 0.766201 0.186002 0.019550
Si Si6 0.811337 0.183645 0.294382
Si Si7 0.376764 0.185261 0.153887
Si Si8 0.689177 0.812182 0.384083
O O1 0.918170 0.720795 0.456738
O O2 0.801613 0.769794 0.504459
O O3 0.901623 0.776761 0.586999
O O4 0.884194 0.000000 0.495507
O O5 0.500000 0.244739 0.319625
O O6 0.582043 0.247125 0.218027
O O7 0.626038 0.254632 0.345207
O O8 0.576362 0.000000 0.295286
O O9 0.296552 0.754930 0.589599
O O10 0.310529 0.779848 0.723502
O O11 0.197811 0.718830 0.670504
O O12 0.248472 0.000000 0.654402
O O13 0.090691 0.500000 0.364578
O O14 0.120685 0.787820 0.331150
O O15 0.000000 0.719786 0.355591
O O16 0.813375 0.228010 0.957401
O O17 0.755525 0.000000 0.026361
O O18 0.752888 0.241467 0.342794
O O19 0.803404 0.000000 0.277333
O O20 0.385891 0.000000 0.140831
O O21 0.687634 0.000000 0.393770
#
# Coordination Sequence:
#
# PCOD8188293 Si02
#       8
#     8   8   8   8   8   8   8   8
#     4  11  21  34  52  78 111 148 187 226 276 328
#     4   9  18  33  54  79 109 146 185 223 267 321
#     4  11  21  34  55  82 113 145 183 229 280 329
#     4  11  24  40  57  80 110 147 189 230 274 331
#     4  11  21  34  55  82 112 144 184 230 281 329
#     4  11  21  36  59  85 112 144 182 230 283 330
#     4  10  18  32  52  78 111 148 191 230 271 322
#     4  10  19  34  56  83 111 142 183 229 277 327
#
# _framework density 18.659652000000001
#
# number of rings (size 3 to 8) (size 9 to 14) (size 15 to 20)
#    0.000    1.500    2.500    6.000    0.000    2.000 
#    0.000    1.250    0.000    3.750    0.000    1.750 
#    0.000    0.000    0.000    0.000    0.000    0.000 
#
# Total GULP energy -396878.380264 kJ/mol
# GULP energy per Si atom -12402.449383 kJ/mol
# Density = 1.861718 g / cm^3
# Si number density = 18.659652 Si / 1000 Ang^3
#
#
#
# Elastic Constant Matrix: (Units=GPa)
#
#
# Indices 1 2 3 4 5 6 
#
# 1 91.9326 15.2420 52.0586 0.0000 0.0000 0.0000
# 2 15.2420 51.1502 23.1734 0.0000 0.0000 0.0000
# 3 52.0586 23.1734 126.8475 0.0000 0.0000 0.0000
# 4 0.0000 0.0000 0.0000 32.4219 0.0000 0.0000
# 5 0.0000 0.0000 0.0000 0.0000 23.8780 0.0000
# 6 0.0000 0.0000 0.0000 0.0000 0.0000 19.8211
#
#
#
# Elastic Compliance Matrix: (Units=1/GPa)
#
#
# Indices 1 2 3 4 5 6 
#
# 1 0.014313 -0.001749 -0.005555 0.000000 0.000000 0.000000
# 2 -0.001749 0.021528 -0.003215 0.000000 0.000000 0.000000
# 3 -0.005555 -0.003215 0.010751 0.000000 0.000000 0.000000
# 4 0.000000 0.000000 0.000000 0.030843 0.000000 0.000000
# 5 0.000000 0.000000 0.000000 0.000000 0.041880 0.000000
# 6 0.000000 0.000000 0.000000 0.000000 0.000000 0.050451
#
#
# Mechanical properties :
#
#
# Convention : Reuss Voigt Hill
#
# Bulk Modulus (GPa) = 39.13208 50.09759 44.61483
# Shear Modulus (GPa) = 25.08523 27.18795 26.13659
#
# Velocity S-wave (km/s) = 3.67052 3.82127 3.74665
# Velocity P-wave (km/s) = 6.24345 6.80998 6.53286
#
# Compressibility (1/GPa) = 0.02555448
#
# Stress axis : x y z
#
# Youngs Moduli (GPa) = 69.86737 46.45121 93.01891
#
# Poissons Ratio (x) = 0.08122 0.51668
# Poissons Ratio (y) = 0.12217 0.29908
# Poissons Ratio (z) = 0.38809 0.14935
#
# Static dielectric constant tensor:
#      x y z
#    x 3.244250 0.000000 0.000000 
#    y 0.000000 3.301850 0.000000 
#    z 0.000000 0.000000 3.697950 
# 
# 
# High freq. dielectric constant tensor:
#      x y z
#    x 1.691560 0.000000 0.000000 
#    y 0.000000 1.723630 0.000000 
#    z 0.000000 0.000000 1.732610 
# 
# From -- ./inp_files/24476.got.cif
#   From: 2010.03.12/outbox.cif.g09.slc.cpg/sg44_13_cif.got.tgz:24476.got - 2010.04.14 02:36:11.
