data_PCOD8188511
_publ_section_title
;
Structure prediction by ZEFSAII (Michael W. Deem and Ramdas Pophale) SiO2 
 PCOD8188511
Probable space group: I M M 2
;
_chemical_formula_sum "Si O2"
_cell_formula_units_Z 64
_cell_length_a 9.004924
_cell_length_b 23.266011
_cell_length_c 19.049099
_cell_angle_alpha 90.000000
_cell_angle_beta 90.000000
_cell_angle_gamma 90.000000
_cell_volume 3990.951222
_symmetry_space_group_name_H-M "I M M 2"
_symmetry_group_IT_number 44
_symmetry_cell_setting 'orthorhombic'
loop_
_space_group_symop_operation_xyz
x,y,z
-x,-y,z
-x,y,z
x,-y,z
1/2+x,1/2+y,1/2+z
1/2-x,1/2-y,1/2+z
1/2-x,1/2+y,1/2+z
1/2+x,1/2-y,1/2+z
loop_
_atom_site_type_symbol
_atom_site_label
_atom_site_fract_x
_atom_site_fract_y
_atom_site_fract_z
Si Si1 0.175364 0.064358 0.951140
Si Si2 0.330102 0.565779 0.184376
Si Si3 0.828790 0.835796 0.581795
Si Si4 0.673708 0.261859 0.666479
Si Si5 0.326970 0.752451 0.823614
Si Si6 0.174150 0.831579 0.038769
Si Si7 0.175156 0.384550 0.317751
Si Si8 0.675524 0.781396 0.458513
O O1 0.249014 0.076955 0.876787
O O2 0.000000 0.071287 0.941322
O O3 0.217042 0.000000 0.975299
O O4 0.240534 0.108179 0.010378
O O5 0.500000 0.571715 0.210625
O O6 0.287375 0.500000 0.169418
O O7 0.307731 0.599957 0.111471
O O8 0.222631 0.591704 0.242675
O O9 0.764899 0.792682 0.640179
O O10 0.742819 0.831405 0.507628
O O11 0.000000 0.820577 0.568885
O O12 0.500000 0.246738 0.656263
O O13 0.710119 0.274473 0.747423
O O14 0.717358 0.318127 0.619823
O O15 0.500000 0.747668 0.841040
O O16 0.273654 0.818505 0.825475
O O17 0.236935 0.714455 0.879572
O O18 0.000000 0.835745 0.030903
O O19 0.231174 0.779327 0.990376
O O20 0.000000 0.390167 0.324668
O O21 0.500000 0.787947 0.457770
#
# Coordination Sequence:
#
# PCOD8188511 Si02
#       8
#     8   8   8   8   8   8   8   8
#     4  10  19  31  46  64  90 125 164 196 225 271
#     4  10  21  35  49  66  92 129 166 195 228 277
#     4  10  19  31  48  69  93 120 155 198 238 276
#     4   9  17  31  48  66  92 121 153 193 236 282
#     4  10  19  30  46  69  95 123 154 192 236 279
#     4   8  15  28  45  64  84 115 152 186 227 268
#     4  11  21  31  44  66  97 126 160 199 229 267
#     4  10  19  31  49  67  91 122 154 191 235 287
#
# _framework density 16.036276999999998
#
# number of rings (size 3 to 8) (size 9 to 14) (size 15 to 20)
#    0.000    2.250    2.500    2.250    0.000    3.500 
#    0.000    0.000    0.000    0.000    0.000    0.875 
#    0.000    5.000    0.000    0.000    0.000    0.000 
#
# Total GULP energy -396731.683001 kJ/mol
# GULP energy per Si atom -12397.865094 kJ/mol
# Density = 1.599978 g / cm^3
# Si number density = 16.036277 Si / 1000 Ang^3
#
#
#
# Elastic Constant Matrix: (Units=GPa)
#
#
# Indices 1 2 3 4 5 6 
#
# 1 52.3027 24.5790 40.9856 0.0000 0.0000 0.0000
# 2 24.5790 67.4859 47.0432 0.0000 0.0000 0.0000
# 3 40.9856 47.0432 119.5221 0.0000 0.0000 0.0000
# 4 0.0000 0.0000 0.0000 23.5969 0.0000 0.0000
# 5 0.0000 0.0000 0.0000 0.0000 24.2303 0.0000
# 6 0.0000 0.0000 0.0000 0.0000 0.0000 16.7669
#
#
#
# Elastic Compliance Matrix: (Units=1/GPa)
#
#
# Indices 1 2 3 4 5 6 
#
# 1 0.027180 -0.004689 -0.007475 0.000000 0.000000 0.000000
# 2 -0.004689 0.021229 -0.006748 0.000000 0.000000 0.000000
# 3 -0.007475 -0.006748 0.013586 0.000000 0.000000 0.000000
# 4 0.000000 0.000000 0.000000 0.042379 0.000000 0.000000
# 5 0.000000 0.000000 0.000000 0.000000 0.041271 0.000000
# 6 0.000000 0.000000 0.000000 0.000000 0.000000 0.059641
#
#
# Mechanical properties :
#
#
# Convention : Reuss Voigt Hill
#
# Bulk Modulus (GPa) = 41.36950 51.61404 46.49177
# Shear Modulus (GPa) = 19.90705 21.36567 20.63636
#
# Velocity S-wave (km/s) = 3.52714 3.65407 3.59117
# Velocity P-wave (km/s) = 6.51468 7.07522 6.80073
#
# Compressibility (1/GPa) = 0.02417240
#
# Stress axis : x y z
#
# Youngs Moduli (GPa) = 36.79112 47.10439 73.60560
#
# Poissons Ratio (x) = 0.22086 0.55021
# Poissons Ratio (y) = 0.17250 0.49669
# Poissons Ratio (z) = 0.27502 0.31786
#
# Static dielectric constant tensor:
#      x y z
#    x 2.968400 0.000000 0.000000 
#    y 0.000000 3.070180 0.000000 
#    z 0.000000 0.000000 3.145480 
# 
# 
# High freq. dielectric constant tensor:
#      x y z
#    x 1.612990 0.000000 0.000000 
#    y 0.000000 1.589010 0.000000 
#    z 0.000000 0.000000 1.613390 
# 
# From -- ./inp_files/20851.got.cif
#   From: 2010.03.12/outbox.cif.g09.slc.cpg/sg44_11_cif.got.tgz:20851.got - 2010.04.14 02:36:11.
