data_PCOD8188603
_publ_section_title
;
Structure prediction by ZEFSAII (Michael W. Deem and Ramdas Pophale) SiO2 
 PCOD8188603
Probable space group: I M M 2
;
_chemical_formula_sum "Si O2"
_cell_formula_units_Z 40
_cell_length_a 7.579339
_cell_length_b 9.444566
_cell_length_c 32.253248
_cell_angle_alpha 90.000000
_cell_angle_beta 90.000000
_cell_angle_gamma 90.000000
_cell_volume 2308.802553
_symmetry_space_group_name_H-M "I M M 2"
_symmetry_group_IT_number 44
_symmetry_cell_setting 'orthorhombic'
loop_
_space_group_symop_operation_xyz
x,y,z
-x,-y,z
-x,y,z
x,-y,z
1/2+x,1/2+y,1/2+z
1/2-x,1/2-y,1/2+z
1/2-x,1/2+y,1/2+z
1/2+x,1/2-y,1/2+z
loop_
_atom_site_type_symbol
_atom_site_label
_atom_site_fract_x
_atom_site_fract_y
_atom_site_fract_z
Si Si1 0.500000 0.332729 0.580400
Si Si2 0.500000 0.341950 0.293100
Si Si3 0.804971 0.158927 0.713727
Si Si4 0.000000 0.168679 0.173709
Si Si5 0.701267 0.664460 0.937414
Si Si6 0.701012 0.834754 0.019055
Si Si7 0.000000 0.665859 0.875025
O O1 0.500000 0.500000 0.583451
O O2 0.500000 0.271123 0.626797
O O3 0.325004 0.280843 0.556349
O O4 0.500000 0.500000 0.311904
O O5 0.673016 0.321006 0.263670
O O6 0.500000 0.232128 0.329945
O O7 0.674021 0.275956 0.696363
O O8 0.000000 0.178267 0.693082
O O9 0.734078 0.000000 0.704416
O O10 0.000000 0.000000 0.175680
O O11 0.500000 0.695778 0.924286
O O12 0.731217 0.500000 0.947839
O O13 0.825659 0.714183 0.899879
O O14 0.755359 0.751626 0.977891
O O15 0.500000 0.802090 0.032015
O O16 0.730548 0.000000 0.009902
O O17 0.000000 0.500000 0.867999
#
# Coordination Sequence:
#
# PCOD8188603 Si02
#       7
#     4   4   8   4   8   8   4
#     4   9  19  32  46  73 105 129 159 204 254 299
#     4   8  18  37  57  74  97 133 172 210 255 301
#     4   8  18  38  57  72  99 138 173 210 261 312
#     4  11  21  32  54  84 107 133 172 216 265 317
#     4   9  18  32  48  69 100 133 162 197 245 295
#     4   9  17  31  50  69  94 131 169 203 239 285
#     4  10  19  31  49  73 103 131 157 202 254 297
#
# _framework density 17.324998000000001
#
# number of rings (size 3 to 8) (size 9 to 14) (size 15 to 20)
#    0.600    2.400    0.000    0.900    0.000    2.800 
#    1.800    4.000    0.000    2.400    0.000    0.000 
#    0.000    0.000    0.000    0.000    0.000    0.000 
#
# Total GULP energy -247889.141541 kJ/mol
# GULP energy per Si atom -12394.457077 kJ/mol
# Density = 1.728557 g / cm^3
# Si number density = 17.324998 Si / 1000 Ang^3
#
#
#
# Elastic Constant Matrix: (Units=GPa)
#
#
# Indices 1 2 3 4 5 6 
#
# 1 106.4576 44.5061 67.9409 0.0000 0.0000 0.0000
# 2 44.5061 62.2074 50.2687 -0.0001 0.0000 0.0000
# 3 67.9409 50.2687 121.1809 0.0000 0.0000 0.0000
# 4 0.0000 -0.0001 0.0000 27.2934 0.0000 0.0000
# 5 0.0000 0.0000 0.0000 0.0000 21.1967 0.0000
# 6 0.0000 0.0000 0.0000 0.0000 0.0000 23.9264
#
#
#
# Elastic Compliance Matrix: (Units=1/GPa)
#
#
# Indices 1 2 3 4 5 6 
#
# 1 0.016149 -0.006374 -0.006410 0.000000 0.000000 0.000000
# 2 -0.006374 0.026697 -0.007501 0.000000 0.000000 0.000000
# 3 -0.006410 -0.007501 0.014957 0.000000 0.000000 0.000000
# 4 0.000000 0.000000 0.000000 0.036639 0.000000 0.000000
# 5 0.000000 0.000000 0.000000 0.000000 0.047177 0.000000
# 6 0.000000 0.000000 0.000000 0.000000 0.000000 0.041795
#
#
# Mechanical properties :
#
#
# Convention : Reuss Voigt Hill
#
# Bulk Modulus (GPa) = 58.02598 68.36415 63.19507
# Shear Modulus (GPa) = 21.76485 22.95864 22.36175
#
# Velocity S-wave (km/s) = 3.54823 3.64424 3.59656
# Velocity P-wave (km/s) = 7.09591 7.56656 7.33501
#
# Compressibility (1/GPa) = 0.01723366
#
# Stress axis : x y z
#
# Youngs Moduli (GPa) = 61.92357 37.45767 66.85636
#
# Poissons Ratio (x) = 0.23875 0.42855
# Poissons Ratio (y) = 0.39470 0.50148
# Poissons Ratio (z) = 0.39693 0.28096
#
# Static dielectric constant tensor:
#      x y z
#    x 3.227180 0.000000 0.000000 
#    y 0.000000 3.054020 0.000000 
#    z 0.000000 0.000000 3.147740 
# 
# 
# High freq. dielectric constant tensor:
#      x y z
#    x 1.673490 0.000000 0.000000 
#    y 0.000000 1.659030 0.000000 
#    z 0.000000 0.000000 1.655990 
# 
# From -- ./inp_files/25998.got.cif
#   From: 2010.03.12/outbox.cif.g09.slc.cpg/sg44_13_cif.got.tgz:25998.got - 2010.04.14 02:36:11.
