data_PCOD8188692
_publ_section_title
;
Structure prediction by ZEFSAII (Michael W. Deem and Ramdas Pophale) SiO2 
 PCOD8188692
Probable space group: I M M 2
;
_chemical_formula_sum "Si O2"
_cell_formula_units_Z 64
_cell_length_a 9.151021
_cell_length_b 16.191181
_cell_length_c 22.809306
_cell_angle_alpha 90.000000
_cell_angle_beta 90.000000
_cell_angle_gamma 90.000000
_cell_volume 3379.559923
_symmetry_space_group_name_H-M "I M M 2"
_symmetry_group_IT_number 44
_symmetry_cell_setting 'orthorhombic'
loop_
_space_group_symop_operation_xyz
x,y,z
-x,-y,z
-x,y,z
x,-y,z
1/2+x,1/2+y,1/2+z
1/2-x,1/2-y,1/2+z
1/2-x,1/2+y,1/2+z
1/2+x,1/2-y,1/2+z
loop_
_atom_site_type_symbol
_atom_site_label
_atom_site_fract_x
_atom_site_fract_y
_atom_site_fract_z
Si Si1 0.669784 0.791434 0.944860
Si Si2 0.835689 0.407997 0.866336
Si Si3 0.171514 0.093935 0.611468
Si Si4 0.659128 0.594232 0.514567
Si Si5 0.831412 0.235729 0.318594
Si Si6 0.326977 0.859275 0.494095
Si Si7 0.173009 0.908288 0.145980
Si Si8 0.172484 0.731338 0.191108
O O1 0.500000 0.772711 0.954656
O O2 0.718015 0.880434 0.967358
O O3 0.712661 0.787264 0.876295
O O4 0.767220 0.733104 0.986605
O O5 0.822279 0.500000 0.842009
O O6 0.744645 0.353040 0.821590
O O7 0.782077 0.405853 0.933960
O O8 0.000000 0.374342 0.865098
O O9 0.245844 0.097492 0.547864
O O10 0.242678 0.162386 0.654025
O O11 0.000000 0.113564 0.605811
O O12 0.195554 0.000000 0.635550
O O13 0.500000 0.638979 0.506692
O O14 0.631375 0.500000 0.502732
O O15 0.722534 0.608889 0.579508
O O16 0.790634 0.285875 0.259683
O O17 0.000000 0.214014 0.317560
O O18 0.500000 0.860908 0.506145
O O19 0.227206 0.826441 0.180790
O O20 0.000000 0.913837 0.149556
O O21 0.234161 0.000000 0.166901
O O22 0.000000 0.722842 0.177040
#
# Coordination Sequence:
#
# PCOD8188692 Si02
#       8
#     8   8   8   8   8   8   8   8
#     4  10  19  32  50  74 106 138 170 214 267 316
#     4   9  18  32  51  77 107 138 172 210 255 311
#     4  11  24  39  55  79 110 141 176 224 281 331
#     4   9  17  30  49  74 101 128 165 213 262 316
#     4   9  20  35  50  73 102 134 175 219 261 306
#     4  10  19  33  55  80 106 137 174 215 261 319
#     4   8  15  29  51  79 106 129 159 205 256 305
#     4  10  20  36  58  79 102 139 184 222 259 313
#
# _framework density 18.937376
#
# number of rings (size 3 to 8) (size 9 to 14) (size 15 to 20)
#    0.000    2.500    0.000    3.000    0.000    5.000 
#    0.000    1.875    0.000    4.875    0.000    0.000 
#    0.000    0.000    0.000    0.000    0.000    0.000 
#
# Total GULP energy -396498.832178 kJ/mol
# GULP energy per Si atom -12390.588506 kJ/mol
# Density = 1.889427 g / cm^3
# Si number density = 18.937376 Si / 1000 Ang^3
#
#
#
# Elastic Constant Matrix: (Units=GPa)
#
#
# Indices 1 2 3 4 5 6 
#
# 1 64.7122 35.8027 38.1410 0.0000 0.0000 0.0000
# 2 35.8027 75.7827 48.8516 0.0000 0.0000 0.0000
# 3 38.1410 48.8516 79.9985 0.0000 0.0000 0.0000
# 4 0.0000 0.0000 0.0000 15.9676 0.0000 0.0000
# 5 0.0000 0.0000 0.0000 0.0000 25.6595 0.0000
# 6 0.0000 0.0000 0.0000 0.0000 0.0000 29.6449
#
#
#
# Elastic Compliance Matrix: (Units=1/GPa)
#
#
# Indices 1 2 3 4 5 6 
#
# 1 0.023191 -0.006314 -0.007201 0.000000 0.000000 0.000000
# 2 -0.006314 0.023481 -0.011329 0.000000 0.000000 0.000000
# 3 -0.007201 -0.011329 0.022851 0.000000 0.000000 0.000000
# 4 0.000000 0.000000 0.000000 0.062627 0.000000 0.000000
# 5 0.000000 0.000000 0.000000 0.000000 0.038972 0.000000
# 6 0.000000 0.000000 0.000000 0.000000 0.000000 0.033733
#
#
# Mechanical properties :
#
#
# Convention : Reuss Voigt Hill
#
# Bulk Modulus (GPa) = 50.41355 51.78709 51.10032
# Shear Modulus (GPa) = 19.14581 20.76761 19.95671
#
# Velocity S-wave (km/s) = 3.18308 3.31516 3.24979
# Velocity P-wave (km/s) = 6.33943 6.48533 6.41280
#
# Compressibility (1/GPa) = 0.01983594
#
# Stress axis : x y z
#
# Youngs Moduli (GPa) = 43.12099 42.58673 43.76139
#
# Poissons Ratio (x) = 0.26891 0.31511
# Poissons Ratio (y) = 0.27228 0.49576
# Poissons Ratio (z) = 0.31050 0.48245
#
# Static dielectric constant tensor:
#      x y z
#    x 3.479020 0.000000 0.000000 
#    y 0.000000 3.622120 0.000000 
#    z 0.000000 0.000000 3.603790 
# 
# 
# High freq. dielectric constant tensor:
#      x y z
#    x 1.721840 0.000000 0.000000 
#    y 0.000000 1.730870 0.000000 
#    z 0.000000 0.000000 1.729470 
# 
# From -- ./inp_files/23313.got.cif
#   From: 2010.03.12/outbox.cif.g09.slc.cpg/sg44_12_cif.got.tgz:23313.got - 2010.04.14 02:36:11.
