data_PCOD8188902
_publ_section_title
;
Structure prediction by ZEFSAII (Michael W. Deem and Ramdas Pophale) SiO2 
 PCOD8188902
Probable space group: I M M 2
;
_chemical_formula_sum "Si O2"
_cell_formula_units_Z 52
_cell_length_a 11.147041
_cell_length_b 15.550531
_cell_length_c 16.512124
_cell_angle_alpha 90.000000
_cell_angle_beta 90.000000
_cell_angle_gamma 90.000000
_cell_volume 2862.251313
_symmetry_space_group_name_H-M "I M M 2"
_symmetry_group_IT_number 44
_symmetry_cell_setting 'orthorhombic'
loop_
_space_group_symop_operation_xyz
x,y,z
-x,-y,z
-x,y,z
x,-y,z
1/2+x,1/2+y,1/2+z
1/2-x,1/2-y,1/2+z
1/2-x,1/2+y,1/2+z
1/2+x,1/2-y,1/2+z
loop_
_atom_site_type_symbol
_atom_site_label
_atom_site_fract_x
_atom_site_fract_y
_atom_site_fract_z
Si Si1 0.247474 0.650503 0.423000
Si Si2 0.861226 0.286198 0.735839
Si Si3 0.184198 0.500000 0.190794
Si Si4 0.143777 0.500000 0.007200
Si Si5 0.636159 0.168402 0.413828
Si Si6 0.864723 0.596780 0.586603
Si Si7 0.628979 0.827417 0.764207
Si Si8 0.133823 0.000000 0.830953
O O1 0.296493 0.745532 0.440680
O O2 0.215413 0.611441 0.508782
O O3 0.135742 0.654811 0.360822
O O4 0.343059 0.586247 0.382597
O O5 0.853299 0.343607 0.816882
O O6 0.825081 0.343934 0.660353
O O7 0.755237 0.215531 0.737414
O O8 0.000000 0.249402 0.728496
O O9 0.208102 0.500000 0.094399
O O10 0.111127 0.414798 0.214075
O O11 0.303819 0.500000 0.243913
O O12 0.000000 0.500000 0.016591
O O13 0.189344 0.584074 0.957943
O O14 0.500000 0.179824 0.441552
O O15 0.849176 0.500000 0.617456
O O16 0.000000 0.617225 0.560995
O O17 0.500000 0.777386 0.750130
O O18 0.000000 0.000000 0.803402
#
# Coordination Sequence:
#
# PCOD8188902 Si02
#       8
#     8   8   4   4   8   8   8   4
#     4  10  19  34  54  82 109 143 180 226 280 340
#     4   9  20  37  57  83 110 144 186 229 279 334
#     4  10  22  34  52  78 109 143 186 229 274 331
#     4  10  20  34  53  79 105 138 186 237 275 316
#     4   9  19  34  55  77 106 143 185 232 276 324
#     4  10  20  34  56  83 110 139 181 229 275 331
#     4  10  20  35  56  79 108 145 185 230 280 332
#     4  10  20  36  57  79 113 149 182 228 288 349
#
# _framework density 18.167517
#
# number of rings (size 3 to 8) (size 9 to 14) (size 15 to 20)
#    0.000    2.308    0.769    1.615    3.231    3.692 
#    0.000    0.769    0.000    0.923    0.000    0.000 
#    0.000    0.000    0.000    0.000    0.000    0.000 
#
# Total GULP energy -322108.410069 kJ/mol
# GULP energy per Si atom -12388.785003 kJ/mol
# Density = 1.812617 g / cm^3
# Si number density = 18.167517 Si / 1000 Ang^3
#
#
#
# Elastic Constant Matrix: (Units=GPa)
#
#
# Indices 1 2 3 4 5 6 
#
# 1 105.7928 38.4552 38.4150 0.0000 0.0000 0.0000
# 2 38.4552 107.6404 42.5575 0.0000 0.0000 0.0000
# 3 38.4150 42.5575 105.2682 0.0000 0.0000 0.0000
# 4 0.0000 0.0000 0.0000 28.3581 0.0000 0.0000
# 5 0.0000 0.0000 0.0000 0.0000 11.0780 0.0000
# 6 0.0000 0.0000 0.0000 0.0000 0.0000 12.6152
#
#
#
# Elastic Compliance Matrix: (Units=1/GPa)
#
#
# Indices 1 2 3 4 5 6 
#
# 1 0.011633 -0.002949 -0.003053 0.000000 0.000000 0.000000
# 2 -0.002949 0.011805 -0.003696 0.000000 0.000000 0.000000
# 3 -0.003053 -0.003696 0.012108 0.000000 0.000000 0.000000
# 4 0.000000 0.000000 0.000000 0.035263 0.000000 0.000000
# 5 0.000000 0.000000 0.000000 0.000000 0.090269 0.000000
# 6 0.000000 0.000000 0.000000 0.000000 0.000000 0.079270
#
#
# Mechanical properties :
#
#
# Convention : Reuss Voigt Hill
#
# Bulk Modulus (GPa) = 61.92134 61.95076 61.93605
# Shear Modulus (GPa) = 18.85883 23.69516 21.27700
#
# Velocity S-wave (km/s) = 3.22538 3.61537 3.42593
# Velocity P-wave (km/s) = 6.93024 7.18343 7.05797
#
# Compressibility (1/GPa) = 0.01614952
#
# Stress axis : x y z
#
# Youngs Moduli (GPa) = 85.96277 84.70880 82.58980
#
# Poissons Ratio (x) = 0.24980 0.25215
# Poissons Ratio (y) = 0.25350 0.30529
# Poissons Ratio (z) = 0.26244 0.31312
#
# Static dielectric constant tensor:
#      x y z
#    x 3.276250 0.000000 0.000000 
#    y 0.000000 3.388260 0.000000 
#    z 0.000000 0.000000 3.429640 
# 
# 
# High freq. dielectric constant tensor:
#      x y z
#    x 1.689680 0.000000 0.000000 
#    y 0.000000 1.699610 0.000000 
#    z 0.000000 0.000000 1.708270 
# 
# From -- ./inp_files/17884.got.cif
#   From: 2010.03.12/outbox.cif.g09.slc.cpg/sg44_9_cif.got.tgz:17884.got - 2010.04.14 02:36:11.
