data_PCOD8188670
_publ_section_title
;
Structure prediction by ZEFSAII (Michael W. Deem and Ramdas Pophale) SiO2 
 PCOD8188670
Probable space group: I M M 2
;
_chemical_formula_sum "Si O2"
_cell_formula_units_Z 64
_cell_length_a 18.122067
_cell_length_b 9.434193
_cell_length_c 21.646673
_cell_angle_alpha 90.000000
_cell_angle_beta 90.000000
_cell_angle_gamma 90.000000
_cell_volume 3700.868423
_symmetry_space_group_name_H-M "I M M 2"
_symmetry_group_IT_number 44
_symmetry_cell_setting 'orthorhombic'
loop_
_space_group_symop_operation_xyz
x,y,z
-x,-y,z
-x,y,z
x,-y,z
1/2+x,1/2+y,1/2+z
1/2-x,1/2-y,1/2+z
1/2-x,1/2+y,1/2+z
1/2+x,1/2-y,1/2+z
loop_
_atom_site_type_symbol
_atom_site_label
_atom_site_fract_x
_atom_site_fract_y
_atom_site_fract_z
Si Si1 0.915475 0.663886 0.648280
Si Si2 0.080801 0.838913 0.997264
Si Si3 0.283529 0.160421 0.482433
Si Si4 0.581547 0.348102 0.352363
Si Si5 0.124037 0.835376 0.528439
Si Si6 0.083458 0.663583 0.408906
Si Si7 0.791386 0.165195 0.356049
Si Si8 0.169556 0.662478 0.765827
O O1 0.898193 0.500000 0.630651
O O2 0.905550 0.764860 0.590266
O O3 0.857127 0.724034 0.699860
O O4 0.000000 0.677142 0.672244
O O5 0.151081 0.745807 0.017272
O O6 0.077274 0.823929 0.924486
O O7 0.000000 0.788678 0.023579
O O8 0.094963 0.000000 0.018534
O O9 0.212391 0.177159 0.526008
O O10 0.262608 0.213463 0.412782
O O11 0.311080 0.000000 0.478492
O O12 0.500000 0.350669 0.324204
O O13 0.620231 0.500000 0.337679
O O14 0.623655 0.220537 0.322312
O O15 0.087851 0.750047 0.472355
O O16 0.099403 0.000000 0.525395
O O17 0.107612 0.500000 0.419429
O O18 0.135765 0.737651 0.357764
O O19 0.000000 0.670466 0.383785
O O20 0.754469 0.187224 0.287876
O O21 0.812542 0.000000 0.366666
O O22 0.149167 0.500000 0.762522
#
# Coordination Sequence:
#
# PCOD8188670 Si02
#       8
#     8   8   8   8   8   8   8   8
#     4  10  21  35  50  71  99 132 171 208 241 282
#     4   9  17  27  40  63  94 124 154 189 231 280
#     4   9  17  30  46  67  92 121 160 200 240 289
#     4   9  17  27  39  60  91 125 160 194 227 270
#     4  10  21  35  51  71  97 128 166 209 249 291
#     4  10  20  33  51  75 100 126 158 199 248 299
#     4   9  18  31  47  70  98 127 160 197 241 294
#     4  10  19  32  48  67  95 129 165 202 237 279
#
# _framework density 17.293237999999999
#
# number of rings (size 3 to 8) (size 9 to 14) (size 15 to 20)
#    0.000    2.500    1.250    3.000    0.000    7.250 
#    0.000    1.250    0.000    0.000    0.000    0.875 
#    0.000    1.000    0.000    0.000    0.000    0.125 
#
# Total GULP energy -396472.009692 kJ/mol
# GULP energy per Si atom -12389.750303 kJ/mol
# Density = 1.725388 g / cm^3
# Si number density = 17.293238 Si / 1000 Ang^3
#
#
#
# Elastic Constant Matrix: (Units=GPa)
#
#
# Indices 1 2 3 4 5 6 
#
# 1 92.0279 45.9212 22.7220 0.0000 0.0000 0.0000
# 2 45.9212 69.8024 26.2524 0.0000 0.0000 0.0000
# 3 22.7220 26.2524 52.9129 0.0000 0.0000 0.0000
# 4 0.0000 0.0000 0.0000 19.0438 0.0000 0.0000
# 5 0.0000 0.0000 0.0000 0.0000 18.9749 0.0000
# 6 0.0000 0.0000 0.0000 0.0000 0.0000 32.3635
#
#
#
# Elastic Compliance Matrix: (Units=1/GPa)
#
#
# Indices 1 2 3 4 5 6 
#
# 1 0.016359 -0.009983 -0.002072 0.000000 0.000000 0.000000
# 2 -0.009983 0.023705 -0.007474 0.000000 0.000000 0.000000
# 3 -0.002072 -0.007474 0.023497 0.000000 0.000000 0.000000
# 4 0.000000 0.000000 0.000000 0.052511 0.000000 0.000000
# 5 0.000000 0.000000 0.000000 0.000000 0.052701 0.000000
# 6 0.000000 0.000000 0.000000 0.000000 0.000000 0.030899
#
#
# Mechanical properties :
#
#
# Convention : Reuss Voigt Hill
#
# Bulk Modulus (GPa) = 40.81167 44.94825 42.87996
# Shear Modulus (GPa) = 20.25132 22.06629 21.15881
#
# Velocity S-wave (km/s) = 3.42578 3.57600 3.50169
# Velocity P-wave (km/s) = 6.26889 6.56495 6.41863
#
# Compressibility (1/GPa) = 0.02450280
#
# Stress axis : x y z
#
# Youngs Moduli (GPa) = 61.12711 42.18566 42.55878
#
# Poissons Ratio (x) = 0.42114 0.08818
# Poissons Ratio (y) = 0.61024 0.31808
# Poissons Ratio (z) = 0.12666 0.31529
#
# Static dielectric constant tensor:
#      x y z
#    x 3.501790 0.000000 0.000000 
#    y 0.000000 3.329110 0.000000 
#    z 0.000000 0.000000 2.893670 
# 
# 
# High freq. dielectric constant tensor:
#      x y z
#    x 1.668410 0.000000 0.000000 
#    y 0.000000 1.673490 0.000000 
#    z 0.000000 0.000000 1.617170 
# 
# From -- ./inp_files/24370.got.cif
#   From: 2010.03.12/outbox.cif.g09.slc.cpg/sg44_13_cif.got.tgz:24370.got - 2010.04.14 02:36:11.
