data_PCOD8188405
_publ_section_title
;
Structure prediction by ZEFSAII (Michael W. Deem and Ramdas Pophale) SiO2 
 PCOD8188405
Probable space group: I M M 2
;
_chemical_formula_sum "Si O2"
_cell_formula_units_Z 38
_cell_length_a 10.931088
_cell_length_b 12.022481
_cell_length_c 14.750951
_cell_angle_alpha 90.000000
_cell_angle_beta 90.000000
_cell_angle_gamma 90.000000
_cell_volume 1938.552247
_symmetry_space_group_name_H-M "I M M 2"
_symmetry_group_IT_number 44
_symmetry_cell_setting 'orthorhombic'
loop_
_space_group_symop_operation_xyz
x,y,z
-x,-y,z
-x,y,z
x,-y,z
1/2+x,1/2+y,1/2+z
1/2-x,1/2-y,1/2+z
1/2-x,1/2+y,1/2+z
1/2+x,1/2-y,1/2+z
loop_
_atom_site_type_symbol
_atom_site_label
_atom_site_fract_x
_atom_site_fract_y
_atom_site_fract_z
Si Si1 0.355618 0.626240 0.563070
Si Si2 0.500000 0.623610 0.005232
Si Si3 0.254921 0.289093 0.928614
Si Si4 0.641691 0.238011 0.740386
Si Si5 0.731525 0.000000 0.698212
Si Si6 0.000000 0.000000 0.677049
Si Si7 0.360469 0.000000 0.503892
O O1 0.500000 0.629274 0.553235
O O2 0.308344 0.500000 0.575379
O O3 0.299678 0.676418 0.471017
O O4 0.314390 0.699898 0.649296
O O5 0.500000 0.500000 0.958828
O O6 0.616424 0.692853 0.976273
O O7 0.500000 0.611053 0.114468
O O8 0.272413 0.279725 0.821214
O O9 0.162207 0.390905 0.944243
O O10 0.500000 0.265380 0.761309
O O11 0.657682 0.106257 0.732022
O O12 0.733656 0.000000 0.588277
O O13 0.873161 0.000000 0.734432
O O14 0.500000 0.000000 0.539521
#
# Coordination Sequence:
#
# PCOD8188405 Si02
#       7
#     8   4   8   8   4   2   4
#     4  10  23  43  63  90 128 169 209 256 318 379
#     4  10  18  36  63  95 117 153 210 263 307 369
#     4  12  22  39  66  94 126 163 213 261 316 375
#     4  11  24  40  66  94 124 166 215 268 310 375
#     4  12  22  42  64  95 125 161 220 263 320 375
#     4  10  18  38  66  88 120 162 200 272 314 370
#     4  12  22  40  70  91 123 163 217 268 317 372
#
# _framework density 19.602257999999999
#
# number of rings (size 3 to 8) (size 9 to 14) (size 15 to 20)
#    0.316    0.632    6.316    1.579    2.947    0.000 
#    3.789    0.526    0.000    0.000    0.000    0.000 
#    0.000    0.000    0.000    0.000    0.000    0.000 
#
# Total GULP energy -235639.638257 kJ/mol
# GULP energy per Si atom -12402.086224 kJ/mol
# Density = 1.955764 g / cm^3
# Si number density = 19.602258 Si / 1000 Ang^3
#
#
#
# Elastic Constant Matrix: (Units=GPa)
#
#
# Indices 1 2 3 4 5 6 
#
# 1 72.0702 25.1230 19.2910 0.0000 0.0000 0.0000
# 2 25.1230 116.6687 14.9500 0.0000 0.0000 0.0000
# 3 19.2910 14.9500 70.5892 0.0000 0.0000 0.0000
# 4 0.0000 0.0000 0.0000 21.9059 0.0000 0.0000
# 5 0.0000 0.0000 0.0000 0.0000 26.9253 0.0000
# 6 0.0000 0.0000 0.0000 0.0000 0.0000 23.4923
#
#
#
# Elastic Compliance Matrix: (Units=1/GPa)
#
#
# Indices 1 2 3 4 5 6 
#
# 1 0.015898 -0.002947 -0.003721 0.000000 0.000000 0.000000
# 2 -0.002947 0.009357 -0.001176 0.000000 0.000000 0.000000
# 3 -0.003721 -0.001176 0.015432 0.000000 0.000000 0.000000
# 4 0.000000 0.000000 0.000000 0.045650 0.000000 0.000000
# 5 0.000000 0.000000 0.000000 0.000000 0.037140 0.000000
# 6 0.000000 0.000000 0.000000 0.000000 0.000000 0.042567
#
#
# Mechanical properties :
#
#
# Convention : Reuss Voigt Hill
#
# Bulk Modulus (GPa) = 40.00017 42.00623 41.00320
# Shear Modulus (GPa) = 26.30678 27.79564 27.05121
#
# Velocity S-wave (km/s) = 3.66734 3.76969 3.71887
# Velocity P-wave (km/s) = 6.19538 6.35793 6.27718
#
# Compressibility (1/GPa) = 0.02499989
#
# Stress axis : x y z
#
# Youngs Moduli (GPa) = 62.89909 106.87698 64.79863
#
# Poissons Ratio (x) = 0.31494 0.24110
# Poissons Ratio (y) = 0.18535 0.07622
# Poissons Ratio (z) = 0.23403 0.12572
#
# Static dielectric constant tensor:
#      x y z
#    x 3.534280 0.000000 0.000000 
#    y 0.000000 3.663290 0.000000 
#    z 0.000000 0.000000 3.463330 
# 
# 
# High freq. dielectric constant tensor:
#      x y z
#    x 1.763860 0.000000 0.000000 
#    y 0.000000 1.766350 0.000000 
#    z 0.000000 0.000000 1.746410 
# 
# From -- ./inp_files/17516.got.cif
#   From: 2010.03.12/outbox.cif.g09.slc.cpg/sg44_9_cif.got.tgz:17516.got - 2010.04.14 02:36:11.
