data_PCOD8188621
_publ_section_title
;
Structure prediction by ZEFSAII (Michael W. Deem and Ramdas Pophale) SiO2 
 PCOD8188621
Probable space group: I M M 2
;
_chemical_formula_sum "Si O2"
_cell_formula_units_Z 24
_cell_length_a 8.808442
_cell_length_b 15.696479
_cell_length_c 9.836190
_cell_angle_alpha 90.000000
_cell_angle_beta 90.000000
_cell_angle_gamma 90.000000
_cell_volume 1359.966628
_symmetry_space_group_name_H-M "I M M 2"
_symmetry_group_IT_number 44
_symmetry_cell_setting 'orthorhombic'
loop_
_space_group_symop_operation_xyz
x,y,z
-x,-y,z
-x,y,z
x,-y,z
1/2+x,1/2+y,1/2+z
1/2-x,1/2-y,1/2+z
1/2-x,1/2+y,1/2+z
1/2+x,1/2-y,1/2+z
loop_
_atom_site_type_symbol
_atom_site_label
_atom_site_fract_x
_atom_site_fract_y
_atom_site_fract_z
Si Si1 0.820651 0.326393 0.117330
Si Si2 0.665473 0.500000 0.427919
Si Si3 0.818820 0.818254 0.907312
Si Si4 0.667950 0.500000 0.105828
O O1 0.752468 0.298496 0.261352
O O2 0.757801 0.415669 0.059713
O O3 0.000000 0.333229 0.131062
O O4 0.769621 0.254777 0.010381
O O5 0.500000 0.500000 0.497296
O O6 0.745947 0.590097 0.465683
O O7 0.651773 0.500000 0.266213
O O8 0.000000 0.825046 0.889450
O O9 0.500000 0.500000 0.038880
#
# Coordination Sequence:
#
# PCOD8188621 Si02
#       4
#     8   4   8   4
#     4  10  19  31  50  75 100 129 166 203 240 288
#     4   7  12  27  48  65  86 122 160 190 230 283
#     4   9  18  32  50  72  99 130 163 202 245 289
#     4   9  17  31  50  69  94 130 166 202 246 291
#
# _framework density 17.647490999999999
#
# number of rings (size 3 to 8) (size 9 to 14) (size 15 to 20)
#    0.000    3.000    0.000    3.500    0.000    2.667 
#    0.000    1.667    0.000    2.000    0.000    0.000 
#    0.000    0.000    0.000    0.000    0.000    0.000 
#
# Total GULP energy -148672.113303 kJ/mol
# GULP energy per Si atom -12389.342775 kJ/mol
# Density = 1.760732 g / cm^3
# Si number density = 17.647491 Si / 1000 Ang^3
#
#
#
# Elastic Constant Matrix: (Units=GPa)
#
#
# Indices 1 2 3 4 5 6 
#
# 1 59.4925 50.1041 33.5982 0.0000 0.0000 0.0000
# 2 50.1041 206.4115 83.1193 -0.0001 0.0000 0.0000
# 3 33.5982 83.1193 75.2919 -0.0003 0.0000 0.0000
# 4 0.0000 -0.0001 -0.0003 31.5553 0.0000 0.0000
# 5 0.0000 0.0000 0.0000 0.0000 22.1058 0.0000
# 6 0.0000 0.0000 0.0000 0.0000 0.0000 24.6875
#
#
#
# Elastic Compliance Matrix: (Units=1/GPa)
#
#
# Indices 1 2 3 4 5 6 
#
# 1 0.023244 -0.002638 -0.007460 0.000000 0.000000 0.000000
# 2 -0.002638 0.009022 -0.008782 0.000000 0.000000 0.000000
# 3 -0.007460 -0.008782 0.026306 0.000000 0.000000 0.000000
# 4 0.000000 0.000000 0.000000 0.031690 0.000000 0.000000
# 5 0.000000 0.000000 0.000000 0.000000 0.045237 0.000000
# 6 0.000000 0.000000 0.000000 0.000000 0.000000 0.040506
#
#
# Mechanical properties :
#
#
# Convention : Reuss Voigt Hill
#
# Bulk Modulus (GPa) = 48.05256 74.98216 61.51736
# Shear Modulus (GPa) = 22.65503 27.29468 24.97485
#
# Velocity S-wave (km/s) = 3.58684 3.93703 3.76600
# Velocity P-wave (km/s) = 6.66649 7.95286 7.33792
#
# Compressibility (1/GPa) = 0.02081055
#
# Stress axis : x y z
#
# Youngs Moduli (GPa) = 43.02266 110.84564 38.01458
#
# Poissons Ratio (x) = 0.29243 0.28358
# Poissons Ratio (y) = 0.11350 0.33385
# Poissons Ratio (z) = 0.32094 0.97347
#
# Static dielectric constant tensor:
#      x y z
#    x 3.193920 0.000000 0.000000 
#    y 0.000000 3.964610 0.000000 
#    z 0.000000 0.000000 2.874860 
# 
# 
# High freq. dielectric constant tensor:
#      x y z
#    x 1.670960 0.000000 0.000000 
#    y 0.000000 1.709370 0.000000 
#    z 0.000000 0.000000 1.637430 
# 
# From -- ./inp_files/3910.got.cif
#   From: 2010.03.12/outbox.cif.g09.slc.cpg/sg44_2_cif.got.tgz:3910.got - 2010.04.14 02:36:11.
