data_PCOD8188704
_publ_section_title
;
Structure prediction by ZEFSAII (Michael W. Deem and Ramdas Pophale) SiO2 
 PCOD8188704
Probable space group: I M M 2
;
_chemical_formula_sum "Si O2"
_cell_formula_units_Z 56
_cell_length_a 8.987743
_cell_length_b 18.892440
_cell_length_c 17.585473
_cell_angle_alpha 90.000000
_cell_angle_beta 90.000000
_cell_angle_gamma 90.000000
_cell_volume 2986.020268
_symmetry_space_group_name_H-M "I M M 2"
_symmetry_group_IT_number 44
_symmetry_cell_setting 'orthorhombic'
loop_
_space_group_symop_operation_xyz
x,y,z
-x,-y,z
-x,y,z
x,-y,z
1/2+x,1/2+y,1/2+z
1/2-x,1/2-y,1/2+z
1/2-x,1/2+y,1/2+z
1/2+x,1/2-y,1/2+z
loop_
_atom_site_type_symbol
_atom_site_label
_atom_site_fract_x
_atom_site_fract_y
_atom_site_fract_z
Si Si1 0.826046 0.580799 0.273350
Si Si2 0.826247 0.694808 0.986187
Si Si3 0.334771 0.791530 0.243380
Si Si4 0.833395 0.156923 0.640710
Si Si5 0.325065 0.212177 0.872498
Si Si6 0.835227 0.921962 0.402135
Si Si7 0.666491 0.576887 0.722579
O O1 0.789261 0.500000 0.297729
O O2 0.741589 0.598450 0.195188
O O3 0.776548 0.634121 0.341772
O O4 0.000000 0.591283 0.257210
O O5 0.760680 0.669443 0.065660
O O6 0.000000 0.707967 0.995149
O O7 0.754255 0.767720 0.952442
O O8 0.792984 0.630967 0.928563
O O9 0.500000 0.804021 0.277510
O O10 0.339683 0.731320 0.181575
O O11 0.221798 0.771322 0.310818
O O12 0.278432 0.861041 0.197852
O O13 0.000000 0.130689 0.620635
O O14 0.500000 0.216592 0.885252
O O15 0.829135 0.927834 0.312568
O O16 0.000000 0.894932 0.427648
O O17 0.805970 0.000000 0.437253
O O18 0.500000 0.594594 0.693718
O O19 0.716268 0.500000 0.689337
#
# Coordination Sequence:
#
# PCOD8188704 Si02
#       7
#     8   8   8   8   8   8   8
#     4   9  19  37  60  85 110 139 180 225 270 324
#     4  12  23  34  51  77 107 140 181 223 263 311
#     4  10  19  32  51  76 101 129 172 219 256 303
#     4  10  22  37  53  75 106 142 177 214 266 323
#     4  10  19  33  55  78 105 140 174 216 269 319
#     4   9  18  32  49  71 101 136 169 200 243 300
#     4   9  17  29  48  73 100 132 165 198 244 300
#
# _framework density 18.754059000000002
#
# number of rings (size 3 to 8) (size 9 to 14) (size 15 to 20)
#    0.000    2.143    1.429    3.429    0.000    3.714 
#    0.000    1.429    0.000    0.857    0.000    2.000 
#    0.000    0.000    0.000    0.000    0.000    0.000 
#
# Total GULP energy -347040.770538 kJ/mol
# GULP energy per Si atom -12394.313233 kJ/mol
# Density = 1.871137 g / cm^3
# Si number density = 18.754059 Si / 1000 Ang^3
#
#
#
# Elastic Constant Matrix: (Units=GPa)
#
#
# Indices 1 2 3 4 5 6 
#
# 1 99.3955 38.5341 20.0152 0.0000 0.0000 0.0000
# 2 38.5341 111.7427 15.8607 0.0000 0.0000 0.0000
# 3 20.0152 15.8607 39.0261 0.0000 0.0000 0.0000
# 4 0.0000 0.0000 0.0000 13.0509 0.0000 0.0000
# 5 0.0000 0.0000 0.0000 0.0000 25.1404 0.0000
# 6 0.0000 0.0000 0.0000 0.0000 0.0000 24.5656
#
#
#
# Elastic Compliance Matrix: (Units=1/GPa)
#
#
# Indices 1 2 3 4 5 6 
#
# 1 0.012445 -0.003593 -0.004922 0.000000 0.000000 0.000000
# 2 -0.003593 0.010534 -0.002439 0.000000 0.000000 0.000000
# 3 -0.004922 -0.002439 0.029139 0.000000 0.000000 0.000000
# 4 0.000000 0.000000 0.000000 0.076623 0.000000 0.000000
# 5 0.000000 0.000000 0.000000 0.000000 0.039777 0.000000
# 6 0.000000 0.000000 0.000000 0.000000 0.000000 0.040707
#
#
# Mechanical properties :
#
#
# Convention : Reuss Voigt Hill
#
# Bulk Modulus (GPa) = 33.10062 44.33160 38.71611
# Shear Modulus (GPa) = 20.72935 24.26834 22.49884
#
# Velocity S-wave (km/s) = 3.32825 3.60117 3.46740
# Velocity P-wave (km/s) = 5.69718 6.40163 6.05965
#
# Compressibility (1/GPa) = 0.03021091
#
# Stress axis : x y z
#
# Youngs Moduli (GPa) = 80.35378 94.92829 34.31772
#
# Poissons Ratio (x) = 0.34107 0.16893
# Poissons Ratio (y) = 0.28871 0.08369
# Poissons Ratio (z) = 0.39553 0.23149
#
# Static dielectric constant tensor:
#      x y z
#    x 3.610850 0.000000 0.000000 
#    y 0.000000 4.087200 0.000000 
#    z 0.000000 0.000000 3.240740 
# 
# 
# High freq. dielectric constant tensor:
#      x y z
#    x 1.731600 0.000000 0.000000 
#    y 0.000000 1.734440 0.000000 
#    z 0.000000 0.000000 1.688290 
# 
# From -- ./inp_files/20656.got.cif
#   From: 2010.03.12/outbox.cif.g09.slc.cpg/sg44_11_cif.got.tgz:20656.got - 2010.04.14 02:36:11.
