data_PCOD8188668
_publ_section_title
;
Structure prediction by ZEFSAII (Michael W. Deem and Ramdas Pophale) SiO2 
 PCOD8188668
Probable space group: I M M 2
;
_chemical_formula_sum "Si O2"
_cell_formula_units_Z 64
_cell_length_a 9.138060
_cell_length_b 20.648822
_cell_length_c 19.364163
_cell_angle_alpha 90.000000
_cell_angle_beta 90.000000
_cell_angle_gamma 90.000000
_cell_volume 3653.827293
_symmetry_space_group_name_H-M "I M M 2"
_symmetry_group_IT_number 44
_symmetry_cell_setting 'orthorhombic'
loop_
_space_group_symop_operation_xyz
x,y,z
-x,-y,z
-x,y,z
x,-y,z
1/2+x,1/2+y,1/2+z
1/2-x,1/2-y,1/2+z
1/2-x,1/2+y,1/2+z
1/2+x,1/2-y,1/2+z
loop_
_atom_site_type_symbol
_atom_site_label
_atom_site_fract_x
_atom_site_fract_y
_atom_site_fract_z
Si Si1 0.168333 0.427882 0.005890
Si Si2 0.671383 0.812111 0.409946
Si Si3 0.670251 0.262506 0.785673
Si Si4 0.168264 0.819139 0.990799
Si Si5 0.330538 0.374149 0.128866
Si Si6 0.833184 0.757601 0.130798
Si Si7 0.331282 0.072925 0.909030
Si Si8 0.828829 0.127249 0.785093
O O1 0.190510 0.500000 0.975049
O O2 0.253136 0.424378 0.078233
O O3 0.000000 0.413226 0.022215
O O4 0.227400 0.374770 0.952028
O O5 0.500000 0.816860 0.393719
O O6 0.759901 0.814231 0.338011
O O7 0.710369 0.747768 0.453033
O O8 0.500000 0.252696 0.802137
O O9 0.694866 0.287124 0.707032
O O10 0.753349 0.195679 0.798752
O O11 0.268418 0.877535 0.965219
O O12 0.000000 0.836739 0.975525
O O13 0.197041 0.811880 0.072911
O O14 0.500000 0.373178 0.111243
O O15 0.271354 0.302360 0.116488
O O16 0.301299 0.397166 0.207298
O O17 0.000000 0.732240 0.124314
O O18 0.500000 0.090077 0.895081
O O19 0.242833 0.076325 0.837170
O O20 0.314211 0.000000 0.937872
O O21 0.000000 0.135180 0.801221
#
# Coordination Sequence:
#
# PCOD8188668 Si02
#       8
#     8   8   8   8   8   8   8   8
#     4  10  21  37  55  74 102 143 182 213 253 308
#     4  10  19  33  54  79 106 136 175 217 257 306
#     4  10  19  31  53  81 107 135 170 215 263 305
#     4  10  19  34  57  79 103 136 174 217 259 305
#     4  10  20  32  50  77 108 139 173 214 258 302
#     4   9  18  34  54  78 106 136 173 213 255 309
#     4  11  24  38  52  75 106 138 175 218 261 308
#     4  10  20  34  51  74 105 142 178 210 251 307
#
# _framework density 17.515881
#
# number of rings (size 3 to 8) (size 9 to 14) (size 15 to 20)
#    0.000    2.000    2.500    1.500    0.000    4.750 
#    0.000    2.500    0.000    0.750    0.000    3.500 
#    0.000    0.000    0.000    0.000    0.000    0.000 
#
# Total GULP energy -396827.460976 kJ/mol
# GULP energy per Si atom -12400.858156 kJ/mol
# Density = 1.747601 g / cm^3
# Si number density = 17.515881 Si / 1000 Ang^3
#
#
#
# Elastic Constant Matrix: (Units=GPa)
#
#
# Indices 1 2 3 4 5 6 
#
# 1 85.2012 46.0764 50.1440 0.0000 0.0000 0.0000
# 2 46.0764 95.8281 56.6296 0.0000 0.0000 0.0000
# 3 50.1440 56.6296 113.8638 0.0000 0.0000 0.0000
# 4 0.0000 0.0000 0.0000 24.2479 0.0000 0.0000
# 5 0.0000 0.0000 0.0000 0.0000 31.1530 0.0000
# 6 0.0000 0.0000 0.0000 0.0000 0.0000 23.0299
#
#
#
# Elastic Compliance Matrix: (Units=1/GPa)
#
#
# Indices 1 2 3 4 5 6 
#
# 1 0.017694 -0.005528 -0.005043 0.000000 0.000000 0.000000
# 2 -0.005528 0.016506 -0.005775 0.000000 0.000000 0.000000
# 3 -0.005043 -0.005775 0.013875 0.000000 0.000000 0.000000
# 4 0.000000 0.000000 0.000000 0.041241 0.000000 0.000000
# 5 0.000000 0.000000 0.000000 0.000000 0.032100 0.000000
# 6 0.000000 0.000000 0.000000 0.000000 0.000000 0.043422
#
#
# Mechanical properties :
#
#
# Convention : Reuss Voigt Hill
#
# Bulk Modulus (GPa) = 65.00102 66.73256 65.86679
# Shear Modulus (GPa) = 24.67225 25.15571 24.91398
#
# Velocity S-wave (km/s) = 3.75716 3.79379 3.77552
# Velocity P-wave (km/s) = 7.48411 7.57440 7.52939
#
# Compressibility (1/GPa) = 0.01538437
#
# Stress axis : x y z
#
# Youngs Moduli (GPa) = 56.51541 60.58502 72.06975
#
# Poissons Ratio (x) = 0.33489 0.36346
# Poissons Ratio (y) = 0.31239 0.41619
# Poissons Ratio (z) = 0.28502 0.34987
#
# Static dielectric constant tensor:
#      x y z
#    x 3.319030 0.000000 0.000000 
#    y 0.000000 2.995110 0.000000 
#    z 0.000000 0.000000 3.461790 
# 
# 
# High freq. dielectric constant tensor:
#      x y z
#    x 1.684250 0.000000 0.000000 
#    y 0.000000 1.646180 0.000000 
#    z 0.000000 0.000000 1.680800 
# 
# From -- ./inp_files/23247.got.cif
#   From: 2010.03.12/outbox.cif.g09.slc.cpg/sg44_12_cif.got.tgz:23247.got - 2010.04.14 02:36:11.
