data_PCOD8188372
_publ_section_title
;
Structure prediction by ZEFSAII (Michael W. Deem and Ramdas Pophale) SiO2 
 PCOD8188372
Probable space group: I M M 2
;
_chemical_formula_sum "Si O2"
_cell_formula_units_Z 56
_cell_length_a 16.732805
_cell_length_b 9.503336
_cell_length_c 19.780496
_cell_angle_alpha 90.000000
_cell_angle_beta 90.000000
_cell_angle_gamma 90.000000
_cell_volume 3145.444392
_symmetry_space_group_name_H-M "I M M 2"
_symmetry_group_IT_number 44
_symmetry_cell_setting 'orthorhombic'
loop_
_space_group_symop_operation_xyz
x,y,z
-x,-y,z
-x,y,z
x,-y,z
1/2+x,1/2+y,1/2+z
1/2-x,1/2-y,1/2+z
1/2-x,1/2+y,1/2+z
1/2+x,1/2-y,1/2+z
loop_
_atom_site_type_symbol
_atom_site_label
_atom_site_fract_x
_atom_site_fract_y
_atom_site_fract_z
Si Si1 0.910460 0.655946 0.505060
Si Si2 0.720692 0.665105 0.937520
Si Si3 0.911223 0.659674 0.663857
Si Si4 0.237620 0.834276 0.681600
Si Si5 0.173291 0.838571 0.289999
Si Si6 0.334687 0.834981 0.550612
Si Si7 0.000000 0.669172 0.110438
Si Si8 0.000000 0.159080 0.247840
O O1 0.877048 0.500000 0.488660
O O2 0.858101 0.771854 0.469586
O O3 0.910564 0.681793 0.584400
O O4 0.000000 0.670982 0.476873
O O5 0.712864 0.500000 0.948178
O O6 0.720560 0.703893 0.858457
O O7 0.800322 0.719727 0.977874
O O8 0.887118 0.500000 0.682925
O O9 0.848703 0.767044 0.696773
O O10 0.000000 0.693009 0.692201
O O11 0.300252 0.768944 0.733004
O O12 0.268818 0.794361 0.606893
O O13 0.232539 0.000000 0.693052
O O14 0.077452 0.818288 0.295738
O O15 0.193886 0.000000 0.270677
O O16 0.422161 0.773669 0.569263
O O17 0.346086 0.000000 0.547997
O O18 0.000000 0.733927 0.185118
O O19 0.000000 0.500000 0.118531
O O20 0.000000 0.000000 0.218333
#
# Coordination Sequence:
#
# PCOD8188372 Si02
#       8
#     8   8   8   8   8   8   4   4
#     4   9  18  31  47  73 106 136 166 203 252 310
#     4  10  20  35  53  75 105 141 182 223 266 321
#     4   9  18  33  53  77 106 138 173 214 264 319
#     4  11  20  33  55  81 107 136 177 226 275 326
#     4  10  22  36  52  74 110 148 179 221 274 336
#     4   9  18  32  53  81 104 132 176 225 274 319
#     4  10  18  34  58  80 106 135 172 230 283 322
#     4  10  20  34  50  78 110 143 184 218 267 334
#
# _framework density 17.803525
#
# number of rings (size 3 to 8) (size 9 to 14) (size 15 to 20)
#    0.000    2.286    2.857    1.286    1.000    1.143 
#    0.000    2.143    1.571    0.000    0.000    0.000 
#    0.000    0.000    0.000    0.000    0.000    0.000 
#
# Total GULP energy -347036.195331 kJ/mol
# GULP energy per Si atom -12394.149833 kJ/mol
# Density = 1.776300 g / cm^3
# Si number density = 17.803525 Si / 1000 Ang^3
#
#
#
# Elastic Constant Matrix: (Units=GPa)
#
#
# Indices 1 2 3 4 5 6 
#
# 1 101.0437 38.8938 34.5741 0.0000 0.0000 0.0000
# 2 38.8938 49.3807 29.5172 0.0000 0.0000 0.0000
# 3 34.5741 29.5172 75.8869 0.0000 0.0000 0.0000
# 4 0.0000 0.0000 0.0000 22.7338 0.0000 0.0000
# 5 0.0000 0.0000 0.0000 0.0000 42.8063 0.0000
# 6 0.0000 0.0000 0.0000 0.0000 0.0000 27.8226
#
#
#
# Elastic Compliance Matrix: (Units=1/GPa)
#
#
# Indices 1 2 3 4 5 6 
#
# 1 0.014661 -0.009843 -0.002851 0.000000 0.000000 0.000000
# 2 -0.009843 0.032994 -0.008349 0.000000 0.000000 0.000000
# 3 -0.002851 -0.008349 0.017724 0.000000 0.000000 0.000000
# 4 0.000000 0.000000 0.000000 0.043987 0.000000 0.000000
# 5 0.000000 0.000000 0.000000 0.000000 0.023361 0.000000
# 6 0.000000 0.000000 0.000000 0.000000 0.000000 0.035942
#
#
# Mechanical properties :
#
#
# Convention : Reuss Voigt Hill
#
# Bulk Modulus (GPa) = 42.93172 48.03127 45.48150
# Shear Modulus (GPa) = 22.88114 26.89429 24.88772
#
# Velocity S-wave (km/s) = 3.58886 3.89088 3.74292
# Velocity P-wave (km/s) = 6.42960 6.87185 6.65440
#
# Compressibility (1/GPa) = 0.02329280
#
# Stress axis : x y z
#
# Youngs Moduli (GPa) = 68.20747 30.30817 56.42134
#
# Poissons Ratio (x) = 0.29834 0.16085
# Poissons Ratio (y) = 0.67140 0.47106
# Poissons Ratio (z) = 0.19445 0.25304
#
# Static dielectric constant tensor:
#      x y z
#    x 2.868950 0.000000 0.000000 
#    y 0.000000 3.185960 0.000000 
#    z 0.000000 0.000000 3.231280 
# 
# 
# High freq. dielectric constant tensor:
#      x y z
#    x 1.694900 0.000000 0.000000 
#    y 0.000000 1.676150 0.000000 
#    z 0.000000 0.000000 1.664360 
# 
# From -- ./inp_files/24166.got.cif
#   From: 2010.03.12/outbox.cif.g09.slc.cpg/sg44_13_cif.got.tgz:24166.got - 2010.04.14 02:36:11.
