data_PCOD8188266
_publ_section_title
;
Structure prediction by ZEFSAII (Michael W. Deem and Ramdas Pophale) SiO2 
 PCOD8188266
Probable space group: I M M 2
;
_chemical_formula_sum "Si O2"
_cell_formula_units_Z 64
_cell_length_a 8.901425
_cell_length_b 20.928683
_cell_length_c 19.598291
_cell_angle_alpha 90.000000
_cell_angle_beta 90.000000
_cell_angle_gamma 90.000000
_cell_volume 3651.065622
_symmetry_space_group_name_H-M "I M M 2"
_symmetry_group_IT_number 44
_symmetry_cell_setting 'orthorhombic'
loop_
_space_group_symop_operation_xyz
x,y,z
-x,-y,z
-x,y,z
x,-y,z
1/2+x,1/2+y,1/2+z
1/2-x,1/2-y,1/2+z
1/2-x,1/2+y,1/2+z
1/2+x,1/2-y,1/2+z
loop_
_atom_site_type_symbol
_atom_site_label
_atom_site_fract_x
_atom_site_fract_y
_atom_site_fract_z
Si Si1 0.671304 0.124942 0.594860
Si Si2 0.822969 0.929290 0.721848
Si Si3 0.322422 0.768847 0.945463
Si Si4 0.823368 0.227426 0.085868
Si Si5 0.173607 0.634403 0.943614
Si Si6 0.822902 0.569730 0.807151
Si Si7 0.178124 0.311220 0.721213
Si Si8 0.821850 0.811261 0.810484
O O1 0.500000 0.115065 0.617202
O O2 0.772417 0.083313 0.644550
O O3 0.717360 0.198948 0.599421
O O4 0.698580 0.101516 0.517169
O O5 0.761073 0.875158 0.772934
O O6 0.000000 0.925897 0.721840
O O7 0.767378 0.000000 0.744627
O O8 0.500000 0.775523 0.948750
O O9 0.277403 0.695686 0.933649
O O10 0.259151 0.810665 0.883225
O O11 0.252621 0.795802 0.015680
O O12 0.756475 0.187074 0.147928
O O13 0.000000 0.216266 0.079805
O O14 0.217217 0.583558 0.885997
O O15 0.000000 0.657619 0.936662
O O16 0.754652 0.500000 0.788028
O O17 0.759099 0.625574 0.759070
O O18 0.000000 0.568047 0.797941
O O19 0.226928 0.249617 0.765158
O O20 0.000000 0.312065 0.711350
O O21 0.000000 0.811982 0.821631
#
# Coordination Sequence:
#
# PCOD8188266 Si02
#       8
#     8   8   8   8   8   8   8   8
#     4   9  18  30  48  73 102 135 171 211 249 297
#     4  10  21  35  51  72 101 138 175 210 255 308
#     4  11  21  32  52  80 106 132 170 215 261 305
#     4  10  20  34  53  77 106 135 169 213 261 306
#     4   9  17  32  50  73 104 140 177 208 250 300
#     4   9  17  30  50  75 104 138 175 211 249 300
#     4  10  18  31  54  79 102 135 174 212 256 300
#     4  10  19  34  54  75 103 137 171 211 257 305
#
# _framework density 17.529129000000001
#
# number of rings (size 3 to 8) (size 9 to 14) (size 15 to 20)
#    0.000    2.250    2.500    2.250    0.000    3.750 
#    0.000    1.250    0.000    2.250    0.000    0.000 
#    0.000    0.000    0.000    0.000    0.000    0.000 
#
# Total GULP energy -396764.456291 kJ/mol
# GULP energy per Si atom -12398.889259 kJ/mol
# Density = 1.748923 g / cm^3
# Si number density = 17.529129 Si / 1000 Ang^3
#
#
#
# Elastic Constant Matrix: (Units=GPa)
#
#
# Indices 1 2 3 4 5 6 
#
# 1 45.6119 29.3447 43.2217 0.0000 0.0000 0.0000
# 2 29.3447 123.3224 76.8740 0.0000 0.0000 0.0000
# 3 43.2217 76.8740 145.2449 0.0000 0.0000 0.0000
# 4 0.0000 0.0000 0.0000 21.6792 0.0000 0.0000
# 5 0.0000 0.0000 0.0000 0.0000 31.7924 0.0000
# 6 0.0000 0.0000 0.0000 0.0000 0.0000 12.5408
#
#
#
# Elastic Compliance Matrix: (Units=1/GPa)
#
#
# Indices 1 2 3 4 5 6 
#
# 1 0.031014 -0.002428 -0.007944 0.000000 0.000000 0.000000
# 2 -0.002428 0.012291 -0.005783 0.000000 0.000000 0.000000
# 3 -0.007944 -0.005783 0.012310 0.000000 0.000000 0.000000
# 4 0.000000 0.000000 0.000000 0.046127 0.000000 0.000000
# 5 0.000000 0.000000 0.000000 0.000000 0.031454 0.000000
# 6 0.000000 0.000000 0.000000 0.000000 0.000000 0.079740
#
#
# Mechanical properties :
#
#
# Convention : Reuss Voigt Hill
#
# Bulk Modulus (GPa) = 42.90898 68.11779 55.51338
# Shear Modulus (GPa) = 19.76172 24.18506 21.97339
#
# Velocity S-wave (km/s) = 3.36127 3.71847 3.54437
# Velocity P-wave (km/s) = 6.29253 7.57497 6.96334
#
# Compressibility (1/GPa) = 0.02330515
#
# Stress axis : x y z
#
# Youngs Moduli (GPa) = 32.24369 81.35755 81.23667
#
# Poissons Ratio (x) = 0.19752 0.64535
# Poissons Ratio (y) = 0.07828 0.46980
# Poissons Ratio (z) = 0.25615 0.47049
#
# Static dielectric constant tensor:
#      x y z
#    x 3.034320 0.000000 0.000000 
#    y 0.000000 3.347380 0.000000 
#    z 0.000000 0.000000 3.411000 
# 
# 
# High freq. dielectric constant tensor:
#      x y z
#    x 1.659420 0.000000 0.000000 
#    y 0.000000 1.652820 0.000000 
#    z 0.000000 0.000000 1.685110 
# 
# From -- ./inp_files/23409.got.cif
#   From: 2010.03.12/outbox.cif.g09.slc.cpg/sg44_12_cif.got.tgz:23409.got - 2010.04.14 02:36:11.
