data_PCOD8188700
_publ_section_title
;
Structure prediction by ZEFSAII (Michael W. Deem and Ramdas Pophale) SiO2 
 PCOD8188700
Probable space group: I M M 2
;
_chemical_formula_sum "Si O2"
_cell_formula_units_Z 64
_cell_length_a 8.799221
_cell_length_b 29.090427
_cell_length_c 12.883561
_cell_angle_alpha 90.000000
_cell_angle_beta 90.000000
_cell_angle_gamma 90.000000
_cell_volume 3297.844999
_symmetry_space_group_name_H-M "I M M 2"
_symmetry_group_IT_number 44
_symmetry_cell_setting 'orthorhombic'
loop_
_space_group_symop_operation_xyz
x,y,z
-x,-y,z
-x,y,z
x,-y,z
1/2+x,1/2+y,1/2+z
1/2-x,1/2-y,1/2+z
1/2-x,1/2+y,1/2+z
1/2+x,1/2-y,1/2+z
loop_
_atom_site_type_symbol
_atom_site_label
_atom_site_fract_x
_atom_site_fract_y
_atom_site_fract_z
Si Si1 0.676624 0.207623 0.255620
Si Si2 0.819093 0.388373 0.834112
Si Si3 0.819558 0.862265 0.545146
Si Si4 0.172911 0.945662 0.158585
Si Si5 0.821783 0.553044 0.444983
Si Si6 0.168722 0.716274 0.359531
Si Si7 0.679935 0.120493 0.762975
Si Si8 0.829860 0.759222 0.565604
O O1 0.500000 0.200774 0.235411
O O2 0.746346 0.157987 0.280227
O O3 0.711942 0.242240 0.348164
O O4 0.758471 0.234254 0.159764
O O5 0.764542 0.429220 0.759902
O O6 0.000000 0.389021 0.843744
O O7 0.751001 0.391557 0.950165
O O8 0.764072 0.885171 0.653073
O O9 0.757962 0.809190 0.536958
O O10 0.000000 0.866035 0.536960
O O11 0.000000 0.928438 0.165944
O O12 0.185179 0.000000 0.159742
O O13 0.242609 0.927610 0.049549
O O14 0.778930 0.500000 0.425206
O O15 0.766878 0.580933 0.343166
O O16 0.000000 0.560054 0.462109
O O17 0.230818 0.668606 0.314927
O O18 0.161573 0.717668 0.483443
O O19 0.000000 0.726654 0.313978
O O20 0.500000 0.118341 0.744821
O O21 0.000000 0.772388 0.602119
#
# Coordination Sequence:
#
# PCOD8188700 Si02
#       8
#     8   8   8   8   8   8   8   8
#     4  10  20  34  52  76 108 145 188 232 276 330
#     4  11  23  37  59  86 115 150 193 239 284 341
#     4  11  21  36  57  77 112 157 196 238 286 338
#     4  10  22  41  64  89 117 146 181 230 286 344
#     4   9  19  38  63  88 115 148 185 230 286 342
#     4  10  19  32  51  74 106 145 185 230 279 333
#     4  10  21  35  56  84 114 148 192 239 287 342
#     4   9  18  32  49  71 105 147 185 227 280 332
#
# _framework density 19.406611999999999
#
# number of rings (size 3 to 8) (size 9 to 14) (size 15 to 20)
#    0.000    2.000    2.500    1.125    1.750    1.750 
#    0.000    1.250    0.000    2.250    0.000    0.000 
#    0.000    0.000    0.000    0.000    0.000    0.000 
#
# Total GULP energy -396518.902706 kJ/mol
# GULP energy per Si atom -12391.215710 kJ/mol
# Density = 1.936244 g / cm^3
# Si number density = 19.406612 Si / 1000 Ang^3
#
#
#
# Elastic Constant Matrix: (Units=GPa)
#
#
# Indices 1 2 3 4 5 6 
#
# 1 58.7761 26.1632 49.2112 -0.0002 0.0000 0.0000
# 2 26.1632 57.4439 46.7066 0.0000 0.0000 0.0000
# 3 49.2112 46.7066 145.6791 -0.0009 0.0002 0.0004
# 4 -0.0002 0.0000 -0.0009 37.6704 0.0000 0.0001
# 5 0.0000 0.0000 0.0002 0.0000 30.0721 -0.0001
# 6 0.0000 0.0000 0.0004 0.0001 -0.0001 20.8044
#
#
#
# Elastic Compliance Matrix: (Units=1/GPa)
#
#
# Indices 1 2 3 4 5 6 
#
# 1 0.025244 -0.006173 -0.006548 0.000000 0.000000 0.000000
# 2 -0.006173 0.025056 -0.005948 0.000000 0.000000 0.000000
# 3 -0.006548 -0.005948 0.010984 0.000000 0.000000 0.000000
# 4 0.000000 0.000000 0.000000 0.026546 0.000000 0.000000
# 5 0.000000 0.000000 0.000000 0.000000 0.033253 0.000000
# 6 0.000000 0.000000 0.000000 0.000000 0.000000 0.048067
#
#
# Mechanical properties :
#
#
# Convention : Reuss Voigt Hill
#
# Bulk Modulus (GPa) = 41.76298 56.22901 48.99599
# Shear Modulus (GPa) = 23.31315 27.03058 25.17186
#
# Velocity S-wave (km/s) = 3.46974 3.73615 3.60540
# Velocity P-wave (km/s) = 6.13342 6.90281 6.52945
#
# Compressibility (1/GPa) = 0.02394465
#
# Stress axis : x y z
#
# Youngs Moduli (GPa) = 39.61259 39.91043 91.04560
#
# Poissons Ratio (x) = 0.24638 0.59621
# Poissons Ratio (y) = 0.24454 0.54153
# Poissons Ratio (z) = 0.25940 0.23738
#
# Static dielectric constant tensor:
#      x y z
#    x 3.428280 0.000000 0.000000 
#    y 0.000000 3.500990 0.000000 
#    z 0.000000 0.000000 3.660530 
# 
# 
# High freq. dielectric constant tensor:
#      x y z
#    x 1.738480 0.000000 0.000000 
#    y 0.000000 1.738500 0.000000 
#    z 0.000000 0.000000 1.767620 
# 
# From -- ./inp_files/11503.got.cif
#   From: 2010.03.12/outbox.cif.g09.slc.cpg/sg44_6_cif.got.tgz:11503.got - 2010.04.14 02:36:11.
