data_PCOD8188867
_publ_section_title
;
Structure prediction by ZEFSAII (Michael W. Deem and Ramdas Pophale) SiO2 
 PCOD8188867
Probable space group: I M M 2
;
_chemical_formula_sum "Si O2"
_cell_formula_units_Z 32
_cell_length_a 9.112078
_cell_length_b 7.842644
_cell_length_c 23.644121
_cell_angle_alpha 90.000000
_cell_angle_beta 90.000000
_cell_angle_gamma 90.000000
_cell_volume 1689.674708
_symmetry_space_group_name_H-M "I M M 2"
_symmetry_group_IT_number 44
_symmetry_cell_setting 'orthorhombic'
loop_
_space_group_symop_operation_xyz
x,y,z
-x,-y,z
-x,y,z
x,-y,z
1/2+x,1/2+y,1/2+z
1/2-x,1/2-y,1/2+z
1/2-x,1/2+y,1/2+z
1/2+x,1/2-y,1/2+z
loop_
_atom_site_type_symbol
_atom_site_label
_atom_site_fract_x
_atom_site_fract_y
_atom_site_fract_z
Si Si1 0.170788 0.500000 0.654570
Si Si2 0.829818 0.307345 0.347745
Si Si3 0.840066 0.811158 0.069361
Si Si4 0.831131 0.307305 0.952212
Si Si5 0.173663 0.500000 0.785409
O O1 0.235609 0.327236 0.624767
O O2 0.214803 0.500000 0.719593
O O3 0.000000 0.500000 0.644739
O O4 0.808646 0.500000 0.324055
O O5 0.770681 0.306176 0.412031
O O6 0.000000 0.254810 0.347341
O O7 0.739551 0.173330 0.310518
O O8 0.000000 0.738609 0.088338
O O9 0.858966 0.000000 0.043303
O O10 0.774709 0.700329 0.017557
O O11 0.818326 0.500000 0.929997
O O12 0.000000 0.244317 0.949607
O O13 0.000000 0.500000 0.796264
#
# Coordination Sequence:
#
# PCOD8188867 Si02
#       5
#     4   8   8   8   4
#     4   9  19  35  57  81 107 147 198 245 292 343
#     4  11  24  39  58  88 121 155 196 247 305 355
#     4   8  16  31  51  77 106 145 188 226 281 342
#     4  10  19  33  55  84 118 155 195 237 288 354
#     4  11  23  41  63  87 117 159 206 247 294 357
#
# _framework density 18.938555000000001
#
# number of rings (size 3 to 8) (size 9 to 14) (size 15 to 20)
#    0.750    1.500    1.250    1.875    0.000    6.000 
#    0.000    1.250    0.000    4.500    0.000    0.000 
#    0.000    0.000    0.000    0.000    0.000    0.000 
#
# Total GULP energy -198235.748333 kJ/mol
# GULP energy per Si atom -12389.734271 kJ/mol
# Density = 1.889545 g / cm^3
# Si number density = 18.938555 Si / 1000 Ang^3
#
#
#
# Elastic Constant Matrix: (Units=GPa)
#
#
# Indices 1 2 3 4 5 6 
#
# 1 104.2396 42.8739 76.9737 0.0000 0.0000 0.0000
# 2 42.8739 80.8093 38.9644 0.0000 0.0000 0.0000
# 3 76.9737 38.9644 134.6387 0.0000 0.0000 0.0000
# 4 0.0000 0.0000 0.0000 28.6063 0.0000 0.0000
# 5 0.0000 0.0000 0.0000 0.0000 33.6952 0.0000
# 6 0.0000 0.0000 0.0000 0.0000 0.0000 22.4269
#
#
#
# Elastic Compliance Matrix: (Units=1/GPa)
#
#
# Indices 1 2 3 4 5 6 
#
# 1 0.018473 -0.005472 -0.008978 0.000000 0.000000 0.000000
# 2 -0.005472 0.016003 -0.001503 0.000000 0.000000 0.000000
# 3 -0.008978 -0.001503 0.012995 0.000000 0.000000 0.000000
# 4 0.000000 0.000000 0.000000 0.034957 0.000000 0.000000
# 5 0.000000 0.000000 0.000000 0.000000 0.029678 0.000000
# 6 0.000000 0.000000 0.000000 0.000000 0.000000 0.044589
#
#
# Mechanical properties :
#
#
# Convention : Reuss Voigt Hill
#
# Bulk Modulus (GPa) = 64.24417 70.81241 67.52829
# Shear Modulus (GPa) = 25.80123 27.67072 26.73598
#
# Velocity S-wave (km/s) = 3.69503 3.82655 3.76137
# Velocity P-wave (km/s) = 7.22498 7.54951 7.38903
#
# Compressibility (1/GPa) = 0.01556562
#
# Stress axis : x y z
#
# Youngs Moduli (GPa) = 54.13163 62.48931 76.95420
#
# Poissons Ratio (x) = 0.34196 0.69087
# Poissons Ratio (y) = 0.29623 0.11563
# Poissons Ratio (z) = 0.48598 0.09390
#
# Static dielectric constant tensor:
#      x y z
#    x 3.420710 0.000000 0.000000 
#    y 0.000000 3.309620 0.000000 
#    z 0.000000 0.000000 3.404330 
# 
# 
# High freq. dielectric constant tensor:
#      x y z
#    x 1.732240 0.000000 0.000000 
#    y 0.000000 1.719700 0.000000 
#    z 0.000000 0.000000 1.728500 
# 
# From -- ./inp_files/24566.got.cif
#   From: 2010.03.12/outbox.cif.g09.slc.cpg/sg44_13_cif.got.tgz:24566.got - 2010.04.14 02:36:11.
