data_PCOD8188476
_publ_section_title
;
Structure prediction by ZEFSAII (Michael W. Deem and Ramdas Pophale) SiO2 
 PCOD8188476
Probable space group: I M M 2
;
_chemical_formula_sum "Si O2"
_cell_formula_units_Z 46
_cell_length_a 11.546703
_cell_length_b 7.650216
_cell_length_c 29.120199
_cell_angle_alpha 90.000000
_cell_angle_beta 90.000000
_cell_angle_gamma 90.000000
_cell_volume 2572.326140
_symmetry_space_group_name_H-M "I M M 2"
_symmetry_group_IT_number 44
_symmetry_cell_setting 'orthorhombic'
loop_
_space_group_symop_operation_xyz
x,y,z
-x,-y,z
-x,y,z
x,-y,z
1/2+x,1/2+y,1/2+z
1/2-x,1/2-y,1/2+z
1/2-x,1/2+y,1/2+z
1/2+x,1/2-y,1/2+z
loop_
_atom_site_type_symbol
_atom_site_label
_atom_site_fract_x
_atom_site_fract_y
_atom_site_fract_z
Si Si1 0.626654 0.300320 0.291410
Si Si2 0.500000 0.500000 0.070882
Si Si3 0.256920 0.000000 0.554013
Si Si4 0.637824 0.304964 0.390770
Si Si5 0.778178 0.701610 0.700109
Si Si6 0.865633 0.204356 0.115713
Si Si7 0.500000 0.793493 0.143868
Si Si8 0.637565 0.000000 0.454635
O O1 0.500000 0.216586 0.277719
O O2 0.604410 0.500000 0.302521
O O3 0.673229 0.226557 0.340268
O O4 0.721808 0.284765 0.250882
O O5 0.619795 0.500000 0.042197
O O6 0.500000 0.680943 0.098265
O O7 0.291119 0.825469 0.582117
O O8 0.324333 0.000000 0.506835
O O9 0.500000 0.311731 0.393142
O O10 0.688960 0.500000 0.400025
O O11 0.686853 0.173101 0.429322
O O12 0.788068 0.500000 0.709980
O O13 0.666167 0.747855 0.669043
O O14 0.889068 0.767730 0.672333
O O15 0.000000 0.245674 0.108452
O O16 0.836627 0.000000 0.105425
O O17 0.500000 0.000000 0.131881
O O18 0.500000 0.000000 0.452925
#
# Coordination Sequence:
#
# PCOD8188476 Si02
#       8
#     8   2   4   8   8   8   4   4
#     4   9  17  26  43  71 105 138 172 211 264 319
#     4  12  24  36  60  76 112 144 172 228 278 316
#     4  12  24  38  58  84 104 140 186 224 277 329
#     4   8  16  31  47  71 103 134 168 215 266 319
#     4  10  19  29  47  75 106 143 179 213 259 316
#     4  10  22  39  55  75 110 148 184 225 263 312
#     4  10  20  34  48  74 110 148 182 212 256 318
#     4  10  20  34  54  76 102 132 172 224 274 321
#
# _framework density 17.882648
#
# number of rings (size 3 to 8) (size 9 to 14) (size 15 to 20)
#    0.000    2.261    2.609    1.826    3.652    0.696 
#    0.000    1.739    0.000    0.000    2.261    0.000 
#    0.000    0.000    0.000    0.000    0.000    0.000 
#
# Total GULP energy -284965.553720 kJ/mol
# GULP energy per Si atom -12389.806683 kJ/mol
# Density = 1.784195 g / cm^3
# Si number density = 17.882648 Si / 1000 Ang^3
#
#
#
# Elastic Constant Matrix: (Units=GPa)
#
#
# Indices 1 2 3 4 5 6 
#
# 1 55.4825 21.3246 12.6118 0.0000 0.0000 0.0000
# 2 21.3246 76.5624 42.9651 0.0000 0.0000 0.0000
# 3 12.6118 42.9651 108.0923 0.0000 0.0000 0.0000
# 4 0.0000 0.0000 0.0000 15.6314 0.0000 0.0000
# 5 0.0000 0.0000 0.0000 0.0000 16.2333 0.0000
# 6 0.0000 0.0000 0.0000 0.0000 0.0000 14.8092
#
#
#
# Elastic Compliance Matrix: (Units=1/GPa)
#
#
# Indices 1 2 3 4 5 6 
#
# 1 0.020186 -0.005535 -0.000155 0.000000 0.000000 0.000000
# 2 -0.005535 0.018329 -0.006640 0.000000 0.000000 0.000000
# 3 -0.000155 -0.006640 0.011909 0.000000 0.000000 0.000000
# 4 0.000000 0.000000 0.000000 0.063974 0.000000 0.000000
# 5 0.000000 0.000000 0.000000 0.000000 0.061602 0.000000
# 6 0.000000 0.000000 0.000000 0.000000 0.000000 0.067526
#
#
# Mechanical properties :
#
#
# Convention : Reuss Voigt Hill
#
# Bulk Modulus (GPa) = 38.81407 43.77112 41.29260
# Shear Modulus (GPa) = 18.06531 20.21716 19.14124
#
# Velocity S-wave (km/s) = 3.18184 3.36601 3.27522
# Velocity P-wave (km/s) = 5.93724 6.29577 6.11913
#
# Compressibility (1/GPa) = 0.02576385
#
# Stress axis : x y z
#
# Youngs Moduli (GPa) = 49.53807 54.55821 83.97288
#
# Poissons Ratio (x) = 0.30201 0.01302
# Poissons Ratio (y) = 0.27422 0.55755
# Poissons Ratio (z) = 0.00768 0.36225
#
# Static dielectric constant tensor:
#      x y z
#    x 3.160560 0.000000 0.000000 
#    y 0.000000 3.736740 0.000000 
#    z 0.000000 0.000000 3.340250 
# 
# 
# High freq. dielectric constant tensor:
#      x y z
#    x 1.640600 0.000000 0.000000 
#    y 0.000000 1.702600 0.000000 
#    z 0.000000 0.000000 1.685170 
# 
# From -- ./inp_files/25382.got.cif
#   From: 2010.03.12/outbox.cif.g09.slc.cpg/sg44_13_cif.got.tgz:25382.got - 2010.04.14 02:36:11.
