data_PCOD8188915
_publ_section_title
;
Structure prediction by ZEFSAII (Michael W. Deem and Ramdas Pophale) SiO2 
 PCOD8188915
Probable space group: I M M 2
;
_chemical_formula_sum "Si O2"
_cell_formula_units_Z 64
_cell_length_a 8.806024
_cell_length_b 29.046501
_cell_length_c 12.669106
_cell_angle_alpha 90.000000
_cell_angle_beta 90.000000
_cell_angle_gamma 90.000000
_cell_volume 3240.556952
_symmetry_space_group_name_H-M "I M M 2"
_symmetry_group_IT_number 44
_symmetry_cell_setting 'orthorhombic'
loop_
_space_group_symop_operation_xyz
x,y,z
-x,-y,z
-x,y,z
x,-y,z
1/2+x,1/2+y,1/2+z
1/2-x,1/2-y,1/2+z
1/2-x,1/2+y,1/2+z
1/2+x,1/2-y,1/2+z
loop_
_atom_site_type_symbol
_atom_site_label
_atom_site_fract_x
_atom_site_fract_y
_atom_site_fract_z
Si Si1 0.820667 0.053873 0.605080
Si Si2 0.171864 0.300015 0.371884
Si Si3 0.827472 0.332263 0.596682
Si Si4 0.324116 0.607928 0.897895
Si Si5 0.327923 0.950396 0.221410
Si Si6 0.822821 0.077799 0.023198
Si Si7 0.178532 0.797514 0.302811
Si Si8 0.680968 0.100168 0.810396
O O1 0.762505 0.083821 0.504628
O O2 0.739103 0.075775 0.705515
O O3 0.000000 0.059025 0.620288
O O4 0.775483 0.000000 0.591424
O O5 0.182216 0.298082 0.498045
O O6 0.246891 0.251828 0.337813
O O7 0.244451 0.346924 0.321724
O O8 0.000000 0.299706 0.332257
O O9 0.710871 0.373002 0.574872
O O10 0.775953 0.306237 0.699799
O O11 0.000000 0.350865 0.608864
O O12 0.500000 0.595738 0.887169
O O13 0.243179 0.588069 0.795260
O O14 0.294343 0.663147 0.893248
O O15 0.500000 0.935778 0.198258
O O16 0.241551 0.957259 0.109968
O O17 0.318763 0.000000 0.279113
O O18 0.000000 0.069908 0.005387
O O19 0.740621 0.071197 0.910600
O O20 0.000000 0.795777 0.276205
O O21 0.500000 0.099757 0.813050
#
# Coordination Sequence:
#
# PCOD8188915 Si02
#       8
#     8   8   8   8   8   8   8   8
#     4  10  22  40  60  84 118 159 203 252 302 359
#     4   8  18  35  54  80 115 153 191 238 295 350
#     4  10  19  34  55  80 114 151 188 239 294 346
#     4  10  21  37  59  85 115 154 198 243 292 352
#     4  11  23  37  56  84 117 149 185 235 291 349
#     4  11  21  36  59  84 111 148 189 235 292 356
#     4  10  19  34  57  84 114 153 198 241 293 356
#     4  10  21  39  61  84 116 156 198 248 300 353
#
# _framework density 19.749692
#
# number of rings (size 3 to 8) (size 9 to 14) (size 15 to 20)
#    0.000    2.000    1.250    3.375    0.000    3.750 
#    0.000    5.000    0.000    0.000    0.000    0.000 
#    0.000    0.000    0.000    0.000    0.000    0.000 
#
# Total GULP energy -396577.341370 kJ/mol
# GULP energy per Si atom -12393.041918 kJ/mol
# Density = 1.970474 g / cm^3
# Si number density = 19.749692 Si / 1000 Ang^3
#
#
#
# Elastic Constant Matrix: (Units=GPa)
#
#
# Indices 1 2 3 4 5 6 
#
# 1 65.5816 28.2711 41.4963 0.0003 -0.0001 0.0000
# 2 28.2711 105.0075 49.5367 0.0011 -0.0004 0.0002
# 3 41.4963 49.5367 124.2457 0.0019 -0.0006 0.0004
# 4 0.0003 0.0011 0.0019 25.9831 -0.0004 0.0002
# 5 -0.0001 -0.0004 -0.0006 -0.0004 31.1904 0.0003
# 6 0.0000 0.0002 0.0004 0.0002 0.0003 17.9590
#
#
#
# Elastic Compliance Matrix: (Units=1/GPa)
#
#
# Indices 1 2 3 4 5 6 
#
# 1 0.019956 -0.002745 -0.005571 0.000000 0.000000 0.000000
# 2 -0.002745 0.012107 -0.003910 0.000000 0.000000 0.000000
# 3 -0.005571 -0.003910 0.011468 -0.000001 0.000000 0.000000
# 4 0.000000 0.000000 -0.000001 0.038487 0.000000 0.000000
# 5 0.000000 0.000000 0.000000 0.000000 0.032061 0.000000
# 6 0.000000 0.000000 0.000000 0.000000 0.000000 0.055682
#
#
# Mechanical properties :
#
#
# Convention : Reuss Voigt Hill
#
# Bulk Modulus (GPa) = 52.41219 59.27144 55.84182
# Shear Modulus (GPa) = 24.92863 26.72856 25.82859
#
# Velocity S-wave (km/s) = 3.55664 3.68280 3.62027
# Velocity P-wave (km/s) = 6.59258 6.93978 6.76841
#
# Compressibility (1/GPa) = 0.01907953
#
# Stress axis : x y z
#
# Youngs Moduli (GPa) = 50.10951 82.59866 87.19824
#
# Poissons Ratio (x) = 0.22672 0.48576
# Poissons Ratio (y) = 0.13754 0.34096
# Poissons Ratio (z) = 0.27915 0.32298
#
# Static dielectric constant tensor:
#      x y z
#    x 3.424660 0.000000 0.000000 
#    y 0.000000 3.870760 0.000000 
#    z 0.000000 0.000000 3.680580 
# 
# 
# High freq. dielectric constant tensor:
#      x y z
#    x 1.756270 0.000000 0.000000 
#    y 0.000000 1.777230 0.000000 
#    z 0.000000 0.000000 1.769040 
# 
# From -- ./inp_files/11551.got.cif
#   From: 2010.03.12/outbox.cif.g09.slc.cpg/sg44_6_cif.got.tgz:11551.got - 2010.04.14 02:36:11.
