data_PCOD8188150
_publ_section_title
;
Structure prediction by ZEFSAII (Michael W. Deem and Ramdas Pophale) SiO2 
 PCOD8188150
Probable space group: I M M 2
;
_chemical_formula_sum "Si O2"
_cell_formula_units_Z 64
_cell_length_a 27.573450
_cell_length_b 9.179645
_cell_length_c 14.562743
_cell_angle_alpha 90.000000
_cell_angle_beta 90.000000
_cell_angle_gamma 90.000000
_cell_volume 3686.041157
_symmetry_space_group_name_H-M "I M M 2"
_symmetry_group_IT_number 44
_symmetry_cell_setting 'orthorhombic'
loop_
_space_group_symop_operation_xyz
x,y,z
-x,-y,z
-x,y,z
x,-y,z
1/2+x,1/2+y,1/2+z
1/2-x,1/2-y,1/2+z
1/2-x,1/2+y,1/2+z
1/2+x,1/2-y,1/2+z
loop_
_atom_site_type_symbol
_atom_site_label
_atom_site_fract_x
_atom_site_fract_y
_atom_site_fract_z
Si Si1 0.056316 0.831830 0.176190
Si Si2 0.179653 0.332288 0.471750
Si Si3 0.329701 0.168390 0.170814
Si Si4 0.774547 0.159285 0.218664
Si Si5 0.946675 0.172704 0.970572
Si Si6 0.232333 0.661322 0.918911
Si Si7 0.362375 0.828972 0.778297
Si Si8 0.641884 0.326629 0.348106
O O1 0.086778 0.739922 0.249372
O O2 0.000000 0.809088 0.199628
O O3 0.071154 0.000000 0.186232
O O4 0.067530 0.774011 0.073021
O O5 0.194996 0.500000 0.459391
O O6 0.149503 0.310287 0.567235
O O7 0.229236 0.241685 0.483881
O O8 0.147118 0.284223 0.384738
O O9 0.272848 0.214552 0.164072
O O10 0.358348 0.267508 0.243583
O O11 0.333601 0.000000 0.203504
O O12 0.758366 0.146086 0.322701
O O13 0.819451 0.270478 0.211509
O O14 0.791538 0.000000 0.182524
O O15 0.908240 0.224797 0.894786
O O16 0.000000 0.233980 0.943411
O O17 0.949016 0.000000 0.974215
O O18 0.219533 0.500000 0.957511
O O19 0.184138 0.757868 0.909833
O O20 0.365170 0.000000 0.765197
O O21 0.647986 0.500000 0.346340
#
# Coordination Sequence:
#
# PCOD8188150 Si02
#       8
#     8   8   8   8   8   8   8   8
#     4   9  18  34  54  71  89 118 154 190 232 286
#     4   9  18  32  48  67  95 132 167 195 228 273
#     4   9  18  32  48  67  96 132 165 196 230 272
#     4   8  15  28  44  61  85 121 159 190 220 260
#     4   8  16  32  52  72  92 117 152 191 234 286
#     4   9  17  29  44  64  93 126 158 194 231 269
#     4  10  19  30  47  71  97 123 152 193 239 278
#     4  10  18  29  49  73  95 122 157 198 240 282
#
# _framework density 17.3628
#
# number of rings (size 3 to 8) (size 9 to 14) (size 15 to 20)
#    0.000    3.000    0.000    2.625    0.000    5.250 
#    0.000    6.250    0.000    3.750    0.000    3.500 
#    0.000    0.000    0.000    0.000    0.000    0.000 
#
# Total GULP energy -396561.453722 kJ/mol
# GULP energy per Si atom -12392.545429 kJ/mol
# Density = 1.732328 g / cm^3
# Si number density = 17.362800 Si / 1000 Ang^3
#
#
#
# Elastic Constant Matrix: (Units=GPa)
#
#
# Indices 1 2 3 4 5 6 
#
# 1 100.3198 50.7173 57.1223 0.0000 0.0000 0.0000
# 2 50.7173 79.1096 42.8358 0.0000 0.0000 0.0000
# 3 57.1223 42.8358 94.9668 0.0000 0.0000 0.0000
# 4 0.0000 0.0000 0.0000 21.5548 0.0000 0.0000
# 5 0.0000 0.0000 0.0000 0.0000 23.5879 0.0000
# 6 0.0000 0.0000 0.0000 0.0000 0.0000 23.4257
#
#
#
# Elastic Compliance Matrix: (Units=1/GPa)
#
#
# Indices 1 2 3 4 5 6 
#
# 1 0.018003 -0.007513 -0.007440 0.000000 0.000000 0.000000
# 2 -0.007513 0.019861 -0.004440 0.000000 0.000000 0.000000
# 3 -0.007440 -0.004440 0.017007 0.000000 0.000000 0.000000
# 4 0.000000 0.000000 0.000000 0.046393 0.000000 0.000000
# 5 0.000000 0.000000 0.000000 0.000000 0.042395 0.000000
# 6 0.000000 0.000000 0.000000 0.000000 0.000000 0.042688
#
#
# Mechanical properties :
#
#
# Convention : Reuss Voigt Hill
#
# Bulk Modulus (GPa) = 62.16311 63.97189 63.06750
# Shear Modulus (GPa) = 21.69251 21.96171 21.82711
#
# Velocity S-wave (km/s) = 3.53847 3.56036 3.54943
# Velocity P-wave (km/s) = 7.25083 7.33661 7.29385
#
# Compressibility (1/GPa) = 0.01608671
#
# Stress axis : x y z
#
# Youngs Moduli (GPa) = 55.54762 50.34930 58.79791
#
# Poissons Ratio (x) = 0.37828 0.43744
# Poissons Ratio (y) = 0.41734 0.26103
# Poissons Ratio (z) = 0.41325 0.22353
#
# Static dielectric constant tensor:
#      x y z
#    x 3.237190 0.000000 0.000000 
#    y 0.000000 3.260540 0.000000 
#    z 0.000000 0.000000 3.267630 
# 
# 
# High freq. dielectric constant tensor:
#      x y z
#    x 1.645760 0.000000 0.000000 
#    y 0.000000 1.663820 0.000000 
#    z 0.000000 0.000000 1.663990 
# 
# From -- ./inp_files/19717.got.cif
#   From: 2010.03.12/outbox.cif.g09.slc.cpg/sg44_10_cif.got.tgz:19717.got - 2010.04.14 02:36:11.
