data_PCOD8188301
_publ_section_title
;
Structure prediction by ZEFSAII (Michael W. Deem and Ramdas Pophale) SiO2 
 PCOD8188301
Probable space group: I M M 2
;
_chemical_formula_sum "Si O2"
_cell_formula_units_Z 48
_cell_length_a 18.391633
_cell_length_b 9.219026
_cell_length_c 15.133949
_cell_angle_alpha 90.000000
_cell_angle_beta 90.000000
_cell_angle_gamma 90.000000
_cell_volume 2566.005589
_symmetry_space_group_name_H-M "I M M 2"
_symmetry_group_IT_number 44
_symmetry_cell_setting 'orthorhombic'
loop_
_space_group_symop_operation_xyz
x,y,z
-x,-y,z
-x,y,z
x,-y,z
1/2+x,1/2+y,1/2+z
1/2-x,1/2-y,1/2+z
1/2-x,1/2+y,1/2+z
1/2+x,1/2-y,1/2+z
loop_
_atom_site_type_symbol
_atom_site_label
_atom_site_fract_x
_atom_site_fract_y
_atom_site_fract_z
Si Si1 0.000000 0.328165 0.435900
Si Si2 0.896195 0.837500 0.755304
Si Si3 0.156032 0.327207 0.376866
Si Si4 0.765211 0.336988 0.204659
Si Si5 0.771218 0.827068 0.024324
Si Si6 0.000000 0.328792 0.636739
Si Si7 0.078511 0.828313 0.949319
O O1 0.074107 0.266830 0.391714
O O2 0.000000 0.500000 0.428193
O O3 0.000000 0.277188 0.536383
O O4 0.810000 0.839874 0.756617
O O5 0.921749 0.772791 0.848778
O O6 0.927061 0.733627 0.679855
O O7 0.926786 0.000000 0.740530
O O8 0.158340 0.500000 0.381039
O O9 0.178499 0.275465 0.278203
O O10 0.211295 0.269607 0.453472
O O11 0.786840 0.500000 0.174102
O O12 0.755813 0.233690 0.121166
O O13 0.769051 0.000000 0.028978
O O14 0.851759 0.765304 0.000567
O O15 0.000000 0.500000 0.645745
O O16 0.000000 0.782715 0.992280
O O17 0.087070 0.000000 0.948092
#
# Coordination Sequence:
#
# PCOD8188301 Si02
#       7
#     4   8   8   8   8   4   8
#     4   9  18  31  49  74 103 136 174 211 253 312
#     4  10  18  32  54  76 101 138 178 211 254 319
#     4   9  17  33  54  73 101 141 179 211 251 316
#     4  10  20  34  54  80 105 135 179 222 260 309
#     4  10  19  34  56  78 101 136 178 219 264 316
#     4  11  21  31  49  84 113 130 164 223 279 316
#     4   9  16  30  54  76  95 130 179 216 246 309
#
# _framework density 18.706115
#
# number of rings (size 3 to 8) (size 9 to 14) (size 15 to 20)
#    0.000    2.333    2.500    1.250    0.000    2.000 
#    1.500    1.667    0.000    2.000    0.000    0.000 
#    0.000    0.000    0.000    0.000    0.000    0.000 
#
# Total GULP energy -297432.257725 kJ/mol
# GULP energy per Si atom -12393.010739 kJ/mol
# Density = 1.866354 g / cm^3
# Si number density = 18.706115 Si / 1000 Ang^3
#
#
#
# Elastic Constant Matrix: (Units=GPa)
#
#
# Indices 1 2 3 4 5 6 
#
# 1 137.7339 10.3550 41.4412 0.0000 0.0000 0.0000
# 2 10.3550 25.7212 18.2487 0.0000 0.0000 0.0000
# 3 41.4412 18.2487 88.6694 0.0000 0.0000 0.0000
# 4 0.0000 0.0000 0.0000 24.6763 0.0000 0.0000
# 5 0.0000 0.0000 0.0000 0.0000 32.3474 0.0000
# 6 0.0000 0.0000 0.0000 0.0000 0.0000 14.9892
#
#
#
# Elastic Compliance Matrix: (Units=1/GPa)
#
#
# Indices 1 2 3 4 5 6 
#
# 1 0.008459 -0.000703 -0.003809 0.000000 0.000000 0.000000
# 2 -0.000703 0.045584 -0.009053 0.000000 0.000000 0.000000
# 3 -0.003809 -0.009053 0.014921 0.000000 0.000000 0.000000
# 4 0.000000 0.000000 0.000000 0.040525 0.000000 0.000000
# 5 0.000000 0.000000 0.000000 0.000000 0.030914 0.000000
# 6 0.000000 0.000000 0.000000 0.000000 0.000000 0.066715
#
#
# Mechanical properties :
#
#
# Convention : Reuss Voigt Hill
#
# Bulk Modulus (GPa) = 23.90352 43.57937 33.74145
# Shear Modulus (GPa) = 20.14555 26.54121 23.34338
#
# Velocity S-wave (km/s) = 3.28525 3.77085 3.53640
# Velocity P-wave (km/s) = 5.21505 6.50435 5.89505
#
# Compressibility (1/GPa) = 0.04183484
#
# Stress axis : x y z
#
# Youngs Moduli (GPa) = 118.21387 21.93729 67.01914
#
# Poissons Ratio (x) = 0.01543 0.25526
# Poissons Ratio (y) = 0.08314 0.60672
# Poissons Ratio (z) = 0.45026 0.19860
#
# Static dielectric constant tensor:
#      x y z
#    x 3.881370 0.000000 0.000000 
#    y 0.000000 2.930430 0.000000 
#    z 0.000000 0.000000 3.356800 
# 
# 
# High freq. dielectric constant tensor:
#      x y z
#    x 1.746700 0.000000 0.000000 
#    y 0.000000 1.670000 0.000000 
#    z 0.000000 0.000000 1.721170 
# 
# From -- ./inp_files/16189.got.cif
#   From: 2010.03.12/outbox.cif.g09.slc.cpg/sg44_9_cif.got.tgz:16189.got - 2010.04.14 02:36:11.
