data_PCOD8188965
_publ_section_title
;
Structure prediction by ZEFSAII (Michael W. Deem and Ramdas Pophale) SiO2 
 PCOD8188965
Probable space group: I M M 2
;
_chemical_formula_sum "Si O2"
_cell_formula_units_Z 64
_cell_length_a 8.672476
_cell_length_b 19.447786
_cell_length_c 20.612146
_cell_angle_alpha 90.000000
_cell_angle_beta 90.000000
_cell_angle_gamma 90.000000
_cell_volume 3476.453971
_symmetry_space_group_name_H-M "I M M 2"
_symmetry_group_IT_number 44
_symmetry_cell_setting 'orthorhombic'
loop_
_space_group_symop_operation_xyz
x,y,z
-x,-y,z
-x,y,z
x,-y,z
1/2+x,1/2+y,1/2+z
1/2-x,1/2-y,1/2+z
1/2-x,1/2+y,1/2+z
1/2+x,1/2-y,1/2+z
loop_
_atom_site_type_symbol
_atom_site_label
_atom_site_fract_x
_atom_site_fract_y
_atom_site_fract_z
Si Si1 0.179664 0.710476 0.710240
Si Si2 0.679491 0.706834 0.577227
Si Si3 0.682804 0.425547 0.905398
Si Si4 0.677862 0.422418 0.381974
Si Si5 0.679706 0.796083 0.825843
Si Si6 0.820321 0.922197 0.258840
Si Si7 0.320847 0.078175 0.019780
Si Si8 0.819151 0.783668 0.457216
O O1 0.228644 0.736404 0.638986
O O2 0.270978 0.753748 0.763325
O O3 0.222837 0.629845 0.714860
O O4 0.000000 0.722051 0.720659
O O5 0.500000 0.712792 0.591618
O O6 0.722584 0.627128 0.566136
O O7 0.722132 0.751146 0.514637
O O8 0.500000 0.426028 0.901133
O O9 0.741746 0.500000 0.932147
O O10 0.742508 0.414556 0.832234
O O11 0.736230 0.363243 0.951418
O O12 0.500000 0.411005 0.400452
O O13 0.705616 0.500000 0.356276
O O14 0.730570 0.368962 0.326771
O O15 0.779907 0.407468 0.445193
O O16 0.500000 0.811484 0.821458
O O17 0.722216 0.753294 0.889985
O O18 0.000000 0.902176 0.254396
O O19 0.793048 0.000000 0.233888
O O20 0.500000 0.095406 0.029036
O O21 0.281100 0.000000 0.038834
O O22 0.000000 0.777322 0.472877
#
# Coordination Sequence:
#
# PCOD8188965 Si02
#       8
#     8   8   8   8   8   8   8   8
#     4  12  25  39  56  79 114 151 191 237 286 339
#     4  12  25  39  56  78 111 150 193 235 282 338
#     4   8  14  28  54  84 111 141 178 220 266 321
#     4  10  20  34  55  85 117 148 186 231 279 332
#     4  11  21  36  60  86 114 148 188 233 285 335
#     4   9  17  33  56  81 112 150 190 226 269 331
#     4  10  20  35  55  80 112 149 188 230 279 333
#     4  10  19  34  58  85 113 144 184 230 278 332
#
# _framework density 18.409562999999999
#
# number of rings (size 3 to 8) (size 9 to 14) (size 15 to 20)
#    0.000    1.750    2.500    4.125    0.000    2.750 
#    0.000    0.000    0.000    1.125    0.000    1.750 
#    0.000    0.000    0.000    0.000    0.000    0.000 
#
# Total GULP energy -396831.855853 kJ/mol
# GULP energy per Si atom -12400.995495 kJ/mol
# Density = 1.836766 g / cm^3
# Si number density = 18.409563 Si / 1000 Ang^3
#
#
#
# Elastic Constant Matrix: (Units=GPa)
#
#
# Indices 1 2 3 4 5 6 
#
# 1 55.6643 27.1237 17.2363 0.0000 0.0000 0.0000
# 2 27.1237 103.3609 38.3663 0.0000 0.0000 0.0000
# 3 17.2363 38.3663 80.1496 0.0000 0.0000 0.0000
# 4 0.0000 0.0000 0.0000 22.1814 0.0000 0.0000
# 5 0.0000 0.0000 0.0000 0.0000 26.6932 0.0000
# 6 0.0000 0.0000 0.0000 0.0000 0.0000 26.7661
#
#
#
# Elastic Compliance Matrix: (Units=1/GPa)
#
#
# Indices 1 2 3 4 5 6 
#
# 1 0.020935 -0.004649 -0.002277 0.000000 0.000000 0.000000
# 2 -0.004649 0.012798 -0.005126 0.000000 0.000000 0.000000
# 3 -0.002277 -0.005126 0.015420 0.000000 0.000000 0.000000
# 4 0.000000 0.000000 0.000000 0.045083 0.000000 0.000000
# 5 0.000000 0.000000 0.000000 0.000000 0.037463 0.000000
# 6 0.000000 0.000000 0.000000 0.000000 0.000000 0.037361
#
#
# Mechanical properties :
#
#
# Convention : Reuss Voigt Hill
#
# Bulk Modulus (GPa) = 39.92145 44.95862 42.44003
# Shear Modulus (GPa) = 24.81239 25.55803 25.18521
#
# Velocity S-wave (km/s) = 3.67522 3.73003 3.70273
# Velocity P-wave (km/s) = 6.30412 6.55936 6.43301
#
# Compressibility (1/GPa) = 0.02504919
#
# Stress axis : x y z
#
# Youngs Moduli (GPa) = 47.76690 78.14014 64.85000
#
# Poissons Ratio (x) = 0.36324 0.14766
# Poissons Ratio (y) = 0.22205 0.33244
# Poissons Ratio (z) = 0.10876 0.40057
#
# Static dielectric constant tensor:
#      x y z
#    x 3.243660 0.000000 0.000000 
#    y 0.000000 3.775130 0.000000 
#    z 0.000000 0.000000 3.171200 
# 
# 
# High freq. dielectric constant tensor:
#      x y z
#    x 1.707690 0.000000 0.000000 
#    y 0.000000 1.720280 0.000000 
#    z 0.000000 0.000000 1.687670 
# 
# From -- ./inp_files/20757.got.cif
#   From: 2010.03.12/outbox.cif.g09.slc.cpg/sg44_11_cif.got.tgz:20757.got - 2010.04.14 02:36:11.
