data_PCOD8188596
_publ_section_title
;
Structure prediction by ZEFSAII (Michael W. Deem and Ramdas Pophale) SiO2 
 PCOD8188596
Probable space group: I M M 2
;
_chemical_formula_sum "Si O2"
_cell_formula_units_Z 64
_cell_length_a 9.379605
_cell_length_b 28.928456
_cell_length_c 12.814153
_cell_angle_alpha 90.000000
_cell_angle_beta 90.000000
_cell_angle_gamma 90.000000
_cell_volume 3476.960118
_symmetry_space_group_name_H-M "I M M 2"
_symmetry_group_IT_number 44
_symmetry_cell_setting 'orthorhombic'
loop_
_space_group_symop_operation_xyz
x,y,z
-x,-y,z
-x,y,z
x,-y,z
1/2+x,1/2+y,1/2+z
1/2-x,1/2-y,1/2+z
1/2-x,1/2+y,1/2+z
1/2+x,1/2-y,1/2+z
loop_
_atom_site_type_symbol
_atom_site_label
_atom_site_fract_x
_atom_site_fract_y
_atom_site_fract_z
Si Si1 0.659558 0.263791 0.771500
Si Si2 0.668642 0.123124 0.062721
Si Si3 0.167157 0.446389 0.386940
Si Si4 0.842563 0.282441 0.471774
Si Si5 0.337187 0.445332 0.181803
Si Si6 0.334975 0.211261 0.571063
Si Si7 0.165459 0.390962 0.016878
Si Si8 0.332129 0.143959 0.292753
O O1 0.500000 0.283868 0.754998
O O2 0.650411 0.218708 0.846802
O O3 0.722386 0.239642 0.669635
O O4 0.758757 0.306515 0.802844
O O5 0.500000 0.124801 0.052002
O O6 0.713777 0.117814 0.184690
O O7 0.723276 0.081084 0.989895
O O8 0.732128 0.171390 0.017145
O O9 0.198340 0.500000 0.409513
O O10 0.252263 0.428543 0.285076
O O11 0.000000 0.437500 0.365888
O O12 0.754137 0.235146 0.480879
O O13 0.000000 0.277702 0.522067
O O14 0.500000 0.427242 0.187622
O O15 0.332738 0.500000 0.176373
O O16 0.263051 0.428098 0.075297
O O17 0.500000 0.219478 0.549233
O O18 0.302610 0.157119 0.575664
O O19 0.000000 0.405330 0.027465
O O20 0.208013 0.387254 0.893794
O O21 0.500000 0.153665 0.293677
#
# Coordination Sequence:
#
# PCOD8188596 Si02
#       8
#     8   8   8   8   8   8   8   8
#     4  10  20  31  46  71 104 143 181 220 265 310
#     4   9  18  32  53  79 108 139 177 221 265 314
#     4   9  18  35  60  84 106 136 173 217 271 324
#     4  10  19  31  49  71 100 141 180 215 261 314
#     4  10  22  40  60  82 108 135 168 217 271 322
#     4  10  20  33  49  73 106 140 178 221 259 304
#     4  10  21  35  55  80 108 143 181 220 264 313
#     4  10  19  34  53  75 106 146 183 220 262 307
#
# _framework density 18.406883000000001
#
# number of rings (size 3 to 8) (size 9 to 14) (size 15 to 20)
#    0.000    2.250    2.500    0.375    1.750    1.750 
#    0.000    1.875    0.000    2.250    0.000    1.750 
#    0.000    0.000    0.000    0.000    0.000    0.000 
#
# Total GULP energy -396486.777142 kJ/mol
# GULP energy per Si atom -12390.211786 kJ/mol
# Density = 1.836499 g / cm^3
# Si number density = 18.406883 Si / 1000 Ang^3
#
#
#
# Elastic Constant Matrix: (Units=GPa)
#
#
# Indices 1 2 3 4 5 6 
#
# 1 53.0007 29.2051 41.8552 0.0001 0.0000 0.0001
# 2 29.2051 50.7122 46.6808 0.0000 0.0000 0.0000
# 3 41.8552 46.6808 136.2413 0.0005 -0.0003 0.0001
# 4 0.0001 0.0000 0.0005 38.4265 -0.0001 0.0000
# 5 0.0000 0.0000 -0.0003 -0.0001 18.8604 0.0001
# 6 0.0001 0.0000 0.0001 0.0000 0.0001 23.4091
#
#
#
# Elastic Compliance Matrix: (Units=1/GPa)
#
#
# Indices 1 2 3 4 5 6 
#
# 1 0.029605 -0.012675 -0.004752 0.000000 0.000000 0.000000
# 2 -0.012675 0.034230 -0.007835 0.000000 0.000000 0.000000
# 3 -0.004752 -0.007835 0.011484 0.000000 0.000000 0.000000
# 4 0.000000 0.000000 0.000000 0.026024 0.000000 0.000000
# 5 0.000000 0.000000 0.000000 0.000000 0.053021 0.000000
# 6 0.000000 0.000000 0.000000 0.000000 0.000000 0.042719
#
#
# Mechanical properties :
#
#
# Convention : Reuss Voigt Hill
#
# Bulk Modulus (GPa) = 40.32902 52.82628 46.57765
# Shear Modulus (GPa) = 19.54104 24.28671 21.91388
#
# Velocity S-wave (km/s) = 3.26178 3.63635 3.45414
# Velocity P-wave (km/s) = 6.01190 6.81118 6.42398
#
# Compressibility (1/GPa) = 0.02479604
#
# Stress axis : x y z
#
# Youngs Moduli (GPa) = 33.77822 29.21376 87.07607
#
# Poissons Ratio (x) = 0.37029 0.41380
# Poissons Ratio (y) = 0.42814 0.68220
# Poissons Ratio (z) = 0.16052 0.22888
#
# Static dielectric constant tensor:
#      x y z
#    x 3.286380 0.000000 0.000000 
#    y 0.000000 3.226490 0.000000 
#    z 0.000000 0.000000 3.675510 
# 
# 
# High freq. dielectric constant tensor:
#      x y z
#    x 1.695080 0.000000 0.000000 
#    y 0.000000 1.693250 0.000000 
#    z 0.000000 0.000000 1.729470 
# 
# From -- ./inp_files/11489.got.cif
#   From: 2010.03.12/outbox.cif.g09.slc.cpg/sg44_6_cif.got.tgz:11489.got - 2010.04.14 02:36:11.
