data_PCOD8188001
_publ_section_title
;
Structure prediction by ZEFSAII (Michael W. Deem and Ramdas Pophale) SiO2 
 PCOD8188001
Probable space group: I M M 2
;
_chemical_formula_sum "Si O2"
_cell_formula_units_Z 64
_cell_length_a 8.830164
_cell_length_b 26.278181
_cell_length_c 18.610577
_cell_angle_alpha 90.000000
_cell_angle_beta 90.000000
_cell_angle_gamma 90.000000
_cell_volume 4318.410344
_symmetry_space_group_name_H-M "I M M 2"
_symmetry_group_IT_number 44
_symmetry_cell_setting 'orthorhombic'
loop_
_space_group_symop_operation_xyz
x,y,z
-x,-y,z
-x,y,z
x,-y,z
1/2+x,1/2+y,1/2+z
1/2-x,1/2-y,1/2+z
1/2-x,1/2+y,1/2+z
1/2+x,1/2-y,1/2+z
loop_
_atom_site_type_symbol
_atom_site_label
_atom_site_fract_x
_atom_site_fract_y
_atom_site_fract_z
Si Si1 0.165289 0.303517 0.929540
Si Si2 0.176878 0.941676 0.811755
Si Si3 0.680927 0.743267 0.300548
Si Si4 0.178662 0.252803 0.148890
Si Si5 0.322498 0.849075 0.882129
Si Si6 0.675766 0.942413 0.661289
Si Si7 0.165874 0.197803 0.010466
Si Si8 0.819736 0.351392 0.065679
O O1 0.246543 0.287570 0.854719
O O2 0.000000 0.325480 0.909612
O O3 0.148099 0.252702 0.975782
O O4 0.248804 0.343435 0.984122
O O5 0.267396 0.906241 0.866831
O O6 0.226741 0.929117 0.730824
O O7 0.000000 0.930612 0.818869
O O8 0.216707 0.000000 0.830799
O O9 0.500000 0.740506 0.306152
O O10 0.732598 0.758741 0.221738
O O11 0.744293 0.688651 0.325025
O O12 0.220365 0.207519 0.092640
O O13 0.236839 0.307327 0.119569
O O14 0.000000 0.254041 0.164274
O O15 0.500000 0.844930 0.871105
O O16 0.282109 0.836443 0.965011
O O17 0.500000 0.932702 0.680241
O O18 0.730618 0.905908 0.596642
O O19 0.703658 0.000000 0.635340
O O20 0.000000 0.171186 0.009979
O O21 0.000000 0.346930 0.058384
#
# Coordination Sequence:
#
# PCOD8188001 Si02
#       8
#     8   8   8   8   8   8   8   8
#     4   7  12  23  37  52  71 100 133 161 191 230
#     4  10  20  32  44  58  79 107 136 166 201 240
#     4  10  18  27  40  58  81 107 137 171 204 242
#     4   9  16  26  41  59  79 106 136 165 200 243
#     4  11  20  29  43  60  80 107 138 169 203 243
#     4   9  16  25  39  60  82 103 132 171 206 234
#     4   8  15  28  42  56  77 103 132 165 202 245
#     4   8  13  23  38  53  73 103 134 159 191 235
#
# _framework density 14.820268
#
# number of rings (size 3 to 8) (size 9 to 14) (size 15 to 20)
#    0.000    3.000    0.000    4.875    0.000    2.250 
#    0.000    0.000    0.000    3.750    0.000    0.000 
#    0.000    1.000    0.000    4.250    0.000    1.750 
#
# Total GULP energy -396462.197738 kJ/mol
# GULP energy per Si atom -12389.443679 kJ/mol
# Density = 1.478654 g / cm^3
# Si number density = 14.820268 Si / 1000 Ang^3
#
#
#
# Elastic Constant Matrix: (Units=GPa)
#
#
# Indices 1 2 3 4 5 6 
#
# 1 55.1454 26.9683 34.6665 0.0000 0.0000 0.0000
# 2 26.9683 70.8719 51.8829 0.0000 0.0000 0.0000
# 3 34.6665 51.8829 116.3006 0.0000 0.0000 0.0000
# 4 0.0000 0.0000 0.0000 25.8910 0.0000 0.0000
# 5 0.0000 0.0000 0.0000 0.0000 20.3334 0.0000
# 6 0.0000 0.0000 0.0000 0.0000 0.0000 13.4683
#
#
#
# Elastic Compliance Matrix: (Units=1/GPa)
#
#
# Indices 1 2 3 4 5 6 
#
# 1 0.023787 -0.005733 -0.004533 0.000000 0.000000 0.000000
# 2 -0.005733 0.022335 -0.008255 0.000000 0.000000 0.000000
# 3 -0.004533 -0.008255 0.013632 0.000000 0.000000 0.000000
# 4 0.000000 0.000000 0.000000 0.038623 0.000000 0.000000
# 5 0.000000 0.000000 0.000000 0.000000 0.049180 0.000000
# 6 0.000000 0.000000 0.000000 0.000000 0.000000 0.074248
#
#
# Mechanical properties :
#
#
# Convention : Reuss Voigt Hill
#
# Bulk Modulus (GPa) = 44.02902 52.15038 48.08970
# Shear Modulus (GPa) = 18.76751 20.52523 19.64637
#
# Velocity S-wave (km/s) = 3.56243 3.72552 3.64489
# Velocity P-wave (km/s) = 6.83333 7.33287 7.08750
#
# Compressibility (1/GPa) = 0.02271230
#
# Stress axis : x y z
#
# Youngs Moduli (GPa) = 42.03954 44.77351 73.35663
#
# Poissons Ratio (x) = 0.25670 0.33250
# Poissons Ratio (y) = 0.24102 0.60554
# Poissons Ratio (z) = 0.19055 0.36959
#
# Static dielectric constant tensor:
#      x y z
#    x 2.697330 0.000000 0.000000 
#    y 0.000000 2.778760 0.000000 
#    z 0.000000 0.000000 3.103650 
# 
# 
# High freq. dielectric constant tensor:
#      x y z
#    x 1.551380 0.000000 0.000000 
#    y 0.000000 1.533180 0.000000 
#    z 0.000000 0.000000 1.562600 
# 
# From -- ./inp_files/20925.got.cif
#   From: 2010.03.12/outbox.cif.g09.slc.cpg/sg44_11_cif.got.tgz:20925.got - 2010.04.14 02:36:11.
