data_PCOD8188554
_publ_section_title
;
Structure prediction by ZEFSAII (Michael W. Deem and Ramdas Pophale) SiO2 
 PCOD8188554
Probable space group: I M M 2
;
_chemical_formula_sum "Si O2"
_cell_formula_units_Z 64
_cell_length_a 8.916116
_cell_length_b 33.324472
_cell_length_c 11.780476
_cell_angle_alpha 90.000000
_cell_angle_beta 90.000000
_cell_angle_gamma 90.000000
_cell_volume 3500.272259
_symmetry_space_group_name_H-M "I M M 2"
_symmetry_group_IT_number 44
_symmetry_cell_setting 'orthorhombic'
loop_
_space_group_symop_operation_xyz
x,y,z
-x,-y,z
-x,y,z
x,-y,z
1/2+x,1/2+y,1/2+z
1/2-x,1/2-y,1/2+z
1/2-x,1/2+y,1/2+z
1/2+x,1/2-y,1/2+z
loop_
_atom_site_type_symbol
_atom_site_label
_atom_site_fract_x
_atom_site_fract_y
_atom_site_fract_z
Si Si1 0.828189 0.162713 0.355930
Si Si2 0.175756 0.185746 0.778865
Si Si3 0.673546 0.376979 0.090175
Si Si4 0.322996 0.045316 0.507811
Si Si5 0.326574 0.816330 0.019003
Si Si6 0.326813 0.264018 0.706769
Si Si7 0.330054 0.888100 0.171518
Si Si8 0.830100 0.954957 0.270702
O O1 0.787613 0.153437 0.486526
O O2 0.805532 0.209538 0.322203
O O3 0.714341 0.137266 0.281559
O O4 0.000000 0.150212 0.328606
O O5 0.216356 0.146598 0.704652
O O6 0.220664 0.225491 0.710494
O O7 0.000000 0.186965 0.807815
O O8 0.275378 0.185135 0.890493
O O9 0.500000 0.388120 0.087423
O O10 0.759843 0.419615 0.088873
O O11 0.500000 0.047788 0.510346
O O12 0.267799 0.054466 0.381160
O O13 0.270365 0.000000 0.544609
O O14 0.500000 0.802682 0.029673
O O15 0.222090 0.788510 0.095812
O O16 0.306498 0.862347 0.058230
O O17 0.500000 0.251271 0.692838
O O18 0.500000 0.902137 0.185238
O O19 0.226260 0.927586 0.166554
O O20 0.000000 0.944713 0.303265
O O21 0.811440 0.000000 0.227710
#
# Coordination Sequence:
#
# PCOD8188554 Si02
#       8
#     8   8   8   8   8   8   8   8
#     4   9  18  33  53  77 107 142 178 216 268 329
#     4  11  24  39  57  83 112 145 188 234 277 328
#     4  10  21  36  55  81 113 148 184 227 276 332
#     4  10  20  33  52  81 115 146 181 228 277 330
#     4  10  22  40  58  78 108 145 186 228 275 329
#     4  10  21  37  59  84 110 144 183 229 281 330
#     4  10  19  32  53  79 105 138 177 223 271 318
#     4  10  19  30  48  77 112 146 176 212 267 331
#
# _framework density 18.284291
#
# number of rings (size 3 to 8) (size 9 to 14) (size 15 to 20)
#    0.000    2.000    1.250    2.250    1.750    4.500 
#    0.000    0.000    0.000    0.750    0.000    0.000 
#    0.000    0.000    0.000    0.000    0.000    0.000 
#
# Total GULP energy -396754.263921 kJ/mol
# GULP energy per Si atom -12398.570748 kJ/mol
# Density = 1.824268 g / cm^3
# Si number density = 18.284291 Si / 1000 Ang^3
#
#
#
# Elastic Constant Matrix: (Units=GPa)
#
#
# Indices 1 2 3 4 5 6 
#
# 1 57.1759 41.0004 19.7125 0.0000 0.0000 0.0000
# 2 41.0004 112.0798 28.0786 0.0000 0.0001 0.0001
# 3 19.7125 28.0786 66.8889 0.0001 0.0002 0.0000
# 4 0.0000 0.0000 0.0001 22.3582 0.0001 0.0001
# 5 0.0000 0.0001 0.0002 0.0001 24.8975 -0.0001
# 6 0.0000 0.0001 0.0000 0.0001 -0.0001 34.2089
#
#
#
# Elastic Compliance Matrix: (Units=1/GPa)
#
#
# Indices 1 2 3 4 5 6 
#
# 1 0.024577 -0.008020 -0.003877 0.000000 0.000000 0.000000
# 2 -0.008020 0.012588 -0.002921 0.000000 0.000000 0.000000
# 3 -0.003877 -0.002921 0.017319 0.000000 0.000000 0.000000
# 4 0.000000 0.000000 0.000000 0.044726 0.000000 0.000000
# 5 0.000000 0.000000 0.000000 0.000000 0.040165 0.000000
# 6 0.000000 0.000000 0.000000 0.000000 0.000000 0.029232
#
#
# Mechanical properties :
#
#
# Convention : Reuss Voigt Hill
#
# Bulk Modulus (GPa) = 40.24157 45.96973 43.10565
# Shear Modulus (GPa) = 24.21036 26.11645 25.16341
#
# Velocity S-wave (km/s) = 3.64278 3.78346 3.71378
# Velocity P-wave (km/s) = 6.30474 6.65450 6.48197
#
# Compressibility (1/GPa) = 0.02484992
#
# Stress axis : x y z
#
# Youngs Moduli (GPa) = 40.68824 79.44357 57.74130
#
# Poissons Ratio (x) = 0.63710 0.22384
# Poissons Ratio (y) = 0.32630 0.16864
# Poissons Ratio (z) = 0.15773 0.23202
#
# Static dielectric constant tensor:
#      x y z
#    x 3.426200 0.000000 0.000000 
#    y 0.000000 3.622950 0.000000 
#    z 0.000000 0.000000 3.123480 
# 
# 
# High freq. dielectric constant tensor:
#      x y z
#    x 1.720500 0.000000 0.000000 
#    y 0.000000 1.715500 0.000000 
#    z 0.000000 0.000000 1.674970 
# 
# From -- ./inp_files/11504.got.cif
#   From: 2010.03.12/outbox.cif.g09.slc.cpg/sg44_6_cif.got.tgz:11504.got - 2010.04.14 02:36:11.
