data_PCOD8188162
_publ_section_title
;
Structure prediction by ZEFSAII (Michael W. Deem and Ramdas Pophale) SiO2 
 PCOD8188162
Probable space group: I M M 2
;
_chemical_formula_sum "Si O2"
_cell_formula_units_Z 64
_cell_length_a 27.702012
_cell_length_b 8.839347
_cell_length_c 14.545636
_cell_angle_alpha 90.000000
_cell_angle_beta 90.000000
_cell_angle_gamma 90.000000
_cell_volume 3561.756384
_symmetry_space_group_name_H-M "I M M 2"
_symmetry_group_IT_number 44
_symmetry_cell_setting 'orthorhombic'
loop_
_space_group_symop_operation_xyz
x,y,z
-x,-y,z
-x,y,z
x,-y,z
1/2+x,1/2+y,1/2+z
1/2-x,1/2-y,1/2+z
1/2-x,1/2+y,1/2+z
1/2+x,1/2-y,1/2+z
loop_
_atom_site_type_symbol
_atom_site_label
_atom_site_fract_x
_atom_site_fract_y
_atom_site_fract_z
Si Si1 0.672215 0.822195 0.232580
Si Si2 0.137121 0.322665 0.102173
Si Si3 0.217307 0.827061 0.222192
Si Si4 0.443991 0.325269 0.718544
Si Si5 0.053261 0.179937 0.425467
Si Si6 0.636825 0.678416 0.056162
Si Si7 0.725940 0.673456 0.930842
Si Si8 0.173505 0.177957 0.924954
O O1 0.727193 0.778603 0.207078
O O2 0.636724 0.759996 0.154299
O O3 0.656862 0.747974 0.328438
O O4 0.666401 0.000000 0.243283
O O5 0.137295 0.500000 0.085666
O O6 0.183680 0.280644 0.162774
O O7 0.087668 0.275139 0.150786
O O8 0.138646 0.240556 0.003965
O O9 0.203988 0.805714 0.329173
O O10 0.208560 0.000000 0.191140
O O11 0.500000 0.305104 0.692489
O O12 0.428219 0.500000 0.709186
O O13 0.434332 0.266216 0.822223
O O14 0.091810 0.243913 0.498106
O O15 0.000000 0.238294 0.454037
O O16 0.054215 0.000000 0.425140
O O17 0.632258 0.500000 0.070846
O O18 0.685390 0.721321 0.002665
O O19 0.742933 0.500000 0.943656
O O20 0.771420 0.779932 0.949013
O O21 0.168266 0.000000 0.919059
#
# Coordination Sequence:
#
# PCOD8188162 Si02
#       8
#     8   8   8   8   8   8   8   8
#     4  10  21  36  51  70 100 135 170 212 258 299
#     4  12  23  33  50  76 106 137 169 208 255 304
#     4   9  18  33  51  72 101 137 174 209 247 296
#     4   9  18  35  58  80 103 134 171 208 249 300
#     4   8  15  30  53  79 105 133 166 204 244 289
#     4  10  18  29  50  77 102 132 170 207 245 295
#     4   9  18  32  50  74 105 136 168 210 255 297
#     4  11  22  36  53  71  96 132 174 215 253 300
#
# _framework density 17.968661999999998
#
# number of rings (size 3 to 8) (size 9 to 14) (size 15 to 20)
#    0.000    2.250    0.000    5.625    0.000    7.250 
#    0.000    1.875    0.000    1.875    0.000    1.750 
#    0.000    0.000    0.000    0.000    0.000    0.000 
#
# Total GULP energy -396864.010933 kJ/mol
# GULP energy per Si atom -12402.000342 kJ/mol
# Density = 1.792776 g / cm^3
# Si number density = 17.968662 Si / 1000 Ang^3
#
#
#
# Elastic Constant Matrix: (Units=GPa)
#
#
# Indices 1 2 3 4 5 6 
#
# 1 78.1540 37.2787 68.6283 0.0000 0.0000 0.0000
# 2 37.2787 79.5169 48.4576 0.0000 0.0000 0.0000
# 3 68.6283 48.4576 133.8014 0.0000 0.0000 0.0000
# 4 0.0000 0.0000 0.0000 29.1230 0.0000 0.0000
# 5 0.0000 0.0000 0.0000 0.0000 28.6425 0.0000
# 6 0.0000 0.0000 0.0000 0.0000 0.0000 22.1618
#
#
#
# Elastic Compliance Matrix: (Units=1/GPa)
#
#
# Indices 1 2 3 4 5 6 
#
# 1 0.024714 -0.004955 -0.010882 0.000000 0.000000 0.000000
# 2 -0.004955 0.017131 -0.003663 0.000000 0.000000 0.000000
# 3 -0.010882 -0.003663 0.014382 0.000000 0.000000 0.000000
# 4 0.000000 0.000000 0.000000 0.034337 0.000000 0.000000
# 5 0.000000 0.000000 0.000000 0.000000 0.034913 0.000000
# 6 0.000000 0.000000 0.000000 0.000000 0.000000 0.045123
#
#
# Mechanical properties :
#
#
# Convention : Reuss Voigt Hill
#
# Bulk Modulus (GPa) = 58.04527 66.68904 62.36715
# Shear Modulus (GPa) = 23.21901 25.12599 24.17250
#
# Velocity S-wave (km/s) = 3.59861 3.74347 3.67176
# Velocity P-wave (km/s) = 7.04559 7.47525 7.26360
#
# Compressibility (1/GPa) = 0.01722793
#
# Stress axis : x y z
#
# Youngs Moduli (GPa) = 40.46271 58.37386 69.53356
#
# Poissons Ratio (x) = 0.28925 0.75664
# Poissons Ratio (y) = 0.20050 0.25468
# Poissons Ratio (z) = 0.44030 0.21380
#
# Static dielectric constant tensor:
#      x y z
#    x 3.309310 0.000000 0.000000 
#    y 0.000000 3.117810 0.000000 
#    z 0.000000 0.000000 3.436610 
# 
# 
# High freq. dielectric constant tensor:
#      x y z
#    x 1.675020 0.000000 0.000000 
#    y 0.000000 1.682270 0.000000 
#    z 0.000000 0.000000 1.701600 
# 
# From -- ./inp_files/19693.got.cif
#   From: 2010.03.12/outbox.cif.g09.slc.cpg/sg44_10_cif.got.tgz:19693.got - 2010.04.14 02:36:11.
