data_PCOD8188360
_publ_section_title
;
Structure prediction by ZEFSAII (Michael W. Deem and Ramdas Pophale) SiO2 
 PCOD8188360
Probable space group: I M M 2
;
_chemical_formula_sum "Si O2"
_cell_formula_units_Z 64
_cell_length_a 8.877608
_cell_length_b 15.315557
_cell_length_c 23.718621
_cell_angle_alpha 90.000000
_cell_angle_beta 90.000000
_cell_angle_gamma 90.000000
_cell_volume 3224.914433
_symmetry_space_group_name_H-M "I M M 2"
_symmetry_group_IT_number 44
_symmetry_cell_setting 'orthorhombic'
loop_
_space_group_symop_operation_xyz
x,y,z
-x,-y,z
-x,y,z
x,-y,z
1/2+x,1/2+y,1/2+z
1/2-x,1/2-y,1/2+z
1/2-x,1/2+y,1/2+z
1/2+x,1/2-y,1/2+z
loop_
_atom_site_type_symbol
_atom_site_label
_atom_site_fract_x
_atom_site_fract_y
_atom_site_fract_z
Si Si1 0.323933 0.599181 0.177960
Si Si2 0.322164 0.654774 0.299026
Si Si3 0.322266 0.756669 0.995061
Si Si4 0.675024 0.598131 0.419583
Si Si5 0.822010 0.350024 0.809192
Si Si6 0.672830 0.403638 0.698807
Si Si7 0.821258 0.754884 0.114769
Si Si8 0.175308 0.400744 0.932833
O O1 0.500000 0.623350 0.174393
O O2 0.295202 0.500000 0.158892
O O3 0.260860 0.610965 0.241716
O O4 0.232542 0.660581 0.135802
O O5 0.500000 0.657617 0.295125
O O6 0.274045 0.600149 0.354053
O O7 0.256877 0.752182 0.304694
O O8 0.500000 0.755082 0.001633
O O9 0.275741 0.834280 0.953515
O O10 0.269176 0.662744 0.972785
O O11 0.248155 0.776589 0.054711
O O12 0.500000 0.625728 0.425441
O O13 0.701068 0.500000 0.442382
O O14 0.757667 0.405993 0.758150
O O15 0.769442 0.390787 0.868417
O O16 0.000000 0.352078 0.804591
O O17 0.500000 0.382002 0.711123
O O18 0.691764 0.500000 0.671256
O O19 0.738968 0.330237 0.656979
O O20 0.000000 0.755980 0.109454
O O21 0.203871 0.500000 0.952594
O O22 0.000000 0.375249 0.937780
#
# Coordination Sequence:
#
# PCOD8188360 Si02
#       8
#     8   8   8   8   8   8   8   8
#     4  10  20  36  60  90 122 154 190 235 289 347
#     4   9  16  31  59  91 122 153 189 232 283 346
#     4  12  26  42  61  85 118 155 198 250 303 352
#     4  10  20  38  65  92 120 158 200 239 286 347
#     4  10  18  33  61  91 121 154 191 234 283 344
#     4  10  22  39  59  86 119 153 191 237 290 347
#     4  11  24  42  62  82 111 153 203 248 293 347
#     4  10  21  39  63  90 120 156 199 243 289 348
#
# _framework density 19.845488
#
# number of rings (size 3 to 8) (size 9 to 14) (size 15 to 20)
#    0.000    1.750    2.500    2.250    0.000    5.000 
#    0.000    1.875    0.000    1.500    0.000    0.000 
#    0.000    0.000    0.000    0.000    0.000    0.000 
#
# Total GULP energy -396848.056545 kJ/mol
# GULP energy per Si atom -12401.501767 kJ/mol
# Density = 1.980032 g / cm^3
# Si number density = 19.845488 Si / 1000 Ang^3
#
#
#
# Elastic Constant Matrix: (Units=GPa)
#
#
# Indices 1 2 3 4 5 6 
#
# 1 57.7750 25.8465 21.5432 0.0000 0.0000 0.0000
# 2 25.8465 104.4083 16.7036 0.0000 0.0000 0.0000
# 3 21.5432 16.7036 77.3128 0.0000 0.0000 0.0000
# 4 0.0000 0.0000 0.0000 11.7654 0.0000 0.0000
# 5 0.0000 0.0000 0.0000 0.0000 28.3862 0.0000
# 6 0.0000 0.0000 0.0000 0.0000 0.0000 23.1143
#
#
#
# Elastic Compliance Matrix: (Units=1/GPa)
#
#
# Indices 1 2 3 4 5 6 
#
# 1 0.021134 -0.004443 -0.004929 0.000000 0.000000 0.000000
# 2 -0.004443 0.010855 -0.001107 0.000000 0.000000 0.000000
# 3 -0.004929 -0.001107 0.014547 0.000000 0.000000 0.000000
# 4 0.000000 0.000000 0.000000 0.084995 0.000000 0.000000
# 5 0.000000 0.000000 0.000000 0.000000 0.035228 0.000000
# 6 0.000000 0.000000 0.000000 0.000000 0.000000 0.043263
#
#
# Mechanical properties :
#
#
# Convention : Reuss Voigt Hill
#
# Bulk Modulus (GPa) = 39.09707 40.85362 39.97535
# Shear Modulus (GPa) = 20.87619 24.34670 22.61145
#
# Velocity S-wave (km/s) = 3.24688 3.50639 3.37912
# Velocity P-wave (km/s) = 5.81376 6.08470 5.95077
#
# Compressibility (1/GPa) = 0.02557737
#
# Stress axis : x y z
#
# Youngs Moduli (GPa) = 47.31660 92.12484 68.74202
#
# Poissons Ratio (x) = 0.40933 0.33883
# Poissons Ratio (y) = 0.21024 0.07610
# Poissons Ratio (z) = 0.23323 0.10199
#
# Static dielectric constant tensor:
#      x y z
#    x 3.339500 0.000000 0.000000 
#    y 0.000000 3.731950 0.000000 
#    z 0.000000 0.000000 3.678040 
# 
# 
# High freq. dielectric constant tensor:
#      x y z
#    x 1.746710 0.000000 0.000000 
#    y 0.000000 1.788030 0.000000 
#    z 0.000000 0.000000 1.773910 
# 
# From -- ./inp_files/25081.got.cif
#   From: 2010.03.12/outbox.cif.g09.slc.cpg/sg44_13_cif.got.tgz:25081.got - 2010.04.14 02:36:11.
