data_PCOD8188290
_publ_section_title
;
Structure prediction by ZEFSAII (Michael W. Deem and Ramdas Pophale) SiO2 
 PCOD8188290
Probable space group: I M M 2
;
_chemical_formula_sum "Si O2"
_cell_formula_units_Z 64
_cell_length_a 29.008943
_cell_length_b 8.803253
_cell_length_c 12.833918
_cell_angle_alpha 90.000000
_cell_angle_beta 90.000000
_cell_angle_gamma 90.000000
_cell_volume 3277.436969
_symmetry_space_group_name_H-M "I M M 2"
_symmetry_group_IT_number 44
_symmetry_cell_setting 'orthorhombic'
loop_
_space_group_symop_operation_xyz
x,y,z
-x,-y,z
-x,y,z
x,-y,z
1/2+x,1/2+y,1/2+z
1/2-x,1/2-y,1/2+z
1/2-x,1/2+y,1/2+z
1/2+x,1/2-y,1/2+z
loop_
_atom_site_type_symbol
_atom_site_label
_atom_site_fract_x
_atom_site_fract_y
_atom_site_fract_z
Si Si1 0.798312 0.820377 0.495530
Si Si2 0.200593 0.680631 0.066004
Si Si3 0.322932 0.823855 0.791970
Si Si4 0.391188 0.822770 0.463417
Si Si5 0.413079 0.327614 0.845017
Si Si6 0.602742 0.676241 0.070317
Si Si7 0.552792 0.319326 0.275037
Si Si8 0.449032 0.329046 0.630098
O O1 0.751627 0.753905 0.545603
O O2 0.793934 0.769089 0.376308
O O3 0.845182 0.756812 0.551431
O O4 0.798864 0.000000 0.501374
O O5 0.200628 0.500000 0.069452
O O6 0.187397 0.745417 0.178767
O O7 0.162326 0.729328 0.978998
O O8 0.376296 0.798557 0.814581
O O9 0.310116 0.000000 0.800166
O O10 0.416095 0.730855 0.372160
O O11 0.415782 0.790259 0.574102
O O12 0.395024 0.000000 0.437805
O O13 0.392198 0.500000 0.842799
O O14 0.451952 0.309848 0.756462
O O15 0.428302 0.296240 0.965246
O O16 0.607871 0.500000 0.095121
O O17 0.576552 0.749270 0.169672
O O18 0.500000 0.257825 0.283850
O O19 0.551647 0.500000 0.272205
O O20 0.500000 0.301344 0.586036
O O21 0.432488 0.500000 0.602625
#
# Coordination Sequence:
#
# PCOD8188290 Si02
#       8
#     8   8   8   8   8   8   8   8
#     4   9  18  35  55  77 105 141 182 224 275 329
#     4   9  19  34  53  75 104 141 178 221 272 327
#     4  10  18  32  52  76 106 138 173 218 270 321
#     4  11  22  37  54  75 105 145 185 222 275 334
#     4   9  17  32  54  78 104 138 174 213 267 326
#     4   8  16  32  55  78 102 136 176 217 269 325
#     4  10  21  37  56  79 109 145 185 232 279 325
#     4  10  20  33  52  80 109 135 172 223 270 316
#
# _framework density 19.527453999999999
#
# number of rings (size 3 to 8) (size 9 to 14) (size 15 to 20)
#    0.000    2.500    1.250    1.875    0.000    3.500 
#    0.000    8.750    0.000    0.000    0.000    1.750 
#    0.000    0.000    0.000    0.000    0.000    0.000 
#
# Total GULP energy -396425.268593 kJ/mol
# GULP energy per Si atom -12388.289644 kJ/mol
# Density = 1.948301 g / cm^3
# Si number density = 19.527454 Si / 1000 Ang^3
#
#
#
# Elastic Constant Matrix: (Units=GPa)
#
#
# Indices 1 2 3 4 5 6 
#
# 1 100.7231 16.0347 56.4786 0.0000 0.0000 0.0000
# 2 16.0347 15.4925 10.5906 0.0000 0.0000 0.0000
# 3 56.4786 10.5906 134.9007 0.0000 0.0000 0.0000
# 4 0.0000 0.0000 0.0000 22.2646 0.0000 0.0000
# 5 0.0000 0.0000 0.0000 0.0000 27.9818 0.0000
# 6 0.0000 0.0000 0.0000 0.0000 0.0000 18.9264
#
#
#
# Elastic Compliance Matrix: (Units=1/GPa)
#
#
# Indices 1 2 3 4 5 6 
#
# 1 0.014728 -0.011654 -0.005251 0.000000 0.000000 0.000000
# 2 -0.011654 0.077429 -0.001200 0.000000 0.000000 0.000000
# 3 -0.005251 -0.001200 0.009706 0.000000 0.000000 0.000000
# 4 0.000000 0.000000 0.000000 0.044914 0.000000 0.000000
# 5 0.000000 0.000000 0.000000 0.000000 0.035738 0.000000
# 6 0.000000 0.000000 0.000000 0.000000 0.000000 0.052836
#
#
# Mechanical properties :
#
#
# Convention : Reuss Voigt Hill
#
# Bulk Modulus (GPa) = 15.23154 46.36936 30.80045
# Shear Modulus (GPa) = 17.03900 25.03536 21.03718
#
# Velocity S-wave (km/s) = 2.95713 3.58447 3.28581
# Velocity P-wave (km/s) = 4.41322 6.39754 5.49568
#
# Compressibility (1/GPa) = 0.06565326
#
# Stress axis : x y z
#
# Youngs Moduli (GPa) = 67.89799 12.91507 103.03361
#
# Poissons Ratio (x) = 0.15051 0.54105
# Poissons Ratio (y) = 0.79126 0.12360
# Poissons Ratio (z) = 0.35655 0.01549
#
# Static dielectric constant tensor:
#      x y z
#    x 3.775150 0.000000 0.000000 
#    y 0.000000 3.173790 0.000000 
#    z 0.000000 0.000000 3.822940 
# 
# 
# High freq. dielectric constant tensor:
#      x y z
#    x 1.754290 0.000000 0.000000 
#    y 0.000000 1.722130 0.000000 
#    z 0.000000 0.000000 1.769740 
# 
# From -- ./inp_files/11507.got.cif
#   From: 2010.03.12/outbox.cif.g09.slc.cpg/sg44_6_cif.got.tgz:11507.got - 2010.04.14 02:36:11.
