data_PCOD8188804
_publ_section_title
;
Structure prediction by ZEFSAII (Michael W. Deem and Ramdas Pophale) SiO2 
 PCOD8188804
Probable space group: I M M 2
;
_chemical_formula_sum "Si O2"
_cell_formula_units_Z 56
_cell_length_a 14.102621
_cell_length_b 22.476226
_cell_length_c 9.249079
_cell_angle_alpha 90.000000
_cell_angle_beta 90.000000
_cell_angle_gamma 90.000000
_cell_volume 2931.714763
_symmetry_space_group_name_H-M "I M M 2"
_symmetry_group_IT_number 44
_symmetry_cell_setting 'orthorhombic'
loop_
_space_group_symop_operation_xyz
x,y,z
-x,-y,z
-x,y,z
x,-y,z
1/2+x,1/2+y,1/2+z
1/2-x,1/2-y,1/2+z
1/2-x,1/2+y,1/2+z
1/2+x,1/2-y,1/2+z
loop_
_atom_site_type_symbol
_atom_site_label
_atom_site_fract_x
_atom_site_fract_y
_atom_site_fract_z
Si Si1 0.105172 0.615748 0.006250
Si Si2 0.888243 0.241726 0.626201
Si Si3 0.740740 0.837999 0.014978
Si Si4 0.233843 0.429240 0.768312
Si Si5 0.722826 0.371730 0.187211
Si Si6 0.896536 0.751701 0.959892
Si Si7 0.896981 0.931130 0.484113
O O1 0.180587 0.598005 0.128182
O O2 0.102992 0.686376 0.023702
O O3 0.000000 0.589714 0.036839
O O4 0.137906 0.590893 0.850354
O O5 0.855425 0.298790 0.530410
O O6 0.818514 0.185564 0.596246
O O7 0.000000 0.229206 0.594079
O O8 0.868882 0.256259 0.793000
O O9 0.738960 0.895675 0.115796
O O10 0.826777 0.793327 0.052917
O O11 0.760838 0.861244 0.854553
O O12 0.232884 0.500000 0.740742
O O13 0.322824 0.407209 0.864461
O O14 0.641089 0.419647 0.148087
O O15 0.000000 0.781509 0.973230
O O16 0.000000 0.900280 0.462449
O O17 0.909120 0.000000 0.460426
#
# Coordination Sequence:
#
# PCOD8188804 Si02
#       7
#     8   8   8   8   8   8   8
#     4  10  19  36  58  79 111 151 194 239 282 341
#     4  10  19  33  52  77 111 149 185 228 283 343
#     4  11  21  34  56  84 118 149 184 241 299 345
#     4  10  22  38  59  85 113 153 200 241 286 342
#     4  10  21  34  55  84 115 147 188 233 293 348
#     4   9  18  33  54  78 109 148 187 230 285 342
#     4   9  19  38  60  80 108 149 192 231 276 340
#
# _framework density 19.101448999999999
#
# number of rings (size 3 to 8) (size 9 to 14) (size 15 to 20)
#    0.000    2.143    2.857    0.429    0.000    2.571 
#    0.000    0.000    0.000    1.714    0.000    2.000 
#    0.000    0.000    0.000    0.000    0.000    0.000 
#
# Total GULP energy -346876.266017 kJ/mol
# GULP energy per Si atom -12388.438072 kJ/mol
# Density = 1.905797 g / cm^3
# Si number density = 19.101449 Si / 1000 Ang^3
#
#
#
# Elastic Constant Matrix: (Units=GPa)
#
#
# Indices 1 2 3 4 5 6 
#
# 1 143.2832 33.0104 42.5233 0.0001 0.0000 0.0000
# 2 33.0104 62.8064 33.7671 0.0005 -0.0001 0.0000
# 3 42.5233 33.7671 80.5250 0.0027 -0.0011 0.0000
# 4 0.0001 0.0005 0.0027 28.4235 -0.0004 0.0000
# 5 0.0000 -0.0001 -0.0011 -0.0004 18.1782 0.0000
# 6 0.0000 0.0000 0.0000 0.0000 0.0000 23.1243
#
#
#
# Elastic Compliance Matrix: (Units=1/GPa)
#
#
# Indices 1 2 3 4 5 6 
#
# 1 0.008614 -0.002688 -0.003422 0.000000 0.000000 0.000000
# 2 -0.002688 0.021395 -0.007552 0.000000 0.000000 0.000000
# 3 -0.003422 -0.007552 0.017392 -0.000002 0.000001 0.000000
# 4 0.000000 0.000000 -0.000002 0.035182 0.000001 0.000000
# 5 0.000000 0.000000 0.000001 0.000001 0.055011 0.000000
# 6 0.000000 0.000000 0.000000 0.000000 0.000000 0.043245
#
#
# Mechanical properties :
#
#
# Convention : Reuss Voigt Hill
#
# Bulk Modulus (GPa) = 49.80658 56.13512 52.97085
# Shear Modulus (GPa) = 23.27146 25.76611 24.51878
#
# Velocity S-wave (km/s) = 3.49421 3.67673 3.58664
# Velocity P-wave (km/s) = 6.51235 6.89030 6.70399
#
# Compressibility (1/GPa) = 0.02007767
#
# Stress axis : x y z
#
# Youngs Moduli (GPa) = 116.09157 46.73981 57.49624
#
# Poissons Ratio (x) = 0.12562 0.19674
# Poissons Ratio (y) = 0.31202 0.43423
# Poissons Ratio (z) = 0.39723 0.35300
#
# Static dielectric constant tensor:
#      x y z
#    x 4.158550 0.000000 0.000000 
#    y 0.000000 3.449310 0.000000 
#    z 0.000000 0.000000 3.202110 
# 
# 
# High freq. dielectric constant tensor:
#      x y z
#    x 1.757900 0.000000 0.000000 
#    y 0.000000 1.732620 0.000000 
#    z 0.000000 0.000000 1.713920 
# 
# From -- ./inp_files/7409.got.cif
#   From: 2010.03.12/outbox.cif.g09.slc.cpg/sg44_4_cif.got.tgz:7409.got - 2010.04.14 02:36:11.
