data_PCOD8188299
_publ_section_title
;
Structure prediction by ZEFSAII (Michael W. Deem and Ramdas Pophale) SiO2 
 PCOD8188299
Probable space group: I M M 2
;
_chemical_formula_sum "Si O2"
_cell_formula_units_Z 48
_cell_length_a 17.235523
_cell_length_b 14.567542
_cell_length_c 9.972534
_cell_angle_alpha 90.000000
_cell_angle_beta 90.000000
_cell_angle_gamma 90.000000
_cell_volume 2503.895910
_symmetry_space_group_name_H-M "I M M 2"
_symmetry_group_IT_number 44
_symmetry_cell_setting 'orthorhombic'
loop_
_space_group_symop_operation_xyz
x,y,z
-x,-y,z
-x,y,z
x,-y,z
1/2+x,1/2+y,1/2+z
1/2-x,1/2-y,1/2+z
1/2-x,1/2+y,1/2+z
1/2+x,1/2-y,1/2+z
loop_
_atom_site_type_symbol
_atom_site_label
_atom_site_fract_x
_atom_site_fract_y
_atom_site_fract_z
Si Si1 0.872510 0.298145 0.293430
Si Si2 0.089133 0.500000 0.240984
Si Si3 0.590087 0.500000 0.668618
Si Si4 0.373581 0.500000 0.965674
Si Si5 0.416475 0.304489 0.053238
Si Si6 0.253386 0.500000 0.169327
Si Si7 0.411290 0.689986 0.533629
Si Si8 0.197599 0.811159 0.782345
O O1 0.894084 0.405413 0.322083
O O2 0.913701 0.244191 0.410573
O O3 0.904818 0.267486 0.148516
O O4 0.782314 0.267038 0.298265
O O5 0.160786 0.500000 0.135482
O O6 0.000000 0.500000 0.184769
O O7 0.500000 0.500000 0.706735
O O8 0.636528 0.500000 0.806845
O O9 0.613305 0.409918 0.586716
O O10 0.417318 0.412561 0.024782
O O11 0.285663 0.500000 0.019476
O O12 0.500000 0.280988 0.119294
O O13 0.348120 0.271471 0.152606
O O14 0.285397 0.582250 0.259768
O O15 0.500000 0.688412 0.481362
O O16 0.353581 0.712159 0.412173
#
# Coordination Sequence:
#
# PCOD8188299 Si02
#       8
#     8   4   4   4   8   4   8   8
#     4  11  22  37  57  78 105 145 188 229 270 316
#     4  10  20  37  57  77 100 138 194 242 266 299
#     4  10  19  31  53  83 115 142 170 210 261 329
#     4  10  18  32  53  84 118 142 170 212 264 334
#     4  11  20  34  57  83 110 144 179 216 268 329
#     4   8  19  34  53  78 113 148 178 212 269 328
#     4  11  21  35  56  84 113 143 179 219 270 329
#     4  10  21  36  53  80 115 145 176 223 272 322
#
# _framework density 19.170126
#
# number of rings (size 3 to 8) (size 9 to 14) (size 15 to 20)
#    0.000    1.667    1.667    4.250    0.000    0.000 
#    0.000    2.500    0.000    1.000    0.000    3.500 
#    0.000    0.000    0.000    0.000    0.000    0.000 
#
# Total GULP energy -297382.297949 kJ/mol
# GULP energy per Si atom -12390.929081 kJ/mol
# Density = 1.912649 g / cm^3
# Si number density = 19.170126 Si / 1000 Ang^3
#
#
#
# Elastic Constant Matrix: (Units=GPa)
#
#
# Indices 1 2 3 4 5 6 
#
# 1 141.7177 19.2844 35.7236 0.0000 0.0000 0.0000
# 2 19.2844 78.1818 20.8045 0.0000 0.0000 0.0000
# 3 35.7236 20.8045 89.8228 0.0000 0.0000 0.0000
# 4 0.0000 0.0000 0.0000 13.1881 0.0000 0.0000
# 5 0.0000 0.0000 0.0000 0.0000 29.8018 0.0000
# 6 0.0000 0.0000 0.0000 0.0000 0.0000 19.9268
#
#
#
# Elastic Compliance Matrix: (Units=1/GPa)
#
#
# Indices 1 2 3 4 5 6 
#
# 1 0.007945 -0.001192 -0.002884 0.000000 0.000000 0.000000
# 2 -0.001192 0.013810 -0.002724 0.000000 0.000000 0.000000
# 3 -0.002884 -0.002724 0.012911 0.000000 0.000000 0.000000
# 4 0.000000 0.000000 0.000000 0.075826 0.000000 0.000000
# 5 0.000000 0.000000 0.000000 0.000000 0.033555 0.000000
# 6 0.000000 0.000000 0.000000 0.000000 0.000000 0.050184
#
#
# Mechanical properties :
#
#
# Convention : Reuss Voigt Hill
#
# Bulk Modulus (GPa) = 47.47204 51.26082 49.36643
# Shear Modulus (GPa) = 23.27163 28.17733 25.72448
#
# Velocity S-wave (km/s) = 3.48796 3.83803 3.66718
# Velocity P-wave (km/s) = 6.40613 6.81459 6.61351
#
# Compressibility (1/GPa) = 0.02106503
#
# Stress axis : x y z
#
# Youngs Moduli (GPa) = 125.85764 72.41242 77.45354
#
# Poissons Ratio (x) = 0.08635 0.22336
# Poissons Ratio (y) = 0.15008 0.21101
# Poissons Ratio (z) = 0.36295 0.19728
#
# Static dielectric constant tensor:
#      x y z
#    x 3.812500 0.000000 0.000000 
#    y 0.000000 3.571470 0.000000 
#    z 0.000000 0.000000 3.270350 
# 
# 
# High freq. dielectric constant tensor:
#      x y z
#    x 1.762800 0.000000 0.000000 
#    y 0.000000 1.737520 0.000000 
#    z 0.000000 0.000000 1.724500 
# 
# From -- ./inp_files/7182.got.cif
#   From: 2010.03.12/outbox.cif.g09.slc.cpg/sg44_4_cif.got.tgz:7182.got - 2010.04.14 02:36:11.
