data_PCOD8188260
_publ_section_title
;
Structure prediction by ZEFSAII (Michael W. Deem and Ramdas Pophale) SiO2 
 PCOD8188260
Probable space group: I M M 2
;
_chemical_formula_sum "Si O2"
_cell_formula_units_Z 64
_cell_length_a 17.755923
_cell_length_b 12.011726
_cell_length_c 16.266304
_cell_angle_alpha 90.000000
_cell_angle_beta 90.000000
_cell_angle_gamma 90.000000
_cell_volume 3469.265637
_symmetry_space_group_name_H-M "I M M 2"
_symmetry_group_IT_number 44
_symmetry_cell_setting 'orthorhombic'
loop_
_space_group_symop_operation_xyz
x,y,z
-x,-y,z
-x,y,z
x,-y,z
1/2+x,1/2+y,1/2+z
1/2-x,1/2-y,1/2+z
1/2-x,1/2+y,1/2+z
1/2+x,1/2-y,1/2+z
loop_
_atom_site_type_symbol
_atom_site_label
_atom_site_fract_x
_atom_site_fract_y
_atom_site_fract_z
Si Si1 0.669714 0.127997 0.592200
Si Si2 0.301871 0.750955 0.432822
Si Si3 0.584793 0.121469 0.868963
Si Si4 0.588209 0.630567 0.308742
Si Si5 0.178343 0.630582 0.517007
Si Si6 0.775741 0.126730 0.290371
Si Si7 0.314564 0.271178 0.168540
Si Si8 0.414733 0.273119 0.715882
O O1 0.669877 0.152349 0.494374
O O2 0.750965 0.143749 0.635719
O O3 0.610718 0.216279 0.630891
O O4 0.644273 0.000000 0.604931
O O5 0.370666 0.698770 0.381309
O O6 0.265009 0.655931 0.491565
O O7 0.237496 0.801396 0.372792
O O8 0.500000 0.115773 0.899479
O O9 0.629504 0.179305 0.942140
O O10 0.592457 0.176472 0.781723
O O11 0.620731 0.000000 0.856557
O O12 0.500000 0.661713 0.309375
O O13 0.600614 0.500000 0.324431
O O14 0.622604 0.661602 0.219595
O O15 0.167442 0.500000 0.535769
O O16 0.149106 0.704574 0.592794
O O17 0.719745 0.173002 0.222605
O O18 0.860093 0.131143 0.251487
O O19 0.755900 0.000000 0.310250
O O20 0.500000 0.319688 0.707236
#
# Coordination Sequence:
#
# PCOD8188260 Si02
#       8
#     8   8   8   8   8   8   8   8
#     4  10  20  34  55  80 108 141 178 223 271 316
#     4  10  20  35  54  82 107 140 179 225 263 319
#     4   9  17  29  47  73 105 138 172 213 264 318
#     4  10  21  38  59  80 107 142 178 220 267 317
#     4  10  18  31  53  79 107 139 176 221 269 313
#     4  10  19  34  54  75 104 141 179 219 266 314
#     4   9  20  34  53  80 106 137 178 224 264 317
#     4  10  20  34  51  76 108 141 178 218 266 320
#
# _framework density 18.447709
#
# number of rings (size 3 to 8) (size 9 to 14) (size 15 to 20)
#    0.000    2.250    1.250    1.875    0.000    2.000 
#    0.000    0.625    0.000   12.750    0.000    0.000 
#    0.000    0.000    0.000    0.000    0.000    0.000 
#
# Total GULP energy -396583.744521 kJ/mol
# GULP energy per Si atom -12393.242016 kJ/mol
# Density = 1.840572 g / cm^3
# Si number density = 18.447709 Si / 1000 Ang^3
#
#
#
# Elastic Constant Matrix: (Units=GPa)
#
#
# Indices 1 2 3 4 5 6 
#
# 1 74.1765 25.5776 33.8510 0.0000 0.0000 0.0000
# 2 25.5776 76.2399 25.0213 0.0000 0.0000 0.0000
# 3 33.8510 25.0213 99.5708 0.0000 0.0000 0.0000
# 4 0.0000 0.0000 0.0000 18.5002 0.0000 0.0000
# 5 0.0000 0.0000 0.0000 0.0000 20.4242 0.0000
# 6 0.0000 0.0000 0.0000 0.0000 0.0000 19.5725
#
#
#
# Elastic Compliance Matrix: (Units=1/GPa)
#
#
# Indices 1 2 3 4 5 6 
#
# 1 0.017093 -0.004171 -0.004763 0.000000 0.000000 0.000000
# 2 -0.004171 0.015313 -0.002430 0.000000 0.000000 0.000000
# 3 -0.004763 -0.002430 0.012273 0.000000 0.000000 0.000000
# 4 0.000000 0.000000 0.000000 0.054054 0.000000 0.000000
# 5 0.000000 0.000000 0.000000 0.000000 0.048962 0.000000
# 6 0.000000 0.000000 0.000000 0.000000 0.000000 0.051092
#
#
# Mechanical properties :
#
#
# Convention : Reuss Voigt Hill
#
# Bulk Modulus (GPa) = 45.55594 46.54299 46.04946
# Shear Modulus (GPa) = 21.85000 22.73518 22.29259
#
# Velocity S-wave (km/s) = 3.44529 3.51438 3.48001
# Velocity P-wave (km/s) = 6.36984 6.46160 6.41589
#
# Compressibility (1/GPa) = 0.02195104
#
# Stress axis : x y z
#
# Youngs Moduli (GPa) = 58.50216 65.30206 81.47966
#
# Poissons Ratio (x) = 0.27240 0.38809
# Poissons Ratio (y) = 0.24404 0.19799
# Poissons Ratio (z) = 0.27864 0.15868
#
# Static dielectric constant tensor:
#      x y z
#    x 3.406560 0.000000 0.000000 
#    y 0.000000 3.243320 0.000000 
#    z 0.000000 0.000000 3.540050 
# 
# 
# High freq. dielectric constant tensor:
#      x y z
#    x 1.700190 0.000000 0.000000 
#    y 0.000000 1.705480 0.000000 
#    z 0.000000 0.000000 1.727200 
# 
# From -- ./inp_files/17920.got.cif
#   From: 2010.03.12/outbox.cif.g09.slc.cpg/sg44_9_cif.got.tgz:17920.got - 2010.04.14 02:36:11.
