data_PCOD8188738
_publ_section_title
;
Structure prediction by ZEFSAII (Michael W. Deem and Ramdas Pophale) SiO2 
 PCOD8188738
Probable space group: I M M 2
;
_chemical_formula_sum "Si O2"
_cell_formula_units_Z 56
_cell_length_a 8.565190
_cell_length_b 24.001446
_cell_length_c 13.638383
_cell_angle_alpha 90.000000
_cell_angle_beta 90.000000
_cell_angle_gamma 90.000000
_cell_volume 2803.737115
_symmetry_space_group_name_H-M "I M M 2"
_symmetry_group_IT_number 44
_symmetry_cell_setting 'orthorhombic'
loop_
_space_group_symop_operation_xyz
x,y,z
-x,-y,z
-x,y,z
x,-y,z
1/2+x,1/2+y,1/2+z
1/2-x,1/2-y,1/2+z
1/2-x,1/2+y,1/2+z
1/2+x,1/2-y,1/2+z
loop_
_atom_site_type_symbol
_atom_site_label
_atom_site_fract_x
_atom_site_fract_y
_atom_site_fract_z
Si Si1 0.181189 0.563875 0.432770
Si Si2 0.316310 0.668452 0.960352
Si Si3 0.314923 0.939138 0.153607
Si Si4 0.315323 0.560997 0.069954
Si Si5 0.182002 0.274644 0.146310
Si Si6 0.183546 0.672246 0.751823
Si Si7 0.817679 0.126946 0.757039
O O1 0.211315 0.500000 0.401975
O O2 0.241856 0.573949 0.543194
O O3 0.279924 0.605031 0.364780
O O4 0.000000 0.579166 0.421835
O O5 0.500000 0.670572 0.940148
O O6 0.225561 0.686562 0.863334
O O7 0.259016 0.606114 0.989946
O O8 0.276232 0.710674 0.047780
O O9 0.500000 0.942443 0.151177
O O10 0.258546 0.890633 0.226855
O O11 0.249283 0.000000 0.187690
O O12 0.500000 0.556953 0.066794
O O13 0.241079 0.500000 0.048169
O O14 0.262804 0.580791 0.177948
O O15 0.226603 0.212568 0.177848
O O16 0.226807 0.315862 0.235352
O O17 0.000000 0.278682 0.123413
O O18 0.000000 0.679412 0.735195
O O19 0.000000 0.140008 0.746906
#
# Coordination Sequence:
#
# PCOD8188738 Si02
#       7
#     8   8   8   8   8   8   8
#     4   9  17  31  52  79 112 151 193 232 274 329
#     4  10  21  38  58  83 115 147 183 227 277 333
#     4   8  17  35  57  81 111 146 183 224 269 322
#     4   8  15  29  50  76 108 146 183 221 270 327
#     4  11  23  40  59  80 110 146 188 235 282 332
#     4  11  22  38  61  85 110 144 186 229 277 331
#     4  10  19  32  52  80 114 149 188 234 285 337
#
# _framework density 19.973341000000001
#
# number of rings (size 3 to 8) (size 9 to 14) (size 15 to 20)
#    0.000    2.429    0.000    4.714    0.000    2.571 
#    0.000    5.714    0.000   11.143    0.000    0.000 
#    0.000    0.000    0.000    0.000    0.000    0.000 
#
# Total GULP energy -347177.252435 kJ/mol
# GULP energy per Si atom -12399.187587 kJ/mol
# Density = 1.992788 g / cm^3
# Si number density = 19.973341 Si / 1000 Ang^3
#
#
#
# Elastic Constant Matrix: (Units=GPa)
#
#
# Indices 1 2 3 4 5 6 
#
# 1 51.0338 16.8117 7.7551 0.0000 0.0001 0.0000
# 2 16.8117 113.8164 43.6084 0.0003 0.0000 0.0000
# 3 7.7551 43.6084 88.0353 0.0010 0.0000 -0.0001
# 4 0.0000 0.0003 0.0010 27.7532 0.0000 0.0000
# 5 0.0001 0.0000 0.0000 0.0000 27.5903 0.0001
# 6 0.0000 0.0000 -0.0001 0.0000 0.0001 23.5232
#
#
#
# Elastic Compliance Matrix: (Units=1/GPa)
#
#
# Indices 1 2 3 4 5 6 
#
# 1 0.020607 -0.002898 -0.000380 0.000000 0.000000 0.000000
# 2 -0.002898 0.011252 -0.005318 0.000000 0.000000 0.000000
# 3 -0.000380 -0.005318 0.014027 0.000000 0.000000 0.000000
# 4 0.000000 0.000000 0.000000 0.036032 0.000000 0.000000
# 5 0.000000 0.000000 0.000000 0.000000 0.036245 0.000000
# 6 0.000000 0.000000 0.000000 0.000000 0.000000 0.042511
#
#
# Mechanical properties :
#
#
# Convention : Reuss Voigt Hill
#
# Bulk Modulus (GPa) = 34.85108 43.24844 39.04976
# Shear Modulus (GPa) = 26.67645 28.08734 27.38190
#
# Velocity S-wave (km/s) = 3.65855 3.75406 3.70661
# Velocity P-wave (km/s) = 5.94419 6.36323 6.15727
#
# Compressibility (1/GPa) = 0.02869352
#
# Stress axis : x y z
#
# Youngs Moduli (GPa) = 48.52635 88.87379 71.29129
#
# Poissons Ratio (x) = 0.25760 0.02706
# Poissons Ratio (y) = 0.14065 0.37915
# Poissons Ratio (z) = 0.01842 0.47266
#
# Static dielectric constant tensor:
#      x y z
#    x 3.314690 0.000000 0.000000 
#    y 0.000000 3.974170 0.000000 
#    z 0.000000 0.000000 3.541440 
# 
# 
# High freq. dielectric constant tensor:
#      x y z
#    x 1.755700 0.000000 0.000000 
#    y 0.000000 1.783600 0.000000 
#    z 0.000000 0.000000 1.773690 
# 
# From -- ./inp_files/16487.got.cif
#   From: 2010.03.12/outbox.cif.g09.slc.cpg/sg44_9_cif.got.tgz:16487.got - 2010.04.14 02:36:11.
