data_PCOD8188237
_publ_section_title
;
Structure prediction by ZEFSAII (Michael W. Deem and Ramdas Pophale) SiO2 
 PCOD8188237
Probable space group: I M M 2
;
_chemical_formula_sum "Si O2"
_cell_formula_units_Z 64
_cell_length_a 29.990920
_cell_length_b 9.279422
_cell_length_c 14.354465
_cell_angle_alpha 90.000000
_cell_angle_beta 90.000000
_cell_angle_gamma 90.000000
_cell_volume 3994.824683
_symmetry_space_group_name_H-M "I M M 2"
_symmetry_group_IT_number 44
_symmetry_cell_setting 'orthorhombic'
loop_
_space_group_symop_operation_xyz
x,y,z
-x,-y,z
-x,y,z
x,-y,z
1/2+x,1/2+y,1/2+z
1/2-x,1/2-y,1/2+z
1/2-x,1/2+y,1/2+z
1/2+x,1/2-y,1/2+z
loop_
_atom_site_type_symbol
_atom_site_label
_atom_site_fract_x
_atom_site_fract_y
_atom_site_fract_z
Si Si1 0.293151 0.331416 0.893070
Si Si2 0.203948 0.668836 0.783016
Si Si3 0.948733 0.832176 0.214539
Si Si4 0.127991 0.330556 0.924783
Si Si5 0.775091 0.831501 0.606677
Si Si6 0.370826 0.835093 0.793128
Si Si7 0.550941 0.666980 0.501431
Si Si8 0.177679 0.663298 0.100746
O O1 0.300509 0.500000 0.873891
O O2 0.247715 0.278699 0.841389
O O3 0.336334 0.244724 0.860066
O O4 0.291010 0.298244 0.002647
O O5 0.208017 0.500000 0.765878
O O6 0.158368 0.707396 0.836610
O O7 0.196835 0.747681 0.684525
O O8 0.918741 0.743401 0.288463
O O9 0.940369 0.781127 0.107939
O O10 0.000000 0.804257 0.241926
O O11 0.936742 0.000000 0.224115
O O12 0.119509 0.500000 0.933881
O O13 0.080086 0.253032 0.924984
O O14 0.153056 0.262798 0.014486
O O15 0.725473 0.765239 0.619108
O O16 0.777978 0.000000 0.630049
O O17 0.352717 0.826363 0.689623
O O18 0.376667 0.000000 0.826633
O O19 0.500000 0.696698 0.474361
O O20 0.562647 0.500000 0.493121
O O21 0.188117 0.500000 0.069594
#
# Coordination Sequence:
#
# PCOD8188237 Si02
#       8
#     8   8   8   8   8   8   8   8
#     4  10  20  33  49  68  95 132 165 196 240 290
#     4  10  20  32  48  70  96 126 162 203 242 281
#     4   9  18  32  48  68  98 131 160 194 238 290
#     4  10  18  31  48  68  96 130 163 195 237 285
#     4  10  19  34  50  65  94 132 167 201 237 280
#     4  11  20  30  48  72  98 128 164 205 239 278
#     4   9  18  31  46  68  98 127 157 197 239 280
#     4   9  16  27  44  67  95 126 159 196 233 270
#
# _framework density 16.020727999999998
#
# number of rings (size 3 to 8) (size 9 to 14) (size 15 to 20)
#    0.000    2.250    3.750    1.125    0.000    1.500 
#    0.000    1.875    0.000    0.000    0.000    0.875 
#    0.000    5.000    0.000    0.000    0.000    0.000 
#
# Total GULP energy -396661.321811 kJ/mol
# GULP energy per Si atom -12395.666307 kJ/mol
# Density = 1.598426 g / cm^3
# Si number density = 16.020728 Si / 1000 Ang^3
#
#
#
# Elastic Constant Matrix: (Units=GPa)
#
#
# Indices 1 2 3 4 5 6 
#
# 1 102.8133 49.6917 35.3235 0.0000 0.0000 0.0000
# 2 49.6917 56.7906 38.7953 0.0000 0.0000 0.0000
# 3 35.3235 38.7953 75.6424 0.0000 0.0000 0.0000
# 4 0.0000 0.0000 0.0000 22.9515 0.0000 0.0000
# 5 0.0000 0.0000 0.0000 0.0000 20.3899 0.0000
# 6 0.0000 0.0000 0.0000 0.0000 0.0000 27.6900
#
#
#
# Elastic Compliance Matrix: (Units=1/GPa)
#
#
# Indices 1 2 3 4 5 6 
#
# 1 0.016865 -0.014434 -0.000473 0.000000 0.000000 0.000000
# 2 -0.014434 0.039458 -0.013497 0.000000 0.000000 0.000000
# 3 -0.000473 -0.013497 0.020363 0.000000 0.000000 0.000000
# 4 0.000000 0.000000 0.000000 0.043570 0.000000 0.000000
# 5 0.000000 0.000000 0.000000 0.000000 0.049044 0.000000
# 6 0.000000 0.000000 0.000000 0.000000 0.000000 0.036114
#
#
# Mechanical properties :
#
#
# Convention : Reuss Voigt Hill
#
# Bulk Modulus (GPa) = 50.30376 53.65191 51.97783
# Shear Modulus (GPa) = 18.59787 21.63534 20.11660
#
# Velocity S-wave (km/s) = 3.41084 3.67885 3.54737
# Velocity P-wave (km/s) = 6.85413 7.18380 7.02090
#
# Compressibility (1/GPa) = 0.01987923
#
# Stress axis : x y z
#
# Youngs Moduli (GPa) = 59.29453 25.34324 49.10827
#
# Poissons Ratio (x) = 0.36580 0.02322
# Poissons Ratio (y) = 0.85585 0.66281
# Poissons Ratio (z) = 0.02804 0.34206
#
# Static dielectric constant tensor:
#      x y z
#    x 3.028950 0.000000 0.000000 
#    y 0.000000 2.931790 0.000000 
#    z 0.000000 0.000000 2.833790 
# 
# 
# High freq. dielectric constant tensor:
#      x y z
#    x 1.612010 0.000000 0.000000 
#    y 0.000000 1.605730 0.000000 
#    z 0.000000 0.000000 1.590150 
# 
# From -- ./inp_files/17099.got.cif
#   From: 2010.03.12/outbox.cif.g09.slc.cpg/sg44_9_cif.got.tgz:17099.got - 2010.04.14 02:36:11.
