data_PCOD8188809
_publ_section_title
;
Structure prediction by ZEFSAII (Michael W. Deem and Ramdas Pophale) SiO2 
 PCOD8188809
Probable space group: I M M 2
;
_chemical_formula_sum "Si O2"
_cell_formula_units_Z 64
_cell_length_a 8.949476
_cell_length_b 20.528786
_cell_length_c 19.794548
_cell_angle_alpha 90.000000
_cell_angle_beta 90.000000
_cell_angle_gamma 90.000000
_cell_volume 3636.691525
_symmetry_space_group_name_H-M "I M M 2"
_symmetry_group_IT_number 44
_symmetry_cell_setting 'orthorhombic'
loop_
_space_group_symop_operation_xyz
x,y,z
-x,-y,z
-x,y,z
x,-y,z
1/2+x,1/2+y,1/2+z
1/2-x,1/2-y,1/2+z
1/2-x,1/2+y,1/2+z
1/2+x,1/2-y,1/2+z
loop_
_atom_site_type_symbol
_atom_site_label
_atom_site_fract_x
_atom_site_fract_y
_atom_site_fract_z
Si Si1 0.671725 0.574125 0.906520
Si Si2 0.175698 0.626279 0.184572
Si Si3 0.172361 0.231667 0.040017
Si Si4 0.326548 0.926639 0.824485
Si Si5 0.177236 0.316494 0.818832
Si Si6 0.678163 0.272630 0.688457
Si Si7 0.677594 0.310562 0.399172
Si Si8 0.327151 0.884347 0.537433
O O1 0.500000 0.596448 0.903794
O O2 0.689769 0.500000 0.881052
O O3 0.768295 0.620191 0.858505
O O4 0.728405 0.577460 0.983524
O O5 0.221719 0.579223 0.245862
O O6 0.234135 0.698715 0.201558
O O7 0.234797 0.598265 0.112870
O O8 0.000000 0.632643 0.174262
O O9 0.236847 0.208645 0.112778
O O10 0.194621 0.307759 0.026673
O O11 0.000000 0.214377 0.042592
O O12 0.243719 0.194589 0.975599
O O13 0.500000 0.908252 0.831798
O O14 0.231725 0.878759 0.870183
O O15 0.294023 0.000000 0.848416
O O16 0.243359 0.318960 0.743105
O O17 0.236058 0.250778 0.855513
O O18 0.000000 0.318531 0.815734
O O19 0.500000 0.279514 0.695042
O O20 0.500000 0.309377 0.399733
O O21 0.500000 0.904626 0.527703
#
# Coordination Sequence:
#
# PCOD8188809 Si02
#       8
#     8   8   8   8   8   8   8   8
#     4  11  24  38  51  73 106 141 176 215 261 312
#     4   8  15  28  49  75 103 138 175 208 247 301
#     4   8  15  30  52  78 104 132 167 210 254 303
#     4  10  20  33  49  73 105 139 176 213 250 297
#     4  11  21  34  55  80 105 134 172 216 260 307
#     4   9  16  30  54  78 103 133 168 211 258 305
#     4  10  19  33  53  76 103 134 172 213 254 301
#     4   9  16  31  53  76 102 135 175 213 251 299
#
# _framework density 17.598413000000001
#
# number of rings (size 3 to 8) (size 9 to 14) (size 15 to 20)
#    0.000    2.500    2.500    2.250    0.000    2.250 
#    0.000    5.000    0.000    0.750    0.000    1.750 
#    0.000    0.000    0.000    0.000    0.000    0.000 
#
# Total GULP energy -396623.548706 kJ/mol
# GULP energy per Si atom -12394.485897 kJ/mol
# Density = 1.755836 g / cm^3
# Si number density = 17.598413 Si / 1000 Ang^3
#
#
#
# Elastic Constant Matrix: (Units=GPa)
#
#
# Indices 1 2 3 4 5 6 
#
# 1 40.5877 17.8929 31.0468 0.0000 0.0000 0.0000
# 2 17.8929 59.0752 43.5143 0.0000 0.0000 0.0000
# 3 31.0468 43.5143 124.0555 0.0000 0.0000 0.0000
# 4 0.0000 0.0000 0.0000 20.8688 0.0000 0.0000
# 5 0.0000 0.0000 0.0000 0.0000 26.0282 0.0000
# 6 0.0000 0.0000 0.0000 0.0000 0.0000 22.8567
#
#
#
# Elastic Compliance Matrix: (Units=1/GPa)
#
#
# Indices 1 2 3 4 5 6 
#
# 1 0.031547 -0.005042 -0.006126 0.000000 0.000000 0.000000
# 2 -0.005042 0.023631 -0.007027 0.000000 0.000000 0.000000
# 3 -0.006126 -0.007027 0.012059 0.000000 0.000000 0.000000
# 4 0.000000 0.000000 0.000000 0.047919 0.000000 0.000000
# 5 0.000000 0.000000 0.000000 0.000000 0.038420 0.000000
# 6 0.000000 0.000000 0.000000 0.000000 0.000000 0.043751
#
#
# Mechanical properties :
#
#
# Convention : Reuss Voigt Hill
#
# Bulk Modulus (GPa) = 32.41976 45.40294 38.91135
# Shear Modulus (GPa) = 20.49182 22.70169 21.59676
#
# Velocity S-wave (km/s) = 3.41605 3.59553 3.50694
# Velocity P-wave (km/s) = 5.83277 6.56450 6.20942
#
# Compressibility (1/GPa) = 0.03084539
#
# Stress axis : x y z
#
# Youngs Moduli (GPa) = 31.69842 42.31761 82.92598
#
# Poissons Ratio (x) = 0.21338 0.50805
# Poissons Ratio (y) = 0.15984 0.58271
# Poissons Ratio (z) = 0.19420 0.29736
#
# Static dielectric constant tensor:
#      x y z
#    x 2.964780 0.000000 0.000000 
#    y 0.000000 3.007040 0.000000 
#    z 0.000000 0.000000 3.618370 
# 
# 
# High freq. dielectric constant tensor:
#      x y z
#    x 1.651310 0.000000 0.000000 
#    y 0.000000 1.653550 0.000000 
#    z 0.000000 0.000000 1.693320 
# 
# From -- ./inp_files/23251.got.cif
#   From: 2010.03.12/outbox.cif.g09.slc.cpg/sg44_12_cif.got.tgz:23251.got - 2010.04.14 02:36:11.
