data_PCOD8188101
_publ_section_title
;
Structure prediction by ZEFSAII (Michael W. Deem and Ramdas Pophale) SiO2 
 PCOD8188101
Probable space group: I M M 2
;
_chemical_formula_sum "Si O2"
_cell_formula_units_Z 64
_cell_length_a 9.019982
_cell_length_b 14.541625
_cell_length_c 28.276706
_cell_angle_alpha 90.000000
_cell_angle_beta 90.000000
_cell_angle_gamma 90.000000
_cell_volume 3708.919678
_symmetry_space_group_name_H-M "I M M 2"
_symmetry_group_IT_number 44
_symmetry_cell_setting 'orthorhombic'
loop_
_space_group_symop_operation_xyz
x,y,z
-x,-y,z
-x,y,z
x,-y,z
1/2+x,1/2+y,1/2+z
1/2-x,1/2-y,1/2+z
1/2-x,1/2+y,1/2+z
1/2+x,1/2-y,1/2+z
loop_
_atom_site_type_symbol
_atom_site_label
_atom_site_fract_x
_atom_site_fract_y
_atom_site_fract_z
Si Si1 0.324036 0.399835 0.540350
Si Si2 0.332508 0.393176 0.999040
Si Si3 0.824555 0.286614 0.080586
Si Si4 0.826946 0.393997 0.171392
Si Si5 0.674578 0.788341 0.852148
Si Si6 0.174778 0.894765 0.768339
Si Si7 0.324488 0.399591 0.893632
Si Si8 0.331366 0.606938 0.433718
O O1 0.500000 0.405771 0.539434
O O2 0.260189 0.500000 0.556284
O O3 0.270427 0.319845 0.576156
O O4 0.272744 0.376457 0.486983
O O5 0.500000 0.355089 0.003412
O O6 0.328857 0.500000 0.011823
O O7 0.228477 0.341075 0.035179
O O8 0.266176 0.376703 0.946445
O O9 0.763213 0.331113 0.128906
O O10 0.000000 0.293152 0.081031
O O11 0.796232 0.500000 0.158199
O O12 0.739052 0.364289 0.217977
O O13 0.000000 0.376533 0.180602
O O14 0.500000 0.800126 0.844362
O O15 0.759574 0.828101 0.807511
O O16 0.721169 0.680764 0.857248
O O17 0.720056 0.839983 0.899732
O O18 0.000000 0.882969 0.767341
O O19 0.220305 0.000000 0.779732
O O20 0.500000 0.405620 0.898075
O O21 0.263487 0.500000 0.876559
O O22 0.500000 0.642994 0.426965
O O23 0.325456 0.500000 0.420564
#
# Coordination Sequence:
#
# PCOD8188101 Si02
#       8
#     8   8   8   8   8   8   8   8
#     4   8  15  28  45  66  94 128 162 192 222 260
#     4   9  17  29  45  66  95 129 159 186 220 267
#     4  10  18  28  47  72  95 121 154 193 233 268
#     4   9  18  32  48  68  94 118 144 186 236 279
#     4  11  20  29  48  73  93 118 153 193 234 271
#     4  10  21  36  52  69  91 120 151 183 225 280
#     4   8  16  31  47  65  93 127 159 189 222 264
#     4   9  17  29  44  64  95 132 162 187 220 266
#
# _framework density 17.255697999999999
#
# number of rings (size 3 to 8) (size 9 to 14) (size 15 to 20)
#    0.000    2.750    0.000    3.750    0.000    3.750 
#    0.000    1.875    0.000    4.875    0.000    3.500 
#    0.000    0.000    0.000    0.000    0.000    0.000 
#
# Total GULP energy -396666.294787 kJ/mol
# GULP energy per Si atom -12395.821712 kJ/mol
# Density = 1.721642 g / cm^3
# Si number density = 17.255698 Si / 1000 Ang^3
#
#
#
# Elastic Constant Matrix: (Units=GPa)
#
#
# Indices 1 2 3 4 5 6 
#
# 1 29.4572 29.2528 29.6359 0.0000 0.0000 0.0000
# 2 29.2528 115.2994 88.2306 0.0000 0.0000 0.0000
# 3 29.6359 88.2306 112.8481 0.0000 0.0000 0.0000
# 4 0.0000 0.0000 0.0000 30.5196 0.0000 0.0000
# 5 0.0000 0.0000 0.0000 0.0000 25.5738 0.0000
# 6 0.0000 0.0000 0.0000 0.0000 0.0000 16.5261
#
#
#
# Elastic Compliance Matrix: (Units=1/GPa)
#
#
# Indices 1 2 3 4 5 6 
#
# 1 0.047903 -0.006290 -0.007662 0.000000 0.000000 0.000000
# 2 -0.006290 0.022417 -0.015875 0.000000 0.000000 0.000000
# 3 -0.007662 -0.015875 0.023285 0.000000 0.000000 0.000000
# 4 0.000000 0.000000 0.000000 0.032766 0.000000 0.000000
# 5 0.000000 0.000000 0.000000 0.000000 0.039103 0.000000
# 6 0.000000 0.000000 0.000000 0.000000 0.000000 0.060510
#
#
# Mechanical properties :
#
#
# Convention : Reuss Voigt Hill
#
# Bulk Modulus (GPa) = 29.45435 61.31591 45.38513
# Shear Modulus (GPa) = 16.83761 21.88961 19.36361
#
# Velocity S-wave (km/s) = 3.12712 3.56553 3.35350
# Velocity P-wave (km/s) = 5.49044 7.24993 6.43065
#
# Compressibility (1/GPa) = 0.03395085
#
# Stress axis : x y z
#
# Youngs Moduli (GPa) = 20.87565 44.60953 42.94554
#
# Poissons Ratio (x) = 0.28060 0.32905
# Poissons Ratio (y) = 0.13131 0.68175
# Poissons Ratio (z) = 0.15995 0.70816
#
# Static dielectric constant tensor:
#      x y z
#    x 2.989230 0.000000 0.000000 
#    y 0.000000 3.629190 0.000000 
#    z 0.000000 0.000000 3.167270 
# 
# 
# High freq. dielectric constant tensor:
#      x y z
#    x 1.643560 0.000000 0.000000 
#    y 0.000000 1.669170 0.000000 
#    z 0.000000 0.000000 1.650140 
# 
# From -- ./inp_files/25181.got.cif
#   From: 2010.03.12/outbox.cif.g09.slc.cpg/sg44_13_cif.got.tgz:25181.got - 2010.04.14 02:36:11.
