data_PCOD8188928
_publ_section_title
;
Structure prediction by ZEFSAII (Michael W. Deem and Ramdas Pophale) SiO2 
 PCOD8188928
Probable space group: I M M 2
;
_chemical_formula_sum "Si O2"
_cell_formula_units_Z 64
_cell_length_a 19.604009
_cell_length_b 19.174125
_cell_length_c 9.383247
_cell_angle_alpha 90.000000
_cell_angle_beta 90.000000
_cell_angle_gamma 90.000000
_cell_volume 3527.066079
_symmetry_space_group_name_H-M "I M M 2"
_symmetry_group_IT_number 44
_symmetry_cell_setting 'orthorhombic'
loop_
_space_group_symop_operation_xyz
x,y,z
-x,-y,z
-x,y,z
x,-y,z
1/2+x,1/2+y,1/2+z
1/2-x,1/2-y,1/2+z
1/2-x,1/2+y,1/2+z
1/2+x,1/2-y,1/2+z
loop_
_atom_site_type_symbol
_atom_site_label
_atom_site_fract_x
_atom_site_fract_y
_atom_site_fract_z
Si Si1 0.073756 0.831083 0.107610
Si Si2 0.282285 0.182964 0.734462
Si Si3 0.711873 0.419543 0.027824
Si Si4 0.717715 0.682964 0.533518
Si Si5 0.211873 0.419543 0.740156
Si Si6 0.924058 0.420567 0.882548
Si Si7 0.073756 0.331083 0.160370
Si Si8 0.924058 0.079433 0.385432
O O1 0.139632 0.844281 0.007297
O O2 0.065922 0.750000 0.133990
O O3 0.090123 0.869495 0.255075
O O4 0.000000 0.858125 0.045210
O O5 0.237180 0.122871 0.663776
O O6 0.283321 0.250000 0.633990
O O7 0.360368 0.155719 0.760683
O O8 0.250000 0.204290 0.883990
O O9 0.727616 0.500000 0.059672
O O10 0.750000 0.395373 0.883990
O O11 0.630960 0.405223 0.008884
O O12 0.762820 0.622871 0.604204
O O13 0.227615 0.500000 0.708308
O O14 0.130960 0.405223 0.759096
O O15 0.915064 0.500000 0.937879
O O16 0.000000 0.408624 0.819302
O O17 0.909877 0.369495 0.012905
O O18 0.000000 0.358125 0.222770
O O19 0.000000 0.091376 0.448678
O O20 0.915064 0.000000 0.330101
#
# Coordination Sequence:
#
# PCOD8188928 Si02
#       8
#     8   8   8   8   8   8   8   8
#     4   9  18  32  52  76 105 140 180 224 265 319
#     4  11  23  36  55  79 109 146 185 227 274 322
#     4  10  19  34  56  81 109 138 176 224 273 324
#     4  11  23  36  55  79 109 146 185 227 274 322
#     4  10  19  34  56  81 109 138 176 224 273 324
#     4   9  17  31  55  83 109 142 181 220 268 326
#     4   9  18  32  52  76 105 140 180 224 265 319
#     4   9  17  31  55  83 109 142 181 220 268 326
#
# _framework density 18.145392999999999
#
# number of rings (size 3 to 8) (size 9 to 14) (size 15 to 20)
#    0.000    2.250    2.500    0.750    3.500    0.500 
#    0.000    1.250    0.000    1.500    0.000    0.000 
#    0.000    0.000    0.000    0.000    0.000    0.000 
#
# Total GULP energy -396566.387728 kJ/mol
# GULP energy per Si atom -12392.699617 kJ/mol
# Density = 1.810409 g / cm^3
# Si number density = 18.145393 Si / 1000 Ang^3
#
#
#
# Elastic Constant Matrix: (Units=GPa)
#
#
# Indices 1 2 3 4 5 6 
#
# 1 175.8314 31.3472 55.7198 0.0000 0.0000 0.0000
# 2 31.3472 66.7726 28.4761 0.0000 0.0000 0.0000
# 3 55.7198 28.4761 75.7574 0.0000 0.0000 0.0000
# 4 0.0000 0.0000 0.0000 30.0288 0.0000 0.0000
# 5 0.0000 0.0000 0.0000 0.0000 24.9023 0.0000
# 6 0.0000 0.0000 0.0000 0.0000 0.0000 23.9078
#
#
#
# Elastic Compliance Matrix: (Units=1/GPa)
#
#
# Indices 1 2 3 4 5 6 
#
# 1 0.007523 -0.001396 -0.005009 0.000000 0.000000 0.000000
# 2 -0.001396 0.018094 -0.005775 0.000000 0.000000 0.000000
# 3 -0.005009 -0.005775 0.019055 0.000000 0.000000 0.000000
# 4 0.000000 0.000000 0.000000 0.033301 0.000000 0.000000
# 5 0.000000 0.000000 0.000000 0.000000 0.040157 0.000000
# 6 0.000000 0.000000 0.000000 0.000000 0.000000 0.041827
#
#
# Mechanical properties :
#
#
# Convention : Reuss Voigt Hill
#
# Bulk Modulus (GPa) = 49.22825 61.04974 55.13899
# Shear Modulus (GPa) = 26.16600 29.28900 27.72750
#
# Velocity S-wave (km/s) = 3.80151 4.02198 3.91330
# Velocity P-wave (km/s) = 6.81597 7.43547 7.13245
#
# Compressibility (1/GPa) = 0.02031354
#
# Stress axis : x y z
#
# Youngs Moduli (GPa) = 132.91917 55.26631 52.48076
#
# Poissons Ratio (x) = 0.07715 0.26286
# Poissons Ratio (y) = 0.18554 0.30306
# Poissons Ratio (z) = 0.66576 0.31914
#
# Static dielectric constant tensor:
#      x y z
#    x 4.175200 0.000000 0.000000 
#    y 0.000000 3.395570 0.000000 
#    z 0.000000 0.000000 2.838560 
# 
# 
# High freq. dielectric constant tensor:
#      x y z
#    x 1.737410 0.000000 0.000000 
#    y 0.000000 1.706040 0.000000 
#    z 0.000000 0.000000 1.642430 
# 
# From -- ./inp_files/8445.got.cif
#   From: 2010.03.12/outbox.cif.g09.slc.cpg/sg44_5_cif.got.tgz:8445.got - 2010.04.14 02:36:11.
