data_PCOD8188874
_publ_section_title
;
Structure prediction by ZEFSAII (Michael W. Deem and Ramdas Pophale) SiO2 
 PCOD8188874
Probable space group: I M M 2
;
_chemical_formula_sum "Si O2"
_cell_formula_units_Z 64
_cell_length_a 9.147315
_cell_length_b 28.835848
_cell_length_c 12.587878
_cell_angle_alpha 90.000000
_cell_angle_beta 90.000000
_cell_angle_gamma 90.000000
_cell_volume 3320.311943
_symmetry_space_group_name_H-M "I M M 2"
_symmetry_group_IT_number 44
_symmetry_cell_setting 'orthorhombic'
loop_
_space_group_symop_operation_xyz
x,y,z
-x,-y,z
-x,y,z
x,-y,z
1/2+x,1/2+y,1/2+z
1/2-x,1/2-y,1/2+z
1/2-x,1/2+y,1/2+z
1/2+x,1/2-y,1/2+z
loop_
_atom_site_type_symbol
_atom_site_label
_atom_site_fract_x
_atom_site_fract_y
_atom_site_fract_z
Si Si1 0.827427 0.554440 0.259180
Si Si2 0.161893 0.331773 0.780361
Si Si3 0.673720 0.394712 0.067249
Si Si4 0.167728 0.301754 0.010338
Si Si5 0.336774 0.949759 0.148751
Si Si6 0.831113 0.918618 0.332335
Si Si7 0.826742 0.612237 0.463287
Si Si8 0.834030 0.290570 0.551873
O O1 0.790270 0.500000 0.279596
O O2 0.741758 0.572529 0.156562
O O3 0.770526 0.587102 0.356143
O O4 0.000000 0.560779 0.240839
O O5 0.287408 0.369962 0.779372
O O6 0.176300 0.302126 0.675324
O O7 0.000000 0.354824 0.785813
O O8 0.185378 0.300351 0.883616
O O9 0.500000 0.389901 0.083002
O O10 0.742662 0.343221 0.066893
O O11 0.713083 0.420023 0.956101
O O12 0.226529 0.252130 0.043273
O O13 0.000000 0.307084 0.046781
O O14 0.500000 0.932529 0.174523
O O15 0.253173 0.955908 0.260980
O O16 0.338592 0.000000 0.093102
O O17 0.260925 0.914420 0.065901
O O18 0.000000 0.927892 0.318485
O O19 0.782821 0.666502 0.475494
O O20 0.000000 0.606683 0.467545
O O21 0.000000 0.276808 0.521032
#
# Coordination Sequence:
#
# PCOD8188874 Si02
#       8
#     8   8   8   8   8   8   8   8
#     4  10  21  38  61  88 118 155 201 250 295 345
#     4   9  18  35  56  76 105 145 184 226 278 339
#     4  10  22  40  59  80 112 154 196 238 292 349
#     4  10  21  36  56  84 114 146 191 244 292 342
#     4  10  19  33  56  83 111 145 183 223 275 340
#     4  10  20  34  54  79 108 141 180 231 285 335
#     4   9  18  35  58  84 114 150 191 236 286 342
#     4  10  19  34  57  82 113 151 190 233 289 352
#
# _framework density 19.275297999999999
#
# number of rings (size 3 to 8) (size 9 to 14) (size 15 to 20)
#    0.000    2.250    1.250    1.500    0.000    6.000 
#    0.000    6.250    0.000    1.500    0.000    0.000 
#    0.000    0.000    0.000    0.000    0.000    0.000 
#
# Total GULP energy -396561.408165 kJ/mol
# GULP energy per Si atom -12392.544005 kJ/mol
# Density = 1.923143 g / cm^3
# Si number density = 19.275298 Si / 1000 Ang^3
#
#
#
# Elastic Constant Matrix: (Units=GPa)
#
#
# Indices 1 2 3 4 5 6 
#
# 1 62.2201 32.4647 39.9777 -0.0001 -0.0001 -0.0001
# 2 32.4647 93.9455 38.7878 -0.0002 0.0001 0.0000
# 3 39.9777 38.7878 103.6064 -0.0015 0.0001 0.0001
# 4 -0.0001 -0.0002 -0.0015 25.2083 0.0000 0.0000
# 5 -0.0001 0.0001 0.0001 0.0000 24.0857 -0.0002
# 6 -0.0001 0.0000 0.0001 0.0000 -0.0002 28.4681
#
#
#
# Elastic Compliance Matrix: (Units=1/GPa)
#
#
# Indices 1 2 3 4 5 6 
#
# 1 0.023289 -0.005131 -0.007065 0.000000 0.000000 0.000000
# 2 -0.005131 0.013721 -0.003157 0.000000 0.000000 0.000000
# 3 -0.007065 -0.003157 0.013560 0.000001 0.000000 0.000000
# 4 0.000000 0.000000 0.000001 0.039669 0.000000 0.000000
# 5 0.000000 0.000000 0.000000 0.000000 0.041518 0.000000
# 6 0.000000 0.000000 0.000000 0.000000 0.000000 0.035127
#
#
# Mechanical properties :
#
#
# Convention : Reuss Voigt Hill
#
# Bulk Modulus (GPa) = 50.34381 53.58137 51.96259
# Shear Modulus (GPa) = 24.48433 25.45520 24.96976
#
# Velocity S-wave (km/s) = 3.56791 3.63797 3.60311
# Velocity P-wave (km/s) = 6.56874 6.74572 6.65782
#
# Compressibility (1/GPa) = 0.01986341
#
# Stress axis : x y z
#
# Youngs Moduli (GPa) = 42.93926 72.88113 73.74582
#
# Poissons Ratio (x) = 0.37394 0.52104
# Poissons Ratio (y) = 0.22031 0.23282
# Poissons Ratio (z) = 0.30338 0.23009
#
# Static dielectric constant tensor:
#      x y z
#    x 3.544250 0.000000 0.000000 
#    y 0.000000 3.492400 0.000000 
#    z 0.000000 0.000000 3.707470 
# 
# 
# High freq. dielectric constant tensor:
#      x y z
#    x 1.731240 0.000000 0.000000 
#    y 0.000000 1.750850 0.000000 
#    z 0.000000 0.000000 1.754790 
# 
# From -- ./inp_files/11535.got.cif
#   From: 2010.03.12/outbox.cif.g09.slc.cpg/sg44_6_cif.got.tgz:11535.got - 2010.04.14 02:36:11.
