data_PCOD8188583
_publ_section_title
;
Structure prediction by ZEFSAII (Michael W. Deem and Ramdas Pophale) SiO2 
 PCOD8188583
Probable space group: I M M 2
;
_chemical_formula_sum "Si O2"
_cell_formula_units_Z 48
_cell_length_a 18.293767
_cell_length_b 8.987253
_cell_length_c 16.834339
_cell_angle_alpha 90.000000
_cell_angle_beta 90.000000
_cell_angle_gamma 90.000000
_cell_volume 2767.745667
_symmetry_space_group_name_H-M "I M M 2"
_symmetry_group_IT_number 44
_symmetry_cell_setting 'orthorhombic'
loop_
_space_group_symop_operation_xyz
x,y,z
-x,-y,z
-x,y,z
x,-y,z
1/2+x,1/2+y,1/2+z
1/2-x,1/2-y,1/2+z
1/2-x,1/2+y,1/2+z
1/2+x,1/2-y,1/2+z
loop_
_atom_site_type_symbol
_atom_site_label
_atom_site_fract_x
_atom_site_fract_y
_atom_site_fract_z
Si Si1 0.083979 0.674104 0.026540
Si Si2 0.295824 0.164532 0.412205
Si Si3 0.818871 0.176285 0.156595
Si Si4 0.318322 0.173090 0.819708
Si Si5 0.197000 0.166362 0.567392
Si Si6 0.416478 0.173630 0.969811
O O1 0.094589 0.500000 0.047249
O O2 0.118349 0.769826 0.097053
O O3 0.000000 0.718935 0.017286
O O4 0.123049 0.710756 0.941863
O O5 0.263062 0.281108 0.349349
O O6 0.247600 0.162874 0.490875
O O7 0.296130 0.000000 0.372997
O O8 0.841363 0.232384 0.243543
O O9 0.738836 0.241041 0.135266
O O10 0.814790 0.000000 0.154462
O O11 0.377335 0.213473 0.887017
O O12 0.318093 0.000000 0.798154
O O13 0.120333 0.242393 0.544141
O O14 0.181868 0.000000 0.599208
O O15 0.500000 0.225985 0.963249
O O16 0.409471 0.000000 0.987446
#
# Coordination Sequence:
#
# PCOD8188583 Si02
#       6
#     8   8   8   8   8   8
#     4   9  18  33  52  73  99 130 160 192 235 288
#     4   8  15  29  48  69  92 121 159 199 236 278
#     4  11  21  32  48  71  99 129 162 202 243 283
#     4  10  19  31  48  70  97 130 164 198 238 285
#     4   9  17  31  50  70  93 124 163 202 238 281
#     4   9  18  32  50  73 100 129 160 195 238 287
#
# _framework density 17.342634
#
# number of rings (size 3 to 8) (size 9 to 14) (size 15 to 20)
#    0.000    2.667    0.000    3.500    0.000    6.000 
#    0.000    1.667    0.000    1.000    0.000    2.333 
#    0.000    0.000    0.000    0.000    0.000    0.000 
#
# Total GULP energy -297555.127549 kJ/mol
# GULP energy per Si atom -12398.130315 kJ/mol
# Density = 1.730316 g / cm^3
# Si number density = 17.342634 Si / 1000 Ang^3
#
#
#
# Elastic Constant Matrix: (Units=GPa)
#
#
# Indices 1 2 3 4 5 6 
#
# 1 128.8235 50.4122 38.7387 0.0000 0.0000 0.0000
# 2 50.4122 90.7130 19.7354 0.0000 0.0000 0.0000
# 3 38.7387 19.7354 20.5431 0.0000 0.0000 0.0000
# 4 0.0000 0.0000 0.0000 29.2328 0.0000 0.0000
# 5 0.0000 0.0000 0.0000 0.0000 16.9493 0.0000
# 6 0.0000 0.0000 0.0000 0.0000 0.0000 25.8241
#
#
#
# Elastic Compliance Matrix: (Units=1/GPa)
#
#
# Indices 1 2 3 4 5 6 
#
# 1 0.018746 -0.003448 -0.032037 0.000000 0.000000 0.000000
# 2 -0.003448 0.014571 -0.007496 0.000000 0.000000 0.000000
# 3 -0.032037 -0.007496 0.116292 0.000000 0.000000 0.000000
# 4 0.000000 0.000000 0.000000 0.034208 0.000000 0.000000
# 5 0.000000 0.000000 0.000000 0.000000 0.058999 0.000000
# 6 0.000000 0.000000 0.000000 0.000000 0.000000 0.038724
#
#
# Mechanical properties :
#
#
# Convention : Reuss Voigt Hill
#
# Bulk Modulus (GPa) = 15.71173 50.87245 33.29209
# Shear Modulus (GPa) = 12.86282 23.14747 18.00515
#
# Velocity S-wave (km/s) = 2.72635 3.65734 3.22561
# Velocity P-wave (km/s) = 4.35774 6.87257 5.75422
#
# Compressibility (1/GPa) = 0.06364670
#
# Stress axis : x y z
#
# Youngs Moduli (GPa) = 53.34596 68.63108 8.59902
#
# Poissons Ratio (x) = 0.23661 0.27549
# Poissons Ratio (y) = 0.18392 0.06446
# Poissons Ratio (z) = 1.70904 0.51449
#
# Static dielectric constant tensor:
#      x y z
#    x 3.392420 0.000000 0.000000 
#    y 0.000000 3.308360 0.000000 
#    z 0.000000 0.000000 3.076710 
# 
# 
# High freq. dielectric constant tensor:
#      x y z
#    x 1.659580 0.000000 0.000000 
#    y 0.000000 1.675270 0.000000 
#    z 0.000000 0.000000 1.645360 
# 
# From -- ./inp_files/16094.got.cif
#   From: 2010.03.12/outbox.cif.g09.slc.cpg/sg44_9_cif.got.tgz:16094.got - 2010.04.14 02:36:11.
