data_PCOD8188194
_publ_section_title
;
Structure prediction by ZEFSAII (Michael W. Deem and Ramdas Pophale) SiO2 
 PCOD8188194
Probable space group: I M M 2
;
_chemical_formula_sum "Si O2"
_cell_formula_units_Z 64
_cell_length_a 8.945092
_cell_length_b 19.775142
_cell_length_c 21.082788
_cell_angle_alpha 90.000000
_cell_angle_beta 90.000000
_cell_angle_gamma 90.000000
_cell_volume 3729.344162
_symmetry_space_group_name_H-M "I M M 2"
_symmetry_group_IT_number 44
_symmetry_cell_setting 'orthorhombic'
loop_
_space_group_symop_operation_xyz
x,y,z
-x,-y,z
-x,y,z
x,-y,z
1/2+x,1/2+y,1/2+z
1/2-x,1/2-y,1/2+z
1/2-x,1/2+y,1/2+z
1/2+x,1/2-y,1/2+z
loop_
_atom_site_type_symbol
_atom_site_label
_atom_site_fract_x
_atom_site_fract_y
_atom_site_fract_z
Si Si1 0.322622 0.707136 0.865680
Si Si2 0.325430 0.285111 0.249210
Si Si3 0.825495 0.576381 0.826499
Si Si4 0.170949 0.074595 0.800923
Si Si5 0.677347 0.926765 0.181561
Si Si6 0.322163 0.211068 0.986752
Si Si7 0.676810 0.926367 0.932264
Si Si8 0.321912 0.210374 0.125762
O O1 0.500000 0.710295 0.861634
O O2 0.257421 0.747183 0.805916
O O3 0.268515 0.629552 0.867789
O O4 0.261913 0.740484 0.931079
O O5 0.500000 0.267414 0.256148
O O6 0.295697 0.365910 0.250558
O O7 0.263303 0.260114 0.181042
O O8 0.790100 0.500000 0.849676
O O9 0.774094 0.585682 0.753948
O O10 0.000000 0.592447 0.834249
O O11 0.275148 0.087842 0.860637
O O12 0.000000 0.079006 0.824168
O O13 0.203102 0.000000 0.770865
O O14 0.500000 0.928803 0.178476
O O15 0.739804 0.865658 0.138803
O O16 0.739728 0.000000 0.157998
O O17 0.500000 0.211730 0.985276
O O18 0.262747 0.134240 0.976134
O O19 0.263689 0.234351 0.056407
O O20 0.500000 0.926676 0.933162
O O21 0.737728 0.000000 0.955498
O O22 0.500000 0.209392 0.126152
#
# Coordination Sequence:
#
# PCOD8188194 Si02
#       8
#     8   8   8   8   8   8   8   8
#     4  11  20  30  47  71 100 127 154 192 238 288
#     4  10  18  30  50  70  89 121 162 200 236 278
#     4   9  17  31  51  74  96 119 157 201 235 273
#     4   9  17  28  44  68  93 116 149 195 239 274
#     4   8  13  22  40  67  93 115 146 189 228 265
#     4   9  18  29  41  65  98 128 155 190 234 277
#     4   9  16  27  43  64  92 124 155 183 218 272
#     4   9  16  27  44  65  92 123 156 194 233 272
#
# _framework density 17.161193999999998
#
# number of rings (size 3 to 8) (size 9 to 14) (size 15 to 20)
#    0.000    2.750    2.500    1.125    0.000    0.750 
#    0.000    2.500    0.000    3.000    0.000    3.500 
#    0.000    2.000    0.000    0.000    0.000    0.000 
#
# Total GULP energy -396501.637480 kJ/mol
# GULP energy per Si atom -12390.676171 kJ/mol
# Density = 1.712213 g / cm^3
# Si number density = 17.161194 Si / 1000 Ang^3
#
#
#
# Elastic Constant Matrix: (Units=GPa)
#
#
# Indices 1 2 3 4 5 6 
#
# 1 17.9611 20.0852 16.3344 0.0000 0.0000 0.0000
# 2 20.0852 128.4558 76.0451 0.0000 0.0000 0.0000
# 3 16.3344 76.0451 128.5394 0.0000 0.0000 0.0000
# 4 0.0000 0.0000 0.0000 25.8287 0.0000 0.0000
# 5 0.0000 0.0000 0.0000 0.0000 14.9511 0.0000
# 6 0.0000 0.0000 0.0000 0.0000 0.0000 19.3454
#
#
#
# Elastic Compliance Matrix: (Units=1/GPa)
#
#
# Indices 1 2 3 4 5 6 
#
# 1 0.068568 -0.008561 -0.003648 0.000000 0.000000 0.000000
# 2 -0.008561 0.013050 -0.006632 0.000000 0.000000 0.000000
# 3 -0.003648 -0.006632 0.012167 0.000000 0.000000 0.000000
# 4 0.000000 0.000000 0.000000 0.038717 0.000000 0.000000
# 5 0.000000 0.000000 0.000000 0.000000 0.066885 0.000000
# 6 0.000000 0.000000 0.000000 0.000000 0.000000 0.051692
#
#
# Mechanical properties :
#
#
# Convention : Reuss Voigt Hill
#
# Bulk Modulus (GPa) = 17.82525 55.54287 36.68406
# Shear Modulus (GPa) = 16.26218 22.85783 19.56001
#
# Velocity S-wave (km/s) = 3.08167 3.65355 3.37973
# Velocity P-wave (km/s) = 4.80331 7.08756 6.05414
#
# Compressibility (1/GPa) = 0.05610019
#
# Stress axis : x y z
#
# Youngs Moduli (GPa) = 14.58417 76.62971 82.18859
#
# Poissons Ratio (x) = 0.65605 0.29985
# Poissons Ratio (y) = 0.12486 0.54511
# Poissons Ratio (z) = 0.05321 0.50824
#
# Static dielectric constant tensor:
#      x y z
#    x 2.832300 0.000000 0.000000 
#    y 0.000000 3.677840 0.000000 
#    z 0.000000 0.000000 3.242410 
# 
# 
# High freq. dielectric constant tensor:
#      x y z
#    x 1.620280 0.000000 0.000000 
#    y 0.000000 1.675720 0.000000 
#    z 0.000000 0.000000 1.636500 
# 
# From -- ./inp_files/20731.got.cif
#   From: 2010.03.12/outbox.cif.g09.slc.cpg/sg44_11_cif.got.tgz:20731.got - 2010.04.14 02:36:11.
