data_PCOD8188727
_publ_section_title
;
Structure prediction by ZEFSAII (Michael W. Deem and Ramdas Pophale) SiO2 
 PCOD8188727
Probable space group: I M M 2
;
_chemical_formula_sum "Si O2"
_cell_formula_units_Z 64
_cell_length_a 8.901814
_cell_length_b 15.854200
_cell_length_c 23.411426
_cell_angle_alpha 90.000000
_cell_angle_beta 90.000000
_cell_angle_gamma 90.000000
_cell_volume 3304.081229
_symmetry_space_group_name_H-M "I M M 2"
_symmetry_group_IT_number 44
_symmetry_cell_setting 'orthorhombic'
loop_
_space_group_symop_operation_xyz
x,y,z
-x,-y,z
-x,y,z
x,-y,z
1/2+x,1/2+y,1/2+z
1/2-x,1/2-y,1/2+z
1/2-x,1/2+y,1/2+z
1/2+x,1/2-y,1/2+z
loop_
_atom_site_type_symbol
_atom_site_label
_atom_site_fract_x
_atom_site_fract_y
_atom_site_fract_z
Si Si1 0.177077 0.096389 0.338510
Si Si2 0.674088 0.410853 0.607928
Si Si3 0.322961 0.315458 0.042612
Si Si4 0.177555 0.733851 0.280747
Si Si5 0.335486 0.096327 0.451828
Si Si6 0.676377 0.096492 0.871472
Si Si7 0.320732 0.237511 0.653692
Si Si8 0.174231 0.844148 0.986638
O O1 0.225955 0.168694 0.293052
O O2 0.250263 0.132046 0.396461
O O3 0.000000 0.096406 0.347778
O O4 0.227914 0.000000 0.320966
O O5 0.500000 0.411774 0.623591
O O6 0.746938 0.500000 0.628341
O O7 0.744801 0.331481 0.640856
O O8 0.696959 0.406366 0.539892
O O9 0.500000 0.309240 0.047795
O O10 0.253104 0.321981 0.105988
O O11 0.267828 0.397358 0.008374
O O12 0.259092 0.241729 0.002162
O O13 0.240990 0.663054 0.324433
O O14 0.233069 0.710620 0.216745
O O15 0.000000 0.728481 0.282347
O O16 0.500000 0.140125 0.459272
O O17 0.361720 0.000000 0.438995
O O18 0.500000 0.110697 0.880568
O O19 0.757561 0.112548 0.931109
O O20 0.709253 0.000000 0.851532
O O21 0.500000 0.233810 0.646389
O O22 0.000000 0.824435 0.975949
#
# Coordination Sequence:
#
# PCOD8188727 Si02
#       8
#     8   8   8   8   8   8   8   8
#     4   9  17  30  51  80 110 138 169 208 258 313
#     4   8  14  25  44  71  98 122 153 199 252 301
#     4  11  21  34  53  76 104 135 168 211 265 318
#     4   9  18  33  51  71 100 138 178 219 259 304
#     4  10  20  34  53  78 106 135 170 211 256 311
#     4  10  20  33  50  74 104 139 178 219 265 313
#     4   9  18  33  51  70  96 133 177 218 254 301
#     4  10  19  32  52  77 104 133 166 207 259 318
#
# _framework density 19.369983999999999
#
# number of rings (size 3 to 8) (size 9 to 14) (size 15 to 20)
#    0.000    2.500    0.000    3.750    0.000    3.000 
#    0.000    4.375    0.000    5.625    0.000    0.000 
#    0.000    0.000    0.000    0.000    0.000    0.000 
#
# Total GULP energy -396478.135044 kJ/mol
# GULP energy per Si atom -12389.941720 kJ/mol
# Density = 1.932590 g / cm^3
# Si number density = 19.369984 Si / 1000 Ang^3
#
#
#
# Elastic Constant Matrix: (Units=GPa)
#
#
# Indices 1 2 3 4 5 6 
#
# 1 65.9991 16.7091 33.7635 0.0000 0.0000 0.0000
# 2 16.7091 61.5152 32.1649 0.0000 0.0000 0.0000
# 3 33.7635 32.1649 114.7846 0.0000 0.0000 0.0000
# 4 0.0000 0.0000 0.0000 16.9990 0.0000 0.0000
# 5 0.0000 0.0000 0.0000 0.0000 25.8784 0.0000
# 6 0.0000 0.0000 0.0000 0.0000 0.0000 15.5943
#
#
#
# Elastic Compliance Matrix: (Units=1/GPa)
#
#
# Indices 1 2 3 4 5 6 
#
# 1 0.018160 -0.002507 -0.004639 0.000000 0.000000 0.000000
# 2 -0.002507 0.019393 -0.004697 0.000000 0.000000 0.000000
# 3 -0.004639 -0.004697 0.011393 0.000000 0.000000 0.000000
# 4 0.000000 0.000000 0.000000 0.058827 0.000000 0.000000
# 5 0.000000 0.000000 0.000000 0.000000 0.038642 0.000000
# 6 0.000000 0.000000 0.000000 0.000000 0.000000 0.064126
#
#
# Mechanical properties :
#
#
# Convention : Reuss Voigt Hill
#
# Bulk Modulus (GPa) = 39.58911 45.28599 42.43755
# Shear Modulus (GPa) = 20.60612 22.33844 21.47228
#
# Velocity S-wave (km/s) = 3.26516 3.39964 3.33308
# Velocity P-wave (km/s) = 5.89048 6.23220 6.06375
#
# Compressibility (1/GPa) = 0.02525947
#
# Stress axis : x y z
#
# Youngs Moduli (GPa) = 55.06713 51.56499 87.77539
#
# Poissons Ratio (x) = 0.12927 0.40720
# Poissons Ratio (y) = 0.13805 0.41227
# Poissons Ratio (z) = 0.25546 0.24220
#
# Static dielectric constant tensor:
#      x y z
#    x 3.430460 0.000000 0.000000 
#    y 0.000000 3.808340 0.000000 
#    z 0.000000 0.000000 3.621420 
# 
# 
# High freq. dielectric constant tensor:
#      x y z
#    x 1.723750 0.000000 0.000000 
#    y 0.000000 1.751360 0.000000 
#    z 0.000000 0.000000 1.749230 
# 
# From -- ./inp_files/23333.got.cif
#   From: 2010.03.12/outbox.cif.g09.slc.cpg/sg44_12_cif.got.tgz:23333.got - 2010.04.14 02:36:11.
