data_PCOD8188639
_publ_section_title
;
Structure prediction by ZEFSAII (Michael W. Deem and Ramdas Pophale) SiO2 
 PCOD8188639
Probable space group: I M M 2
;
_chemical_formula_sum "Si O2"
_cell_formula_units_Z 64
_cell_length_a 9.573633
_cell_length_b 28.497409
_cell_length_c 12.125092
_cell_angle_alpha 90.000000
_cell_angle_beta 90.000000
_cell_angle_gamma 90.000000
_cell_volume 3308.012889
_symmetry_space_group_name_H-M "I M M 2"
_symmetry_group_IT_number 44
_symmetry_cell_setting 'orthorhombic'
loop_
_space_group_symop_operation_xyz
x,y,z
-x,-y,z
-x,y,z
x,-y,z
1/2+x,1/2+y,1/2+z
1/2-x,1/2-y,1/2+z
1/2-x,1/2+y,1/2+z
1/2+x,1/2-y,1/2+z
loop_
_atom_site_type_symbol
_atom_site_label
_atom_site_fract_x
_atom_site_fract_y
_atom_site_fract_z
Si Si1 0.839517 0.052541 0.351750
Si Si2 0.654223 0.448527 0.434016
Si Si3 0.658110 0.068410 0.140554
Si Si4 0.163828 0.155690 0.431237
Si Si5 0.156445 0.686371 0.135497
Si Si6 0.846529 0.330855 0.552651
Si Si7 0.342365 0.120801 0.831938
Si Si8 0.339965 0.285302 0.718988
O O1 0.733986 0.052203 0.250710
O O2 0.802618 0.099253 0.424702
O O3 0.000000 0.058273 0.311156
O O4 0.823280 0.000000 0.409316
O O5 0.500000 0.427113 0.461366
O O6 0.634294 0.500000 0.385669
O O7 0.751341 0.451397 0.540773
O O8 0.730608 0.420632 0.336654
O O9 0.500000 0.047979 0.138455
O O10 0.653075 0.124117 0.131938
O O11 0.237682 0.180067 0.535035
O O12 0.218036 0.185483 0.324272
O O13 0.000000 0.163806 0.447113
O O14 0.169153 0.640556 0.210173
O O15 0.184235 0.729167 0.222038
O O16 0.000000 0.691067 0.086304
O O17 0.801714 0.342213 0.427725
O O18 0.734610 0.296329 0.603639
O O19 0.000000 0.307241 0.553297
O O20 0.500000 0.102728 0.857472
O O21 0.500000 0.299481 0.705770
#
# Coordination Sequence:
#
# PCOD8188639 Si02
#       8
#     8   8   8   8   8   8   8   8
#     4  10  20  35  56  82 114 153 195 240 290 342
#     4  10  20  33  52  80 113 149 190 237 285 335
#     4  10  19  31  50  80 117 152 186 229 280 340
#     4  10  22  40  61  85 117 154 193 239 292 351
#     4  10  23  41  60  83 114 150 192 241 290 340
#     4   9  18  32  54  82 112 146 183 225 275 331
#     4   9  20  38  57  79 111 149 187 233 282 330
#     4  10  21  37  59  85 113 147 185 230 285 342
#
# _framework density 19.346962000000001
#
# number of rings (size 3 to 8) (size 9 to 14) (size 15 to 20)
#    0.000    2.250    1.250    1.875    1.750    6.750 
#    0.000    0.625    0.000    2.250    0.000    0.000 
#    0.000    0.000    0.000    0.000    0.000    0.000 
#
# Total GULP energy -396438.723786 kJ/mol
# GULP energy per Si atom -12388.710118 kJ/mol
# Density = 1.930293 g / cm^3
# Si number density = 19.346962 Si / 1000 Ang^3
#
#
#
# Elastic Constant Matrix: (Units=GPa)
#
#
# Indices 1 2 3 4 5 6 
#
# 1 96.4646 38.6473 40.1975 0.0001 0.0000 0.0000
# 2 38.6473 86.4166 32.5464 0.0003 0.0000 0.0000
# 3 40.1975 32.5464 75.6509 0.0002 0.0003 0.0003
# 4 0.0001 0.0003 0.0002 9.4697 0.0003 0.0000
# 5 0.0000 0.0000 0.0003 0.0003 29.6870 0.0000
# 6 0.0000 0.0000 0.0003 0.0000 0.0000 24.4859
#
#
#
# Elastic Compliance Matrix: (Units=1/GPa)
#
#
# Indices 1 2 3 4 5 6 
#
# 1 0.014533 -0.004286 -0.005878 0.000000 0.000000 0.000000
# 2 -0.004286 0.015073 -0.004208 0.000000 0.000000 0.000000
# 3 -0.005878 -0.004208 0.018152 0.000000 0.000000 0.000000
# 4 0.000000 0.000000 0.000000 0.105600 -0.000001 0.000000
# 5 0.000000 0.000000 0.000000 -0.000001 0.033685 0.000000
# 6 0.000000 0.000000 0.000000 0.000000 0.000000 0.040840
#
#
# Mechanical properties :
#
#
# Convention : Reuss Voigt Hill
#
# Bulk Modulus (GPa) = 52.58924 53.47939 53.03431
# Shear Modulus (GPa) = 19.01398 22.53793 20.77595
#
# Velocity S-wave (km/s) = 3.13835 3.41682 3.28054
# Velocity P-wave (km/s) = 6.35401 6.57788 6.46691
#
# Compressibility (1/GPa) = 0.01901530
#
# Stress axis : x y z
#
# Youngs Moduli (GPa) = 68.80875 66.34338 55.08924
#
# Poissons Ratio (x) = 0.28431 0.32384
# Poissons Ratio (y) = 0.29488 0.23179
# Poissons Ratio (z) = 0.40449 0.27915
#
# Static dielectric constant tensor:
#      x y z
#    x 3.691250 0.000000 0.000000 
#    y 0.000000 3.748930 0.000000 
#    z 0.000000 0.000000 3.191210 
# 
# 
# High freq. dielectric constant tensor:
#      x y z
#    x 1.758400 0.000000 0.000000 
#    y 0.000000 1.756670 0.000000 
#    z 0.000000 0.000000 1.719880 
# 
# From -- ./inp_files/11570.got.cif
#   From: 2010.03.12/outbox.cif.g09.slc.cpg/sg44_6_cif.got.tgz:11570.got - 2010.04.14 02:36:11.
