data_PCOD8188370
_publ_section_title
;
Structure prediction by ZEFSAII (Michael W. Deem and Ramdas Pophale) SiO2 
 PCOD8188370
Probable space group: I M M 2
;
_chemical_formula_sum "Si O2"
_cell_formula_units_Z 56
_cell_length_a 19.944669
_cell_length_b 8.973087
_cell_length_c 15.841075
_cell_angle_alpha 90.000000
_cell_angle_beta 90.000000
_cell_angle_gamma 90.000000
_cell_volume 2835.001950
_symmetry_space_group_name_H-M "I M M 2"
_symmetry_group_IT_number 44
_symmetry_cell_setting 'orthorhombic'
loop_
_space_group_symop_operation_xyz
x,y,z
-x,-y,z
-x,y,z
x,-y,z
1/2+x,1/2+y,1/2+z
1/2-x,1/2-y,1/2+z
1/2-x,1/2+y,1/2+z
1/2+x,1/2-y,1/2+z
loop_
_atom_site_type_symbol
_atom_site_label
_atom_site_fract_x
_atom_site_fract_y
_atom_site_fract_z
Si Si1 0.421180 0.829807 0.729550
Si Si2 0.801729 0.177743 0.303842
Si Si3 0.205005 0.821672 0.663445
Si Si4 0.754101 0.832823 0.480614
Si Si5 0.603565 0.166415 0.421735
Si Si6 0.573315 0.340567 0.572541
Si Si7 0.077753 0.675104 0.731337
O O1 0.500000 0.809592 0.747292
O O2 0.379095 0.723065 0.790803
O O3 0.396063 0.783110 0.635331
O O4 0.399311 0.000000 0.742094
O O5 0.751710 0.251004 0.235844
O O6 0.787320 0.241965 0.397874
O O7 0.791220 0.000000 0.299140
O O8 0.228655 0.759055 0.571274
O O9 0.127565 0.768867 0.672008
O O10 0.209896 0.000000 0.670048
O O11 0.675777 0.826455 0.463880
O O12 0.781424 0.000000 0.485962
O O13 0.561778 0.279580 0.478394
O O14 0.599728 0.220012 0.325878
O O15 0.573334 0.000000 0.427135
O O16 0.500000 0.373031 0.609427
O O17 0.613118 0.500000 0.573308
O O18 0.088707 0.500000 0.715528
O O19 0.000000 0.719218 0.714596
#
# Coordination Sequence:
#
# PCOD8188370 Si02
#       7
#     8   8   8   8   8   8   8
#     4  10  21  37  56  81 115 153 192 237 295 357
#     4  11  21  39  63  86 115 151 196 248 297 353
#     4  11  22  38  61  90 122 159 201 249 305 364
#     4   9  20  37  58  83 113 149 193 241 296 360
#     4  10  18  34  57  80 110 148 193 243 300 361
#     4  10  20  32  48  77 114 148 186 230 281 344
#     4  10  21  38  60  85 117 162 209 253 308 369
#
# _framework density 19.753073000000001
#
# number of rings (size 3 to 8) (size 9 to 14) (size 15 to 20)
#    0.000    1.857    1.429    3.000    0.000    4.286 
#    0.000    4.286    0.000    4.286    0.000    0.000 
#    0.000    0.000    0.000    0.000    0.000    0.000 
#
# Total GULP energy -346911.370920 kJ/mol
# GULP energy per Si atom -12389.691819 kJ/mol
# Density = 1.970811 g / cm^3
# Si number density = 19.753073 Si / 1000 Ang^3
#
#
#
# Elastic Constant Matrix: (Units=GPa)
#
#
# Indices 1 2 3 4 5 6 
#
# 1 95.9013 32.6869 49.9187 0.0000 0.0000 0.0000
# 2 32.6869 76.4927 37.1929 0.0000 0.0000 0.0000
# 3 49.9187 37.1929 133.5714 0.0000 0.0000 0.0000
# 4 0.0000 0.0000 0.0000 26.5592 0.0000 0.0000
# 5 0.0000 0.0000 0.0000 0.0000 31.8012 0.0000
# 6 0.0000 0.0000 0.0000 0.0000 0.0000 31.0879
#
#
#
# Elastic Compliance Matrix: (Units=1/GPa)
#
#
# Indices 1 2 3 4 5 6 
#
# 1 0.013907 -0.003950 -0.004097 0.000000 0.000000 0.000000
# 2 -0.003950 0.016242 -0.003046 0.000000 0.000000 0.000000
# 3 -0.004097 -0.003046 0.009866 0.000000 0.000000 0.000000
# 4 0.000000 0.000000 0.000000 0.037652 0.000000 0.000000
# 5 0.000000 0.000000 0.000000 0.000000 0.031445 0.000000
# 6 0.000000 0.000000 0.000000 0.000000 0.000000 0.032167
#
#
# Mechanical properties :
#
#
# Convention : Reuss Voigt Hill
#
# Bulk Modulus (GPa) = 56.09405 60.61807 58.35606
# Shear Modulus (GPa) = 29.51433 30.30079 29.90756
#
# Velocity S-wave (km/s) = 3.86964 3.92085 3.89533
# Velocity P-wave (km/s) = 6.95879 7.15905 7.05963
#
# Compressibility (1/GPa) = 0.01782720
#
# Stress axis : x y z
#
# Youngs Moduli (GPa) = 71.90874 61.56705 101.35702
#
# Poissons Ratio (x) = 0.24321 0.41528
# Poissons Ratio (y) = 0.28407 0.30877
# Poissons Ratio (z) = 0.29463 0.18756
#
# Static dielectric constant tensor:
#      x y z
#    x 3.589040 0.000000 0.000000 
#    y 0.000000 3.655580 0.000000 
#    z 0.000000 0.000000 3.744970 
# 
# 
# High freq. dielectric constant tensor:
#      x y z
#    x 1.768810 0.000000 0.000000 
#    y 0.000000 1.760560 0.000000 
#    z 0.000000 0.000000 1.763340 
# 
# From -- ./inp_files/16439.got.cif
#   From: 2010.03.12/outbox.cif.g09.slc.cpg/sg44_9_cif.got.tgz:16439.got - 2010.04.14 02:36:11.
