data_PCOD8188662
_publ_section_title
;
Structure prediction by ZEFSAII (Michael W. Deem and Ramdas Pophale) SiO2 
 PCOD8188662
Probable space group: I M M 2
;
_chemical_formula_sum "Si O2"
_cell_formula_units_Z 64
_cell_length_a 8.992014
_cell_length_b 16.148238
_cell_length_c 22.714465
_cell_angle_alpha 90.000000
_cell_angle_beta 90.000000
_cell_angle_gamma 90.000000
_cell_volume 3298.258028
_symmetry_space_group_name_H-M "I M M 2"
_symmetry_group_IT_number 44
_symmetry_cell_setting 'orthorhombic'
loop_
_space_group_symop_operation_xyz
x,y,z
-x,-y,z
-x,y,z
x,-y,z
1/2+x,1/2+y,1/2+z
1/2-x,1/2-y,1/2+z
1/2-x,1/2+y,1/2+z
1/2+x,1/2-y,1/2+z
loop_
_atom_site_type_symbol
_atom_site_label
_atom_site_fract_x
_atom_site_fract_y
_atom_site_fract_z
Si Si1 0.325877 0.095787 0.342590
Si Si2 0.668640 0.408610 0.634507
Si Si3 0.330226 0.284442 0.053302
Si Si4 0.176506 0.739727 0.298031
Si Si5 0.161586 0.094974 0.457136
Si Si6 0.673831 0.092557 0.884749
Si Si7 0.173579 0.256091 0.681386
Si Si8 0.172598 0.866466 0.004502
O O1 0.500000 0.105331 0.331469
O O2 0.241615 0.167288 0.306572
O O3 0.289285 0.116519 0.410495
O O4 0.274951 0.000000 0.327536
O O5 0.500000 0.374695 0.641332
O O6 0.683813 0.500000 0.661656
O O7 0.780202 0.351708 0.671434
O O8 0.709985 0.414229 0.565225
O O9 0.500000 0.251663 0.050218
O O10 0.283276 0.292370 0.121443
O O11 0.305632 0.371824 0.022264
O O12 0.225292 0.226657 0.014372
O O13 0.233926 0.668248 0.343424
O O14 0.234282 0.712892 0.233622
O O15 0.000000 0.745211 0.298833
O O16 0.000000 0.129256 0.434065
O O17 0.150003 0.000000 0.468036
O O18 0.500000 0.105848 0.892803
O O19 0.744875 0.094022 0.949207
O O20 0.706613 0.000000 0.857935
O O21 0.000000 0.252016 0.696662
O O22 0.000000 0.869437 0.989253
#
# Coordination Sequence:
#
# PCOD8188662 Si02
#       8
#     8   8   8   8   8   8   8   8
#     4  10  21  36  55  82 114 143 173 214 264 317
#     4   9  18  33  52  76 107 139 169 204 251 310
#     4   9  18  33  52  75 104 138 173 209 257 315
#     4  11  23  39  58  77 102 141 185 225 266 314
#     4   9  17  31  52  77 105 136 170 209 255 311
#     4  10  22  39  57  78 106 141 180 221 267 319
#     4  10  21  36  53  74 101 134 175 219 260 306
#     4  10  19  31  52  82 111 137 168 209 258 311
#
# _framework density 19.404181999999999
#
# number of rings (size 3 to 8) (size 9 to 14) (size 15 to 20)
#    0.000    2.250    0.000    2.625    0.000    7.750 
#    0.000    0.625    0.000    0.750    0.000    0.000 
#    0.000    0.000    0.000    0.000    0.000    0.000 
#
# Total GULP energy -396539.081743 kJ/mol
# GULP energy per Si atom -12391.846304 kJ/mol
# Density = 1.936002 g / cm^3
# Si number density = 19.404182 Si / 1000 Ang^3
#
#
#
# Elastic Constant Matrix: (Units=GPa)
#
#
# Indices 1 2 3 4 5 6 
#
# 1 53.5272 29.1494 29.1303 0.0000 0.0000 0.0000
# 2 29.1494 42.9584 42.5401 0.0000 0.0000 0.0000
# 3 29.1303 42.5401 87.8825 0.0000 0.0000 0.0000
# 4 0.0000 0.0000 0.0000 9.0028 0.0000 0.0000
# 5 0.0000 0.0000 0.0000 0.0000 33.0462 0.0000
# 6 0.0000 0.0000 0.0000 0.0000 0.0000 19.9319
#
#
#
# Elastic Compliance Matrix: (Units=1/GPa)
#
#
# Indices 1 2 3 4 5 6 
#
# 1 0.029633 -0.019938 -0.000171 0.000000 0.000000 0.000000
# 2 -0.019938 0.058124 -0.021527 0.000000 0.000000 0.000000
# 3 -0.000171 -0.021527 0.021856 0.000000 0.000000 0.000000
# 4 0.000000 0.000000 0.000000 0.111076 0.000000 0.000000
# 5 0.000000 0.000000 0.000000 0.000000 0.030261 0.000000
# 6 0.000000 0.000000 0.000000 0.000000 0.000000 0.050171
#
#
# Mechanical properties :
#
#
# Convention : Reuss Voigt Hill
#
# Bulk Modulus (GPa) = 37.96318 42.88974 40.42646
# Shear Modulus (GPa) = 12.71710 17.96607 15.34159
#
# Velocity S-wave (km/s) = 2.56281 3.04614 2.81487
# Velocity P-wave (km/s) = 5.32581 5.87565 5.60747
#
# Compressibility (1/GPa) = 0.02634131
#
# Stress axis : x y z
#
# Youngs Moduli (GPa) = 33.74633 17.20464 45.75461
#
# Poissons Ratio (x) = 0.34302 0.00785
# Poissons Ratio (y) = 0.67282 0.98494
# Poissons Ratio (z) = 0.00579 0.37036
#
# Static dielectric constant tensor:
#      x y z
#    x 3.633720 0.000000 0.000000 
#    y 0.000000 3.606870 0.000000 
#    z 0.000000 0.000000 3.601180 
# 
# 
# High freq. dielectric constant tensor:
#      x y z
#    x 1.753460 0.000000 0.000000 
#    y 0.000000 1.745230 0.000000 
#    z 0.000000 0.000000 1.752030 
# 
# From -- ./inp_files/23332.got.cif
#   From: 2010.03.12/outbox.cif.g09.slc.cpg/sg44_12_cif.got.tgz:23332.got - 2010.04.14 02:36:11.
