data_PCOD8188432
_publ_section_title
;
Structure prediction by ZEFSAII (Michael W. Deem and Ramdas Pophale) SiO2 
 PCOD8188432
Probable space group: I M M 2
;
_chemical_formula_sum "Si O2"
_cell_formula_units_Z 56
_cell_length_a 13.665574
_cell_length_b 8.935729
_cell_length_c 29.039297
_cell_angle_alpha 90.000000
_cell_angle_beta 90.000000
_cell_angle_gamma 90.000000
_cell_volume 3546.042741
_symmetry_space_group_name_H-M "I M M 2"
_symmetry_group_IT_number 44
_symmetry_cell_setting 'orthorhombic'
loop_
_space_group_symop_operation_xyz
x,y,z
-x,-y,z
-x,y,z
x,-y,z
1/2+x,1/2+y,1/2+z
1/2-x,1/2-y,1/2+z
1/2-x,1/2+y,1/2+z
1/2+x,1/2-y,1/2+z
loop_
_atom_site_type_symbol
_atom_site_label
_atom_site_fract_x
_atom_site_fract_y
_atom_site_fract_z
Si Si1 0.887668 0.324218 0.284450
Si Si2 0.384237 0.834889 0.682605
Si Si3 0.612572 0.826813 0.956891
Si Si4 0.719772 0.177051 0.508826
Si Si5 0.702179 0.677123 0.870391
Si Si6 0.386296 0.674116 0.591943
Si Si7 0.393159 0.823423 0.419385
O O1 0.876983 0.500000 0.294078
O O2 0.847766 0.283938 0.233246
O O3 0.821287 0.231676 0.319407
O O4 0.000000 0.274002 0.290752
O O5 0.500000 0.845838 0.686004
O O6 0.351967 0.717670 0.643537
O O7 0.342475 0.000000 0.670384
O O8 0.500000 0.806149 0.970696
O O9 0.629914 0.751231 0.907340
O O10 0.641799 0.000000 0.953095
O O11 0.675509 0.749578 0.997197
O O12 0.680646 0.233392 0.557422
O O13 0.642917 0.228277 0.469747
O O14 0.733142 0.000000 0.510289
O O15 0.689492 0.500000 0.874384
O O16 0.814046 0.727012 0.881314
O O17 0.500000 0.716942 0.584480
O O18 0.367922 0.500000 0.584392
O O19 0.500000 0.750782 0.409306
O O20 0.402902 0.000000 0.419052
#
# Coordination Sequence:
#
# PCOD8188432 Si02
#       7
#     8   8   8   8   8   8   8
#     4   9  17  29  44  62  87 119 149 178 218 266
#     4   8  15  28  44  61  83 114 150 182 216 263
#     4  10  20  33  47  63  88 120 149 181 222 265
#     4  10  19  30  47  68  88 115 151 186 220 260
#     4  10  19  28  43  67  89 114 149 184 219 261
#     4  10  19  29  43  66  95 122 147 179 220 265
#     4   8  15  28  43  60  84 113 145 179 212 249
#
# _framework density 15.792252
#
# number of rings (size 3 to 8) (size 9 to 14) (size 15 to 20)
#    0.000    2.714    0.000    4.286    0.000    5.143 
#    0.000    1.429    0.000    8.571    0.000    1.000 
#    0.000    3.429    0.000    0.000    0.000    0.000 
#
# Total GULP energy -347112.499224 kJ/mol
# GULP energy per Si atom -12396.874972 kJ/mol
# Density = 1.575631 g / cm^3
# Si number density = 15.792252 Si / 1000 Ang^3
#
#
#
# Elastic Constant Matrix: (Units=GPa)
#
#
# Indices 1 2 3 4 5 6 
#
# 1 86.1999 40.3088 49.8036 0.0000 0.0000 0.0000
# 2 40.3088 77.0235 47.6630 0.0000 0.0000 0.0000
# 3 49.8036 47.6630 114.9285 0.0000 0.0000 0.0000
# 4 0.0000 0.0000 0.0000 30.3623 0.0000 0.0000
# 5 0.0000 0.0000 0.0000 0.0000 22.7464 0.0000
# 6 0.0000 0.0000 0.0000 0.0000 0.0000 19.8710
#
#
#
# Elastic Compliance Matrix: (Units=1/GPa)
#
#
# Indices 1 2 3 4 5 6 
#
# 1 0.017280 -0.005932 -0.005028 0.000000 0.000000 0.000000
# 2 -0.005932 0.019501 -0.005517 0.000000 0.000000 0.000000
# 3 -0.005028 -0.005517 0.013168 0.000000 0.000000 0.000000
# 4 0.000000 0.000000 0.000000 0.032936 0.000000 0.000000
# 5 0.000000 0.000000 0.000000 0.000000 0.043963 0.000000
# 6 0.000000 0.000000 0.000000 0.000000 0.000000 0.050325
#
#
# Mechanical properties :
#
#
# Convention : Reuss Voigt Hill
#
# Bulk Modulus (GPa) = 58.83949 61.52251 60.18100
# Shear Modulus (GPa) = 23.17055 23.95437 23.56246
#
# Velocity S-wave (km/s) = 3.83457 3.89889 3.86687
# Velocity P-wave (km/s) = 7.54617 7.70133 7.62414
#
# Compressibility (1/GPa) = 0.01699539
#
# Stress axis : x y z
#
# Youngs Moduli (GPa) = 57.87114 51.27869 75.94146
#
# Poissons Ratio (x) = 0.30416 0.38185
# Poissons Ratio (y) = 0.34327 0.41898
# Poissons Ratio (z) = 0.29099 0.28291
#
# Static dielectric constant tensor:
#      x y z
#    x 2.964900 0.000000 0.000000 
#    y 0.000000 2.973180 0.000000 
#    z 0.000000 0.000000 3.067100 
# 
# 
# High freq. dielectric constant tensor:
#      x y z
#    x 1.577380 0.000000 0.000000 
#    y 0.000000 1.607130 0.000000 
#    z 0.000000 0.000000 1.602690 
# 
# From -- ./inp_files/27233.got.cif
#   From: 2010.03.12/outbox.cif.g09.slc.cpg/sg44_14_cif.got.tgz:27233.got - 2010.04.14 02:36:11.
