data_PCOD8188721
_publ_section_title
;
Structure prediction by ZEFSAII (Michael W. Deem and Ramdas Pophale) SiO2 
 PCOD8188721
Probable space group: I M M 2
;
_chemical_formula_sum "Si O2"
_cell_formula_units_Z 64
_cell_length_a 15.743830
_cell_length_b 9.255177
_cell_length_c 23.058583
_cell_angle_alpha 90.000000
_cell_angle_beta 90.000000
_cell_angle_gamma 90.000000
_cell_volume 3359.910708
_symmetry_space_group_name_H-M "I M M 2"
_symmetry_group_IT_number 44
_symmetry_cell_setting 'orthorhombic'
loop_
_space_group_symop_operation_xyz
x,y,z
-x,-y,z
-x,y,z
x,-y,z
1/2+x,1/2+y,1/2+z
1/2-x,1/2-y,1/2+z
1/2-x,1/2+y,1/2+z
1/2+x,1/2-y,1/2+z
loop_
_atom_site_type_symbol
_atom_site_label
_atom_site_fract_x
_atom_site_fract_y
_atom_site_fract_z
Si Si1 0.095529 0.672259 0.307910
Si Si2 0.319420 0.664992 0.126848
Si Si3 0.751261 0.166073 0.022055
Si Si4 0.597395 0.844379 0.216912
Si Si5 0.640887 0.164675 0.683006
Si Si6 0.744858 0.166509 0.891078
Si Si7 0.093641 0.666564 0.060144
Si Si8 0.597673 0.828889 0.344257
O O1 0.100916 0.500000 0.307337
O O2 0.115541 0.739740 0.243825
O O3 0.167387 0.731096 0.352337
O O4 0.000000 0.721407 0.326406
O O5 0.339622 0.500000 0.111773
O O6 0.394918 0.732545 0.164198
O O7 0.240143 0.683351 0.170030
O O8 0.309073 0.748898 0.066508
O O9 0.713853 0.180727 0.957611
O O10 0.757140 0.000000 0.041697
O O11 0.845152 0.235412 0.021878
O O12 0.500000 0.874484 0.227909
O O13 0.629665 0.786450 0.279249
O O14 0.640852 0.000000 0.201507
O O15 0.591463 0.225730 0.626615
O O16 0.613730 0.000000 0.690454
O O17 0.833962 0.250910 0.885307
O O18 0.762419 0.000000 0.874887
O O19 0.127300 0.500000 0.060247
O O20 0.000000 0.676405 0.032835
O O21 0.500000 0.777125 0.356899
O O22 0.603440 0.000000 0.354373
#
# Coordination Sequence:
#
# PCOD8188721 Si02
#       8
#     8   8   8   8   8   8   8   8
#     4   9  16  28  49  75 100 126 160 204 253 305
#     4  10  19  32  52  76 100 128 167 212 257 308
#     4  10  21  35  48  66  98 136 174 215 257 304
#     4   9  18  33  52  76 106 135 163 201 256 320
#     4   8  14  25  45  74 101 121 145 189 250 304
#     4  10  21  35  51  74 103 137 179 223 262 300
#     4   9  17  30  49  74 101 126 157 200 250 308
#     4   9  19  35  55  80 109 141 174 208 257 323
#
# _framework density 19.048126
#
# number of rings (size 3 to 8) (size 9 to 14) (size 15 to 20)
#    0.000    2.750    0.000    3.375    0.000    5.250 
#    0.000    4.375    0.000    2.625    0.000    0.000 
#    0.000    0.000    0.000    0.000    0.000    0.000 
#
# Total GULP energy -396522.832135 kJ/mol
# GULP energy per Si atom -12391.338504 kJ/mol
# Density = 1.900477 g / cm^3
# Si number density = 19.048126 Si / 1000 Ang^3
#
#
#
# Elastic Constant Matrix: (Units=GPa)
#
#
# Indices 1 2 3 4 5 6 
#
# 1 57.6232 15.9494 29.7758 0.0000 0.0000 0.0000
# 2 15.9494 69.9615 34.8740 0.0000 0.0000 0.0000
# 3 29.7758 34.8740 92.4495 0.0000 0.0000 0.0000
# 4 0.0000 0.0000 0.0000 24.3593 0.0000 0.0000
# 5 0.0000 0.0000 0.0000 0.0000 17.1674 0.0000
# 6 0.0000 0.0000 0.0000 0.0000 0.0000 23.0286
#
#
#
# Elastic Compliance Matrix: (Units=1/GPa)
#
#
# Indices 1 2 3 4 5 6 
#
# 1 0.020990 -0.001743 -0.006103 0.000000 0.000000 0.000000
# 2 -0.001743 0.017748 -0.006134 0.000000 0.000000 0.000000
# 3 -0.006103 -0.006134 0.015096 0.000000 0.000000 0.000000
# 4 0.000000 0.000000 0.000000 0.041052 0.000000 0.000000
# 5 0.000000 0.000000 0.000000 0.000000 0.058250 0.000000
# 6 0.000000 0.000000 0.000000 0.000000 0.000000 0.043424
#
#
# Mechanical properties :
#
#
# Convention : Reuss Voigt Hill
#
# Bulk Modulus (GPa) = 38.64689 42.35920 40.50304
# Shear Modulus (GPa) = 21.44583 22.20672 21.82628
#
# Velocity S-wave (km/s) = 3.35905 3.41812 3.38871
# Velocity P-wave (km/s) = 5.94789 6.15340 6.05152
#
# Compressibility (1/GPa) = 0.02587531
#
# Stress axis : x y z
#
# Youngs Moduli (GPa) = 47.64140 56.34298 66.24233
#
# Poissons Ratio (x) = 0.09821 0.40427
# Poissons Ratio (y) = 0.08304 0.40631
# Poissons Ratio (z) = 0.29075 0.34559
#
# Static dielectric constant tensor:
#      x y z
#    x 3.379670 0.000000 0.000000 
#    y 0.000000 3.226660 0.000000 
#    z 0.000000 0.000000 3.507010 
# 
# 
# High freq. dielectric constant tensor:
#      x y z
#    x 1.726760 0.000000 0.000000 
#    y 0.000000 1.708640 0.000000 
#    z 0.000000 0.000000 1.742380 
# 
# From -- ./inp_files/24355.got.cif
#   From: 2010.03.12/outbox.cif.g09.slc.cpg/sg44_13_cif.got.tgz:24355.got - 2010.04.14 02:36:11.
