data_PCOD8188879
_publ_section_title
;
Structure prediction by ZEFSAII (Michael W. Deem and Ramdas Pophale) SiO2 
 PCOD8188879
Probable space group: I M M 2
;
_chemical_formula_sum "Si O2"
_cell_formula_units_Z 64
_cell_length_a 24.933333
_cell_length_b 9.048122
_cell_length_c 15.101967
_cell_angle_alpha 90.000000
_cell_angle_beta 90.000000
_cell_angle_gamma 90.000000
_cell_volume 3407.001322
_symmetry_space_group_name_H-M "I M M 2"
_symmetry_group_IT_number 44
_symmetry_cell_setting 'orthorhombic'
loop_
_space_group_symop_operation_xyz
x,y,z
-x,-y,z
-x,y,z
x,-y,z
1/2+x,1/2+y,1/2+z
1/2-x,1/2-y,1/2+z
1/2-x,1/2+y,1/2+z
1/2+x,1/2-y,1/2+z
loop_
_atom_site_type_symbol
_atom_site_label
_atom_site_fract_x
_atom_site_fract_y
_atom_site_fract_z
Si Si1 0.278922 0.324860 0.347280
Si Si2 0.329767 0.327904 0.810246
Si Si3 0.384994 0.174617 0.309305
Si Si4 0.940469 0.673892 0.629126
Si Si5 0.263471 0.169309 0.525836
Si Si6 0.137824 0.329456 0.144906
Si Si7 0.939712 0.675663 0.989906
Si Si8 0.356656 0.331531 0.009566
O O1 0.277289 0.500000 0.339258
O O2 0.225837 0.259327 0.303027
O O3 0.329639 0.261112 0.294694
O O4 0.284263 0.276484 0.449225
O O5 0.318530 0.500000 0.795332
O O6 0.369082 0.265917 0.734003
O O7 0.357216 0.298762 0.904782
O O8 0.422158 0.219519 0.227174
O O9 0.414151 0.232105 0.398213
O O10 0.373627 0.000000 0.313545
O O11 0.941284 0.500000 0.620106
O O12 0.901020 0.731295 0.553962
O O13 0.000000 0.739177 0.613654
O O14 0.301250 0.191073 0.610328
O O15 0.201966 0.206650 0.550337
O O16 0.266858 0.000000 0.490087
O O17 0.125807 0.500000 0.166538
O O18 0.095905 0.268072 0.072305
O O19 0.940316 0.500000 0.988502
O O20 0.000000 0.738621 0.999603
O O21 0.371605 0.500000 0.029266
#
# Coordination Sequence:
#
# PCOD8188879 Si02
#       8
#     8   8   8   8   8   8   8   8
#     4  11  21  33  53  83 115 148 188 228 274 328
#     4  10  22  39  57  79 112 151 190 233 286 340
#     4  10  19  35  56  81 115 152 184 223 280 337
#     4  10  22  38  58  85 112 141 187 240 283 329
#     4   9  18  35  55  80 114 150 182 221 278 338
#     4  10  19  33  56  86 117 149 187 232 279 329
#     4   9  17  32  57  84 112 150 191 225 268 332
#     4   9  20  38  58  78 108 148 188 230 282 341
#
# _framework density 18.784849000000001
#
# number of rings (size 3 to 8) (size 9 to 14) (size 15 to 20)
#    0.000    2.250    1.250    2.625    1.750    5.250 
#    0.000    0.625    0.000    4.500    0.000    0.000 
#    0.000    0.000    0.000    0.000    0.000    0.000 
#
# Total GULP energy -396834.396888 kJ/mol
# GULP energy per Si atom -12401.074903 kJ/mol
# Density = 1.874209 g / cm^3
# Si number density = 18.784849 Si / 1000 Ang^3
#
#
#
# Elastic Constant Matrix: (Units=GPa)
#
#
# Indices 1 2 3 4 5 6 
#
# 1 128.2089 41.2068 61.9052 0.0000 0.0000 0.0000
# 2 41.2068 65.9827 41.0572 0.0000 0.0000 0.0000
# 3 61.9052 41.0572 104.6484 0.0000 0.0000 0.0000
# 4 0.0000 0.0000 0.0000 29.5262 0.0000 0.0000
# 5 0.0000 0.0000 0.0000 0.0000 24.2685 0.0000
# 6 0.0000 0.0000 0.0000 0.0000 0.0000 23.2973
#
#
#
# Elastic Compliance Matrix: (Units=1/GPa)
#
#
# Indices 1 2 3 4 5 6 
#
# 1 0.011648 -0.003952 -0.005340 0.000000 0.000000 0.000000
# 2 -0.003952 0.021391 -0.006055 0.000000 0.000000 0.000000
# 3 -0.005340 -0.006055 0.015090 0.000000 0.000000 0.000000
# 4 0.000000 0.000000 0.000000 0.033868 0.000000 0.000000
# 5 0.000000 0.000000 0.000000 0.000000 0.041206 0.000000
# 6 0.000000 0.000000 0.000000 0.000000 0.000000 0.042923
#
#
# Mechanical properties :
#
#
# Convention : Reuss Voigt Hill
#
# Bulk Modulus (GPa) = 57.35175 65.24205 61.29690
# Shear Modulus (GPa) = 24.67526 25.72981 25.20253
#
# Velocity S-wave (km/s) = 3.62826 3.70498 3.66682
# Velocity P-wave (km/s) = 6.93898 7.28760 7.11542
#
# Compressibility (1/GPa) = 0.01743626
#
# Stress axis : x y z
#
# Youngs Moduli (GPa) = 85.84903 46.74905 66.26739
#
# Poissons Ratio (x) = 0.18473 0.35389
# Poissons Ratio (y) = 0.33924 0.40123
# Poissons Ratio (z) = 0.45846 0.28306
#
# Static dielectric constant tensor:
#      x y z
#    x 3.555600 0.000000 0.000000 
#    y 0.000000 3.219030 0.000000 
#    z 0.000000 0.000000 3.401760 
# 
# 
# High freq. dielectric constant tensor:
#      x y z
#    x 1.725680 0.000000 0.000000 
#    y 0.000000 1.707700 0.000000 
#    z 0.000000 0.000000 1.729810 
# 
# From -- ./inp_files/16829.got.cif
#   From: 2010.03.12/outbox.cif.g09.slc.cpg/sg44_9_cif.got.tgz:16829.got - 2010.04.14 02:36:11.
