data_PCOD8188659
_publ_section_title
;
Structure prediction by ZEFSAII (Michael W. Deem and Ramdas Pophale) SiO2 
 PCOD8188659
Probable space group: I M M 2
;
_chemical_formula_sum "Si O2"
_cell_formula_units_Z 64
_cell_length_a 9.326025
_cell_length_b 20.455920
_cell_length_c 19.420046
_cell_angle_alpha 90.000000
_cell_angle_beta 90.000000
_cell_angle_gamma 90.000000
_cell_volume 3704.809198
_symmetry_space_group_name_H-M "I M M 2"
_symmetry_group_IT_number 44
_symmetry_cell_setting 'orthorhombic'
loop_
_space_group_symop_operation_xyz
x,y,z
-x,-y,z
-x,y,z
x,-y,z
1/2+x,1/2+y,1/2+z
1/2-x,1/2-y,1/2+z
1/2-x,1/2+y,1/2+z
1/2+x,1/2-y,1/2+z
loop_
_atom_site_type_symbol
_atom_site_label
_atom_site_fract_x
_atom_site_fract_y
_atom_site_fract_z
Si Si1 0.664266 0.367790 0.848620
Si Si2 0.166164 0.182124 0.988657
Si Si3 0.164579 0.073267 0.491020
Si Si4 0.336827 0.771390 0.711149
Si Si5 0.834037 0.237150 0.842919
Si Si6 0.334231 0.074822 0.069714
Si Si7 0.167908 0.686830 0.062818
Si Si8 0.837141 0.881325 0.197418
O O1 0.500000 0.342302 0.845385
O O2 0.688813 0.419423 0.909147
O O3 0.763593 0.305773 0.863034
O O4 0.701028 0.402473 0.775783
O O5 0.186865 0.187554 0.906489
O O6 0.000000 0.171559 0.008587
O O7 0.254499 0.119957 0.014373
O O8 0.225506 0.247715 0.025500
O O9 0.259897 0.122752 0.533304
O O10 0.000000 0.086993 0.509812
O O11 0.209772 0.000000 0.511385
O O12 0.500000 0.784603 0.733269
O O13 0.237365 0.793537 0.774621
O O14 0.295102 0.812482 0.643759
O O15 0.314494 0.696094 0.691295
O O16 0.000000 0.249857 0.827760
O O17 0.500000 0.095262 0.072764
O O18 0.268921 0.082391 0.145873
O O19 0.316048 0.000000 0.045823
O O20 0.000000 0.681420 0.048784
O O21 0.000000 0.900652 0.178224
#
# Coordination Sequence:
#
# PCOD8188659 Si02
#       8
#     8   8   8   8   8   8   8   8
#     4   9  18  32  50  73 104 142 179 210 250 305
#     4  10  20  36  56  78 104 137 175 215 260 313
#     4  10  21  35  51  76 109 142 178 219 261 306
#     4   9  18  33  53  77 106 136 170 212 257 310
#     4  10  19  31  52  81 108 131 166 217 264 306
#     4  11  24  37  50  75 108 139 175 220 265 308
#     4  10  19  35  56  78 105 137 176 218 259 308
#     4   9  17  32  52  74 102 140 179 212 249 305
#
# _framework density 17.274844000000002
#
# number of rings (size 3 to 8) (size 9 to 14) (size 15 to 20)
#    0.000    2.250    2.500    1.500    0.000    5.750 
#    0.000    1.250    0.000    0.750    0.000    0.000 
#    0.000    0.000    0.000    0.000    0.000    0.000 
#
# Total GULP energy -396805.377678 kJ/mol
# GULP energy per Si atom -12400.168052 kJ/mol
# Density = 1.723553 g / cm^3
# Si number density = 17.274844 Si / 1000 Ang^3
#
#
#
# Elastic Constant Matrix: (Units=GPa)
#
#
# Indices 1 2 3 4 5 6 
#
# 1 88.8686 47.5407 55.5682 0.0000 0.0000 0.0000
# 2 47.5407 84.0414 52.4513 0.0000 0.0000 0.0000
# 3 55.5682 52.4513 99.3401 0.0000 0.0000 0.0000
# 4 0.0000 0.0000 0.0000 21.1678 0.0000 0.0000
# 5 0.0000 0.0000 0.0000 0.0000 31.8872 0.0000
# 6 0.0000 0.0000 0.0000 0.0000 0.0000 26.2612
#
#
#
# Elastic Compliance Matrix: (Units=1/GPa)
#
#
# Indices 1 2 3 4 5 6 
#
# 1 0.019266 -0.006223 -0.007491 0.000000 0.000000 0.000000
# 2 -0.006223 0.019757 -0.006951 0.000000 0.000000 0.000000
# 3 -0.007491 -0.006951 0.017927 0.000000 0.000000 0.000000
# 4 0.000000 0.000000 0.000000 0.047241 0.000000 0.000000
# 5 0.000000 0.000000 0.000000 0.000000 0.031361 0.000000
# 6 0.000000 0.000000 0.000000 0.000000 0.000000 0.038079
#
#
# Mechanical properties :
#
#
# Convention : Reuss Voigt Hill
#
# Bulk Modulus (GPa) = 64.02037 64.81894 64.41965
# Shear Modulus (GPa) = 22.71011 23.64259 23.17635
#
# Velocity S-wave (km/s) = 3.62972 3.70349 3.66679
# Velocity P-wave (km/s) = 7.39641 7.47606 7.43634
#
# Compressibility (1/GPa) = 0.01562003
#
# Stress axis : x y z
#
# Youngs Moduli (GPa) = 51.90622 50.61441 55.78295
#
# Poissons Ratio (x) = 0.31497 0.41786
# Poissons Ratio (y) = 0.32301 0.38774
# Poissons Ratio (z) = 0.38882 0.35181
#
# Static dielectric constant tensor:
#      x y z
#    x 3.208940 0.000000 0.000000 
#    y 0.000000 2.930430 0.000000 
#    z 0.000000 0.000000 3.366670 
# 
# 
# High freq. dielectric constant tensor:
#      x y z
#    x 1.666870 0.000000 0.000000 
#    y 0.000000 1.636760 0.000000 
#    z 0.000000 0.000000 1.674760 
# 
# From -- ./inp_files/23246.got.cif
#   From: 2010.03.12/outbox.cif.g09.slc.cpg/sg44_12_cif.got.tgz:23246.got - 2010.04.14 02:36:11.
