data_PCOD8188612
_publ_section_title
;
Structure prediction by ZEFSAII (Michael W. Deem and Ramdas Pophale) SiO2 
 PCOD8188612
Probable space group: I M M 2
;
_chemical_formula_sum "Si O2"
_cell_formula_units_Z 64
_cell_length_a 8.978086
_cell_length_b 27.756459
_cell_length_c 14.473808
_cell_angle_alpha 90.000000
_cell_angle_beta 90.000000
_cell_angle_gamma 90.000000
_cell_volume 3606.871158
_symmetry_space_group_name_H-M "I M M 2"
_symmetry_group_IT_number 44
_symmetry_cell_setting 'orthorhombic'
loop_
_space_group_symop_operation_xyz
x,y,z
-x,-y,z
-x,y,z
x,-y,z
1/2+x,1/2+y,1/2+z
1/2-x,1/2-y,1/2+z
1/2-x,1/2+y,1/2+z
1/2+x,1/2-y,1/2+z
loop_
_atom_site_type_symbol
_atom_site_label
_atom_site_fract_x
_atom_site_fract_y
_atom_site_fract_z
Si Si1 0.327624 0.365201 0.348430
Si Si2 0.327638 0.724341 0.023430
Si Si3 0.328078 0.722080 0.233320
Si Si4 0.827818 0.177150 0.040576
Si Si5 0.175776 0.866595 0.403322
Si Si6 0.327781 0.056310 0.527442
Si Si7 0.824576 0.445878 0.236125
Si Si8 0.822433 0.670624 0.729092
O O1 0.500000 0.368619 0.320578
O O2 0.253692 0.318336 0.298472
O O3 0.306212 0.361180 0.458253
O O4 0.248868 0.412965 0.313413
O O5 0.500000 0.737858 0.007273
O O6 0.302081 0.706408 0.127819
O O7 0.229264 0.771283 0.003526
O O8 0.273735 0.681243 0.957947
O O9 0.500000 0.725656 0.258876
O O10 0.261180 0.775369 0.251179
O O11 0.734642 0.156916 0.126950
O O12 0.000000 0.182434 0.068507
O O13 0.226843 0.913979 0.457087
O O14 0.254167 0.866035 0.303330
O O15 0.000000 0.868708 0.390251
O O16 0.500000 0.069571 0.511204
O O17 0.279627 0.069679 0.632079
O O18 0.300591 0.000000 0.508822
O O19 0.768468 0.500000 0.254588
O O20 0.000000 0.442839 0.246923
O O21 0.000000 0.667383 0.729231
#
# Coordination Sequence:
#
# PCOD8188612 Si02
#       8
#     8   8   8   8   8   8   8   8
#     4  10  19  31  50  74 100 131 165 203 249 297
#     4   9  18  31  47  71 104 138 168 200 243 298
#     4   8  15  29  47  69  99 132 164 197 236 286
#     4  10  20  33  49  72 102 134 171 214 253 292
#     4  11  21  32  51  78 104 131 169 213 253 298
#     4   9  19  36  55  76 104 135 165 199 246 305
#     4   9  19  35  53  75 103 131 161 200 243 292
#     4  10  20  35  52  69  98 139 175 209 251 297
#
# _framework density 17.743911000000001
#
# number of rings (size 3 to 8) (size 9 to 14) (size 15 to 20)
#    0.000    2.500    0.000    4.125    0.000    5.000 
#    0.000    5.625    0.000    0.750    0.000    3.500 
#    0.000    0.000    0.000    0.000    0.000    0.000 
#
# Total GULP energy -396791.743331 kJ/mol
# GULP energy per Si atom -12399.741979 kJ/mol
# Density = 1.770353 g / cm^3
# Si number density = 17.743911 Si / 1000 Ang^3
#
#
#
# Elastic Constant Matrix: (Units=GPa)
#
#
# Indices 1 2 3 4 5 6 
#
# 1 67.5510 38.0562 45.3043 0.0004 0.0000 0.0000
# 2 38.0562 76.1366 57.8481 0.0002 0.0000 0.0000
# 3 45.3043 57.8481 101.1740 0.0013 0.0001 0.0000
# 4 0.0004 0.0002 0.0013 28.7486 0.0000 0.0000
# 5 0.0000 0.0000 0.0001 0.0000 29.2694 0.0002
# 6 0.0000 0.0000 0.0000 0.0000 0.0002 28.7225
#
#
#
# Elastic Compliance Matrix: (Units=1/GPa)
#
#
# Indices 1 2 3 4 5 6 
#
# 1 0.022813 -0.006438 -0.006534 0.000000 0.000000 0.000000
# 2 -0.006438 0.025040 -0.011434 0.000000 0.000000 0.000000
# 3 -0.006534 -0.011434 0.019347 -0.000001 0.000000 0.000000
# 4 0.000000 0.000000 -0.000001 0.034784 0.000000 0.000000
# 5 0.000000 0.000000 0.000000 0.000000 0.034165 0.000000
# 6 0.000000 0.000000 0.000000 0.000000 0.000000 0.034816
#
#
# Mechanical properties :
#
#
# Convention : Reuss Voigt Hill
#
# Bulk Modulus (GPa) = 54.38490 58.58653 56.48571
# Shear Modulus (GPa) = 22.13287 24.25828 23.19558
#
# Velocity S-wave (km/s) = 3.53562 3.70149 3.61950
# Velocity P-wave (km/s) = 6.88359 7.16642 7.02643
#
# Compressibility (1/GPa) = 0.01838746
#
# Stress axis : x y z
#
# Youngs Moduli (GPa) = 43.83461 39.93617 51.68629
#
# Poissons Ratio (x) = 0.25712 0.33772
# Poissons Ratio (y) = 0.28222 0.59098
# Poissons Ratio (z) = 0.28642 0.45663
#
# Static dielectric constant tensor:
#      x y z
#    x 3.130560 0.000000 0.000000 
#    y 0.000000 3.194860 0.000000 
#    z 0.000000 0.000000 3.288350 
# 
# 
# High freq. dielectric constant tensor:
#      x y z
#    x 1.678200 0.000000 0.000000 
#    y 0.000000 1.664390 0.000000 
#    z 0.000000 0.000000 1.688830 
# 
# From -- ./inp_files/16845.got.cif
#   From: 2010.03.12/outbox.cif.g09.slc.cpg/sg44_9_cif.got.tgz:16845.got - 2010.04.14 02:36:11.
