data_PCOD8188588
_publ_section_title
;
Structure prediction by ZEFSAII (Michael W. Deem and Ramdas Pophale) SiO2 
 PCOD8188588
Probable space group: I M M 2
;
_chemical_formula_sum "Si O2"
_cell_formula_units_Z 64
_cell_length_a 26.890534
_cell_length_b 9.133625
_cell_length_c 14.619904
_cell_angle_alpha 90.000000
_cell_angle_beta 90.000000
_cell_angle_gamma 90.000000
_cell_volume 3590.766165
_symmetry_space_group_name_H-M "I M M 2"
_symmetry_group_IT_number 44
_symmetry_cell_setting 'orthorhombic'
loop_
_space_group_symop_operation_xyz
x,y,z
-x,-y,z
-x,y,z
x,-y,z
1/2+x,1/2+y,1/2+z
1/2-x,1/2-y,1/2+z
1/2-x,1/2+y,1/2+z
1/2+x,1/2-y,1/2+z
loop_
_atom_site_type_symbol
_atom_site_label
_atom_site_fract_x
_atom_site_fract_y
_atom_site_fract_z
Si Si1 0.715537 0.669964 0.225510
Si Si2 0.168165 0.829247 0.032284
Si Si3 0.717340 0.832099 0.044497
Si Si4 0.369317 0.831582 0.908701
Si Si5 0.443481 0.169826 0.217095
Si Si6 0.358457 0.827591 0.356071
Si Si7 0.169228 0.331865 0.213845
Si Si8 0.442534 0.329441 0.034802
O O1 0.701327 0.500000 0.232788
O O2 0.698606 0.730035 0.126891
O O3 0.688223 0.757491 0.304927
O O4 0.773737 0.698008 0.239643
O O5 0.226351 0.795339 0.016145
O O6 0.151330 0.771435 0.131555
O O7 0.155956 0.000000 0.025376
O O8 0.136788 0.743140 0.956152
O O9 0.713067 0.000000 0.077377
O O10 0.683183 0.798947 0.957463
O O11 0.363971 0.793552 0.801899
O O12 0.384348 0.000000 0.922896
O O13 0.412683 0.731713 0.948614
O O14 0.500000 0.214727 0.241714
O O15 0.409380 0.210293 0.303207
O O16 0.423701 0.256088 0.128609
O O17 0.439299 0.000000 0.192190
O O18 0.349871 0.000000 0.364874
O O19 0.162384 0.500000 0.183728
O O20 0.500000 0.291864 0.018006
O O21 0.432599 0.500000 0.043651
#
# Coordination Sequence:
#
# PCOD8188588 Si02
#       8
#     8   8   8   8   8   8   8   8
#     4  10  19  31  48  72 103 135 165 199 241 290
#     4  10  20  34  51  71  99 134 168 203 244 290
#     4   9  18  32  48  71 103 134 164 199 239 285
#     4  10  19  32  52  73  96 130 169 204 239 286
#     4   9  19  36  55  74  98 129 163 198 240 292
#     4  11  21  32  50  74  99 129 166 207 247 289
#     4   9  19  35  51  70  99 133 168 206 244 283
#     4  10  21  35  51  75 105 130 155 196 248 296
#
# _framework density 17.823494
#
# number of rings (size 3 to 8) (size 9 to 14) (size 15 to 20)
#    0.000    2.250    0.000    3.000    0.000    8.750 
#    0.000    1.250    0.000    0.750    0.000    1.750 
#    0.000    0.000    0.000    0.000    0.000    0.000 
#
# Total GULP energy -396931.219638 kJ/mol
# GULP energy per Si atom -12404.100614 kJ/mol
# Density = 1.778293 g / cm^3
# Si number density = 17.823494 Si / 1000 Ang^3
#
#
#
# Elastic Constant Matrix: (Units=GPa)
#
#
# Indices 1 2 3 4 5 6 
#
# 1 60.5329 43.8143 54.1333 0.0000 0.0000 0.0000
# 2 43.8143 91.9498 67.2610 0.0000 0.0000 0.0000
# 3 54.1333 67.2610 130.6748 0.0000 0.0000 0.0000
# 4 0.0000 0.0000 0.0000 33.8867 0.0000 0.0000
# 5 0.0000 0.0000 0.0000 0.0000 26.1187 0.0000
# 6 0.0000 0.0000 0.0000 0.0000 0.0000 24.2882
#
#
#
# Elastic Compliance Matrix: (Units=1/GPa)
#
#
# Indices 1 2 3 4 5 6 
#
# 1 0.029700 -0.008264 -0.008050 0.000000 0.000000 0.000000
# 2 -0.008264 0.019742 -0.006739 0.000000 0.000000 0.000000
# 3 -0.008050 -0.006739 0.014456 0.000000 0.000000 0.000000
# 4 0.000000 0.000000 0.000000 0.029510 0.000000 0.000000
# 5 0.000000 0.000000 0.000000 0.000000 0.038287 0.000000
# 6 0.000000 0.000000 0.000000 0.000000 0.000000 0.041172
#
#
# Mechanical properties :
#
#
# Convention : Reuss Voigt Hill
#
# Bulk Modulus (GPa) = 56.19884 68.17496 62.18690
# Shear Modulus (GPa) = 22.23176 24.72198 23.47687
#
# Velocity S-wave (km/s) = 3.53559 3.72834 3.63324
# Velocity P-wave (km/s) = 6.94740 7.54103 7.25029
#
# Compressibility (1/GPa) = 0.01779396
#
# Stress axis : x y z
#
# Youngs Moduli (GPa) = 33.66971 50.65272 69.17583
#
# Poissons Ratio (x) = 0.41857 0.55688
# Poissons Ratio (y) = 0.27823 0.46614
# Poissons Ratio (z) = 0.27105 0.34132
#
# Static dielectric constant tensor:
#      x y z
#    x 3.156840 0.000000 0.000000 
#    y 0.000000 3.373330 0.000000 
#    z 0.000000 0.000000 3.327510 
# 
# 
# High freq. dielectric constant tensor:
#      x y z
#    x 1.666250 0.000000 0.000000 
#    y 0.000000 1.695910 0.000000 
#    z 0.000000 0.000000 1.689590 
# 
# From -- ./inp_files/16796.got.cif
#   From: 2010.03.12/outbox.cif.g09.slc.cpg/sg44_9_cif.got.tgz:16796.got - 2010.04.14 02:36:11.
