data_PCOD8188408
_publ_section_title
;
Structure prediction by ZEFSAII (Michael W. Deem and Ramdas Pophale) SiO2 
 PCOD8188408
Probable space group: I M M 2
;
_chemical_formula_sum "Si O2"
_cell_formula_units_Z 40
_cell_length_a 23.000233
_cell_length_b 8.850963
_cell_length_c 10.339229
_cell_angle_alpha 90.000000
_cell_angle_beta 90.000000
_cell_angle_gamma 90.000000
_cell_volume 2104.800389
_symmetry_space_group_name_H-M "I M M 2"
_symmetry_group_IT_number 44
_symmetry_cell_setting 'orthorhombic'
loop_
_space_group_symop_operation_xyz
x,y,z
-x,-y,z
-x,y,z
x,-y,z
1/2+x,1/2+y,1/2+z
1/2-x,1/2-y,1/2+z
1/2-x,1/2+y,1/2+z
1/2+x,1/2-y,1/2+z
loop_
_atom_site_type_symbol
_atom_site_label
_atom_site_fract_x
_atom_site_fract_y
_atom_site_fract_z
Si Si1 0.321729 0.321214 0.352650
Si Si2 0.884042 0.822084 0.113669
Si Si3 0.196628 0.177594 0.354192
Si Si4 0.379099 0.679353 0.092358
Si Si5 0.000000 0.179898 0.483517
Si Si6 0.000000 0.678621 0.201497
O O1 0.317524 0.500000 0.348591
O O2 0.352186 0.266560 0.483770
O O3 0.257540 0.258390 0.340617
O O4 0.359319 0.259042 0.231792
O O5 0.843126 0.778029 0.232996
O O6 0.943942 0.732058 0.122057
O O7 0.897568 0.000000 0.111583
O O8 0.165200 0.238841 0.483136
O O9 0.207475 0.000000 0.360130
O O10 0.379403 0.500000 0.089806
O O11 0.443856 0.738547 0.061801
O O12 0.000000 0.247493 0.341637
O O13 0.000000 0.000000 0.467316
O O14 0.000000 0.500000 0.215158
#
# Coordination Sequence:
#
# PCOD8188408 Si02
#       6
#     8   8   8   8   4   4
#     4  10  21  35  54  85 115 144 185 228 268 321
#     4  10  21  38  59  82 112 151 188 223 273 335
#     4  10  19  34  56  80 111 153 187 219 270 326
#     4   9  18  33  57  83 107 139 183 227 269 318
#     4  10  18  37  62  78 104 144 184 226 275 335
#     4  12  24  37  58  86 110 138 186 240 283 323
#
# _framework density 19.004176999999999
#
# number of rings (size 3 to 8) (size 9 to 14) (size 15 to 20)
#    0.000    2.000    2.000    2.100    0.000    2.400 
#    0.000    4.000    0.000    1.200    0.000    0.000 
#    0.000    0.000    0.000    0.000    0.000    0.000 
#
# Total GULP energy -248046.932900 kJ/mol
# GULP energy per Si atom -12402.346645 kJ/mol
# Density = 1.896092 g / cm^3
# Si number density = 19.004177 Si / 1000 Ang^3
#
#
#
# Elastic Constant Matrix: (Units=GPa)
#
#
# Indices 1 2 3 4 5 6 
#
# 1 138.4286 26.8674 46.8462 0.0000 0.0000 0.0000
# 2 26.8674 28.3255 17.3000 0.0000 0.0000 0.0000
# 3 46.8462 17.3000 133.1059 0.0000 0.0000 0.0000
# 4 0.0000 0.0000 0.0000 11.0005 0.0000 0.0000
# 5 0.0000 0.0000 0.0000 0.0000 6.5396 0.0000
# 6 0.0000 0.0000 0.0000 0.0000 0.0000 33.0784
#
#
#
# Elastic Compliance Matrix: (Units=1/GPa)
#
#
# Indices 1 2 3 4 5 6 
#
# 1 0.009489 -0.007561 -0.002357 0.000000 0.000000 0.000000
# 2 -0.007561 0.044373 -0.003106 0.000000 0.000000 0.000000
# 3 -0.002357 -0.003106 0.008746 0.000000 0.000000 0.000000
# 4 0.000000 0.000000 0.000000 0.090905 0.000000 0.000000
# 5 0.000000 0.000000 0.000000 0.000000 0.152915 0.000000
# 6 0.000000 0.000000 0.000000 0.000000 0.000000 0.030231
#
#
# Mechanical properties :
#
#
# Convention : Reuss Voigt Hill
#
# Bulk Modulus (GPa) = 27.35256 53.54302 40.44779
# Shear Modulus (GPa) = 13.33709 24.04679 18.69194
#
# Velocity S-wave (km/s) = 2.65202 3.56102 3.13959
# Velocity P-wave (km/s) = 4.87871 6.71888 5.87133
#
# Compressibility (1/GPa) = 0.03655965
#
# Stress axis : x y z
#
# Youngs Moduli (GPa) = 105.38431 22.53636 114.33763
#
# Poissons Ratio (x) = 0.17040 0.26949
# Poissons Ratio (y) = 0.79682 0.35514
# Poissons Ratio (z) = 0.24838 0.07000
#
# Static dielectric constant tensor:
#      x y z
#    x 3.676430 0.000000 0.000000 
#    y 0.000000 3.143850 0.000000 
#    z 0.000000 0.000000 3.828090 
# 
# 
# High freq. dielectric constant tensor:
#      x y z
#    x 1.755190 0.000000 0.000000 
#    y 0.000000 1.703990 0.000000 
#    z 0.000000 0.000000 1.751500 
# 
# From -- ./inp_files/9613.got.cif
#   From: 2010.03.12/outbox.cif.g09.slc.cpg/sg44_5_cif.got.tgz:9613.got - 2010.04.14 02:36:11.
