data_PCOD8188325
_publ_section_title
;
Structure prediction by ZEFSAII (Michael W. Deem and Ramdas Pophale) SiO2 
 PCOD8188325
Probable space group: I M M 2
;
_chemical_formula_sum "Si O2"
_cell_formula_units_Z 64
_cell_length_a 30.818020
_cell_length_b 9.405431
_cell_length_c 11.969816
_cell_angle_alpha 90.000000
_cell_angle_beta 90.000000
_cell_angle_gamma 90.000000
_cell_volume 3469.532092
_symmetry_space_group_name_H-M "I M M 2"
_symmetry_group_IT_number 44
_symmetry_cell_setting 'orthorhombic'
loop_
_space_group_symop_operation_xyz
x,y,z
-x,-y,z
-x,y,z
x,-y,z
1/2+x,1/2+y,1/2+z
1/2-x,1/2-y,1/2+z
1/2-x,1/2+y,1/2+z
1/2+x,1/2-y,1/2+z
loop_
_atom_site_type_symbol
_atom_site_label
_atom_site_fract_x
_atom_site_fract_y
_atom_site_fract_z
Si Si1 0.374720 0.330521 0.774390
Si Si2 0.125608 0.667387 0.043208
Si Si3 0.295249 0.166860 0.383942
Si Si4 0.671885 0.662419 0.179574
Si Si5 0.429230 0.337704 0.177915
Si Si6 0.548027 0.161603 0.386062
Si Si7 0.699243 0.331870 0.940245
Si Si8 0.451385 0.331863 0.933108
O O1 0.375494 0.500000 0.757296
O O2 0.374159 0.255169 0.656073
O O3 0.331942 0.278145 0.840876
O O4 0.417085 0.275562 0.842089
O O5 0.123677 0.500000 0.069686
O O6 0.168900 0.708532 0.975476
O O7 0.083587 0.719016 0.973359
O O8 0.302915 0.244003 0.268030
O O9 0.248406 0.220197 0.425205
O O10 0.295962 0.000000 0.360443
O O11 0.688084 0.500000 0.189448
O O12 0.621317 0.673690 0.202348
O O13 0.682206 0.727513 0.058078
O O14 0.445474 0.500000 0.184778
O O15 0.453586 0.249732 0.272241
O O16 0.440598 0.271848 0.056547
O O17 0.500000 0.171845 0.440900
O O18 0.560079 0.000000 0.354701
O O19 0.695917 0.500000 0.943379
O O20 0.500000 0.285556 0.897297
O O21 0.446459 0.500000 0.939774
#
# Coordination Sequence:
#
# PCOD8188325 Si02
#       8
#     8   8   8   8   8   8   8   8
#     4  10  20  36  56  77 104 138 176 216 259 311
#     4  10  22  38  53  74 105 140 177 216 260 308
#     4  10  21  37  56  77 106 143 177 214 262 313
#     4  10  19  34  58  83 108 137 172 217 266 312
#     4  10  18  32  56  84 110 134 167 216 267 312
#     4  10  21  37  55  75 105 144 178 212 261 315
#     4   9  19  36  56  79 108 140 172 214 269 316
#     4   9  17  31  53  80 107 135 168 210 263 315
#
# _framework density 18.446290000000001
#
# number of rings (size 3 to 8) (size 9 to 14) (size 15 to 20)
#    0.000    2.250    2.500    0.375    1.750    2.250 
#    0.000    1.875    0.000    0.750    0.000    0.000 
#    0.000    0.000    0.000    0.000    0.000    0.000 
#
# Total GULP energy -396792.716136 kJ/mol
# GULP energy per Si atom -12399.772379 kJ/mol
# Density = 1.840431 g / cm^3
# Si number density = 18.446290 Si / 1000 Ang^3
#
#
#
# Elastic Constant Matrix: (Units=GPa)
#
#
# Indices 1 2 3 4 5 6 
#
# 1 139.0912 28.0390 66.4224 0.0000 0.0000 0.0000
# 2 28.0390 34.9745 42.8842 0.0000 0.0000 0.0000
# 3 66.4224 42.8842 148.5038 0.0000 0.0000 0.0000
# 4 0.0000 0.0000 0.0000 25.3544 0.0000 0.0000
# 5 0.0000 0.0000 0.0000 0.0000 26.8926 0.0000
# 6 0.0000 0.0000 0.0000 0.0000 0.0000 11.2708
#
#
#
# Elastic Compliance Matrix: (Units=1/GPa)
#
#
# Indices 1 2 3 4 5 6 
#
# 1 0.009442 -0.003702 -0.003154 0.000000 0.000000 0.000000
# 2 -0.003702 0.045718 -0.011546 0.000000 0.000000 0.000000
# 3 -0.003154 -0.011546 0.011479 0.000000 0.000000 0.000000
# 4 0.000000 0.000000 0.000000 0.039441 0.000000 0.000000
# 5 0.000000 0.000000 0.000000 0.000000 0.037185 0.000000
# 6 0.000000 0.000000 0.000000 0.000000 0.000000 0.088725
#
#
# Mechanical properties :
#
#
# Convention : Reuss Voigt Hill
#
# Bulk Modulus (GPa) = 33.51935 66.36230 49.94082
# Shear Modulus (GPa) = 17.93795 25.05185 21.49490
#
# Velocity S-wave (km/s) = 3.12178 3.68923 3.41731
# Velocity P-wave (km/s) = 5.58613 7.36216 6.53476
#
# Compressibility (1/GPa) = 0.02983352
#
# Stress axis : x y z
#
# Youngs Moduli (GPa) = 105.90877 21.87335 87.11680
#
# Poissons Ratio (x) = 0.08098 0.27478
# Poissons Ratio (y) = 0.39210 1.00587
# Poissons Ratio (z) = 0.33405 0.25255
#
# Static dielectric constant tensor:
#      x y z
#    x 3.720370 0.000000 0.000000 
#    y 0.000000 3.068250 0.000000 
#    z 0.000000 0.000000 3.372520 
# 
# 
# High freq. dielectric constant tensor:
#      x y z
#    x 1.734200 0.000000 0.000000 
#    y 0.000000 1.678680 0.000000 
#    z 0.000000 0.000000 1.717770 
# 
# From -- ./inp_files/11425.got.cif
#   From: 2010.03.12/outbox.cif.g09.slc.cpg/sg44_6_cif.got.tgz:11425.got - 2010.04.14 02:36:11.
