data_PCOD8188487
_publ_section_title
;
Structure prediction by ZEFSAII (Michael W. Deem and Ramdas Pophale) SiO2 
 PCOD8188487
Probable space group: I M M 2
;
_chemical_formula_sum "Si O2"
_cell_formula_units_Z 64
_cell_length_a 22.411629
_cell_length_b 9.047414
_cell_length_c 19.611195
_cell_angle_alpha 90.000000
_cell_angle_beta 90.000000
_cell_angle_gamma 90.000000
_cell_volume 3976.508785
_symmetry_space_group_name_H-M "I M M 2"
_symmetry_group_IT_number 44
_symmetry_cell_setting 'orthorhombic'
loop_
_space_group_symop_operation_xyz
x,y,z
-x,-y,z
-x,y,z
x,-y,z
1/2+x,1/2+y,1/2+z
1/2-x,1/2-y,1/2+z
1/2-x,1/2+y,1/2+z
1/2+x,1/2-y,1/2+z
loop_
_atom_site_type_symbol
_atom_site_label
_atom_site_fract_x
_atom_site_fract_y
_atom_site_fract_z
Si Si1 0.336595 0.164357 0.927930
Si Si2 0.661240 0.166177 0.368536
Si Si3 0.130376 0.676270 0.079233
Si Si4 0.567392 0.327197 0.850376
Si Si5 0.756686 0.667450 0.293641
Si Si6 0.243437 0.337095 0.000313
Si Si7 0.356858 0.674305 0.718471
Si Si8 0.930345 0.829660 0.955495
O O1 0.396955 0.253039 0.912476
O O2 0.294462 0.167153 0.862516
O O3 0.355038 0.000000 0.948575
O O4 0.300939 0.232588 0.992236
O O5 0.693509 0.251288 0.306196
O O6 0.706480 0.157331 0.430928
O O7 0.602687 0.256285 0.390943
O O8 0.643545 0.000000 0.345524
O O9 0.121684 0.500000 0.081036
O O10 0.198557 0.719174 0.059164
O O11 0.116165 0.748745 0.151716
O O12 0.084411 0.743525 0.025005
O O13 0.500000 0.266748 0.850213
O O14 0.569694 0.500000 0.863762
O O15 0.596455 0.287674 0.777922
O O16 0.745216 0.500000 0.268488
O O17 0.792383 0.756599 0.235678
O O18 0.267492 0.500000 0.018053
O O19 0.349724 0.500000 0.707184
O O20 0.000000 0.817026 0.940801
O O21 0.909862 0.000000 0.962702
#
# Coordination Sequence:
#
# PCOD8188487 Si02
#       8
#     8   8   8   8   8   8   8   8
#     4   9  16  25  41  63  82 102 132 173 217 255
#     4   9  16  27  44  64  84 107 138 177 221 263
#     4  10  20  32  45  62  85 115 150 184 218 256
#     4   9  18  31  44  58  81 115 149 177 208 249
#     4   9  16  27  43  62  84 109 139 176 219 263
#     4   8  15  27  42  59  80 106 135 170 213 260
#     4  10  19  30  44  62  86 116 150 185 218 254
#     4  10  20  32  45  62  86 117 151 184 218 258
#
# _framework density 16.094519999999999
#
# number of rings (size 3 to 8) (size 9 to 14) (size 15 to 20)
#    0.000    2.750    0.000    3.000    0.000    8.750 
#    0.000    1.250    0.000    0.000    0.000    0.000 
#    0.000    1.000    0.000    8.750    0.000    5.625 
#
# Total GULP energy -396729.170141 kJ/mol
# GULP energy per Si atom -12397.786567 kJ/mol
# Density = 1.605789 g / cm^3
# Si number density = 16.094520 Si / 1000 Ang^3
#
#
#
# Elastic Constant Matrix: (Units=GPa)
#
#
# Indices 1 2 3 4 5 6 
#
# 1 93.0801 51.5381 27.1445 0.0000 0.0000 0.0000
# 2 51.5381 102.7040 17.1030 0.0000 0.0000 0.0000
# 3 27.1445 17.1030 11.3395 0.0000 0.0000 0.0000
# 4 0.0000 0.0000 0.0000 22.5505 0.0000 0.0000
# 5 0.0000 0.0000 0.0000 0.0000 15.2370 0.0000
# 6 0.0000 0.0000 0.0000 0.0000 0.0000 25.3620
#
#
#
# Elastic Compliance Matrix: (Units=1/GPa)
#
#
# Indices 1 2 3 4 5 6 
#
# 1 0.037536 -0.005172 -0.082053 0.000000 0.000000 0.000000
# 2 -0.005172 0.013715 -0.008306 0.000000 0.000000 0.000000
# 3 -0.082053 -0.008306 0.297133 0.000000 0.000000 0.000000
# 4 0.000000 0.000000 0.000000 0.044345 0.000000 0.000000
# 5 0.000000 0.000000 0.000000 0.000000 0.065630 0.000000
# 6 0.000000 0.000000 0.000000 0.000000 0.000000 0.039429
#
#
# Mechanical properties :
#
#
# Convention : Reuss Voigt Hill
#
# Bulk Modulus (GPa) = 6.35634 44.29942 25.32788
# Shear Modulus (GPa) = 6.74501 20.05243 13.39872
#
# Velocity S-wave (km/s) = 2.04938 3.53358 2.88844
# Velocity P-wave (km/s) = 3.09159 6.65076 5.18606
#
# Compressibility (1/GPa) = 0.15732320
#
# Stress axis : x y z
#
# Youngs Moduli (GPa) = 26.64134 72.91211 3.36550
#
# Poissons Ratio (x) = 0.37709 0.27615
# Poissons Ratio (y) = 0.13779 0.02795
# Poissons Ratio (z) = 2.18599 0.60559
#
# Static dielectric constant tensor:
#      x y z
#    x 3.005820 0.000000 0.000000 
#    y 0.000000 3.276870 0.000000 
#    z 0.000000 0.000000 2.760840 
# 
# 
# High freq. dielectric constant tensor:
#      x y z
#    x 1.600420 0.000000 0.000000 
#    y 0.000000 1.636960 0.000000 
#    z 0.000000 0.000000 1.572730 
# 
# From -- ./inp_files/20884.got.cif
#   From: 2010.03.12/outbox.cif.g09.slc.cpg/sg44_11_cif.got.tgz:20884.got - 2010.04.14 02:36:11.
