data_PCOD8188620
_publ_section_title
;
Structure prediction by ZEFSAII (Michael W. Deem and Ramdas Pophale) SiO2 
 PCOD8188620
Probable space group: I M M 2
;
_chemical_formula_sum "Si O2"
_cell_formula_units_Z 64
_cell_length_a 27.526823
_cell_length_b 9.056928
_cell_length_c 14.510635
_cell_angle_alpha 90.000000
_cell_angle_beta 90.000000
_cell_angle_gamma 90.000000
_cell_volume 3617.623978
_symmetry_space_group_name_H-M "I M M 2"
_symmetry_group_IT_number 44
_symmetry_cell_setting 'orthorhombic'
loop_
_space_group_symop_operation_xyz
x,y,z
-x,-y,z
-x,y,z
x,-y,z
1/2+x,1/2+y,1/2+z
1/2-x,1/2-y,1/2+z
1/2-x,1/2+y,1/2+z
1/2+x,1/2-y,1/2+z
loop_
_atom_site_type_symbol
_atom_site_label
_atom_site_fract_x
_atom_site_fract_y
_atom_site_fract_z
Si Si1 0.720979 0.669866 0.722710
Si Si2 0.132680 0.828685 0.339037
Si Si3 0.443882 0.827723 0.721986
Si Si4 0.670579 0.175837 0.217626
Si Si5 0.274145 0.670117 0.514057
Si Si6 0.824295 0.170566 0.531337
Si Si7 0.635245 0.673029 0.390200
Si Si8 0.444271 0.328124 0.535108
O O1 0.724433 0.500000 0.749754
O O2 0.680045 0.742133 0.787899
O O3 0.774877 0.736444 0.739312
O O4 0.705412 0.693884 0.616995
O O5 0.085189 0.742056 0.306806
O O6 0.137527 0.808617 0.448532
O O7 0.126951 0.000000 0.311717
O O8 0.500000 0.791008 0.739793
O O9 0.426700 0.758697 0.625287
O O10 0.433486 0.000000 0.717621
O O11 0.655209 0.237869 0.117830
O O12 0.634023 0.237681 0.294563
O O13 0.668068 0.000000 0.213470
O O14 0.258571 0.500000 0.500528
O O15 0.227743 0.771867 0.495787
O O16 0.316398 0.718277 0.445097
O O17 0.818823 0.000000 0.559140
O O18 0.634050 0.500000 0.368555
O O19 0.588213 0.721801 0.448540
O O20 0.500000 0.291515 0.510413
O O21 0.436284 0.500000 0.556287
#
# Coordination Sequence:
#
# PCOD8188620 Si02
#       8
#     8   8   8   8   8   8   8   8
#     4   8  15  29  47  69  98 129 161 195 233 282
#     4  10  19  32  52  73  95 128 167 204 242 287
#     4  10  21  35  51  75 105 130 155 195 243 290
#     4  10  20  34  50  68  97 136 170 202 244 291
#     4   9  17  29  46  70 102 135 161 193 242 294
#     4  10  20  33  49  71  99 130 167 209 245 283
#     4  10  19  31  50  75 100 127 165 209 246 285
#     4   9  18  34  55  76 100 131 162 194 239 293
#
# _framework density 17.69117
#
# number of rings (size 3 to 8) (size 9 to 14) (size 15 to 20)
#    0.000    2.500    0.000    3.375    0.000    5.750 
#    0.000    5.625    0.000    0.750    0.000    1.750 
#    0.000    0.000    0.000    0.000    0.000    0.000 
#
# Total GULP energy -396823.402547 kJ/mol
# GULP energy per Si atom -12400.731330 kJ/mol
# Density = 1.765090 g / cm^3
# Si number density = 17.691170 Si / 1000 Ang^3
#
#
#
# Elastic Constant Matrix: (Units=GPa)
#
#
# Indices 1 2 3 4 5 6 
#
# 1 73.5762 43.4190 60.8261 0.0000 0.0000 0.0000
# 2 43.4190 72.7469 53.3658 0.0000 0.0000 0.0000
# 3 60.8261 53.3658 114.7140 0.0000 0.0000 0.0000
# 4 0.0000 0.0000 0.0000 28.4038 0.0000 0.0000
# 5 0.0000 0.0000 0.0000 0.0000 29.3965 0.0000
# 6 0.0000 0.0000 0.0000 0.0000 0.0000 23.2810
#
#
#
# Elastic Compliance Matrix: (Units=1/GPa)
#
#
# Indices 1 2 3 4 5 6 
#
# 1 0.027359 -0.008634 -0.010490 0.000000 0.000000 0.000000
# 2 -0.008634 0.023592 -0.006397 0.000000 0.000000 0.000000
# 3 -0.010490 -0.006397 0.017256 0.000000 0.000000 0.000000
# 4 0.000000 0.000000 0.000000 0.035207 0.000000 0.000000
# 5 0.000000 0.000000 0.000000 0.000000 0.034018 0.000000
# 6 0.000000 0.000000 0.000000 0.000000 0.000000 0.042954
#
#
# Mechanical properties :
#
#
# Convention : Reuss Voigt Hill
#
# Bulk Modulus (GPa) = 58.26072 64.02876 61.14474
# Shear Modulus (GPa) = 21.08385 23.11134 22.09759
#
# Velocity S-wave (km/s) = 3.45595 3.61830 3.53806
# Velocity P-wave (km/s) = 6.99488 7.32989 7.16434
#
# Compressibility (1/GPa) = 0.01716422
#
# Stress axis : x y z
#
# Youngs Moduli (GPa) = 36.55159 42.38676 57.95138
#
# Poissons Ratio (x) = 0.36595 0.60793
# Poissons Ratio (y) = 0.31557 0.37074
# Poissons Ratio (z) = 0.38344 0.27117
#
# Static dielectric constant tensor:
#      x y z
#    x 3.213080 0.000000 0.000000 
#    y 0.000000 3.150690 0.000000 
#    z 0.000000 0.000000 3.270600 
# 
# 
# High freq. dielectric constant tensor:
#      x y z
#    x 1.661900 0.000000 0.000000 
#    y 0.000000 1.674560 0.000000 
#    z 0.000000 0.000000 1.685590 
# 
# From -- ./inp_files/19461.got.cif
#   From: 2010.03.12/outbox.cif.g09.slc.cpg/sg44_10_cif.got.tgz:19461.got - 2010.04.14 02:36:11.
