data_PCOD8188376
_publ_section_title
;
Structure prediction by ZEFSAII (Michael W. Deem and Ramdas Pophale) SiO2 
 PCOD8188376
Probable space group: I M M 2
;
_chemical_formula_sum "Si O2"
_cell_formula_units_Z 64
_cell_length_a 22.884315
_cell_length_b 13.536480
_cell_length_c 11.417769
_cell_angle_alpha 90.000000
_cell_angle_beta 90.000000
_cell_angle_gamma 90.000000
_cell_volume 3536.917382
_symmetry_space_group_name_H-M "I M M 2"
_symmetry_group_IT_number 44
_symmetry_cell_setting 'orthorhombic'
loop_
_space_group_symop_operation_xyz
x,y,z
-x,-y,z
-x,y,z
x,-y,z
1/2+x,1/2+y,1/2+z
1/2-x,1/2-y,1/2+z
1/2-x,1/2+y,1/2+z
1/2+x,1/2-y,1/2+z
loop_
_atom_site_type_symbol
_atom_site_label
_atom_site_fract_x
_atom_site_fract_y
_atom_site_fract_z
Si Si1 0.568054 0.796683 0.817550
Si Si2 0.326871 0.792549 0.453631
Si Si3 0.567654 0.884856 0.572574
Si Si4 0.283084 0.387738 0.052450
Si Si5 0.216916 0.112262 0.082650
Si Si6 0.146367 0.888644 0.317550
Si Si7 0.326871 0.207451 0.181469
Si Si8 0.567654 0.115144 0.062526
O O1 0.500000 0.780277 0.817550
O O2 0.587599 0.858802 0.704387
O O3 0.593442 0.686970 0.817550
O O4 0.587599 0.858802 0.930713
O O5 0.393575 0.821343 0.482682
O O6 0.284719 0.859704 0.534253
O O7 0.314171 0.678023 0.483227
O O8 0.315127 0.811735 0.317550
O O9 0.500000 0.856707 0.551009
O O10 0.578299 0.000000 0.549953
O O11 0.287625 0.500000 0.095517
O O12 0.314328 0.368897 0.929851
O O13 0.314171 0.321977 0.151873
O O14 0.185672 0.131103 0.205249
O O15 0.284719 0.140296 0.100847
O O16 0.212375 0.000000 0.039583
O O17 0.120992 0.000000 0.317550
O O18 0.393575 0.178657 0.152418
O O19 0.500000 0.143293 0.084091
O O20 0.578299 0.000000 0.085147
#
# Coordination Sequence:
#
# PCOD8188376 Si02
#       8
#     8   8   8   8   8   8   8   8
#     4  10  19  35  56  81 111 143 182 226 271 316
#     4  11  22  36  57  81 110 145 181 221 268 324
#     4  10  21  36  55  80 110 145 183 224 270 320
#     4  10  21  37  56  81 111 141 176 221 273 326
#     4  10  21  37  56  81 111 141 176 221 273 326
#     4  10  18  34  59  82 107 139 177 224 274 321
#     4  11  22  36  57  81 110 145 181 221 268 324
#     4  10  21  36  55  80 110 145 183 224 270 320
#
# _framework density 18.094853000000001
#
# number of rings (size 3 to 8) (size 9 to 14) (size 15 to 20)
#    0.000    1.750    3.750    1.125    0.000    4.250 
#    0.000    1.250    0.000    0.750    0.000    1.750 
#    0.000    0.000    0.000    0.000    0.000    0.000 
#
# Total GULP energy -396885.706604 kJ/mol
# GULP energy per Si atom -12402.678331 kJ/mol
# Density = 1.805367 g / cm^3
# Si number density = 18.094853 Si / 1000 Ang^3
#
#
#
# Elastic Constant Matrix: (Units=GPa)
#
#
# Indices 1 2 3 4 5 6 
#
# 1 66.5761 52.5468 38.6371 0.0000 0.0000 0.0000
# 2 52.5468 109.5231 29.5879 0.0000 0.0000 0.0000
# 3 38.6371 29.5879 60.4183 0.0000 0.0000 0.0000
# 4 0.0000 0.0000 0.0000 27.5245 0.0000 0.0000
# 5 0.0000 0.0000 0.0000 0.0000 25.9721 0.0000
# 6 0.0000 0.0000 0.0000 0.0000 0.0000 30.2884
#
#
#
# Elastic Compliance Matrix: (Units=1/GPa)
#
#
# Indices 1 2 3 4 5 6 
#
# 1 0.033366 -0.011806 -0.015556 0.000000 0.000000 0.000000
# 2 -0.011806 0.014700 0.000351 0.000000 0.000000 0.000000
# 3 -0.015556 0.000351 0.026327 0.000000 0.000000 0.000000
# 4 0.000000 0.000000 0.000000 0.036331 0.000000 0.000000
# 5 0.000000 0.000000 0.000000 0.000000 0.038503 0.000000
# 6 0.000000 0.000000 0.000000 0.000000 0.000000 0.033016
#
#
# Mechanical properties :
#
#
# Convention : Reuss Voigt Hill
#
# Bulk Modulus (GPa) = 49.08756 53.11789 51.10272
# Shear Modulus (GPa) = 20.57139 24.47341 22.52240
#
# Velocity S-wave (km/s) = 3.37540 3.68163 3.53184
# Velocity P-wave (km/s) = 6.50983 6.89141 6.70334
#
# Compressibility (1/GPa) = 0.02037176
#
# Stress axis : x y z
#
# Youngs Moduli (GPa) = 29.97027 68.02763 37.98332
#
# Poissons Ratio (x) = 0.80313 0.59087
# Poissons Ratio (y) = 0.35383 -0.01333
# Poissons Ratio (z) = 0.46622 -0.02388
#
# Static dielectric constant tensor:
#      x y z
#    x 3.293830 0.000000 0.000000 
#    y 0.000000 3.368450 0.000000 
#    z 0.000000 0.000000 3.272630 
# 
# 
# High freq. dielectric constant tensor:
#      x y z
#    x 1.699480 0.000000 0.000000 
#    y 0.000000 1.703960 0.000000 
#    z 0.000000 0.000000 1.693490 
# 
# From -- ./inp_files/14695.got.cif
#   From: 2010.03.12/outbox.cif.g09.slc.cpg/sg44_8_cif.got.tgz:14695.got - 2010.04.14 02:36:11.
