data_PCOD8188655
_publ_section_title
;
Structure prediction by ZEFSAII (Michael W. Deem and Ramdas Pophale) SiO2 
 PCOD8188655
Probable space group: I M M 2
;
_chemical_formula_sum "Si O2"
_cell_formula_units_Z 56
_cell_length_a 23.098790
_cell_length_b 8.895865
_cell_length_c 14.217747
_cell_angle_alpha 90.000000
_cell_angle_beta 90.000000
_cell_angle_gamma 90.000000
_cell_volume 2921.515508
_symmetry_space_group_name_H-M "I M M 2"
_symmetry_group_IT_number 44
_symmetry_cell_setting 'orthorhombic'
loop_
_space_group_symop_operation_xyz
x,y,z
-x,-y,z
-x,y,z
x,-y,z
1/2+x,1/2+y,1/2+z
1/2-x,1/2-y,1/2+z
1/2-x,1/2+y,1/2+z
1/2+x,1/2-y,1/2+z
loop_
_atom_site_type_symbol
_atom_site_label
_atom_site_fract_x
_atom_site_fract_y
_atom_site_fract_z
Si Si1 0.224155 0.327247 0.435840
Si Si2 0.655796 0.176451 0.437120
Si Si3 0.112714 0.177147 0.112809
Si Si4 0.000000 0.177680 0.227327
Si Si5 0.337057 0.174782 0.226618
Si Si6 0.111521 0.675394 0.537598
Si Si7 0.500000 0.820094 0.931706
Si Si8 0.717900 0.828174 0.717364
O O1 0.238049 0.500000 0.462823
O O2 0.279349 0.227654 0.462787
O O3 0.170334 0.258644 0.493304
O O4 0.206812 0.312602 0.327659
O O5 0.610442 0.255012 0.507363
O O6 0.641056 0.226014 0.329758
O O7 0.650583 0.000000 0.450696
O O8 0.056173 0.230783 0.169352
O O9 0.169905 0.232033 0.164963
O O10 0.114085 0.000000 0.104145
O O11 0.000000 0.261006 0.326369
O O12 0.000000 0.000000 0.244895
O O13 0.387872 0.205416 0.150332
O O14 0.281130 0.265978 0.192663
O O15 0.319406 0.000000 0.229248
O O16 0.110827 0.500000 0.515041
O O17 0.055222 0.746475 0.488365
O O18 0.500000 0.000000 0.930240
O O19 0.713426 0.000000 0.683548
#
# Coordination Sequence:
#
# PCOD8188655 Si02
#       8
#     8   8   8   4   8   8   4   8
#     4   9  17  30  50  77 109 141 169 204 256 316
#     4  10  20  33  51  78 107 135 173 219 261 306
#     4  11  22  37  55  73 100 140 179 218 267 316
#     4  10  24  42  57  76 102 134 173 214 261 318
#     4   9  18  33  52  77 111 145 174 209 257 312
#     4   9  17  31  52  76 102 136 174 208 251 307
#     4  10  20  36  59  82 104 134 173 216 257 302
#     4  10  19  31  51  82 112 137 173 217 260 311
#
# _framework density 19.168134999999999
#
# number of rings (size 3 to 8) (size 9 to 14) (size 15 to 20)
#    0.000    2.286    0.000    3.000    0.000    4.571 
#    0.000    2.143    0.000    1.714    0.000    0.000 
#    0.000    0.000    0.000    0.000    0.000    0.000 
#
# Total GULP energy -347191.104193 kJ/mol
# GULP energy per Si atom -12399.682293 kJ/mol
# Density = 1.912451 g / cm^3
# Si number density = 19.168135 Si / 1000 Ang^3
#
#
#
# Elastic Constant Matrix: (Units=GPa)
#
#
# Indices 1 2 3 4 5 6 
#
# 1 93.2790 32.7254 89.7345 0.0000 0.0000 0.0000
# 2 32.7254 52.1733 36.2496 0.0000 0.0000 0.0000
# 3 89.7345 36.2496 136.0654 0.0000 0.0000 0.0000
# 4 0.0000 0.0000 0.0000 27.8746 0.0000 0.0000
# 5 0.0000 0.0000 0.0000 0.0000 35.2196 0.0000
# 6 0.0000 0.0000 0.0000 0.0000 0.0000 17.9097
#
#
#
# Elastic Compliance Matrix: (Units=1/GPa)
#
#
# Indices 1 2 3 4 5 6 
#
# 1 0.030988 -0.006428 -0.018724 0.000000 0.000000 0.000000
# 2 -0.006428 0.024854 -0.002382 0.000000 0.000000 0.000000
# 3 -0.018724 -0.002382 0.020333 0.000000 0.000000 0.000000
# 4 0.000000 0.000000 0.000000 0.035875 0.000000 0.000000
# 5 0.000000 0.000000 0.000000 0.000000 0.028393 0.000000
# 6 0.000000 0.000000 0.000000 0.000000 0.000000 0.055836
#
#
# Mechanical properties :
#
#
# Convention : Reuss Voigt Hill
#
# Bulk Modulus (GPa) = 47.37945 66.54852 56.96399
# Shear Modulus (GPa) = 19.35112 24.38798 21.86955
#
# Velocity S-wave (km/s) = 3.18078 3.57083 3.38143
# Velocity P-wave (km/s) = 6.18557 7.19686 6.71029
#
# Compressibility (1/GPa) = 0.02110620
#
# Stress axis : x y z
#
# Youngs Moduli (GPa) = 32.27020 40.23516 49.18207
#
# Poissons Ratio (x) = 0.25863 0.92090
# Poissons Ratio (y) = 0.20743 0.11716
# Poissons Ratio (z) = 0.60423 0.09585
#
# Static dielectric constant tensor:
#      x y z
#    x 3.496380 0.000000 0.000000 
#    y 0.000000 3.363460 0.000000 
#    z 0.000000 0.000000 3.808130 
# 
# 
# High freq. dielectric constant tensor:
#      x y z
#    x 1.724950 0.000000 0.000000 
#    y 0.000000 1.729150 0.000000 
#    z 0.000000 0.000000 1.765850 
# 
# From -- ./inp_files/19223.got.cif
#   From: 2010.03.12/outbox.cif.g09.slc.cpg/sg44_10_cif.got.tgz:19223.got - 2010.04.14 02:36:11.
