data_PCOD8188811
_publ_section_title
;
Structure prediction by ZEFSAII (Michael W. Deem and Ramdas Pophale) SiO2 
 PCOD8188811
Probable space group: I M M 2
;
_chemical_formula_sum "Si O2"
_cell_formula_units_Z 48
_cell_length_a 9.159457
_cell_length_b 7.908963
_cell_length_c 34.112671
_cell_angle_alpha 90.000000
_cell_angle_beta 90.000000
_cell_angle_gamma 90.000000
_cell_volume 2471.183512
_symmetry_space_group_name_H-M "I M M 2"
_symmetry_group_IT_number 44
_symmetry_cell_setting 'orthorhombic'
loop_
_space_group_symop_operation_xyz
x,y,z
-x,-y,z
-x,y,z
x,-y,z
1/2+x,1/2+y,1/2+z
1/2-x,1/2-y,1/2+z
1/2-x,1/2+y,1/2+z
1/2+x,1/2-y,1/2+z
loop_
_atom_site_type_symbol
_atom_site_label
_atom_site_fract_x
_atom_site_fract_y
_atom_site_fract_z
Si Si1 0.333018 0.196612 0.042440
Si Si2 0.671144 0.307111 0.462371
Si Si3 0.325297 0.000000 0.320605
Si Si4 0.172800 0.500000 0.908540
Si Si5 0.836208 0.307779 0.116600
Si Si6 0.826564 0.186210 0.770784
Si Si7 0.337582 0.807875 0.188962
O O1 0.500000 0.256751 0.039755
O O2 0.253491 0.297316 0.076616
O O3 0.321644 0.000000 0.052543
O O4 0.255727 0.239516 0.001747
O O5 0.500000 0.286875 0.470911
O O6 0.706680 0.500000 0.448590
O O7 0.725304 0.172278 0.429983
O O8 0.263224 0.168375 0.299230
O O9 0.500000 0.000000 0.320782
O O10 0.262318 0.000000 0.364736
O O11 0.000000 0.500000 0.906651
O O12 0.838245 0.500000 0.130756
O O13 0.763633 0.201073 0.151065
O O14 0.000000 0.239239 0.109406
O O15 0.770477 0.207099 0.726013
O O16 0.000000 0.203484 0.770013
O O17 0.778402 0.000000 0.786074
O O18 0.500000 0.740189 0.178006
O O19 0.347677 0.000000 0.203052
#
# Coordination Sequence:
#
# PCOD8188811 Si02
#       7
#     8   8   4   4   8   8   8
#     4  10  21  37  56  78 103 134 176 224 272 321
#     4   9  18  33  52  75 106 143 178 218 271 324
#     4   9  16  28  44  73 109 139 177 223 269 323
#     4   9  18  30  49  75 107 143 181 223 267 323
#     4  11  24  37  50  74 107 141 178 221 267 320
#     4   9  16  27  46  72 105 143 177 217 269 317
#     4  10  19  33  53  76 104 138 180 227 271 318
#
# _framework density 19.423891999999999
#
# number of rings (size 3 to 8) (size 9 to 14) (size 15 to 20)
#    0.000    2.333    0.833    2.000    1.167    6.000 
#    0.000    3.333    0.000    0.000    0.000    2.333 
#    0.000    2.667    0.000    0.000    0.000    0.000 
#
# Total GULP energy -297564.313790 kJ/mol
# GULP energy per Si atom -12398.513075 kJ/mol
# Density = 1.937968 g / cm^3
# Si number density = 19.423892 Si / 1000 Ang^3
#
#
#
# Elastic Constant Matrix: (Units=GPa)
#
#
# Indices 1 2 3 4 5 6 
#
# 1 64.9203 24.3441 43.7179 0.0000 0.0000 0.0000
# 2 24.3441 119.7122 69.5861 -0.0001 0.0000 0.0000
# 3 43.7179 69.5861 147.9241 -0.0001 0.0000 0.0000
# 4 0.0000 -0.0001 -0.0001 30.7566 0.0000 0.0000
# 5 0.0000 0.0000 0.0000 0.0000 18.0239 0.0000
# 6 0.0000 0.0000 0.0000 0.0000 0.0000 15.1103
#
#
#
# Elastic Compliance Matrix: (Units=1/GPa)
#
#
# Indices 1 2 3 4 5 6 
#
# 1 0.019292 -0.000838 -0.005307 0.000000 0.000000 0.000000
# 2 -0.000838 0.011534 -0.005178 0.000000 0.000000 0.000000
# 3 -0.005307 -0.005178 0.010765 0.000000 0.000000 0.000000
# 4 0.000000 0.000000 0.000000 0.032513 0.000000 0.000000
# 5 0.000000 0.000000 0.000000 0.000000 0.055482 0.000000
# 6 0.000000 0.000000 0.000000 0.000000 0.000000 0.066180
#
#
# Mechanical properties :
#
#
# Convention : Reuss Voigt Hill
#
# Bulk Modulus (GPa) = 52.78907 67.53920 60.16414
# Shear Modulus (GPa) = 22.24930 25.77206 24.01068
#
# Velocity S-wave (km/s) = 3.38814 3.64651 3.51969
# Velocity P-wave (km/s) = 6.52245 7.25093 6.89632
#
# Compressibility (1/GPa) = 0.01894331
#
# Stress axis : x y z
#
# Youngs Moduli (GPa) = 51.83567 86.70315 92.89759
#
# Poissons Ratio (x) = 0.07266 0.49303
# Poissons Ratio (y) = 0.04344 0.48102
# Poissons Ratio (z) = 0.27511 0.44894
#
# Static dielectric constant tensor:
#      x y z
#    x 3.221730 0.000000 0.000000 
#    y 0.000000 3.679250 0.000000 
#    z 0.000000 0.000000 3.539780 
# 
# 
# High freq. dielectric constant tensor:
#      x y z
#    x 1.711530 0.000000 0.000000 
#    y 0.000000 1.768000 0.000000 
#    z 0.000000 0.000000 1.753450 
# 
# From -- ./inp_files/26890.got.cif
#   From: 2010.03.12/outbox.cif.g09.slc.cpg/sg44_14_cif.got.tgz:26890.got - 2010.04.14 02:36:11.
