data_PCOD8188679
_publ_section_title
;
Structure prediction by ZEFSAII (Michael W. Deem and Ramdas Pophale) SiO2 
 PCOD8188679
Probable space group: I M M 2
;
_chemical_formula_sum "Si O2"
_cell_formula_units_Z 64
_cell_length_a 30.043971
_cell_length_b 8.891931
_cell_length_c 14.247471
_cell_angle_alpha 90.000000
_cell_angle_beta 90.000000
_cell_angle_gamma 90.000000
_cell_volume 3806.196449
_symmetry_space_group_name_H-M "I M M 2"
_symmetry_group_IT_number 44
_symmetry_cell_setting 'orthorhombic'
loop_
_space_group_symop_operation_xyz
x,y,z
-x,-y,z
-x,y,z
x,-y,z
1/2+x,1/2+y,1/2+z
1/2-x,1/2-y,1/2+z
1/2-x,1/2+y,1/2+z
1/2+x,1/2-y,1/2+z
loop_
_atom_site_type_symbol
_atom_site_label
_atom_site_fract_x
_atom_site_fract_y
_atom_site_fract_z
Si Si1 0.223761 0.674026 0.516290
Si Si2 0.289073 0.822984 0.230807
Si Si3 0.949506 0.825582 0.111264
Si Si4 0.324235 0.667905 0.530767
Si Si5 0.198723 0.177301 0.333117
Si Si6 0.630184 0.330165 0.334921
Si Si7 0.449477 0.825814 0.410745
Si Si8 0.868694 0.676466 0.198206
O O1 0.212099 0.500000 0.498862
O O2 0.212229 0.722745 0.621840
O O3 0.275239 0.708396 0.496434
O O4 0.197266 0.775416 0.442140
O O5 0.244050 0.765184 0.281931
O O6 0.332914 0.747502 0.271587
O O7 0.293188 0.000000 0.244986
O O8 0.917694 0.748589 0.187987
O O9 0.000000 0.802587 0.145927
O O10 0.936808 0.000000 0.102191
O O11 0.941898 0.753286 0.010097
O O12 0.324343 0.500000 0.576511
O O13 0.356321 0.674906 0.442979
O O14 0.339762 0.788761 0.606137
O O15 0.155738 0.254210 0.287778
O O16 0.194167 0.000000 0.323372
O O17 0.623865 0.500000 0.299037
O O18 0.582878 0.243667 0.330894
O O19 0.500000 0.801621 0.375709
O O20 0.438041 0.000000 0.424345
O O21 0.873618 0.500000 0.211844
#
# Coordination Sequence:
#
# PCOD8188679 Si02
#       8
#     8   8   8   8   8   8   8   8
#     4  10  20  37  53  71 102 138 176 220 259 299
#     4  10  21  35  52  73 103 139 176 217 259 304
#     4  10  20  34  52  74 103 137 171 211 259 308
#     4  10  19  32  49  72 105 140 174 215 256 297
#     4  11  22  36  53  75 103 137 176 217 258 305
#     4  11  21  32  51  75 104 140 176 215 256 307
#     4  10  20  33  50  74 104 136 172 213 257 310
#     4  12  23  33  51  76 104 141 178 213 254 308
#
# _framework density 16.814686999999999
#
# number of rings (size 3 to 8) (size 9 to 14) (size 15 to 20)
#    0.000    1.500    3.750    2.625    0.000    3.500 
#    0.000    0.000    0.000    0.000    0.000    0.875 
#    0.000    1.000    0.000    0.000    0.000    0.000 
#
# Total GULP energy -396848.885612 kJ/mol
# GULP energy per Si atom -12401.527675 kJ/mol
# Density = 1.677642 g / cm^3
# Si number density = 16.814687 Si / 1000 Ang^3
#
#
#
# Elastic Constant Matrix: (Units=GPa)
#
#
# Indices 1 2 3 4 5 6 
#
# 1 107.3296 52.5670 32.0724 0.0000 0.0000 0.0000
# 2 52.5670 95.5972 38.5004 0.0000 0.0000 0.0000
# 3 32.0724 38.5004 64.1217 0.0000 0.0000 0.0000
# 4 0.0000 0.0000 0.0000 26.8497 0.0000 0.0000
# 5 0.0000 0.0000 0.0000 0.0000 26.5037 0.0000
# 6 0.0000 0.0000 0.0000 0.0000 0.0000 27.8093
#
#
#
# Elastic Compliance Matrix: (Units=1/GPa)
#
#
# Indices 1 2 3 4 5 6 
#
# 1 0.013161 -0.006049 -0.002951 0.000000 0.000000 0.000000
# 2 -0.006049 0.016577 -0.006928 0.000000 0.000000 0.000000
# 3 -0.002951 -0.006928 0.021231 0.000000 0.000000 0.000000
# 4 0.000000 0.000000 0.000000 0.037244 0.000000 0.000000
# 5 0.000000 0.000000 0.000000 0.000000 0.037731 0.000000
# 6 0.000000 0.000000 0.000000 0.000000 0.000000 0.035959
#
#
# Mechanical properties :
#
#
# Convention : Reuss Voigt Hill
#
# Bulk Modulus (GPa) = 52.31782 57.03645 54.67713
# Shear Modulus (GPa) = 24.98381 25.82647 25.40514
#
# Velocity S-wave (km/s) = 3.85883 3.92337 3.89123
# Velocity P-wave (km/s) = 7.14395 7.38363 7.26478
#
# Compressibility (1/GPa) = 0.01911395
#
# Stress axis : x y z
#
# Youngs Moduli (GPa) = 75.97940 60.32618 47.10071
#
# Poissons Ratio (x) = 0.36489 0.13901
# Poissons Ratio (y) = 0.45957 0.32630
# Poissons Ratio (z) = 0.22424 0.41792
#
# Static dielectric constant tensor:
#      x y z
#    x 3.272010 0.000000 0.000000 
#    y 0.000000 3.226160 0.000000 
#    z 0.000000 0.000000 2.925660 
# 
# 
# High freq. dielectric constant tensor:
#      x y z
#    x 1.647460 0.000000 0.000000 
#    y 0.000000 1.658260 0.000000 
#    z 0.000000 0.000000 1.616280 
# 
# From -- ./inp_files/17083.got.cif
#   From: 2010.03.12/outbox.cif.g09.slc.cpg/sg44_9_cif.got.tgz:17083.got - 2010.04.14 02:36:11.
