data_PCOD8188618
_publ_section_title
;
Structure prediction by ZEFSAII (Michael W. Deem and Ramdas Pophale) SiO2 
 PCOD8188618
Probable space group: I M M 2
;
_chemical_formula_sum "Si O2"
_cell_formula_units_Z 64
_cell_length_a 19.633291
_cell_length_b 8.885166
_cell_length_c 20.998813
_cell_angle_alpha 90.000000
_cell_angle_beta 90.000000
_cell_angle_gamma 90.000000
_cell_volume 3663.138977
_symmetry_space_group_name_H-M "I M M 2"
_symmetry_group_IT_number 44
_symmetry_cell_setting 'orthorhombic'
loop_
_space_group_symop_operation_xyz
x,y,z
-x,-y,z
-x,y,z
x,-y,z
1/2+x,1/2+y,1/2+z
1/2-x,1/2-y,1/2+z
1/2-x,1/2+y,1/2+z
1/2+x,1/2-y,1/2+z
loop_
_atom_site_type_symbol
_atom_site_label
_atom_site_fract_x
_atom_site_fract_y
_atom_site_fract_z
Si Si1 0.794894 0.321339 0.842830
Si Si2 0.422804 0.174837 0.525233
Si Si3 0.718000 0.174866 0.960521
Si Si4 0.073960 0.821955 0.280786
Si Si5 0.710528 0.677743 0.723850
Si Si6 0.076986 0.823308 0.890896
Si Si7 0.075166 0.672486 0.413368
Si Si8 0.799552 0.822830 0.083577
O O1 0.797246 0.500000 0.844771
O O2 0.752425 0.265849 0.903530
O O3 0.761786 0.258232 0.777322
O O4 0.871585 0.257493 0.842647
O O5 0.500000 0.203478 0.548695
O O6 0.406898 0.266497 0.461490
O O7 0.371408 0.236479 0.578274
O O8 0.409727 0.000000 0.511321
O O9 0.636357 0.204825 0.963153
O O10 0.734598 0.000000 0.949279
O O11 0.747682 0.229094 0.028381
O O12 0.134178 0.758012 0.236324
O O13 0.088873 0.776122 0.352993
O O14 0.000000 0.758057 0.258473
O O15 0.072971 0.000000 0.278477
O O16 0.709191 0.500000 0.731942
O O17 0.732691 0.722846 0.652168
O O18 0.000000 0.781522 0.870660
O O19 0.089714 0.000000 0.889489
O O20 0.078316 0.500000 0.390530
O O21 0.000000 0.707075 0.443545
O O22 0.814357 0.000000 0.080959
#
# Coordination Sequence:
#
# PCOD8188618 Si02
#       8
#     8   8   8   8   8   8   8   8
#     4  11  20  32  53  77 103 132 167 214 259 302
#     4  10  20  33  49  73 105 137 171 211 254 300
#     4  10  19  31  50  74  98 129 170 214 254 300
#     4   9  16  28  46  67  93 126 164 200 237 290
#     4   9  19  33  48  72 102 135 170 207 253 301
#     4  10  20  34  53  77 103 132 169 210 255 309
#     4   9  17  29  46  70  98 125 157 203 256 299
#     4  10  20  34  51  71 100 137 176 211 249 304
#
# _framework density 17.471354000000002
#
# number of rings (size 3 to 8) (size 9 to 14) (size 15 to 20)
#    0.000    2.250    2.500    1.125    0.000    2.000 
#    0.000    3.125    0.000    2.250    0.000    3.500 
#    0.000    2.000    0.000    0.000    0.000    0.000 
#
# Total GULP energy -396647.661885 kJ/mol
# GULP energy per Si atom -12395.239434 kJ/mol
# Density = 1.743159 g / cm^3
# Si number density = 17.471354 Si / 1000 Ang^3
#
#
#
# Elastic Constant Matrix: (Units=GPa)
#
#
# Indices 1 2 3 4 5 6 
#
# 1 127.3884 30.2416 72.8103 0.0000 0.0000 0.0000
# 2 30.2416 38.8999 26.9948 0.0000 0.0000 0.0000
# 3 72.8103 26.9948 121.1990 0.0000 0.0000 0.0000
# 4 0.0000 0.0000 0.0000 18.2955 0.0000 0.0000
# 5 0.0000 0.0000 0.0000 0.0000 25.3021 0.0000
# 6 0.0000 0.0000 0.0000 0.0000 0.0000 24.1442
#
#
#
# Elastic Compliance Matrix: (Units=1/GPa)
#
#
# Indices 1 2 3 4 5 6 
#
# 1 0.012875 -0.005491 -0.006512 0.000000 0.000000 0.000000
# 2 -0.005491 0.032748 -0.003996 0.000000 0.000000 0.000000
# 3 -0.006512 -0.003996 0.013053 0.000000 0.000000 0.000000
# 4 0.000000 0.000000 0.000000 0.054658 0.000000 0.000000
# 5 0.000000 0.000000 0.000000 0.000000 0.039522 0.000000
# 6 0.000000 0.000000 0.000000 0.000000 0.000000 0.041418
#
#
# Mechanical properties :
#
#
# Convention : Reuss Voigt Hill
#
# Bulk Modulus (GPa) = 37.48090 60.84230 49.16160
# Shear Modulus (GPa) = 21.26167 24.04440 22.65304
#
# Velocity S-wave (km/s) = 3.49226 3.71377 3.60471
# Velocity P-wave (km/s) = 6.14496 7.29994 6.74721
#
# Compressibility (1/GPa) = 0.02668026
#
# Stress axis : x y z
#
# Youngs Moduli (GPa) = 77.66704 30.53598 76.61126
#
# Poissons Ratio (x) = 0.16766 0.49889
# Poissons Ratio (y) = 0.42644 0.30611
# Poissons Ratio (z) = 0.50577 0.12201
#
# Static dielectric constant tensor:
#      x y z
#    x 3.670290 0.000000 0.000000 
#    y 0.000000 3.136560 0.000000 
#    z 0.000000 0.000000 3.145280 
# 
# 
# High freq. dielectric constant tensor:
#      x y z
#    x 1.685530 0.000000 0.000000 
#    y 0.000000 1.665360 0.000000 
#    z 0.000000 0.000000 1.644330 
# 
# From -- ./inp_files/20729.got.cif
#   From: 2010.03.12/outbox.cif.g09.slc.cpg/sg44_11_cif.got.tgz:20729.got - 2010.04.14 02:36:11.
