data_PCOD8188149
_publ_section_title
;
Structure prediction by ZEFSAII (Michael W. Deem and Ramdas Pophale) SiO2 
 PCOD8188149
Probable space group: I M M 2
;
_chemical_formula_sum "Si O2"
_cell_formula_units_Z 64
_cell_length_a 30.184967
_cell_length_b 8.946244
_cell_length_c 14.311835
_cell_angle_alpha 90.000000
_cell_angle_beta 90.000000
_cell_angle_gamma 90.000000
_cell_volume 3864.797691
_symmetry_space_group_name_H-M "I M M 2"
_symmetry_group_IT_number 44
_symmetry_cell_setting 'orthorhombic'
loop_
_space_group_symop_operation_xyz
x,y,z
-x,-y,z
-x,y,z
x,-y,z
1/2+x,1/2+y,1/2+z
1/2-x,1/2-y,1/2+z
1/2-x,1/2+y,1/2+z
1/2+x,1/2-y,1/2+z
loop_
_atom_site_type_symbol
_atom_site_label
_atom_site_fract_x
_atom_site_fract_y
_atom_site_fract_z
Si Si1 0.724301 0.331717 0.498120
Si Si2 0.365744 0.826321 0.167070
Si Si3 0.050277 0.675703 0.356026
Si Si4 0.364550 0.675475 0.802426
Si Si5 0.199420 0.175197 0.797447
Si Si6 0.786761 0.676700 0.190634
Si Si7 0.174703 0.667005 0.472548
Si Si8 0.451743 0.177648 0.069166
O O1 0.712867 0.500000 0.532628
O O2 0.695882 0.284579 0.407324
O O3 0.717055 0.216331 0.581439
O O4 0.773376 0.327009 0.456087
O O5 0.345531 0.741537 0.254931
O O6 0.414571 0.762457 0.140956
O O7 0.367911 0.000000 0.192199
O O8 0.333904 0.793839 0.079811
O O9 0.057657 0.500000 0.343913
O O10 0.085294 0.762333 0.290067
O O11 0.059002 0.726598 0.463208
O O12 0.000000 0.718950 0.326942
O O13 0.364447 0.500000 0.785461
O O14 0.331733 0.750803 0.728426
O O15 0.348735 0.713286 0.906890
O O16 0.243826 0.239895 0.746811
O O17 0.199474 0.000000 0.780950
O O18 0.790721 0.500000 0.202443
O O19 0.156208 0.500000 0.449238
O O20 0.500000 0.239717 0.099941
O O21 0.451918 0.000000 0.070903
#
# Coordination Sequence:
#
# PCOD8188149 Si02
#       8
#     8   8   8   8   8   8   8   8
#     4  10  20  36  51  68  98 133 166 210 253 290
#     4  10  18  29  49  72  97 130 168 207 242 290
#     4   9  17  32  53  73  98 133 169 206 252 303
#     4  12  23  32  48  74 104 138 172 207 248 299
#     4  10  21  34  49  70 100 132 164 204 252 301
#     4  11  22  36  52  72  98 131 171 209 247 300
#     4  10  18  31  49  70 100 134 170 207 246 294
#     4   8  14  26  46  71  97 128 165 202 242 289
#
# _framework density 16.559728
#
# number of rings (size 3 to 8) (size 9 to 14) (size 15 to 20)
#    0.000    2.000    3.750    2.250    0.000    2.250 
#    0.000    0.000    0.000    0.375    0.000    0.875 
#    0.000    3.000    0.000    0.000    0.000    0.000 
#
# Total GULP energy -396696.851245 kJ/mol
# GULP energy per Si atom -12396.776601 kJ/mol
# Density = 1.652204 g / cm^3
# Si number density = 16.559728 Si / 1000 Ang^3
#
#
#
# Elastic Constant Matrix: (Units=GPa)
#
#
# Indices 1 2 3 4 5 6 
#
# 1 104.9904 31.8567 36.4957 0.0000 0.0000 0.0000
# 2 31.8567 56.7891 29.0040 0.0000 0.0000 0.0000
# 3 36.4957 29.0040 57.6476 0.0000 0.0000 0.0000
# 4 0.0000 0.0000 0.0000 26.9307 0.0000 0.0000
# 5 0.0000 0.0000 0.0000 0.0000 27.3379 0.0000
# 6 0.0000 0.0000 0.0000 0.0000 0.0000 22.9180
#
#
#
# Elastic Compliance Matrix: (Units=1/GPa)
#
#
# Indices 1 2 3 4 5 6 
#
# 1 0.012892 -0.004123 -0.006087 0.000000 0.000000 0.000000
# 2 -0.004123 0.025017 -0.009977 0.000000 0.000000 0.000000
# 3 -0.006087 -0.009977 0.026220 0.000000 0.000000 0.000000
# 4 0.000000 0.000000 0.000000 0.037132 0.000000 0.000000
# 5 0.000000 0.000000 0.000000 0.000000 0.036579 0.000000
# 6 0.000000 0.000000 0.000000 0.000000 0.000000 0.043634
#
#
# Mechanical properties :
#
#
# Convention : Reuss Voigt Hill
#
# Bulk Modulus (GPa) = 42.09570 46.01556 44.05563
# Shear Modulus (GPa) = 21.76127 23.57538 22.66832
#
# Velocity S-wave (km/s) = 3.62900 3.77723 3.70386
# Velocity P-wave (km/s) = 6.56012 6.84626 6.70472
#
# Compressibility (1/GPa) = 0.02375540
#
# Stress axis : x y z
#
# Youngs Moduli (GPa) = 77.56995 39.97250 38.13883
#
# Poissons Ratio (x) = 0.16480 0.23216
# Poissons Ratio (y) = 0.31981 0.38050
# Poissons Ratio (z) = 0.47218 0.39879
#
# Static dielectric constant tensor:
#      x y z
#    x 3.388200 0.000000 0.000000 
#    y 0.000000 2.914070 0.000000 
#    z 0.000000 0.000000 2.904390 
# 
# 
# High freq. dielectric constant tensor:
#      x y z
#    x 1.637440 0.000000 0.000000 
#    y 0.000000 1.620270 0.000000 
#    z 0.000000 0.000000 1.609810 
# 
# From -- ./inp_files/17070.got.cif
#   From: 2010.03.12/outbox.cif.g09.slc.cpg/sg44_9_cif.got.tgz:17070.got - 2010.04.14 02:36:11.
