data_PCOD8188906
_publ_section_title
;
Structure prediction by ZEFSAII (Michael W. Deem and Ramdas Pophale) SiO2 
 PCOD8188906
Probable space group: I M M 2
;
_chemical_formula_sum "Si O2"
_cell_formula_units_Z 48
_cell_length_a 9.026562
_cell_length_b 24.915061
_cell_length_c 12.233130
_cell_angle_alpha 90.000000
_cell_angle_beta 90.000000
_cell_angle_gamma 90.000000
_cell_volume 2751.198432
_symmetry_space_group_name_H-M "I M M 2"
_symmetry_group_IT_number 44
_symmetry_cell_setting 'orthorhombic'
loop_
_space_group_symop_operation_xyz
x,y,z
-x,-y,z
-x,y,z
x,-y,z
1/2+x,1/2+y,1/2+z
1/2-x,1/2-y,1/2+z
1/2-x,1/2+y,1/2+z
1/2+x,1/2-y,1/2+z
loop_
_atom_site_type_symbol
_atom_site_label
_atom_site_fract_x
_atom_site_fract_y
_atom_site_fract_z
Si Si1 0.331737 0.342301 0.047370
Si Si2 0.168949 0.063047 0.163427
Si Si3 0.828237 0.438531 0.441774
Si Si4 0.832446 0.764701 0.368847
Si Si5 0.326677 0.847372 0.777196
Si Si6 0.324993 0.866800 0.340294
O O1 0.500000 0.362795 0.057036
O O2 0.258020 0.344900 0.164196
O O3 0.325507 0.281072 0.998270
O O4 0.244783 0.380181 0.960176
O O5 0.268795 0.089783 0.255184
O O6 0.000000 0.083082 0.172150
O O7 0.181405 0.000000 0.181632
O O8 0.231219 0.078891 0.045035
O O9 0.797427 0.500000 0.407481
O O10 0.780081 0.401139 0.340850
O O11 0.000000 0.429515 0.471955
O O12 0.778895 0.703859 0.350779
O O13 0.728449 0.806946 0.302810
O O14 0.000000 0.771652 0.324839
O O15 0.500000 0.847004 0.751847
O O16 0.500000 0.869174 0.347627
#
# Coordination Sequence:
#
# PCOD8188906 Si02
#       6
#     8   8   8   8   8   8
#     4   9  19  35  52  75 109 141 176 222 267 316
#     4  10  20  35  56  81 110 143 179 222 271 322
#     4   9  19  35  54  79 110 142 180 225 269 318
#     4   8  18  34  50  74 107 139 173 218 267 319
#     4  10  19  34  56  80 107 142 180 221 271 325
#     4  10  19  34  55  78 106 141 179 220 268 317
#
# _framework density 17.446943000000001
#
# number of rings (size 3 to 8) (size 9 to 14) (size 15 to 20)
#    1.000    1.667    0.000    2.000    0.000    3.667 
#    0.000    2.500    0.000    3.000    0.000    0.000 
#    0.000    0.000    0.000    0.000    0.000    0.000 
#
# Total GULP energy -297415.885291 kJ/mol
# GULP energy per Si atom -12392.328554 kJ/mol
# Density = 1.740723 g / cm^3
# Si number density = 17.446943 Si / 1000 Ang^3
#
#
#
# Elastic Constant Matrix: (Units=GPa)
#
#
# Indices 1 2 3 4 5 6 
#
# 1 114.0034 48.4894 71.1736 -0.0003 0.0000 0.0000
# 2 48.4894 70.6467 65.1238 0.0001 -0.0001 0.0000
# 3 71.1736 65.1238 131.0258 -0.0002 0.0002 -0.0002
# 4 -0.0003 0.0001 -0.0002 30.5046 0.0002 -0.0001
# 5 0.0000 -0.0001 0.0002 0.0002 35.0113 0.0000
# 6 0.0000 0.0000 -0.0002 -0.0001 0.0000 16.2511
#
#
#
# Elastic Compliance Matrix: (Units=1/GPa)
#
#
# Indices 1 2 3 4 5 6 
#
# 1 0.014115 -0.004836 -0.005264 0.000000 0.000000 0.000000
# 2 -0.004836 0.027781 -0.011181 0.000000 0.000000 0.000000
# 3 -0.005264 -0.011181 0.016049 0.000000 0.000000 0.000000
# 4 0.000000 0.000000 0.000000 0.032782 0.000000 0.000000
# 5 0.000000 0.000000 0.000000 0.000000 0.028562 0.000000
# 6 0.000000 0.000000 0.000000 0.000000 0.000000 0.061534
#
#
# Mechanical properties :
#
#
# Convention : Reuss Voigt Hill
#
# Bulk Modulus (GPa) = 65.00546 76.13881 70.57214
# Shear Modulus (GPa) = 21.88070 25.07934 23.48002
#
# Velocity S-wave (km/s) = 3.54521 3.79550 3.67249
# Velocity P-wave (km/s) = 7.35512 7.93365 7.64985
#
# Compressibility (1/GPa) = 0.01538332
#
# Stress axis : x y z
#
# Youngs Moduli (GPa) = 70.84889 35.99555 62.30997
#
# Poissons Ratio (x) = 0.17406 0.32798
# Poissons Ratio (y) = 0.34260 0.69671
# Poissons Ratio (z) = 0.37292 0.40248
#
# Static dielectric constant tensor:
#      x y z
#    x 3.305660 0.000000 0.000000 
#    y 0.000000 3.192030 0.000000 
#    z 0.000000 0.000000 3.065670 
# 
# 
# High freq. dielectric constant tensor:
#      x y z
#    x 1.681390 0.000000 0.000000 
#    y 0.000000 1.658900 0.000000 
#    z 0.000000 0.000000 1.662930 
# 
# From -- ./inp_files/11148.got.cif
#   From: 2010.03.12/outbox.cif.g09.slc.cpg/sg44_6_cif.got.tgz:11148.got - 2010.04.14 02:36:11.
