data_PCOD8188064
_publ_section_title
;
Structure prediction by ZEFSAII (Michael W. Deem and Ramdas Pophale) SiO2 
 PCOD8188064
Probable space group: I M M 2
;
_chemical_formula_sum "Si O2"
_cell_formula_units_Z 64
_cell_length_a 8.910386
_cell_length_b 18.391147
_cell_length_c 25.917783
_cell_angle_alpha 90.000000
_cell_angle_beta 90.000000
_cell_angle_gamma 90.000000
_cell_volume 4247.204605
_symmetry_space_group_name_H-M "I M M 2"
_symmetry_group_IT_number 44
_symmetry_cell_setting 'orthorhombic'
loop_
_space_group_symop_operation_xyz
x,y,z
-x,-y,z
-x,y,z
x,-y,z
1/2+x,1/2+y,1/2+z
1/2-x,1/2-y,1/2+z
1/2-x,1/2+y,1/2+z
1/2+x,1/2-y,1/2+z
loop_
_atom_site_type_symbol
_atom_site_label
_atom_site_fract_x
_atom_site_fract_y
_atom_site_fract_z
Si Si1 0.824892 0.415687 0.579310
Si Si2 0.833501 0.285449 0.328911
Si Si3 0.677465 0.338417 0.485165
Si Si4 0.832352 0.207198 0.438258
Si Si5 0.324515 0.082574 0.891143
Si Si6 0.325624 0.583457 0.686169
Si Si7 0.675785 0.917311 0.385797
Si Si8 0.325498 0.839275 0.279897
O O1 0.791714 0.500000 0.567510
O O2 0.732646 0.366934 0.539930
O O3 0.769540 0.394844 0.636191
O O4 0.000000 0.397870 0.574465
O O5 0.834911 0.247176 0.383964
O O6 0.783489 0.368732 0.340625
O O7 0.717031 0.245000 0.291209
O O8 0.000000 0.282519 0.304121
O O9 0.500000 0.335525 0.483934
O O10 0.739184 0.256594 0.477999
O O11 0.732570 0.393318 0.441070
O O12 0.756617 0.128432 0.430748
O O13 0.000000 0.196278 0.459986
O O14 0.500000 0.092285 0.904775
O O15 0.283561 0.000000 0.877258
O O16 0.500000 0.597246 0.674744
O O17 0.294798 0.500000 0.701506
O O18 0.272747 0.633878 0.732568
O O19 0.500000 0.910099 0.395106
O O20 0.717691 0.888212 0.329066
O O21 0.731673 0.000000 0.389904
O O22 0.500000 0.844804 0.266107
#
# Coordination Sequence:
#
# PCOD8188064 Si02
#       8
#     8   8   8   8   8   8   8   8
#     4  10  20  33  47  62  83 111 142 176 212 249
#     4   8  15  27  41  58  81 109 140 174 209 245
#     4  11  20  29  43  62  85 113 144 176 212 252
#     4   9  17  29  43  59  81 110 144 178 211 249
#     4   9  17  29  44  62  85 113 144 176 211 252
#     4  10  20  32  45  62  84 109 140 178 214 247
#     4   9  17  28  42  62  88 115 143 176 213 253
#     4  10  18  28  43  61  83 113 145 174 208 250
#
# _framework density 15.068735
#
# number of rings (size 3 to 8) (size 9 to 14) (size 15 to 20)
#    0.000    2.500    0.000    4.125    0.000    7.500 
#    0.000    0.000    0.000    0.000    0.000    0.000 
#    0.000    1.000    0.000    6.000    0.000    4.625 
#
# Total GULP energy -396775.002733 kJ/mol
# GULP energy per Si atom -12399.218835 kJ/mol
# Density = 1.503444 g / cm^3
# Si number density = 15.068735 Si / 1000 Ang^3
#
#
#
# Elastic Constant Matrix: (Units=GPa)
#
#
# Indices 1 2 3 4 5 6 
#
# 1 78.3679 42.9344 33.9589 0.0000 0.0000 0.0000
# 2 42.9344 111.6448 44.9880 0.0000 0.0000 0.0000
# 3 33.9589 44.9880 58.1614 0.0000 0.0000 0.0000
# 4 0.0000 0.0000 0.0000 23.8811 0.0000 0.0000
# 5 0.0000 0.0000 0.0000 0.0000 24.7552 0.0000
# 6 0.0000 0.0000 0.0000 0.0000 0.0000 23.7899
#
#
#
# Elastic Compliance Matrix: (Units=1/GPa)
#
#
# Indices 1 2 3 4 5 6 
#
# 1 0.018207 -0.003949 -0.007576 0.000000 0.000000 0.000000
# 2 -0.003949 0.013869 -0.008422 0.000000 0.000000 0.000000
# 3 -0.007576 -0.008422 0.028132 0.000000 0.000000 0.000000
# 4 0.000000 0.000000 0.000000 0.041874 0.000000 0.000000
# 5 0.000000 0.000000 0.000000 0.000000 0.040396 0.000000
# 6 0.000000 0.000000 0.000000 0.000000 0.000000 0.042035
#
#
# Mechanical properties :
#
#
# Convention : Reuss Voigt Hill
#
# Bulk Modulus (GPa) = 49.22867 54.65963 51.94415
# Shear Modulus (GPa) = 21.62841 22.90476 22.26658
#
# Velocity S-wave (km/s) = 3.79267 3.90297 3.84821
# Velocity P-wave (km/s) = 7.20551 7.52750 7.36826
#
# Compressibility (1/GPa) = 0.02031336
#
# Stress axis : x y z
#
# Youngs Moduli (GPa) = 54.92538 72.10111 35.54710
#
# Poissons Ratio (x) = 0.28471 0.26930
# Poissons Ratio (y) = 0.21689 0.29939
# Poissons Ratio (z) = 0.41611 0.60727
#
# Static dielectric constant tensor:
#      x y z
#    x 3.013800 0.000000 0.000000 
#    y 0.000000 3.114090 0.000000 
#    z 0.000000 0.000000 2.645750 
# 
# 
# High freq. dielectric constant tensor:
#      x y z
#    x 1.589610 0.000000 0.000000 
#    y 0.000000 1.568850 0.000000 
#    z 0.000000 0.000000 1.540100 
# 
# From -- ./inp_files/25211.got.cif
#   From: 2010.03.12/outbox.cif.g09.slc.cpg/sg44_13_cif.got.tgz:25211.got - 2010.04.14 02:36:11.
