data_PCOD8188061
_publ_section_title
;
Structure prediction by ZEFSAII (Michael W. Deem and Ramdas Pophale) SiO2 
 PCOD8188061
Probable space group: I M M 2
;
_chemical_formula_sum "Si O2"
_cell_formula_units_Z 64
_cell_length_a 8.980461
_cell_length_b 25.972191
_cell_length_c 18.204973
_cell_angle_alpha 90.000000
_cell_angle_beta 90.000000
_cell_angle_gamma 90.000000
_cell_volume 4246.168834
_symmetry_space_group_name_H-M "I M M 2"
_symmetry_group_IT_number 44
_symmetry_cell_setting 'orthorhombic'
loop_
_space_group_symop_operation_xyz
x,y,z
-x,-y,z
-x,y,z
x,-y,z
1/2+x,1/2+y,1/2+z
1/2-x,1/2-y,1/2+z
1/2-x,1/2+y,1/2+z
1/2+x,1/2-y,1/2+z
loop_
_atom_site_type_symbol
_atom_site_label
_atom_site_fract_x
_atom_site_fract_y
_atom_site_fract_z
Si Si1 0.827144 0.753574 0.344480
Si Si2 0.672592 0.058927 0.336847
Si Si3 0.831125 0.790125 0.550345
Si Si4 0.172947 0.940019 0.186628
Si Si5 0.674547 0.701371 0.470633
Si Si6 0.831901 0.740352 0.693882
Si Si7 0.826130 0.642563 0.592080
Si Si8 0.331490 0.359695 0.925310
O O1 0.739441 0.708878 0.388513
O O2 0.781346 0.752533 0.259802
O O3 0.789760 0.809495 0.377674
O O4 0.000000 0.740977 0.350583
O O5 0.500000 0.067517 0.320203
O O6 0.762100 0.076955 0.265214
O O7 0.722124 0.093754 0.405432
O O8 0.707930 0.000000 0.357247
O O9 0.708527 0.752892 0.516012
O O10 0.813187 0.789586 0.638665
O O11 0.810845 0.846137 0.512368
O O12 0.000000 0.769706 0.530975
O O13 0.254794 0.909610 0.122325
O O14 0.000000 0.926024 0.186237
O O15 0.202768 0.000000 0.172621
O O16 0.500000 0.691079 0.465996
O O17 0.752222 0.653855 0.512869
O O18 0.793087 0.688795 0.648802
O O19 0.000000 0.737515 0.724796
O O20 0.000000 0.633983 0.580417
O O21 0.500000 0.377292 0.909016
#
# Coordination Sequence:
#
# PCOD8188061 Si02
#       8
#     8   8   8   8   8   8   8   8
#     4  10  19  29  41  60  86 112 140 173 207 245
#     4  10  20  31  42  59  84 112 142 178 217 252
#     4   8  16  30  43  58  83 110 137 172 211 249
#     4  10  20  32  45  62  84 110 143 180 212 246
#     4  10  18  28  43  61  82 109 141 173 206 246
#     4   9  17  28  42  61  84 110 139 170 205 247
#     4  10  19  31  46  62  84 113 143 175 212 252
#     4   9  17  29  44  59  79 111 145 176 210 247
#
# _framework density 15.07241
#
# number of rings (size 3 to 8) (size 9 to 14) (size 15 to 20)
#    0.000    2.500    0.000    4.875    0.000    8.500 
#    0.000    0.000    0.000    0.000    0.000    0.000 
#    0.000    1.000    0.000    5.250    0.000    4.875 
#
# Total GULP energy -396707.422534 kJ/mol
# GULP energy per Si atom -12397.106954 kJ/mol
# Density = 1.503810 g / cm^3
# Si number density = 15.072410 Si / 1000 Ang^3
#
#
#
# Elastic Constant Matrix: (Units=GPa)
#
#
# Indices 1 2 3 4 5 6 
#
# 1 92.1809 37.7733 42.2904 0.0000 0.0000 0.0000
# 2 37.7733 56.6671 34.0661 0.0000 0.0000 0.0000
# 3 42.2904 34.0661 76.6622 0.0000 0.0000 0.0000
# 4 0.0000 0.0000 0.0000 26.5365 0.0000 0.0000
# 5 0.0000 0.0000 0.0000 0.0000 26.6983 0.0000
# 6 0.0000 0.0000 0.0000 0.0000 0.0000 23.2501
#
#
#
# Elastic Compliance Matrix: (Units=1/GPa)
#
#
# Indices 1 2 3 4 5 6 
#
# 1 0.016618 -0.007595 -0.005792 0.000000 0.000000 0.000000
# 2 -0.007595 0.027551 -0.008053 0.000000 0.000000 0.000000
# 3 -0.005792 -0.008053 0.019818 0.000000 0.000000 0.000000
# 4 0.000000 0.000000 0.000000 0.037684 0.000000 0.000000
# 5 0.000000 0.000000 0.000000 0.000000 0.037456 0.000000
# 6 0.000000 0.000000 0.000000 0.000000 0.000000 0.043011
#
#
# Mechanical properties :
#
#
# Convention : Reuss Voigt Hill
#
# Bulk Modulus (GPa) = 47.37931 50.41888 48.89909
# Shear Modulus (GPa) = 21.54687 22.72232 22.13459
#
# Velocity S-wave (km/s) = 3.78505 3.88692 3.83632
# Velocity P-wave (km/s) = 7.11371 7.32584 7.22055
#
# Compressibility (1/GPa) = 0.02110626
#
# Stress axis : x y z
#
# Youngs Moduli (GPa) = 60.17637 36.29662 50.45954
#
# Poissons Ratio (x) = 0.27568 0.29227
# Poissons Ratio (y) = 0.45705 0.40634
# Poissons Ratio (z) = 0.34855 0.29229
#
# Static dielectric constant tensor:
#      x y z
#    x 2.938040 0.000000 0.000000 
#    y 0.000000 2.713640 0.000000 
#    z 0.000000 0.000000 2.963130 
# 
# 
# High freq. dielectric constant tensor:
#      x y z
#    x 1.590890 0.000000 0.000000 
#    y 0.000000 1.539130 0.000000 
#    z 0.000000 0.000000 1.565710 
# 
# From -- ./inp_files/20842.got.cif
#   From: 2010.03.12/outbox.cif.g09.slc.cpg/sg44_11_cif.got.tgz:20842.got - 2010.04.14 02:36:11.
