data_PCOD8188229
_publ_section_title
;
Structure prediction by ZEFSAII (Michael W. Deem and Ramdas Pophale) SiO2 
 PCOD8188229
Probable space group: I M M 2
;
_chemical_formula_sum "Si O2"
_cell_formula_units_Z 64
_cell_length_a 15.549518
_cell_length_b 22.150301
_cell_length_c 9.504820
_cell_angle_alpha 90.000000
_cell_angle_beta 90.000000
_cell_angle_gamma 90.000000
_cell_volume 3273.711925
_symmetry_space_group_name_H-M "I M M 2"
_symmetry_group_IT_number 44
_symmetry_cell_setting 'orthorhombic'
loop_
_space_group_symop_operation_xyz
x,y,z
-x,-y,z
-x,y,z
x,-y,z
1/2+x,1/2+y,1/2+z
1/2-x,1/2-y,1/2+z
1/2-x,1/2+y,1/2+z
1/2+x,1/2-y,1/2+z
loop_
_atom_site_type_symbol
_atom_site_label
_atom_site_fract_x
_atom_site_fract_y
_atom_site_fract_z
Si Si1 0.594901 0.933734 0.351300
Si Si2 0.094677 0.743865 0.023700
Si Si3 0.158002 0.315457 0.753150
Si Si4 0.848918 0.830213 0.254872
Si Si5 0.597008 0.429842 0.949412
Si Si6 0.402573 0.233176 0.972130
Si Si7 0.769042 0.431789 0.097439
Si Si8 0.595054 0.861272 0.749636
O O1 0.500000 0.933955 0.422062
O O2 0.596744 0.875018 0.250494
O O3 0.667672 0.923018 0.466384
O O4 0.609544 0.000000 0.277638
O O5 0.115825 0.806375 0.104649
O O6 0.098679 0.692207 0.138594
O O7 0.000000 0.749803 0.958036
O O8 0.155981 0.725484 0.894662
O O9 0.250198 0.344966 0.730847
O O10 0.136149 0.269787 0.627749
O O11 0.897102 0.891246 0.304995
O O12 0.852270 0.781323 0.379350
O O13 0.500000 0.421672 0.013143
O O14 0.613851 0.500000 0.911634
O O15 0.672810 0.406955 0.057614
O O16 0.500000 0.256383 0.979799
O O17 0.396497 0.166567 0.904809
O O18 0.757173 0.500000 0.143698
O O19 0.819251 0.401394 0.227767
O O20 0.500000 0.893700 0.737165
#
# Coordination Sequence:
#
# PCOD8188229 Si02
#       8
#     8   8   8   8   8   8   8   8
#     4  10  19  31  51  80 112 145 182 226 272 321
#     4  10  19  32  52  75 103 140 181 222 269 326
#     4  12  21  34  55  82 113 148 188 231 279 336
#     4  11  21  36  54  79 111 144 185 231 283 338
#     4  10  20  35  56  82 112 146 187 238 291 336
#     4  10  22  37  54  79 115 152 183 225 288 342
#     4  10  18  30  52  82 111 144 189 233 269 320
#     4   9  17  32  51  76 111 147 178 220 275 331
#
# _framework density 19.549672999999999
#
# number of rings (size 3 to 8) (size 9 to 14) (size 15 to 20)
#    0.000    1.750    2.500    4.125    0.000    1.750 
#    0.000    0.625    0.000    0.750    0.000    2.625 
#    0.000   10.000    0.000    0.000    0.000    0.000 
#
# Total GULP energy -396429.946709 kJ/mol
# GULP energy per Si atom -12388.435835 kJ/mol
# Density = 1.950518 g / cm^3
# Si number density = 19.549673 Si / 1000 Ang^3
#
#
#
# Elastic Constant Matrix: (Units=GPa)
#
#
# Indices 1 2 3 4 5 6 
#
# 1 128.9230 21.5330 11.5829 0.0000 0.0000 0.0000
# 2 21.5330 74.6787 22.5474 0.0000 0.0000 0.0000
# 3 11.5829 22.5474 68.6836 -0.0001 0.0000 0.0000
# 4 0.0000 0.0000 -0.0001 20.5885 0.0000 0.0000
# 5 0.0000 0.0000 0.0000 0.0000 22.7223 0.0000
# 6 0.0000 0.0000 0.0000 0.0000 0.0000 26.0230
#
#
#
# Elastic Compliance Matrix: (Units=1/GPa)
#
#
# Indices 1 2 3 4 5 6 
#
# 1 0.008177 -0.002155 -0.000672 0.000000 0.000000 0.000000
# 2 -0.002155 0.015432 -0.004703 0.000000 0.000000 0.000000
# 3 -0.000672 -0.004703 0.016217 0.000000 0.000000 0.000000
# 4 0.000000 0.000000 0.000000 0.048571 0.000000 0.000000
# 5 0.000000 0.000000 0.000000 0.000000 0.044010 0.000000
# 6 0.000000 0.000000 0.000000 0.000000 0.000000 0.038428
#
#
# Mechanical properties :
#
#
# Convention : Reuss Voigt Hill
#
# Bulk Modulus (GPa) = 40.37606 42.62354 41.49980
# Shear Modulus (GPa) = 25.75366 28.30821 27.03093
#
# Velocity S-wave (km/s) = 3.63346 3.80941 3.72247
# Velocity P-wave (km/s) = 6.18875 6.41863 6.30474
#
# Compressibility (1/GPa) = 0.02476715
#
# Stress axis : x y z
#
# Youngs Moduli (GPa) = 122.29677 64.80088 61.66551
#
# Poissons Ratio (x) = 0.13964 0.04141
# Poissons Ratio (y) = 0.26355 0.28998
# Poissons Ratio (z) = 0.08213 0.30473
#
# Static dielectric constant tensor:
#      x y z
#    x 3.898370 0.000000 0.000000 
#    y 0.000000 3.675030 0.000000 
#    z 0.000000 0.000000 3.347460 
# 
# 
# High freq. dielectric constant tensor:
#      x y z
#    x 1.781040 0.000000 0.000000 
#    y 0.000000 1.750290 0.000000 
#    z 0.000000 0.000000 1.716800 
# 
# From -- ./inp_files/7578.got.cif
#   From: 2010.03.12/outbox.cif.g09.slc.cpg/sg44_4_cif.got.tgz:7578.got - 2010.04.14 02:36:11.
