data_PCOD8188878
_publ_section_title
;
Structure prediction by ZEFSAII (Michael W. Deem and Ramdas Pophale) SiO2 
 PCOD8188878
Probable space group: I M M 2
;
_chemical_formula_sum "Si O2"
_cell_formula_units_Z 64
_cell_length_a 18.908941
_cell_length_b 19.027805
_cell_length_c 9.767220
_cell_angle_alpha 90.000000
_cell_angle_beta 90.000000
_cell_angle_gamma 90.000000
_cell_volume 3514.203191
_symmetry_space_group_name_H-M "I M M 2"
_symmetry_group_IT_number 44
_symmetry_cell_setting 'orthorhombic'
loop_
_space_group_symop_operation_xyz
x,y,z
-x,-y,z
-x,y,z
x,-y,z
1/2+x,1/2+y,1/2+z
1/2-x,1/2-y,1/2+z
1/2-x,1/2+y,1/2+z
1/2+x,1/2-y,1/2+z
loop_
_atom_site_type_symbol
_atom_site_label
_atom_site_fract_x
_atom_site_fract_y
_atom_site_fract_z
Si Si1 0.674738 0.323175 0.293570
Si Si2 0.144564 0.147275 0.206705
Si Si3 0.663440 0.169667 0.399989
Si Si4 0.671222 0.161921 0.900097
Si Si5 0.416524 0.201073 0.657567
Si Si6 0.296031 0.917148 0.157528
Si Si7 0.919550 0.921933 0.973772
Si Si8 0.680567 0.682346 0.991249
O O1 0.658825 0.241716 0.315884
O O2 0.755683 0.342988 0.317888
O O3 0.626312 0.366911 0.393390
O O4 0.653702 0.343613 0.138418
O O5 0.128483 0.226746 0.159151
O O6 0.223672 0.128110 0.157659
O O7 0.089313 0.094262 0.135906
O O8 0.138317 0.141013 0.371213
O O9 0.601273 0.162862 0.513272
O O10 0.657105 0.106639 0.288735
O O11 0.736891 0.165202 0.480661
O O12 0.608223 0.154390 0.788065
O O13 0.664635 0.100502 0.014119
O O14 0.665631 0.235242 0.979374
O O15 0.500000 0.215544 0.667164
O O16 0.280818 0.000000 0.166557
O O17 0.000000 0.913275 0.929866
O O18 0.892163 0.000000 0.942624
#
# Coordination Sequence:
#
# PCOD8188878 Si02
#       8
#     8   8   8   8   8   8   8   8
#     4  11  18  33  59  82 115 157 198 246 295 331
#     4  10  19  34  58  87 120 150 187 230 289 355
#     4  10  19  33  56  86 116 145 196 251 294 344
#     4  10  19  33  56  86 116 145 196 251 294 344
#     4  11  21  36  60  89 119 153 196 247 302 353
#     4  11  21  36  60  89 119 153 196 247 302 353
#     4  11  23  37  54  83 123 164 197 227 285 368
#     4   9  18  32  55  87 110 145 188 253 289 326
#
# _framework density 18.211811000000001
#
# number of rings (size 3 to 8) (size 9 to 14) (size 15 to 20)
#    0.000    1.625    5.000    2.250    0.000    0.000 
#    0.000    7.500    0.000    3.750    0.000    0.000 
#    0.000    0.000    0.000    0.000    0.000    0.000 
#
# Total GULP energy -396728.843737 kJ/mol
# GULP energy per Si atom -12397.776367 kJ/mol
# Density = 1.817036 g / cm^3
# Si number density = 18.211811 Si / 1000 Ang^3
#
#
#
# Elastic Constant Matrix: (Units=GPa)
#
#
# Indices 1 2 3 4 5 6 
#
# 1 63.3446 37.1236 45.1133 0.0000 0.0000 0.0000
# 2 37.1236 76.0537 39.7581 0.0000 0.0000 0.0000
# 3 45.1133 39.7581 134.3180 0.0000 0.0000 0.0000
# 4 0.0000 0.0000 0.0000 23.8401 0.0000 0.0000
# 5 0.0000 0.0000 0.0000 0.0000 23.4735 0.0000
# 6 0.0000 0.0000 0.0000 0.0000 0.0000 16.0989
#
#
#
# Elastic Compliance Matrix: (Units=1/GPa)
#
#
# Indices 1 2 3 4 5 6 
#
# 1 0.025379 -0.009384 -0.005746 0.000000 0.000000 0.000000
# 2 -0.009384 0.019025 -0.002480 0.000000 0.000000 0.000000
# 3 -0.005746 -0.002480 0.010109 0.000000 0.000000 0.000000
# 4 0.000000 0.000000 0.000000 0.041946 0.000000 0.000000
# 5 0.000000 0.000000 0.000000 0.000000 0.042601 0.000000
# 6 0.000000 0.000000 0.000000 0.000000 0.000000 0.062116
#
#
# Mechanical properties :
#
#
# Convention : Reuss Voigt Hill
#
# Bulk Modulus (GPa) = 51.83183 57.52293 54.67738
# Shear Modulus (GPa) = 20.59075 22.79724 21.69400
#
# Velocity S-wave (km/s) = 3.36613 3.54189 3.45513
# Velocity P-wave (km/s) = 6.60531 6.95563 6.78273
#
# Compressibility (1/GPa) = 0.01929317
#
# Stress axis : x y z
#
# Youngs Moduli (GPa) = 39.40321 52.56111 98.92160
#
# Poissons Ratio (x) = 0.49323 0.56843
# Poissons Ratio (y) = 0.36976 0.24530
# Poissons Ratio (z) = 0.22642 0.13034
#
# Static dielectric constant tensor:
#      x y z
#    x 2.998570 0.000000 0.000000 
#    y 0.000000 3.154370 0.000000 
#    z 0.000000 0.000000 3.644990 
# 
# 
# High freq. dielectric constant tensor:
#      x y z
#    x 1.674040 0.000000 0.000000 
#    y 0.000000 1.675970 0.000000 
#    z 0.000000 0.000000 1.724450 
# 
# From -- ./inp_files/9115.got.cif
#   From: 2010.03.12/outbox.cif.g09.slc.cpg/sg44_5_cif.got.tgz:9115.got - 2010.04.14 02:36:11.
