data_PCOD8188205
_publ_section_title
;
Structure prediction by ZEFSAII (Michael W. Deem and Ramdas Pophale) SiO2 
 PCOD8188205
Probable space group: I M M 2
;
_chemical_formula_sum "Si O2"
_cell_formula_units_Z 48
_cell_length_a 23.822468
_cell_length_b 8.420201
_cell_length_c 13.670029
_cell_angle_alpha 90.000000
_cell_angle_beta 90.000000
_cell_angle_gamma 90.000000
_cell_volume 2742.070692
_symmetry_space_group_name_H-M "I M M 2"
_symmetry_group_IT_number 44
_symmetry_cell_setting 'orthorhombic'
loop_
_space_group_symop_operation_xyz
x,y,z
-x,-y,z
-x,y,z
x,-y,z
1/2+x,1/2+y,1/2+z
1/2-x,1/2-y,1/2+z
1/2-x,1/2+y,1/2+z
1/2+x,1/2-y,1/2+z
loop_
_atom_site_type_symbol
_atom_site_label
_atom_site_fract_x
_atom_site_fract_y
_atom_site_fract_z
Si Si1 0.938375 0.311183 0.059670
Si Si2 0.435784 0.184398 0.780006
Si Si3 0.832655 0.814799 0.382996
Si Si4 0.729311 0.815298 0.057918
Si Si5 0.769725 0.815234 0.766362
Si Si6 0.331334 0.186100 0.446326
O O1 0.937570 0.500000 0.062711
O O2 0.926478 0.251124 0.169773
O O3 0.000000 0.251231 0.024817
O O4 0.890938 0.247692 0.985773
O O5 0.500000 0.211799 0.812331
O O6 0.396667 0.284386 0.852570
O O7 0.419484 0.000000 0.787606
O O8 0.822340 0.737323 0.489130
O O9 0.791387 0.737612 0.303182
O O10 0.819447 0.000000 0.388946
O O11 0.713465 0.780229 0.169412
O O12 0.741506 0.000000 0.041857
O O13 0.784793 0.717388 0.028989
O O14 0.816853 0.779178 0.847426
O O15 0.768746 0.000000 0.741896
O O16 0.333975 0.000000 0.423476
#
# Coordination Sequence:
#
# PCOD8188205 Si02
#       6
#     8   8   8   8   8   8
#     4   8  15  28  48  73  99 128 161 196 234 280
#     4   9  17  31  51  74 101 134 168 201 242 290
#     4  11  21  33  50  74 102 131 164 201 246 295
#     4  11  21  34  51  72  98 127 163 204 248 296
#     4  11  21  34  50  70  99 131 164 202 246 294
#     4  10  18  30  50  75 101 129 162 198 240 290
#
# _framework density 17.505019999999998
#
# number of rings (size 3 to 8) (size 9 to 14) (size 15 to 20)
#    0.000    2.000    0.000    9.000    0.000    1.667 
#    0.000    0.833    0.000    5.000    0.000    2.333 
#    0.000    0.000    0.000    0.000    0.000    0.000 
#
# Total GULP energy -297632.539607 kJ/mol
# GULP energy per Si atom -12401.355817 kJ/mol
# Density = 1.746518 g / cm^3
# Si number density = 17.505020 Si / 1000 Ang^3
#
#
#
# Elastic Constant Matrix: (Units=GPa)
#
#
# Indices 1 2 3 4 5 6 
#
# 1 111.1751 16.2573 56.9405 0.0000 0.0000 0.0000
# 2 16.2573 62.1588 11.5647 0.0000 0.0000 0.0000
# 3 56.9405 11.5647 105.5395 0.0000 0.0000 0.0000
# 4 0.0000 0.0000 0.0000 25.8972 0.0000 0.0000
# 5 0.0000 0.0000 0.0000 0.0000 25.0990 0.0000
# 6 0.0000 0.0000 0.0000 0.0000 0.0000 24.1899
#
#
#
# Elastic Compliance Matrix: (Units=1/GPa)
#
#
# Indices 1 2 3 4 5 6 
#
# 1 0.012689 -0.002088 -0.006617 0.000000 0.000000 0.000000
# 2 -0.002088 0.016766 -0.000711 0.000000 0.000000 0.000000
# 3 -0.006617 -0.000711 0.013123 0.000000 0.000000 0.000000
# 4 0.000000 0.000000 0.000000 0.038614 0.000000 0.000000
# 5 0.000000 0.000000 0.000000 0.000000 0.039842 0.000000
# 6 0.000000 0.000000 0.000000 0.000000 0.000000 0.041339
#
#
# Mechanical properties :
#
#
# Convention : Reuss Voigt Hill
#
# Bulk Modulus (GPa) = 42.11079 49.82203 45.96641
# Shear Modulus (GPa) = 26.43798 27.97796 27.20797
#
# Velocity S-wave (km/s) = 3.89049 4.00219 3.94673
# Velocity P-wave (km/s) = 6.65506 7.06258 6.86185
#
# Compressibility (1/GPa) = 0.02374688
#
# Stress axis : x y z
#
# Youngs Moduli (GPa) = 78.80655 59.64422 76.20095
#
# Poissons Ratio (x) = 0.12452 0.50425
# Poissons Ratio (y) = 0.16452 0.05417
# Poissons Ratio (z) = 0.52149 0.04240
#
# Static dielectric constant tensor:
#      x y z
#    x 3.362950 0.000000 0.000000 
#    y 0.000000 3.152290 0.000000 
#    z 0.000000 0.000000 3.213470 
# 
# 
# High freq. dielectric constant tensor:
#      x y z
#    x 1.665700 0.000000 0.000000 
#    y 0.000000 1.675630 0.000000 
#    z 0.000000 0.000000 1.666210 
# 
# From -- ./inp_files/19351.got.cif
#   From: 2010.03.12/outbox.cif.g09.slc.cpg/sg44_10_cif.got.tgz:19351.got - 2010.04.14 02:36:11.
