data_PCOD8188587
_publ_section_title
;
Structure prediction by ZEFSAII (Michael W. Deem and Ramdas Pophale) SiO2 
 PCOD8188587
Probable space group: I M M 2
;
_chemical_formula_sum "Si O2"
_cell_formula_units_Z 64
_cell_length_a 8.836883
_cell_length_b 23.508426
_cell_length_c 18.941687
_cell_angle_alpha 90.000000
_cell_angle_beta 90.000000
_cell_angle_gamma 90.000000
_cell_volume 3934.968978
_symmetry_space_group_name_H-M "I M M 2"
_symmetry_group_IT_number 44
_symmetry_cell_setting 'orthorhombic'
loop_
_space_group_symop_operation_xyz
x,y,z
-x,-y,z
-x,y,z
x,-y,z
1/2+x,1/2+y,1/2+z
1/2-x,1/2-y,1/2+z
1/2-x,1/2+y,1/2+z
1/2+x,1/2-y,1/2+z
loop_
_atom_site_type_symbol
_atom_site_label
_atom_site_fract_x
_atom_site_fract_y
_atom_site_fract_z
Si Si1 0.321819 0.065667 0.096680
Si Si2 0.179763 0.381204 0.451273
Si Si3 0.679094 0.937293 0.809023
Si Si4 0.178627 0.726388 0.805527
Si Si5 0.176027 0.670577 0.227316
Si Si6 0.177774 0.160071 0.184203
Si Si7 0.678157 0.248364 0.947736
Si Si8 0.674414 0.766843 0.589535
O O1 0.500000 0.076305 0.102801
O O2 0.238893 0.099346 0.159054
O O3 0.279402 0.000000 0.105277
O O4 0.259837 0.087429 0.021214
O O5 0.245230 0.414124 0.383142
O O6 0.238007 0.316509 0.449892
O O7 0.000000 0.382182 0.450074
O O8 0.500000 0.941523 0.815509
O O9 0.723414 0.894106 0.745826
O O10 0.747192 0.000000 0.793041
O O11 0.228971 0.787588 0.776483
O O12 0.244881 0.675521 0.758255
O O13 0.240063 0.718272 0.884702
O O14 0.000000 0.722138 0.805281
O O15 0.206659 0.681987 0.144745
O O16 0.000000 0.682172 0.245514
O O17 0.221129 0.207525 0.126167
O O18 0.000000 0.157667 0.196676
O O19 0.500000 0.251915 0.936361
O O20 0.722450 0.278021 0.021514
O O21 0.500000 0.765741 0.566296
#
# Coordination Sequence:
#
# PCOD8188587 Si02
#       8
#     8   8   8   8   8   8   8   8
#     4  10  19  31  48  72 101 134 173 209 240 280
#     4   9  16  26  42  67  99 130 164 200 230 269
#     4   9  15  25  45  70  94 125 164 198 229 270
#     4  11  21  32  49  70  95 124 159 200 250 298
#     4   9  17  31  47  69  97 125 159 201 241 280
#     4  10  20  34  50  69  96 128 165 205 247 291
#     4  11  19  30  49  70  95 127 162 197 241 292
#     4   9  18  30  45  66  95 125 156 198 244 285
#
# _framework density 16.264422
#
# number of rings (size 3 to 8) (size 9 to 14) (size 15 to 20)
#    0.000    2.250    2.500    3.000    0.000    3.750 
#    0.000    0.000    0.000    0.375    0.000    0.875 
#    0.000    5.000    0.000    0.000    0.000    0.000 
#
# Total GULP energy -396805.717125 kJ/mol
# GULP energy per Si atom -12400.178660 kJ/mol
# Density = 1.622740 g / cm^3
# Si number density = 16.264422 Si / 1000 Ang^3
#
#
#
# Elastic Constant Matrix: (Units=GPa)
#
#
# Indices 1 2 3 4 5 6 
#
# 1 62.3872 29.6264 46.7636 0.0000 0.0000 0.0000
# 2 29.6264 99.0414 66.2376 0.0000 0.0000 0.0000
# 3 46.7636 66.2376 126.7844 0.0000 0.0000 0.0000
# 4 0.0000 0.0000 0.0000 26.6041 0.0000 0.0000
# 5 0.0000 0.0000 0.0000 0.0000 25.4617 0.0000
# 6 0.0000 0.0000 0.0000 0.0000 0.0000 17.4446
#
#
#
# Elastic Compliance Matrix: (Units=1/GPa)
#
#
# Indices 1 2 3 4 5 6 
#
# 1 0.022361 -0.001803 -0.007306 0.000000 0.000000 0.000000
# 2 -0.001803 0.015665 -0.007519 0.000000 0.000000 0.000000
# 3 -0.007306 -0.007519 0.014510 0.000000 0.000000 0.000000
# 4 0.000000 0.000000 0.000000 0.037588 0.000000 0.000000
# 5 0.000000 0.000000 0.000000 0.000000 0.039275 0.000000
# 6 0.000000 0.000000 0.000000 0.000000 0.000000 0.057324
#
#
# Mechanical properties :
#
#
# Convention : Reuss Voigt Hill
#
# Bulk Modulus (GPa) = 51.86470 63.71869 57.79169
# Shear Modulus (GPa) = 22.08422 23.60778 22.84600
#
# Velocity S-wave (km/s) = 3.68886 3.81399 3.75195
# Velocity P-wave (km/s) = 7.07823 7.65879 7.37422
#
# Compressibility (1/GPa) = 0.01928094
#
# Stress axis : x y z
#
# Youngs Moduli (GPa) = 44.71993 63.83812 68.91628
#
# Poissons Ratio (x) = 0.11509 0.50350
# Poissons Ratio (y) = 0.08062 0.51817
# Poissons Ratio (z) = 0.32672 0.47999
#
# Static dielectric constant tensor:
#      x y z
#    x 2.840980 0.000000 0.000000 
#    y 0.000000 3.049610 0.000000 
#    z 0.000000 0.000000 3.126430 
# 
# 
# High freq. dielectric constant tensor:
#      x y z
#    x 1.608030 0.000000 0.000000 
#    y 0.000000 1.600630 0.000000 
#    z 0.000000 0.000000 1.623560 
# 
# From -- ./inp_files/20841.got.cif
#   From: 2010.03.12/outbox.cif.g09.slc.cpg/sg44_11_cif.got.tgz:20841.got - 2010.04.14 02:36:11.
