data_PCOD8188837
_publ_section_title
;
Structure prediction by ZEFSAII (Michael W. Deem and Ramdas Pophale) SiO2 
 PCOD8188837
Probable space group: I M M 2
;
_chemical_formula_sum "Si O2"
_cell_formula_units_Z 64
_cell_length_a 9.020687
_cell_length_b 32.702703
_cell_length_c 10.403305
_cell_angle_alpha 90.000000
_cell_angle_beta 90.000000
_cell_angle_gamma 90.000000
_cell_volume 3068.983795
_symmetry_space_group_name_H-M "I M M 2"
_symmetry_group_IT_number 44
_symmetry_cell_setting 'orthorhombic'
loop_
_space_group_symop_operation_xyz
x,y,z
-x,-y,z
-x,y,z
x,-y,z
1/2+x,1/2+y,1/2+z
1/2-x,1/2-y,1/2+z
1/2-x,1/2+y,1/2+z
1/2+x,1/2-y,1/2+z
loop_
_atom_site_type_symbol
_atom_site_label
_atom_site_fract_x
_atom_site_fract_y
_atom_site_fract_z
Si Si1 0.673288 0.284223 0.456530
Si Si2 0.323422 0.349530 0.096346
Si Si3 0.325964 0.378255 0.825294
Si Si4 0.673172 0.545022 0.425614
Si Si5 0.833392 0.545579 0.900807
Si Si6 0.829599 0.571852 0.184480
Si Si7 0.824366 0.129269 0.046956
Si Si8 0.173988 0.730598 0.201056
O O1 0.500000 0.279598 0.424650
O O2 0.721984 0.332386 0.456837
O O3 0.763996 0.260085 0.345127
O O4 0.707289 0.266674 0.599159
O O5 0.500000 0.348958 0.104409
O O6 0.263477 0.386238 0.183188
O O7 0.259707 0.308261 0.150231
O O8 0.262043 0.354523 0.949635
O O9 0.500000 0.374789 0.831779
O O10 0.282692 0.425827 0.828966
O O11 0.264407 0.360558 0.690925
O O12 0.500000 0.551407 0.398009
O O13 0.699302 0.500000 0.492488
O O14 0.761657 0.542997 0.292847
O O15 0.736548 0.584647 0.503256
O O16 0.802184 0.500000 0.852152
O O17 0.000000 0.559569 0.865635
O O18 0.811089 0.547136 0.053327
O O19 0.000000 0.582321 0.214315
O O20 0.000000 0.126652 0.053476
O O21 0.000000 0.722222 0.211873
#
# Coordination Sequence:
#
# PCOD8188837 Si02
#       8
#     8   8   8   8   8   8   8   8
#     4  10  23  42  65  91 124 166 206 252 310 367
#     4  10  20  35  59  86 118 154 193 242 305 366
#     4   9  19  34  56  82 105 145 195 240 289 351
#     4  10  20  33  53  81 111 148 196 247 300 361
#     4   9  18  32  49  73 109 148 183 231 297 355
#     4  10  19  33  54  79 110 147 192 243 298 360
#     4   9  19  38  59  79 111 152 196 243 298 355
#     4  11  24  40  63  95 126 159 205 255 304 365
#
# _framework density 20.853808000000001
#
# number of rings (size 3 to 8) (size 9 to 14) (size 15 to 20)
#    0.000    2.250    0.000    2.250    1.750    4.500 
#    0.000    2.500    0.000    0.000    0.000    0.000 
#    0.000    0.000    0.000    0.000    0.000    0.000 
#
# Total GULP energy -396604.978680 kJ/mol
# GULP energy per Si atom -12393.905584 kJ/mol
# Density = 2.080634 g / cm^3
# Si number density = 20.853808 Si / 1000 Ang^3
#
#
#
# Elastic Constant Matrix: (Units=GPa)
#
#
# Indices 1 2 3 4 5 6 
#
# 1 51.0663 22.1559 27.0016 -0.0003 -0.0003 -0.0002
# 2 22.1559 92.3175 26.2441 0.0001 0.0000 0.0002
# 3 27.0016 26.2441 86.5528 0.0010 -0.0001 0.0001
# 4 -0.0003 0.0001 0.0010 23.9632 -0.0001 0.0000
# 5 -0.0003 0.0000 -0.0001 -0.0001 25.4087 0.0001
# 6 -0.0002 0.0002 0.0001 0.0000 0.0001 26.0310
#
#
#
# Elastic Compliance Matrix: (Units=1/GPa)
#
#
# Indices 1 2 3 4 5 6 
#
# 1 0.024796 -0.004106 -0.006490 0.000001 0.000000 0.000000
# 2 -0.004106 0.012534 -0.002520 0.000000 0.000000 0.000000
# 3 -0.006490 -0.002520 0.014342 -0.000001 0.000000 0.000000
# 4 0.000001 0.000000 -0.000001 0.041731 0.000000 0.000000
# 5 0.000000 0.000000 0.000000 0.000000 0.039357 0.000000
# 6 0.000000 0.000000 0.000000 0.000000 0.000000 0.038416
#
#
# Mechanical properties :
#
#
# Convention : Reuss Voigt Hill
#
# Bulk Modulus (GPa) = 39.30783 42.30442 40.80612
# Shear Modulus (GPa) = 24.28523 25.38291 24.83407
#
# Velocity S-wave (km/s) = 3.41625 3.49260 3.45463
# Velocity P-wave (km/s) = 5.86951 6.04934 5.96011
#
# Compressibility (1/GPa) = 0.02544023
#
# Stress axis : x y z
#
# Youngs Moduli (GPa) = 40.32978 79.78411 69.72318
#
# Poissons Ratio (x) = 0.32757 0.45254
# Poissons Ratio (y) = 0.16558 0.17567
# Poissons Ratio (z) = 0.26176 0.20102
#
# Static dielectric constant tensor:
#      x y z
#    x 3.599900 0.000000 0.000000 
#    y 0.000000 4.010320 -0.000010 
#    z 0.000000 -0.000010 4.092600 
# 
# 
# High freq. dielectric constant tensor:
#      x y z
#    x 1.794440 0.000000 0.000000 
#    y 0.000000 1.818990 0.000000 
#    z 0.000000 0.000000 1.818380 
# 
# From -- ./inp_files/11575.got.cif
#   From: 2010.03.12/outbox.cif.g09.slc.cpg/sg44_6_cif.got.tgz:11575.got - 2010.04.14 02:36:11.
