data_PCOD8188102
_publ_section_title
;
Structure prediction by ZEFSAII (Michael W. Deem and Ramdas Pophale) SiO2 
 PCOD8188102
Probable space group: I M M 2
;
_chemical_formula_sum "Si O2"
_cell_formula_units_Z 64
_cell_length_a 9.388381
_cell_length_b 14.374502
_cell_length_c 28.005211
_cell_angle_alpha 90.000000
_cell_angle_beta 90.000000
_cell_angle_gamma 90.000000
_cell_volume 3779.395683
_symmetry_space_group_name_H-M "I M M 2"
_symmetry_group_IT_number 44
_symmetry_cell_setting 'orthorhombic'
loop_
_space_group_symop_operation_xyz
x,y,z
-x,-y,z
-x,y,z
x,-y,z
1/2+x,1/2+y,1/2+z
1/2-x,1/2-y,1/2+z
1/2-x,1/2+y,1/2+z
1/2+x,1/2-y,1/2+z
loop_
_atom_site_type_symbol
_atom_site_label
_atom_site_fract_x
_atom_site_fract_y
_atom_site_fract_z
Si Si1 0.661713 0.109216 0.382850
Si Si2 0.837574 0.108478 0.943666
Si Si3 0.668279 0.285336 0.536935
Si Si4 0.164588 0.605503 0.613909
Si Si5 0.333936 0.711232 0.802303
Si Si6 0.668679 0.898619 0.489748
Si Si7 0.164088 0.604489 0.351505
Si Si8 0.335465 0.106301 0.224580
O O1 0.500000 0.145548 0.374998
O O2 0.768690 0.159087 0.347363
O O3 0.716690 0.131252 0.436480
O O4 0.667192 0.000000 0.372734
O O5 0.750363 0.140129 0.897457
O O6 0.000000 0.138307 0.934418
O O7 0.820797 0.000000 0.952894
O O8 0.778016 0.157974 0.990862
O O9 0.500000 0.296387 0.543916
O O10 0.743322 0.321880 0.584198
O O11 0.715002 0.177977 0.528675
O O12 0.212156 0.500000 0.602090
O O13 0.191596 0.627080 0.669220
O O14 0.000000 0.618969 0.600874
O O15 0.500000 0.686834 0.799230
O O16 0.309470 0.822656 0.808488
O O17 0.259655 0.678540 0.753783
O O18 0.500000 0.906457 0.487862
O O19 0.733095 0.000000 0.503803
O O20 0.212261 0.500000 0.335685
O O21 0.000000 0.604058 0.366770
O O22 0.500000 0.122093 0.237992
O O23 0.292515 0.000000 0.236845
#
# Coordination Sequence:
#
# PCOD8188102 Si02
#       8
#     8   8   8   8   8   8   8   8
#     4   9  17  30  48  68  93 128 162 187 219 269
#     4   9  17  28  43  67  96 122 153 193 231 268
#     4  10  18  28  47  72  95 121 154 193 233 268
#     4   9  19  35  52  70  93 120 149 182 224 278
#     4  11  21  30  46  72  96 119 151 193 236 271
#     4   8  15  28  45  66  93 126 163 195 220 257
#     4   9  19  34  47  62  91 129 162 190 223 266
#     4   9  19  36  54  70  91 120 150 180 222 280
#
# _framework density 16.933924000000001
#
# number of rings (size 3 to 8) (size 9 to 14) (size 15 to 20)
#    0.000    2.750    0.000    3.375    0.000    5.750 
#    0.000    3.125    0.000    1.875    0.000    5.250 
#    0.000    0.000    0.000    0.000    0.000    0.000 
#
# Total GULP energy -396717.519282 kJ/mol
# GULP energy per Si atom -12397.422478 kJ/mol
# Density = 1.689538 g / cm^3
# Si number density = 16.933924 Si / 1000 Ang^3
#
#
#
# Elastic Constant Matrix: (Units=GPa)
#
#
# Indices 1 2 3 4 5 6 
#
# 1 63.4888 46.2325 48.2732 0.0000 0.0000 0.0000
# 2 46.2325 87.3187 67.4429 0.0000 0.0000 0.0000
# 3 48.2732 67.4429 91.7783 0.0000 0.0000 0.0000
# 4 0.0000 0.0000 0.0000 29.8956 0.0000 0.0000
# 5 0.0000 0.0000 0.0000 0.0000 30.5801 0.0000
# 6 0.0000 0.0000 0.0000 0.0000 0.0000 21.4329
#
#
#
# Elastic Compliance Matrix: (Units=1/GPa)
#
#
# Indices 1 2 3 4 5 6 
#
# 1 0.028545 -0.008134 -0.009037 0.000000 0.000000 0.000000
# 2 -0.008134 0.028802 -0.016887 0.000000 0.000000 0.000000
# 3 -0.009037 -0.016887 0.028058 0.000000 0.000000 0.000000
# 4 0.000000 0.000000 0.000000 0.033450 0.000000 0.000000
# 5 0.000000 0.000000 0.000000 0.000000 0.032701 0.000000
# 6 0.000000 0.000000 0.000000 0.000000 0.000000 0.046657
#
#
# Mechanical properties :
#
#
# Convention : Reuss Voigt Hill
#
# Bulk Modulus (GPa) = 57.83649 62.94258 60.38953
# Shear Modulus (GPa) = 18.37622 21.75753 20.06688
#
# Velocity S-wave (km/s) = 3.29777 3.58837 3.44613
# Velocity P-wave (km/s) = 6.98060 7.37690 7.18148
#
# Compressibility (1/GPa) = 0.01729012
#
# Stress axis : x y z
#
# Youngs Moduli (GPa) = 35.03250 34.72011 35.64037
#
# Poissons Ratio (x) = 0.28241 0.32208
# Poissons Ratio (y) = 0.28495 0.60185
# Poissons Ratio (z) = 0.31658 0.58631
#
# Static dielectric constant tensor:
#      x y z
#    x 3.048200 0.000000 0.000000 
#    y 0.000000 3.510180 0.000000 
#    z 0.000000 0.000000 3.009770 
# 
# 
# High freq. dielectric constant tensor:
#      x y z
#    x 1.637720 0.000000 0.000000 
#    y 0.000000 1.658220 0.000000 
#    z 0.000000 0.000000 1.634610 
# 
# From -- ./inp_files/25136.got.cif
#   From: 2010.03.12/outbox.cif.g09.slc.cpg/sg44_13_cif.got.tgz:25136.got - 2010.04.14 02:36:11.
