data_PCOD8188029
_publ_section_title
;
Structure prediction by ZEFSAII (Michael W. Deem and Ramdas Pophale) SiO2 
 PCOD8188029
Probable space group: I M M 2
;
_chemical_formula_sum "Si O2"
_cell_formula_units_Z 56
_cell_length_a 9.235218
_cell_length_b 13.709014
_cell_length_c 28.948421
_cell_angle_alpha 90.000000
_cell_angle_beta 90.000000
_cell_angle_gamma 90.000000
_cell_volume 3665.036056
_symmetry_space_group_name_H-M "I M M 2"
_symmetry_group_IT_number 44
_symmetry_cell_setting 'orthorhombic'
loop_
_space_group_symop_operation_xyz
x,y,z
-x,-y,z
-x,y,z
x,-y,z
1/2+x,1/2+y,1/2+z
1/2-x,1/2-y,1/2+z
1/2-x,1/2+y,1/2+z
1/2+x,1/2-y,1/2+z
loop_
_atom_site_type_symbol
_atom_site_label
_atom_site_fract_x
_atom_site_fract_y
_atom_site_fract_z
Si Si1 0.170149 0.612459 0.318290
Si Si2 0.834751 0.206709 0.900541
Si Si3 0.667901 0.388870 0.496876
Si Si4 0.338919 0.384025 0.229480
Si Si5 0.166400 0.389415 0.958226
Si Si6 0.327979 0.715220 0.038061
Si Si7 0.328022 0.608382 0.128881
O O1 0.215738 0.500000 0.326620
O O2 0.229771 0.678788 0.359215
O O3 0.233760 0.652578 0.270018
O O4 0.000000 0.624767 0.316174
O O5 0.799429 0.137330 0.943837
O O6 0.803591 0.318957 0.914622
O O7 0.000000 0.192059 0.884300
O O8 0.500000 0.369726 0.507922
O O9 0.712680 0.500000 0.505776
O O10 0.763730 0.322754 0.530621
O O11 0.500000 0.342071 0.238887
O O12 0.345101 0.500000 0.228195
O O13 0.279083 0.349621 0.179139
O O14 0.199414 0.500000 0.942840
O O15 0.000000 0.375914 0.974274
O O16 0.268262 0.361242 0.000756
O O17 0.500000 0.718812 0.033568
O O18 0.275418 0.680347 0.088538
O O19 0.500000 0.600599 0.128967
O O20 0.262966 0.500000 0.120156
#
# Coordination Sequence:
#
# PCOD8188029 Si02
#       7
#     8   8   8   8   8   8   8
#     4  10  19  28  39  60  89 113 134 168 212 252
#     4   9  17  29  45  62  79 107 145 175 203 244
#     4   9  18  32  46  60  83 115 149 181 209 244
#     4   8  14  26  43  59  78 109 144 171 199 243
#     4   9  18  32  46  61  85 115 146 178 208 244
#     4  10  18  27  43  67  91 113 140 175 214 253
#     4   8  14  25  41  62  87 113 140 169 202 244
#
# _framework density 15.279522999999999
#
# number of rings (size 3 to 8) (size 9 to 14) (size 15 to 20)
#    0.000    3.000    0.000    3.429    0.000    4.857 
#    0.000    1.429    0.000    3.429    0.000    1.000 
#    0.000    3.429    0.000    0.000    0.000    0.000 
#
# Total GULP energy -347100.558212 kJ/mol
# GULP energy per Si atom -12396.448508 kJ/mol
# Density = 1.524475 g / cm^3
# Si number density = 15.279523 Si / 1000 Ang^3
#
#
#
# Elastic Constant Matrix: (Units=GPa)
#
#
# Indices 1 2 3 4 5 6 
#
# 1 62.7960 38.8606 55.1448 0.0000 0.0000 0.0000
# 2 38.8606 97.4285 57.5733 0.0000 0.0000 0.0000
# 3 55.1448 57.5733 127.2862 0.0000 0.0000 0.0000
# 4 0.0000 0.0000 0.0000 21.5408 0.0000 0.0000
# 5 0.0000 0.0000 0.0000 0.0000 23.1609 0.0000
# 6 0.0000 0.0000 0.0000 0.0000 0.0000 20.3706
#
#
#
# Elastic Compliance Matrix: (Units=1/GPa)
#
#
# Indices 1 2 3 4 5 6 
#
# 1 0.027630 -0.005387 -0.009534 0.000000 0.000000 0.000000
# 2 -0.005387 0.015058 -0.004477 0.000000 0.000000 0.000000
# 3 -0.009534 -0.004477 0.014012 0.000000 0.000000 0.000000
# 4 0.000000 0.000000 0.000000 0.046424 0.000000 0.000000
# 5 0.000000 0.000000 0.000000 0.000000 0.043176 0.000000
# 6 0.000000 0.000000 0.000000 0.000000 0.000000 0.049090
#
#
# Mechanical properties :
#
#
# Convention : Reuss Voigt Hill
#
# Bulk Modulus (GPa) = 55.85199 65.62979 60.74089
# Shear Modulus (GPa) = 20.81987 22.07660 21.44824
#
# Velocity S-wave (km/s) = 3.69535 3.80524 3.75070
# Velocity P-wave (km/s) = 7.40542 7.89636 7.65483
#
# Compressibility (1/GPa) = 0.01790447
#
# Stress axis : x y z
#
# Youngs Moduli (GPa) = 36.19190 66.40839 71.36804
#
# Poissons Ratio (x) = 0.35774 0.68042
# Poissons Ratio (y) = 0.19496 0.31954
# Poissons Ratio (z) = 0.34505 0.29733
#
# Static dielectric constant tensor:
#      x y z
#    x 2.841910 0.000000 0.000000 
#    y 0.000000 2.872220 0.000000 
#    z 0.000000 0.000000 3.074920 
# 
# 
# High freq. dielectric constant tensor:
#      x y z
#    x 1.578600 0.000000 0.000000 
#    y 0.000000 1.559470 0.000000 
#    z 0.000000 0.000000 1.580630 
# 
# From -- ./inp_files/27232.got.cif
#   From: 2010.03.12/outbox.cif.g09.slc.cpg/sg44_14_cif.got.tgz:27232.got - 2010.04.14 02:36:11.
