data_PCOD8188988
_publ_section_title
;
Structure prediction by ZEFSAII (Michael W. Deem and Ramdas Pophale) SiO2 
 PCOD8188988
Probable space group: I M M 2
;
_chemical_formula_sum "Si O2"
_cell_formula_units_Z 64
_cell_length_a 13.285244
_cell_length_b 17.888316
_cell_length_c 14.437341
_cell_angle_alpha 90.000000
_cell_angle_beta 90.000000
_cell_angle_gamma 90.000000
_cell_volume 3431.043369
_symmetry_space_group_name_H-M "I M M 2"
_symmetry_group_IT_number 44
_symmetry_cell_setting 'orthorhombic'
loop_
_space_group_symop_operation_xyz
x,y,z
-x,-y,z
-x,y,z
x,-y,z
1/2+x,1/2+y,1/2+z
1/2-x,1/2-y,1/2+z
1/2-x,1/2+y,1/2+z
1/2+x,1/2-y,1/2+z
loop_
_atom_site_type_symbol
_atom_site_label
_atom_site_fract_x
_atom_site_fract_y
_atom_site_fract_z
Si Si1 0.610726 0.414083 0.401700
Si Si2 0.118075 0.674121 0.936554
Si Si3 0.237822 0.308947 0.447223
Si Si4 0.617330 0.915250 0.813723
Si Si5 0.189929 0.415612 0.109605
Si Si6 0.885174 0.708271 0.627148
Si Si7 0.885411 0.869974 0.696705
Si Si8 0.881488 0.417890 0.760478
O O1 0.500000 0.379158 0.409875
O O2 0.609528 0.500000 0.425578
O O3 0.682965 0.373956 0.475744
O O4 0.651549 0.398492 0.297325
O O5 0.143451 0.642678 0.037649
O O6 0.000000 0.698223 0.931183
O O7 0.192095 0.742096 0.908724
O O8 0.143307 0.609301 0.863541
O O9 0.165218 0.347163 0.371789
O O10 0.177117 0.278798 0.534320
O O11 0.500000 0.913255 0.835395
O O12 0.635549 0.898332 0.706176
O O13 0.658241 0.000000 0.839055
O O14 0.167649 0.500000 0.076275
O O15 0.310789 0.405249 0.120514
O O16 0.878235 0.780376 0.693020
O O17 0.837873 0.638884 0.683659
O O18 0.000000 0.692856 0.598246
O O19 0.000000 0.897198 0.676777
O O20 0.833183 0.500000 0.746147
O O21 0.000000 0.421441 0.746303
#
# Coordination Sequence:
#
# PCOD8188988 Si02
#       8
#     8   8   8   8   8   8   8   8
#     4  10  20  34  55  82 110 141 179 227 280 331
#     4  11  23  37  56  82 111 146 186 234 283 333
#     4  12  21  34  54  80 113 150 184 221 272 333
#     4  10  22  38  57  83 116 149 182 224 281 347
#     4  11  21  37  59  85 112 145 183 227 286 346
#     4  10  21  36  55  79 109 144 184 228 274 327
#     4  10  19  35  56  81 112 143 179 229 282 333
#     4   9  19  36  55  76 103 139 184 231 274 315
#
# _framework density 18.653217999999999
#
# number of rings (size 3 to 8) (size 9 to 14) (size 15 to 20)
#    0.000    1.625    2.500    3.000    0.000    5.000 
#    0.000    1.250    0.000    0.000    0.000    0.000 
#    0.000    5.000    0.000    0.000    0.000    0.000 
#
# Total GULP energy -396657.932580 kJ/mol
# GULP energy per Si atom -12395.560393 kJ/mol
# Density = 1.861076 g / cm^3
# Si number density = 18.653218 Si / 1000 Ang^3
#
#
#
# Elastic Constant Matrix: (Units=GPa)
#
#
# Indices 1 2 3 4 5 6 
#
# 1 70.2630 24.3030 17.5037 0.0001 0.0000 0.0000
# 2 24.3030 95.4674 20.7822 0.0003 0.0000 0.0000
# 3 17.5037 20.7822 37.6935 0.0007 0.0000 0.0000
# 4 0.0001 0.0003 0.0007 30.1287 0.0000 0.0000
# 5 0.0000 0.0000 0.0000 0.0000 22.8125 0.0000
# 6 0.0000 0.0000 0.0000 0.0000 0.0000 28.7917
#
#
#
# Elastic Compliance Matrix: (Units=1/GPa)
#
#
# Indices 1 2 3 4 5 6 
#
# 1 0.016784 -0.002927 -0.006180 0.000000 0.000000 0.000000
# 2 -0.002927 0.012414 -0.005485 0.000000 0.000000 0.000000
# 3 -0.006180 -0.005485 0.032424 -0.000001 0.000000 0.000000
# 4 0.000000 0.000000 -0.000001 0.033191 0.000000 0.000000
# 5 0.000000 0.000000 0.000000 0.000000 0.043836 0.000000
# 6 0.000000 0.000000 0.000000 0.000000 0.000000 0.034732
#
#
# Mechanical properties :
#
#
# Convention : Reuss Voigt Hill
#
# Bulk Modulus (GPa) = 30.82899 36.51133 33.67016
# Shear Modulus (GPa) = 23.43254 25.73558 24.58406
#
# Velocity S-wave (km/s) = 3.54816 3.71844 3.63430
# Velocity P-wave (km/s) = 5.77488 6.16863 5.97500
#
# Compressibility (1/GPa) = 0.03243700
#
# Stress axis : x y z
#
# Youngs Moduli (GPa) = 59.57920 80.55390 30.84157
#
# Poissons Ratio (x) = 0.23582 0.19060
# Poissons Ratio (y) = 0.17441 0.16917
# Poissons Ratio (z) = 0.36821 0.44184
#
# Static dielectric constant tensor:
#      x y z
#    x 3.560200 0.000000 0.000000 
#    y 0.000000 3.626430 0.000000 
#    z 0.000000 0.000000 3.164260 
# 
# 
# High freq. dielectric constant tensor:
#      x y z
#    x 1.723920 0.000000 0.000000 
#    y 0.000000 1.734510 0.000000 
#    z 0.000000 0.000000 1.698410 
# 
# From -- ./inp_files/13468.got.cif
#   From: 2010.03.12/outbox.cif.g09.slc.cpg/sg44_7_cif.got.tgz:13468.got - 2010.04.14 02:36:11.
