data_PCOD8188963
_publ_section_title
;
Structure prediction by ZEFSAII (Michael W. Deem and Ramdas Pophale) SiO2 
 PCOD8188963
Probable space group: I M M 2
;
_chemical_formula_sum "Si O2"
_cell_formula_units_Z 48
_cell_length_a 18.218257
_cell_length_b 9.010711
_cell_length_c 14.985614
_cell_angle_alpha 90.000000
_cell_angle_beta 90.000000
_cell_angle_gamma 90.000000
_cell_volume 2460.030133
_symmetry_space_group_name_H-M "I M M 2"
_symmetry_group_IT_number 44
_symmetry_cell_setting 'orthorhombic'
loop_
_space_group_symop_operation_xyz
x,y,z
-x,-y,z
-x,y,z
x,-y,z
1/2+x,1/2+y,1/2+z
1/2-x,1/2-y,1/2+z
1/2-x,1/2+y,1/2+z
1/2+x,1/2-y,1/2+z
loop_
_atom_site_type_symbol
_atom_site_label
_atom_site_fract_x
_atom_site_fract_y
_atom_site_fract_z
Si Si1 0.500000 0.674564 0.771950
Si Si2 0.107720 0.665030 0.938491
Si Si3 0.155981 0.823486 0.334154
Si Si4 0.223407 0.324244 0.691999
Si Si5 0.500000 0.168234 0.591695
Si Si6 0.733543 0.332216 0.007626
Si Si7 0.418015 0.328991 0.264588
O O1 0.500000 0.500000 0.785059
O O2 0.425346 0.741564 0.814548
O O3 0.500000 0.711476 0.668376
O O4 0.083829 0.500000 0.906260
O O5 0.080049 0.785055 0.868269
O O6 0.072352 0.699129 0.033922
O O7 0.194326 0.672329 0.947381
O O8 0.215695 0.761255 0.261971
O O9 0.172769 0.775720 0.436429
O O10 0.157100 0.000000 0.325983
O O11 0.222263 0.500000 0.695354
O O12 0.242151 0.273775 0.592007
O O13 0.141732 0.267821 0.713038
O O14 0.500000 0.000000 0.629720
O O15 0.716925 0.500000 0.040844
O O16 0.500000 0.302848 0.224523
O O17 0.395500 0.500000 0.256105
#
# Coordination Sequence:
#
# PCOD8188963 Si02
#       7
#     4   8   8   8   4   8   8
#     4  10  20  36  58  83 112 153 196 237 282 336
#     4  10  19  34  58  83 116 154 189 233 294 355
#     4   9  19  37  60  83 115 155 194 235 286 344
#     4  11  22  39  61  86 116 156 200 242 293 353
#     4  10  20  32  52  85 116 147 182 231 298 352
#     4  10  20  37  58  84 115 153 198 243 291 346
#     4  11  23  38  58  86 117 149 192 245 298 352
#
# _framework density 19.511956000000001
#
# number of rings (size 3 to 8) (size 9 to 14) (size 15 to 20)
#    0.000    1.833    2.500    2.000    0.000    2.333 
#    1.500    1.667    0.000    0.000    0.000    0.000 
#    0.000    0.000    0.000    0.000    0.000    0.000 
#
# Total GULP energy -297540.630699 kJ/mol
# GULP energy per Si atom -12397.526279 kJ/mol
# Density = 1.946755 g / cm^3
# Si number density = 19.511956 Si / 1000 Ang^3
#
#
#
# Elastic Constant Matrix: (Units=GPa)
#
#
# Indices 1 2 3 4 5 6 
#
# 1 120.5723 29.6886 36.7780 0.0000 0.0000 0.0000
# 2 29.6886 52.8599 23.4643 0.0000 0.0000 0.0000
# 3 36.7780 23.4643 82.8256 0.0000 0.0000 0.0000
# 4 0.0000 0.0000 0.0000 34.7771 0.0000 0.0000
# 5 0.0000 0.0000 0.0000 0.0000 24.6419 0.0000
# 6 0.0000 0.0000 0.0000 0.0000 0.0000 21.3838
#
#
#
# Elastic Compliance Matrix: (Units=1/GPa)
#
#
# Indices 1 2 3 4 5 6 
#
# 1 0.010394 -0.004334 -0.003388 0.000000 0.000000 0.000000
# 2 -0.004334 0.023446 -0.004718 0.000000 0.000000 0.000000
# 3 -0.003388 -0.004718 0.014914 0.000000 0.000000 0.000000
# 4 0.000000 0.000000 0.000000 0.028755 0.000000 0.000000
# 5 0.000000 0.000000 0.000000 0.000000 0.040581 0.000000
# 6 0.000000 0.000000 0.000000 0.000000 0.000000 0.046764
#
#
# Mechanical properties :
#
#
# Convention : Reuss Voigt Hill
#
# Bulk Modulus (GPa) = 41.88321 48.45772 45.17046
# Shear Modulus (GPa) = 25.29174 27.24903 26.27039
#
# Velocity S-wave (km/s) = 3.60421 3.74107 3.67328
# Velocity P-wave (km/s) = 6.23157 6.59921 6.41802
#
# Compressibility (1/GPa) = 0.02387592
#
# Stress axis : x y z
#
# Youngs Moduli (GPa) = 96.20653 42.65050 67.04959
#
# Poissons Ratio (x) = 0.18485 0.22714
# Poissons Ratio (y) = 0.41698 0.31632
# Poissons Ratio (z) = 0.32591 0.20121
#
# Static dielectric constant tensor:
#      x y z
#    x 3.996560 0.000000 0.000000 
#    y 0.000000 3.364550 0.000000 
#    z 0.000000 0.000000 3.421940 
# 
# 
# High freq. dielectric constant tensor:
#      x y z
#    x 1.775580 0.000000 0.000000 
#    y 0.000000 1.734870 0.000000 
#    z 0.000000 0.000000 1.751190 
# 
# From -- ./inp_files/16140.got.cif
#   From: 2010.03.12/outbox.cif.g09.slc.cpg/sg44_9_cif.got.tgz:16140.got - 2010.04.14 02:36:11.
