data_PCOD8188542
_publ_section_title
;
Structure prediction by ZEFSAII (Michael W. Deem and Ramdas Pophale) SiO2 
 PCOD8188542
Probable space group: I M M 2
;
_chemical_formula_sum "Si O2"
_cell_formula_units_Z 40
_cell_length_a 35.818098
_cell_length_b 12.483415
_cell_length_c 5.205001
_cell_angle_alpha 90.000000
_cell_angle_beta 90.000000
_cell_angle_gamma 90.000000
_cell_volume 2327.323454
_symmetry_space_group_name_H-M "I M M 2"
_symmetry_group_IT_number 44
_symmetry_cell_setting 'orthorhombic'
loop_
_space_group_symop_operation_xyz
x,y,z
-x,-y,z
-x,y,z
x,-y,z
1/2+x,1/2+y,1/2+z
1/2-x,1/2-y,1/2+z
1/2-x,1/2+y,1/2+z
1/2+x,1/2-y,1/2+z
loop_
_atom_site_type_symbol
_atom_site_label
_atom_site_fract_x
_atom_site_fract_y
_atom_site_fract_z
Si Si1 0.786637 0.619839 0.959750
Si Si2 0.913762 0.872870 0.773129
Si Si3 0.210413 0.822938 0.248539
Si Si4 0.041735 0.126916 0.273933
Si Si5 0.830829 0.200155 0.759035
O O1 0.798261 0.500000 0.041699
O O2 0.748852 0.614752 0.791794
O O3 0.819782 0.673937 0.790356
O O4 0.779996 0.695203 0.211928
O O5 0.936229 0.833167 0.524068
O O6 0.874845 0.811420 0.779084
O O7 0.906824 0.000000 0.770732
O O8 0.936925 0.834540 0.020026
O O9 0.182882 0.844226 0.486384
O O10 0.189654 0.865720 0.990687
O O11 0.000000 0.175995 0.275279
O O12 0.038976 0.000000 0.276876
#
# Coordination Sequence:
#
# PCOD8188542 Si02
#       5
#     8   8   8   8   8
#     4  10  21  37  55  70  99 136 171 217 262 295
#     4  10  19  30  48  72 104 137 161 203 251 290
#     4  10  20  37  48  74  96 127 177 214 245 307
#     4   9  17  30  48  71  99 135 170 194 235 302
#     4  10  20  35  48  72 103 127 169 212 247 304
#
# _framework density 17.187125000000002
#
# number of rings (size 3 to 8) (size 9 to 14) (size 15 to 20)
#    1.200    1.000    2.000    1.800    0.000    4.800 
#    0.000    0.000    0.000    0.000    0.000    0.000 
#    0.000    4.800    0.000    0.000    0.000    0.000 
#
# Total GULP energy -247852.204262 kJ/mol
# GULP energy per Si atom -12392.610213 kJ/mol
# Density = 1.714801 g / cm^3
# Si number density = 17.187125 Si / 1000 Ang^3
#
#
#
# Elastic Constant Matrix: (Units=GPa)
#
#
# Indices 1 2 3 4 5 6 
#
# 1 159.0373 22.7377 62.2154 -0.0030 -0.0017 -0.0011
# 2 22.7377 45.3432 9.4888 0.0039 -0.0001 0.0025
# 3 62.2154 9.4888 141.8400 0.0040 0.0022 0.0027
# 4 -0.0030 0.0039 0.0040 9.2839 0.0018 0.0043
# 5 -0.0017 -0.0001 0.0022 0.0018 28.6835 0.0009
# 6 -0.0011 0.0025 0.0027 0.0043 0.0009 16.3460
#
#
#
# Elastic Compliance Matrix: (Units=1/GPa)
#
#
# Indices 1 2 3 4 5 6 
#
# 1 0.008063 -0.003350 -0.003312 0.000005 0.000001 0.000002
# 2 -0.003350 0.023759 -0.000120 -0.000011 0.000000 -0.000004
# 3 -0.003312 -0.000120 0.008511 -0.000005 -0.000001 -0.000002
# 4 0.000005 -0.000011 -0.000005 0.107714 -0.000007 -0.000029
# 5 0.000001 0.000000 -0.000001 -0.000007 0.034863 -0.000002
# 6 0.000002 -0.000004 -0.000002 -0.000029 -0.000002 0.061177
#
#
# Mechanical properties :
#
#
# Convention : Reuss Voigt Hill
#
# Bulk Modulus (GPa) = 37.35799 59.45604 48.40701
# Shear Modulus (GPa) = 18.75652 27.64791 23.20222
#
# Velocity S-wave (km/s) = 3.30709 4.01514 3.67819
# Velocity P-wave (km/s) = 6.03039 7.49424 6.80181
#
# Compressibility (1/GPa) = 0.02676804
#
# Stress axis : x y z
#
# Youngs Moduli (GPa) = 124.02986 42.08936 117.49298
#
# Poissons Ratio (x) = 0.14099 0.38918
# Poissons Ratio (y) = 0.41548 0.01411
# Poissons Ratio (z) = 0.41084 0.00505
#
# Static dielectric constant tensor:
#      x y z
#    x 3.167320 0.000000 0.000000 
#    y 0.000000 2.679540 -0.000010 
#    z 0.000000 -0.000010 3.387350 
# 
# 
# High freq. dielectric constant tensor:
#      x y z
#    x 1.662230 0.000000 0.000000 
#    y 0.000000 1.599600 0.000000 
#    z 0.000000 0.000000 1.679980 
# 
# From -- ./inp_files/3243.got.cif
#   From: 2010.03.12/outbox.cif.g09.slc.cpg/sg44_2_cif.got.tgz:3243.got - 2010.04.14 02:36:11.
