data_PCOD8188209
_publ_section_title
;
Structure prediction by ZEFSAII (Michael W. Deem and Ramdas Pophale) SiO2 
 PCOD8188209
Probable space group: I M M 2
;
_chemical_formula_sum "Si O2"
_cell_formula_units_Z 64
_cell_length_a 14.399513
_cell_length_b 14.358012
_cell_length_c 17.119771
_cell_angle_alpha 90.000000
_cell_angle_beta 90.000000
_cell_angle_gamma 90.000000
_cell_volume 3539.484928
_symmetry_space_group_name_H-M "I M M 2"
_symmetry_group_IT_number 44
_symmetry_cell_setting 'orthorhombic'
loop_
_space_group_symop_operation_xyz
x,y,z
-x,-y,z
-x,y,z
x,-y,z
1/2+x,1/2+y,1/2+z
1/2-x,1/2-y,1/2+z
1/2-x,1/2+y,1/2+z
1/2+x,1/2-y,1/2+z
loop_
_atom_site_type_symbol
_atom_site_label
_atom_site_fract_x
_atom_site_fract_y
_atom_site_fract_z
Si Si1 0.394806 0.709286 0.359180
Si Si2 0.223711 0.608443 0.298389
Si Si3 0.700608 0.893848 0.621317
Si Si4 0.893544 0.232374 0.037588
Si Si5 0.272902 0.889705 0.083926
Si Si6 0.398526 0.202759 0.208215
Si Si7 0.099612 0.104032 0.629890
Si Si8 0.396119 0.888974 0.938769
O O1 0.500000 0.670433 0.353524
O O2 0.324534 0.628264 0.334302
O O3 0.372745 0.742746 0.446250
O O4 0.381088 0.799496 0.301803
O O5 0.209399 0.500000 0.295454
O O6 0.209142 0.646023 0.210303
O O7 0.146895 0.650755 0.358049
O O8 0.627157 0.832623 0.575101
O O9 0.804227 0.884334 0.580915
O O10 0.664900 0.000000 0.619119
O O11 0.829464 0.153022 0.076075
O O12 0.000000 0.204970 0.054462
O O13 0.319302 0.853568 0.163722
O O14 0.263300 0.000000 0.086832
O O15 0.336548 0.853777 0.012642
O O16 0.500000 0.159916 0.186722
O O17 0.399809 0.314303 0.193272
O O18 0.000000 0.109629 0.582702
O O19 0.106508 0.000000 0.669633
O O20 0.500000 0.848977 0.947498
O O21 0.396421 0.000000 0.938569
#
# Coordination Sequence:
#
# PCOD8188209 Si02
#       8
#     8   8   8   8   8   8   8   8
#     4  10  20  33  51  75 109 147 181 223 269 317
#     4  10  18  30  50  77 108 138 175 221 269 325
#     4  10  20  35  56  79 107 146 185 222 270 323
#     4  11  23  38  54  77 111 147 186 226 266 319
#     4  11  21  36  56  78 107 142 181 225 274 326
#     4  10  19  33  54  81 110 141 181 224 272 326
#     4   9  16  27  49  81 110 133 164 214 274 329
#     4   9  18  31  47  71 103 135 167 211 267 323
#
# _framework density 18.081727000000001
#
# number of rings (size 3 to 8) (size 9 to 14) (size 15 to 20)
#    0.000    2.000    3.750    0.375    0.000    2.000 
#    0.000    3.125    0.000    2.250    0.000    0.000 
#    0.000    2.000    0.000    0.000    0.000    0.000 
#
# Total GULP energy -396420.240466 kJ/mol
# GULP energy per Si atom -12388.132515 kJ/mol
# Density = 1.804057 g / cm^3
# Si number density = 18.081727 Si / 1000 Ang^3
#
#
#
# Elastic Constant Matrix: (Units=GPa)
#
#
# Indices 1 2 3 4 5 6 
#
# 1 119.8095 32.9479 39.9107 0.0000 0.0000 0.0000
# 2 32.9479 62.1329 28.9382 0.0000 0.0000 0.0000
# 3 39.9107 28.9382 72.6024 0.0000 0.0000 0.0000
# 4 0.0000 0.0000 0.0000 18.1881 0.0000 0.0000
# 5 0.0000 0.0000 0.0000 0.0000 27.5473 0.0000
# 6 0.0000 0.0000 0.0000 0.0000 0.0000 21.8731
#
#
#
# Elastic Compliance Matrix: (Units=1/GPa)
#
#
# Indices 1 2 3 4 5 6 
#
# 1 0.010854 -0.003655 -0.004510 0.000000 0.000000 0.000000
# 2 -0.003655 0.020994 -0.006359 0.000000 0.000000 0.000000
# 3 -0.004510 -0.006359 0.018787 0.000000 0.000000 0.000000
# 4 0.000000 0.000000 0.000000 0.054981 0.000000 0.000000
# 5 0.000000 0.000000 0.000000 0.000000 0.036301 0.000000
# 6 0.000000 0.000000 0.000000 0.000000 0.000000 0.045718
#
#
# Mechanical properties :
#
#
# Convention : Reuss Voigt Hill
#
# Bulk Modulus (GPa) = 46.32141 50.90424 48.61282
# Shear Modulus (GPa) = 22.33344 23.70491 23.01917
#
# Velocity S-wave (km/s) = 3.51827 3.62468 3.57187
# Velocity P-wave (km/s) = 6.49443 6.76248 6.62981
#
# Compressibility (1/GPa) = 0.02158829
#
# Stress axis : x y z
#
# Youngs Moduli (GPa) = 92.13133 47.63173 53.22785
#
# Poissons Ratio (x) = 0.17411 0.24004
# Poissons Ratio (y) = 0.33677 0.33846
# Poissons Ratio (z) = 0.41548 0.30287
#
# Static dielectric constant tensor:
#      x y z
#    x 3.669580 0.000000 0.000000 
#    y 0.000000 3.028170 0.000000 
#    z 0.000000 0.000000 3.398530 
# 
# 
# High freq. dielectric constant tensor:
#      x y z
#    x 1.715960 0.000000 0.000000 
#    y 0.000000 1.666440 0.000000 
#    z 0.000000 0.000000 1.679960 
# 
# From -- ./inp_files/21975.got.cif
#   From: 2010.03.12/outbox.cif.g09.slc.cpg/sg44_11_cif.got.tgz:21975.got - 2010.04.14 02:36:11.
