data_PCOD8188477
_publ_section_title
;
Structure prediction by ZEFSAII (Michael W. Deem and Ramdas Pophale) SiO2 
 PCOD8188477
Probable space group: I M M 2
;
_chemical_formula_sum "Si O2"
_cell_formula_units_Z 64
_cell_length_a 33.231727
_cell_length_b 8.778081
_cell_length_c 11.773335
_cell_angle_alpha 90.000000
_cell_angle_beta 90.000000
_cell_angle_gamma 90.000000
_cell_volume 3434.408870
_symmetry_space_group_name_H-M "I M M 2"
_symmetry_group_IT_number 44
_symmetry_cell_setting 'orthorhombic'
loop_
_space_group_symop_operation_xyz
x,y,z
-x,-y,z
-x,y,z
x,-y,z
1/2+x,1/2+y,1/2+z
1/2-x,1/2-y,1/2+z
1/2-x,1/2+y,1/2+z
1/2+x,1/2-y,1/2+z
loop_
_atom_site_type_symbol
_atom_site_label
_atom_site_fract_x
_atom_site_fract_y
_atom_site_fract_z
Si Si1 0.454540 0.321304 0.798560
Si Si2 0.729543 0.820927 0.487652
Si Si3 0.109470 0.169018 0.944088
Si Si4 0.189578 0.324262 0.546444
Si Si5 0.670194 0.325995 0.650139
Si Si6 0.680240 0.678045 0.286759
Si Si7 0.954866 0.670450 0.062959
Si Si8 0.874202 0.676105 0.360109
O O1 0.500000 0.266349 0.833078
O O2 0.450380 0.500000 0.816439
O O3 0.446577 0.284098 0.666844
O O4 0.419696 0.241047 0.872262
O O5 0.776572 0.782178 0.490970
O O6 0.709167 0.767067 0.606300
O O7 0.712053 0.731395 0.380301
O O8 0.722807 0.000000 0.471845
O O9 0.136700 0.185838 0.054627
O O10 0.072818 0.286582 0.955728
O O11 0.091424 0.000000 0.935626
O O12 0.135205 0.206496 0.832726
O O13 0.203127 0.500000 0.538899
O O14 0.183714 0.279237 0.676132
O O15 0.147710 0.297711 0.480281
O O16 0.683359 0.500000 0.671816
O O17 0.652442 0.258199 0.765072
O O18 0.687992 0.500000 0.260914
O O19 0.945114 0.500000 0.105071
O O20 0.000000 0.684304 0.017972
O O21 0.877029 0.500000 0.327165
#
# Coordination Sequence:
#
# PCOD8188477 Si02
#       8
#     8   8   8   8   8   8   8   8
#     4  10  20  34  54  81 116 154 190 234 290 349
#     4  11  23  39  61  85 113 150 189 234 288 338
#     4   9  18  33  54  79 107 143 180 224 275 331
#     4  11  25  42  59  83 114 149 193 239 287 343
#     4  10  20  35  56  82 114 148 188 231 278 338
#     4  10  22  41  61  82 110 145 190 236 285 339
#     4  10  19  29  47  79 115 147 181 224 275 334
#     4  11  23  37  57  85 117 152 192 239 290 346
#
# _framework density 18.634938999999999
#
# number of rings (size 3 to 8) (size 9 to 14) (size 15 to 20)
#    0.000    1.750    1.250    4.125    1.750    6.000 
#    0.000    0.000    0.000    0.750    0.000    0.000 
#    0.000    0.000    0.000    0.000    0.000    0.000 
#
# Total GULP energy -396822.419773 kJ/mol
# GULP energy per Si atom -12400.700618 kJ/mol
# Density = 1.859253 g / cm^3
# Si number density = 18.634939 Si / 1000 Ang^3
#
#
#
# Elastic Constant Matrix: (Units=GPa)
#
#
# Indices 1 2 3 4 5 6 
#
# 1 111.1007 39.2229 29.3306 0.0000 0.0000 0.0000
# 2 39.2229 81.0223 16.5323 0.0000 0.0000 0.0000
# 3 29.3306 16.5323 67.1444 0.0000 0.0000 0.0000
# 4 0.0000 0.0000 0.0000 27.0609 0.0000 0.0000
# 5 0.0000 0.0000 0.0000 0.0000 24.7164 0.0000
# 6 0.0000 0.0000 0.0000 0.0000 0.0000 34.6295
#
#
#
# Elastic Compliance Matrix: (Units=1/GPa)
#
#
# Indices 1 2 3 4 5 6 
#
# 1 0.011767 -0.004894 -0.003935 0.000000 0.000000 0.000000
# 2 -0.004894 0.015030 -0.001563 0.000000 0.000000 0.000000
# 3 -0.003935 -0.001563 0.016997 0.000000 0.000000 0.000000
# 4 0.000000 0.000000 0.000000 0.036954 0.000000 0.000000
# 5 0.000000 0.000000 0.000000 0.000000 0.040459 0.000000
# 6 0.000000 0.000000 0.000000 0.000000 0.000000 0.028877
#
#
# Mechanical properties :
#
#
# Convention : Reuss Voigt Hill
#
# Bulk Modulus (GPa) = 43.45814 47.71543 45.58679
# Shear Modulus (GPa) = 28.00506 28.89346 28.44926
#
# Velocity S-wave (km/s) = 3.88083 3.94191 3.91149
# Velocity P-wave (km/s) = 6.59186 6.81022 6.70193
#
# Compressibility (1/GPa) = 0.02301065
#
# Stress axis : x y z
#
# Youngs Moduli (GPa) = 84.98028 66.53268 58.83301
#
# Poissons Ratio (x) = 0.32558 0.23153
# Poissons Ratio (y) = 0.41586 0.09196
# Poissons Ratio (z) = 0.33444 0.10400
#
# Static dielectric constant tensor:
#      x y z
#    x 3.635020 0.000000 0.000000 
#    y 0.000000 3.547780 0.000000 
#    z 0.000000 0.000000 3.209510 
# 
# 
# High freq. dielectric constant tensor:
#      x y z
#    x 1.728130 0.000000 0.000000 
#    y 0.000000 1.738370 0.000000 
#    z 0.000000 0.000000 1.691590 
# 
# From -- ./inp_files/15024.got.cif
#   From: 2010.03.12/outbox.cif.g09.slc.cpg/sg44_8_cif.got.tgz:15024.got - 2010.04.14 02:36:11.
