data_PCOD8188104
_publ_section_title
;
Structure prediction by ZEFSAII (Michael W. Deem and Ramdas Pophale) SiO2 
 PCOD8188104
Probable space group: I M M 2
;
_chemical_formula_sum "Si O2"
_cell_formula_units_Z 64
_cell_length_a 14.400791
_cell_length_b 9.321038
_cell_length_c 27.765821
_cell_angle_alpha 90.000000
_cell_angle_beta 90.000000
_cell_angle_gamma 90.000000
_cell_volume 3727.015042
_symmetry_space_group_name_H-M "I M M 2"
_symmetry_group_IT_number 44
_symmetry_cell_setting 'orthorhombic'
loop_
_space_group_symop_operation_xyz
x,y,z
-x,-y,z
-x,y,z
x,-y,z
1/2+x,1/2+y,1/2+z
1/2-x,1/2-y,1/2+z
1/2-x,1/2+y,1/2+z
1/2+x,1/2-y,1/2+z
loop_
_atom_site_type_symbol
_atom_site_label
_atom_site_fract_x
_atom_site_fract_y
_atom_site_fract_z
Si Si1 0.892032 0.167540 0.869380
Si Si2 0.395520 0.834204 0.095321
Si Si3 0.393414 0.835112 0.983412
Si Si4 0.606423 0.666582 0.817564
Si Si5 0.726861 0.329997 0.908882
Si Si6 0.217498 0.167032 0.671682
Si Si7 0.603808 0.166087 0.723260
Si Si8 0.897616 0.829730 0.761750
O O1 0.829006 0.259962 0.905682
O O2 0.867978 0.221471 0.815118
O O3 0.000000 0.196738 0.881142
O O4 0.868947 0.000000 0.875910
O O5 0.500000 0.780806 0.107665
O O6 0.319327 0.747496 0.125071
O O7 0.386021 0.000000 0.108817
O O8 0.374332 0.809004 0.039531
O O9 0.500000 0.797233 0.970938
O O10 0.325130 0.729668 0.955539
O O11 0.372676 0.000000 0.969644
O O12 0.500000 0.703755 0.830166
O O13 0.619859 0.500000 0.806724
O O14 0.668148 0.717064 0.862262
O O15 0.639025 0.750224 0.770171
O O16 0.736141 0.500000 0.913897
O O17 0.327685 0.196050 0.678244
O O18 0.170250 0.228229 0.720406
O O19 0.195033 0.000000 0.664837
O O20 0.500000 0.213918 0.707881
O O21 0.607437 0.000000 0.737643
O O22 0.000000 0.770127 0.749657
O O23 0.899149 0.000000 0.762577
#
# Coordination Sequence:
#
# PCOD8188104 Si02
#       8
#     8   8   8   8   8   8   8   8
#     4   9  18  33  51  69  94 132 173 207 236 272
#     4   9  19  35  52  72  98 123 150 191 240 286
#     4   9  19  36  55  73  95 124 157 194 238 291
#     4   9  18  31  45  66  99 133 161 192 235 286
#     4  11  21  31  48  74 102 129 158 198 246 292
#     4  10  18  28  47  72  96 125 160 196 236 283
#     4   9  18  31  46  67  96 129 165 202 234 268
#     4   8  14  25  42  66  94 122 156 197 235 274
#
# _framework density 17.171918999999999
#
# number of rings (size 3 to 8) (size 9 to 14) (size 15 to 20)
#    0.000    2.750    0.000    3.375    0.000    4.750 
#    0.000    3.125    0.000    1.500    0.000    3.500 
#    0.000    0.000    0.000    0.000    0.000    0.000 
#
# Total GULP energy -396745.133303 kJ/mol
# GULP energy per Si atom -12398.285416 kJ/mol
# Density = 1.713283 g / cm^3
# Si number density = 17.171919 Si / 1000 Ang^3
#
#
#
# Elastic Constant Matrix: (Units=GPa)
#
#
# Indices 1 2 3 4 5 6 
#
# 1 100.5944 48.5207 59.3999 0.0000 0.0000 0.0000
# 2 48.5207 60.6179 45.1828 0.0000 0.0000 0.0000
# 3 59.3999 45.1828 79.0060 0.0000 0.0000 0.0000
# 4 0.0000 0.0000 0.0000 29.9414 0.0000 0.0000
# 5 0.0000 0.0000 0.0000 0.0000 29.9957 0.0000
# 6 0.0000 0.0000 0.0000 0.0000 0.0000 24.2862
#
#
#
# Elastic Compliance Matrix: (Units=1/GPa)
#
#
# Indices 1 2 3 4 5 6 
#
# 1 0.020061 -0.008393 -0.010283 0.000000 0.000000 0.000000
# 2 -0.008393 0.032265 -0.012142 0.000000 0.000000 0.000000
# 3 -0.010283 -0.012142 0.027332 0.000000 0.000000 0.000000
# 4 0.000000 0.000000 0.000000 0.033399 0.000000 0.000000
# 5 0.000000 0.000000 0.000000 0.000000 0.033338 0.000000
# 6 0.000000 0.000000 0.000000 0.000000 0.000000 0.041176
#
#
# Mechanical properties :
#
#
# Convention : Reuss Voigt Hill
#
# Bulk Modulus (GPa) = 55.48526 60.71388 58.09957
# Shear Modulus (GPa) = 19.59141 22.65232 21.12186
#
# Velocity S-wave (km/s) = 3.38138 3.63595 3.51097
# Velocity P-wave (km/s) = 6.90122 7.28424 7.09531
#
# Compressibility (1/GPa) = 0.01802280
#
# Stress axis : x y z
#
# Youngs Moduli (GPa) = 49.84758 30.99325 36.58702
#
# Poissons Ratio (x) = 0.26013 0.37622
# Poissons Ratio (y) = 0.41838 0.44423
# Poissons Ratio (z) = 0.51257 0.37631
#
# Static dielectric constant tensor:
#      x y z
#    x 3.312800 0.000000 0.000000 
#    y 0.000000 2.998520 0.000000 
#    z 0.000000 0.000000 3.021410 
# 
# 
# High freq. dielectric constant tensor:
#      x y z
#    x 1.666580 0.000000 0.000000 
#    y 0.000000 1.648280 0.000000 
#    z 0.000000 0.000000 1.641800 
# 
# From -- ./inp_files/25767.got.cif
#   From: 2010.03.12/outbox.cif.g09.slc.cpg/sg44_13_cif.got.tgz:25767.got - 2010.04.14 02:36:11.
