data_PCOD8188436
_publ_section_title
;
Structure prediction by ZEFSAII (Michael W. Deem and Ramdas Pophale) SiO2 
 PCOD8188436
Probable space group: I M M 2
;
_chemical_formula_sum "Si O2"
_cell_formula_units_Z 56
_cell_length_a 13.874540
_cell_length_b 9.061633
_cell_length_c 29.160895
_cell_angle_alpha 90.000000
_cell_angle_beta 90.000000
_cell_angle_gamma 90.000000
_cell_volume 3666.282379
_symmetry_space_group_name_H-M "I M M 2"
_symmetry_group_IT_number 44
_symmetry_cell_setting 'orthorhombic'
loop_
_space_group_symop_operation_xyz
x,y,z
-x,-y,z
-x,y,z
x,-y,z
1/2+x,1/2+y,1/2+z
1/2-x,1/2-y,1/2+z
1/2-x,1/2+y,1/2+z
1/2+x,1/2-y,1/2+z
loop_
_atom_site_type_symbol
_atom_site_label
_atom_site_fract_x
_atom_site_fract_y
_atom_site_fract_z
Si Si1 0.292390 0.324136 0.653230
Si Si2 0.106077 0.174834 0.243575
Si Si3 0.206754 0.326471 0.794687
Si Si4 0.885505 0.333732 0.970417
Si Si5 0.111180 0.173734 0.879222
Si Si6 0.112258 0.827307 0.060878
Si Si7 0.605938 0.825065 0.201474
O O1 0.297149 0.500000 0.652994
O O2 0.360460 0.263146 0.694040
O O3 0.329150 0.263700 0.604505
O O4 0.182747 0.269501 0.663344
O O5 0.182777 0.217768 0.282903
O O6 0.000000 0.238926 0.255679
O O7 0.102457 0.000000 0.239825
O O8 0.196245 0.500000 0.805167
O O9 0.176033 0.233689 0.838374
O O10 0.139661 0.278384 0.752203
O O11 0.845420 0.500000 0.968303
O O12 0.849008 0.245610 0.925988
O O13 0.000000 0.330833 0.971588
O O14 0.846460 0.255628 0.016316
O O15 0.000000 0.218060 0.870505
O O16 0.123559 0.000000 0.883498
O O17 0.000000 0.793932 0.069265
O O18 0.130052 0.000000 0.053512
O O19 0.500000 0.756878 0.191471
O O20 0.601532 0.000000 0.199575
#
# Coordination Sequence:
#
# PCOD8188436 Si02
#       7
#     8   8   8   8   8   8   8
#     4   8  13  20  33  55  80 107 136 162 192 229
#     4   8  13  22  37  59  85 109 136 169 198 228
#     4   9  16  25  40  61  82 107 138 168 199 234
#     4   9  17  28  41  57  78 103 129 158 195 240
#     4  10  19  29  41  58  81 107 133 163 200 241
#     4   9  15  23  37  57  80 103 127 158 195 233
#     4   8  13  21  34  55  82 107 133 166 196 223
#
# _framework density 15.274327
#
# number of rings (size 3 to 8) (size 9 to 14) (size 15 to 20)
#    0.000    3.286    0.000    3.429    0.000    4.857 
#    0.000    0.000    0.000    3.857    0.000    1.000 
#    0.000    3.429    0.000    0.000    0.000    0.000 
#
# Total GULP energy -347014.278430 kJ/mol
# GULP energy per Si atom -12393.367087 kJ/mol
# Density = 1.523956 g / cm^3
# Si number density = 15.274327 Si / 1000 Ang^3
#
#
#
# Elastic Constant Matrix: (Units=GPa)
#
#
# Indices 1 2 3 4 5 6 
#
# 1 105.0987 23.8216 61.9986 0.0000 0.0000 0.0000
# 2 23.8216 42.4823 42.6238 0.0000 0.0000 0.0000
# 3 61.9986 42.6238 140.4380 0.0000 0.0000 0.0000
# 4 0.0000 0.0000 0.0000 22.1776 0.0000 0.0000
# 5 0.0000 0.0000 0.0000 0.0000 23.2058 0.0000
# 6 0.0000 0.0000 0.0000 0.0000 0.0000 8.9703
#
#
#
# Elastic Compliance Matrix: (Units=1/GPa)
#
#
# Indices 1 2 3 4 5 6 
#
# 1 0.013007 -0.002203 -0.005074 0.000000 0.000000 0.000000
# 2 -0.002203 0.034219 -0.009413 0.000000 0.000000 0.000000
# 3 -0.005074 -0.009413 0.012217 0.000000 0.000000 0.000000
# 4 0.000000 0.000000 0.000000 0.045091 0.000000 0.000000
# 5 0.000000 0.000000 0.000000 0.000000 0.043093 0.000000
# 6 0.000000 0.000000 0.000000 0.000000 0.000000 0.111479
#
#
# Mechanical properties :
#
#
# Convention : Reuss Voigt Hill
#
# Bulk Modulus (GPa) = 38.36721 60.54521 49.45621
# Shear Modulus (GPa) = 16.60175 21.50907 19.05541
#
# Velocity S-wave (km/s) = 3.30040 3.75665 3.53589
# Velocity P-wave (km/s) = 6.30054 7.65122 7.00849
#
# Compressibility (1/GPa) = 0.02606392
#
# Stress axis : x y z
#
# Youngs Moduli (GPa) = 76.88071 29.22347 81.85114
#
# Poissons Ratio (x) = 0.06439 0.41527
# Poissons Ratio (y) = 0.16938 0.77047
# Poissons Ratio (z) = 0.39006 0.27508
#
# Static dielectric constant tensor:
#      x y z
#    x 3.165070 0.000000 0.000000 
#    y 0.000000 2.604240 0.000000 
#    z 0.000000 0.000000 3.006900 
# 
# 
# High freq. dielectric constant tensor:
#      x y z
#    x 1.561360 0.000000 0.000000 
#    y 0.000000 1.550150 0.000000 
#    z 0.000000 0.000000 1.583920 
# 
# From -- ./inp_files/27218.got.cif
#   From: 2010.03.12/outbox.cif.g09.slc.cpg/sg44_14_cif.got.tgz:27218.got - 2010.04.14 02:36:11.
