data_PCOD8188418
_publ_section_title
;
Structure prediction by ZEFSAII (Michael W. Deem and Ramdas Pophale) SiO2 
 PCOD8188418
Probable space group: I M M 2
;
_chemical_formula_sum "Si O2"
_cell_formula_units_Z 64
_cell_length_a 18.522892
_cell_length_b 9.320929
_cell_length_c 26.019467
_cell_angle_alpha 90.000000
_cell_angle_beta 90.000000
_cell_angle_gamma 90.000000
_cell_volume 4492.275580
_symmetry_space_group_name_H-M "I M M 2"
_symmetry_group_IT_number 44
_symmetry_cell_setting 'orthorhombic'
loop_
_space_group_symop_operation_xyz
x,y,z
-x,-y,z
-x,y,z
x,-y,z
1/2+x,1/2+y,1/2+z
1/2-x,1/2-y,1/2+z
1/2-x,1/2+y,1/2+z
1/2+x,1/2-y,1/2+z
loop_
_atom_site_type_symbol
_atom_site_label
_atom_site_fract_x
_atom_site_fract_y
_atom_site_fract_z
Si Si1 0.656955 0.832104 0.925660
Si Si2 0.795825 0.165965 0.867905
Si Si3 0.080300 0.835720 0.335204
Si Si4 0.419299 0.668116 0.130893
Si Si5 0.418039 0.831795 0.323970
Si Si6 0.656352 0.162157 0.216559
Si Si7 0.218763 0.161589 0.283073
Si Si8 0.916537 0.833695 0.513470
O O1 0.743173 0.806765 0.916849
O O2 0.608800 0.759657 0.881714
O O3 0.638776 0.000000 0.925633
O O4 0.636321 0.764204 0.980062
O O5 0.870992 0.254251 0.868751
O O6 0.750321 0.216252 0.819118
O O7 0.815465 0.000000 0.862126
O O8 0.131731 0.819943 0.284456
O O9 0.000000 0.786159 0.319301
O O10 0.080098 0.000000 0.354561
O O11 0.500000 0.723508 0.143793
O O12 0.415175 0.500000 0.139669
O O13 0.362097 0.740311 0.168403
O O14 0.399946 0.706407 0.072389
O O15 0.500000 0.776448 0.327843
O O16 0.387492 0.791296 0.267653
O O17 0.413023 0.000000 0.333877
O O18 0.742955 0.179254 0.227460
O O19 0.636088 0.000000 0.201875
O O20 0.239053 0.000000 0.303435
O O21 0.000000 0.800955 0.500164
O O22 0.899596 0.000000 0.502884
#
# Coordination Sequence:
#
# PCOD8188418 Si02
#       8
#     8   8   8   8   8   8   8   8
#     4  10  19  28  39  57  80 104 130 161 196 230
#     4   9  17  27  38  55  78 102 129 159 191 228
#     4   9  16  26  41  58  76 103 136 163 189 226
#     4   9  18  30  41  55  76 100 128 163 196 225
#     4   9  17  28  41  58  80 105 133 162 190 224
#     4   9  16  26  40  56  76 103 130 156 190 228
#     4   8  15  27  39  53  76 103 130 160 192 226
#     4   9  18  31  43  55  74 101 132 163 194 230
#
# _framework density 14.246677999999999
#
# number of rings (size 3 to 8) (size 9 to 14) (size 15 to 20)
#    0.000    3.000    0.000    3.000    0.000    7.000 
#    0.000    1.250    0.000    0.000    0.000    0.000 
#    0.000    1.000    0.000    9.000    0.000    4.250 
#
# Total GULP energy -396495.418294 kJ/mol
# GULP energy per Si atom -12390.481822 kJ/mol
# Density = 1.421425 g / cm^3
# Si number density = 14.246678 Si / 1000 Ang^3
#
#
#
# Elastic Constant Matrix: (Units=GPa)
#
#
# Indices 1 2 3 4 5 6 
#
# 1 114.1860 43.1869 52.2448 0.0000 0.0000 0.0000
# 2 43.1869 57.7370 40.0837 0.0000 0.0000 0.0000
# 3 52.2448 40.0837 70.5965 0.0000 0.0000 0.0000
# 4 0.0000 0.0000 0.0000 22.6239 0.0000 0.0000
# 5 0.0000 0.0000 0.0000 0.0000 22.9493 0.0000
# 6 0.0000 0.0000 0.0000 0.0000 0.0000 20.9249
#
#
#
# Elastic Compliance Matrix: (Units=1/GPa)
#
#
# Indices 1 2 3 4 5 6 
#
# 1 0.014226 -0.005500 -0.007405 0.000000 0.000000 0.000000
# 2 -0.005500 0.030716 -0.013370 0.000000 0.000000 0.000000
# 3 -0.007405 -0.013370 0.027236 0.000000 0.000000 0.000000
# 4 0.000000 0.000000 0.000000 0.044201 0.000000 0.000000
# 5 0.000000 0.000000 0.000000 0.000000 0.043574 0.000000
# 6 0.000000 0.000000 0.000000 0.000000 0.000000 0.047790
#
#
# Mechanical properties :
#
#
# Convention : Reuss Voigt Hill
#
# Bulk Modulus (GPa) = 50.94658 57.06115 54.00387
# Shear Modulus (GPa) = 18.73812 20.43322 19.58567
#
# Velocity S-wave (km/s) = 3.63059 3.79125 3.71179
# Velocity P-wave (km/s) = 7.30841 7.70091 7.50722
#
# Compressibility (1/GPa) = 0.01962840
#
# Stress axis : x y z
#
# Youngs Moduli (GPa) = 70.29407 32.55659 36.71574
#
# Poissons Ratio (x) = 0.17906 0.27188
# Poissons Ratio (y) = 0.38662 0.49088
# Poissons Ratio (z) = 0.52053 0.43527
#
# Static dielectric constant tensor:
#      x y z
#    x 3.050490 0.000000 0.000000 
#    y 0.000000 2.794170 0.000000 
#    z 0.000000 0.000000 2.563380 
# 
# 
# High freq. dielectric constant tensor:
#      x y z
#    x 1.539870 0.000000 0.000000 
#    y 0.000000 1.550230 0.000000 
#    z 0.000000 0.000000 1.503570 
# 
# From -- ./inp_files/25219.got.cif
#   From: 2010.03.12/outbox.cif.g09.slc.cpg/sg44_13_cif.got.tgz:25219.got - 2010.04.14 02:36:11.
