data_PCOD8188562
_publ_section_title
;
Structure prediction by ZEFSAII (Michael W. Deem and Ramdas Pophale) SiO2 
 PCOD8188562
Probable space group: I M M 2
;
_chemical_formula_sum "Si O2"
_cell_formula_units_Z 56
_cell_length_a 22.592034
_cell_length_b 8.928665
_cell_length_c 17.552498
_cell_angle_alpha 90.000000
_cell_angle_beta 90.000000
_cell_angle_gamma 90.000000
_cell_volume 3540.632030
_symmetry_space_group_name_H-M "I M M 2"
_symmetry_group_IT_number 44
_symmetry_cell_setting 'orthorhombic'
loop_
_space_group_symop_operation_xyz
x,y,z
-x,-y,z
-x,y,z
x,-y,z
1/2+x,1/2+y,1/2+z
1/2-x,1/2-y,1/2+z
1/2-x,1/2+y,1/2+z
1/2+x,1/2-y,1/2+z
loop_
_atom_site_type_symbol
_atom_site_label
_atom_site_fract_x
_atom_site_fract_y
_atom_site_fract_z
Si Si1 0.779265 0.824093 0.001370
Si Si2 0.841413 0.174483 0.545971
Si Si3 0.817197 0.334559 0.143274
Si Si4 0.224490 0.676416 0.848538
Si Si5 0.847237 0.323275 0.305244
Si Si6 0.432227 0.673825 0.917818
Si Si7 0.814671 0.165211 0.707215
O O1 0.711828 0.774542 0.014608
O O2 0.821729 0.778048 0.072032
O O3 0.782041 0.000000 0.990640
O O4 0.803648 0.745286 0.925078
O O5 0.899653 0.210335 0.497299
O O6 0.855546 0.213750 0.635013
O O7 0.822507 0.000000 0.539182
O O8 0.836249 0.500000 0.115322
O O9 0.856983 0.282980 0.215572
O O10 0.750928 0.338679 0.174092
O O11 0.227711 0.500000 0.855645
O O12 0.290648 0.738582 0.839132
O O13 0.181922 0.720063 0.777607
O O14 0.836342 0.500000 0.315133
O O15 0.905479 0.271335 0.349438
O O16 0.500000 0.721013 0.928504
O O17 0.425470 0.500000 0.896353
O O18 0.832602 0.000000 0.737090
#
# Coordination Sequence:
#
# PCOD8188562 Si02
#       7
#     8   8   8   8   8   8   8
#     4  11  19  26  41  64  87 113 146 177 210 260
#     4   9  17  30  44  58  83 116 144 180 222 255
#     4   8  16  29  42  58  83 112 142 175 216 263
#     4  11  19  27  41  61  87 116 144 176 216 260
#     4  10  19  31  45  61  83 114 148 184 223 259
#     4  10  20  32  47  66  87 117 155 188 220 259
#     4   8  15  27  41  58  81 110 144 176 212 258
#
# _framework density 15.816385
#
# number of rings (size 3 to 8) (size 9 to 14) (size 15 to 20)
#    0.000    2.429    1.429    4.714    0.000    6.000 
#    0.000    0.000    0.000    0.000    0.000    0.000 
#    0.000    1.143    0.000    6.000    0.000    3.000 
#
# Total GULP energy -347062.367305 kJ/mol
# GULP energy per Si atom -12395.084547 kJ/mol
# Density = 1.578039 g / cm^3
# Si number density = 15.816385 Si / 1000 Ang^3
#
#
#
# Elastic Constant Matrix: (Units=GPa)
#
#
# Indices 1 2 3 4 5 6 
#
# 1 46.3628 22.1913 43.5623 0.0000 0.0000 0.0000
# 2 22.1913 105.7395 67.9923 0.0000 0.0000 0.0000
# 3 43.5623 67.9923 148.2296 0.0000 0.0000 0.0000
# 4 0.0000 0.0000 0.0000 29.8527 0.0000 0.0000
# 5 0.0000 0.0000 0.0000 0.0000 15.8020 0.0000
# 6 0.0000 0.0000 0.0000 0.0000 0.0000 9.7326
#
#
#
# Elastic Compliance Matrix: (Units=1/GPa)
#
#
# Indices 1 2 3 4 5 6 
#
# 1 0.029855 -0.000885 -0.008368 0.000000 0.000000 0.000000
# 2 -0.000885 0.013440 -0.005905 0.000000 0.000000 0.000000
# 3 -0.008368 -0.005905 0.011914 0.000000 0.000000 0.000000
# 4 0.000000 0.000000 0.000000 0.033498 0.000000 0.000000
# 5 0.000000 0.000000 0.000000 0.000000 0.063283 0.000000
# 6 0.000000 0.000000 0.000000 0.000000 0.000000 0.102748
#
#
# Mechanical properties :
#
#
# Convention : Reuss Voigt Hill
#
# Bulk Modulus (GPa) = 40.17087 63.09152 51.63119
# Shear Modulus (GPa) = 17.04446 22.18319 19.61383
#
# Velocity S-wave (km/s) = 3.28631 3.74912 3.52532
# Velocity P-wave (km/s) = 6.31294 7.66275 7.02036
#
# Compressibility (1/GPa) = 0.02489366
#
# Stress axis : x y z
#
# Youngs Moduli (GPa) = 33.49509 74.40630 83.93484
#
# Poissons Ratio (x) = 0.06583 0.70237
# Poissons Ratio (y) = 0.02964 0.49561
# Poissons Ratio (z) = 0.28029 0.43935
#
# Static dielectric constant tensor:
#      x y z
#    x 2.549720 0.000000 0.000000 
#    y 0.000000 3.007180 0.000000 
#    z 0.000000 0.000000 3.581330 
# 
# 
# High freq. dielectric constant tensor:
#      x y z
#    x 1.529800 0.000000 0.000000 
#    y 0.000000 1.611740 0.000000 
#    z 0.000000 0.000000 1.627310 
# 
# From -- ./inp_files/20684.got.cif
#   From: 2010.03.12/outbox.cif.g09.slc.cpg/sg44_11_cif.got.tgz:20684.got - 2010.04.14 02:36:11.
