data_PCOD8188161
_publ_section_title
;
Structure prediction by ZEFSAII (Michael W. Deem and Ramdas Pophale) SiO2 
 PCOD8188161
Probable space group: I M M 2
;
_chemical_formula_sum "Si O2"
_cell_formula_units_Z 64
_cell_length_a 14.388596
_cell_length_b 8.855974
_cell_length_c 28.224772
_cell_angle_alpha 90.000000
_cell_angle_beta 90.000000
_cell_angle_gamma 90.000000
_cell_volume 3596.542477
_symmetry_space_group_name_H-M "I M M 2"
_symmetry_group_IT_number 44
_symmetry_cell_setting 'orthorhombic'
loop_
_space_group_symop_operation_xyz
x,y,z
-x,-y,z
-x,y,z
x,-y,z
1/2+x,1/2+y,1/2+z
1/2-x,1/2-y,1/2+z
1/2-x,1/2+y,1/2+z
1/2+x,1/2-y,1/2+z
loop_
_atom_site_type_symbol
_atom_site_label
_atom_site_fract_x
_atom_site_fract_y
_atom_site_fract_z
Si Si1 0.600524 0.822074 0.465930
Si Si2 0.893313 0.174001 0.599757
Si Si3 0.608182 0.173133 0.918832
Si Si4 0.290530 0.322629 0.005616
Si Si5 0.894108 0.821872 0.321471
Si Si6 0.893322 0.323090 0.697497
Si Si7 0.223695 0.822494 0.779387
Si Si8 0.108218 0.672491 0.860052
O O1 0.500000 0.755011 0.482422
O O2 0.680954 0.779377 0.503193
O O3 0.626008 0.764498 0.413117
O O4 0.590249 0.000000 0.461260
O O5 0.828559 0.227597 0.556539
O O6 0.866624 0.276913 0.644218
O O7 0.000000 0.198437 0.584416
O O8 0.874704 0.000000 0.613023
O O9 0.500000 0.194647 0.928319
O O10 0.639776 0.269431 0.873396
O O11 0.634603 0.000000 0.909134
O O12 0.658503 0.230977 0.965246
O O13 0.307550 0.500000 0.997078
O O14 0.827117 0.747794 0.282337
O O15 0.000000 0.768042 0.311895
O O16 0.885587 0.000000 0.318402
O O17 0.878441 0.500000 0.704142
O O18 0.825734 0.236326 0.732435
O O19 0.000000 0.276872 0.708122
O O20 0.164525 0.779077 0.825221
O O21 0.233202 0.000000 0.775952
O O22 0.143490 0.500000 0.854033
O O23 0.000000 0.681949 0.846945
#
# Coordination Sequence:
#
# PCOD8188161 Si02
#       8
#     8   8   8   8   8   8   8   8
#     4   8  15  28  46  69  97 130 168 207 241 276
#     4   9  18  32  49  72 101 128 160 207 259 307
#     4  10  20  32  47  72 106 137 166 205 251 297
#     4  10  18  29  50  75  99 133 173 208 248 304
#     4  10  21  37  55  73  98 135 175 211 247 292
#     4  10  21  37  56  76  99 130 168 207 250 305
#     4  12  23  33  51  77 104 132 163 205 256 307
#     4   9  17  30  48  71 102 139 177 212 244 288
#
# _framework density 17.794868000000001
#
# number of rings (size 3 to 8) (size 9 to 14) (size 15 to 20)
#    0.000    2.250    0.000    4.500    0.000    6.000 
#    0.000    1.250    0.000    1.875    0.000    1.750 
#    0.000    0.000    0.000    0.000    0.000    0.000 
#
# Total GULP energy -396811.356001 kJ/mol
# GULP energy per Si atom -12400.354875 kJ/mol
# Density = 1.775437 g / cm^3
# Si number density = 17.794868 Si / 1000 Ang^3
#
#
#
# Elastic Constant Matrix: (Units=GPa)
#
#
# Indices 1 2 3 4 5 6 
#
# 1 100.5021 43.7776 74.3155 0.0000 0.0000 0.0000
# 2 43.7776 73.3022 37.5033 0.0000 0.0000 0.0000
# 3 74.3155 37.5033 97.6289 0.0000 0.0000 0.0000
# 4 0.0000 0.0000 0.0000 27.7225 0.0000 0.0000
# 5 0.0000 0.0000 0.0000 0.0000 32.8062 0.0000
# 6 0.0000 0.0000 0.0000 0.0000 0.0000 21.4728
#
#
#
# Elastic Compliance Matrix: (Units=1/GPa)
#
#
# Indices 1 2 3 4 5 6 
#
# 1 0.025003 -0.006466 -0.016549 0.000000 0.000000 0.000000
# 2 -0.006466 0.018651 -0.002243 0.000000 0.000000 0.000000
# 3 -0.016549 -0.002243 0.023702 0.000000 0.000000 0.000000
# 4 0.000000 0.000000 0.000000 0.036072 0.000000 0.000000
# 5 0.000000 0.000000 0.000000 0.000000 0.030482 0.000000
# 6 0.000000 0.000000 0.000000 0.000000 0.000000 0.046571
#
#
# Mechanical properties :
#
#
# Convention : Reuss Voigt Hill
#
# Bulk Modulus (GPa) = 59.37906 64.73622 62.05764
# Shear Modulus (GPa) = 21.13188 24.12276 22.62732
#
# Velocity S-wave (km/s) = 3.44979 3.68584 3.56977
# Velocity P-wave (km/s) = 7.02205 7.38729 7.20698
#
# Compressibility (1/GPa) = 0.01684095
#
# Stress axis : x y z
#
# Youngs Moduli (GPa) = 39.99456 53.61592 42.19121
#
# Poissons Ratio (x) = 0.34666 0.69822
# Poissons Ratio (y) = 0.25859 0.09464
# Poissons Ratio (z) = 0.66187 0.12026
#
# Static dielectric constant tensor:
#      x y z
#    x 3.740920 0.000000 0.000000 
#    y 0.000000 3.184790 0.000000 
#    z 0.000000 0.000000 3.192070 
# 
# 
# High freq. dielectric constant tensor:
#      x y z
#    x 1.693410 0.000000 0.000000 
#    y 0.000000 1.679490 0.000000 
#    z 0.000000 0.000000 1.669460 
# 
# From -- ./inp_files/27529.got.cif
#   From: 2010.03.12/outbox.cif.g09.slc.cpg/sg44_14_cif.got.tgz:27529.got - 2010.04.14 02:36:11.
