data_PCOD8188382
_publ_section_title
;
Structure prediction by ZEFSAII (Michael W. Deem and Ramdas Pophale) SiO2 
 PCOD8188382
Probable space group: I M M 2
;
_chemical_formula_sum "Si O2"
_cell_formula_units_Z 48
_cell_length_a 8.963877
_cell_length_b 10.380663
_cell_length_c 28.378044
_cell_angle_alpha 90.000000
_cell_angle_beta 90.000000
_cell_angle_gamma 90.000000
_cell_volume 2640.604984
_symmetry_space_group_name_H-M "I M M 2"
_symmetry_group_IT_number 44
_symmetry_cell_setting 'orthorhombic'
loop_
_space_group_symop_operation_xyz
x,y,z
-x,-y,z
-x,y,z
x,-y,z
1/2+x,1/2+y,1/2+z
1/2-x,1/2-y,1/2+z
1/2-x,1/2+y,1/2+z
1/2+x,1/2-y,1/2+z
loop_
_atom_site_type_symbol
_atom_site_label
_atom_site_fract_x
_atom_site_fract_y
_atom_site_fract_z
Si Si1 0.676637 0.500000 0.652350
Si Si2 0.823851 0.243889 0.213242
Si Si3 0.823260 0.500000 0.057321
Si Si4 0.322114 0.000000 0.663114
Si Si5 0.326296 0.149908 0.303433
Si Si6 0.323511 0.857549 0.407349
Si Si7 0.677050 0.000000 0.050844
Si Si8 0.823184 0.755784 0.003779
O O1 0.500000 0.500000 0.642932
O O2 0.729190 0.375403 0.681395
O O3 0.760326 0.500000 0.603243
O O4 0.761504 0.374033 0.189798
O O5 0.761520 0.234941 0.265874
O O6 0.000000 0.246041 0.216783
O O7 0.757851 0.500000 0.110139
O O8 0.768263 0.628018 0.030881
O O9 0.000000 0.500000 0.057976
O O10 0.500000 0.000000 0.661643
O O11 0.500000 0.176439 0.296387
O O12 0.272457 0.193221 0.355842
O O13 0.288666 0.000000 0.295945
O O14 0.500000 0.873002 0.406868
O O15 0.277110 0.759760 0.448787
O O16 0.255469 0.000000 0.416984
O O17 0.733905 0.875470 0.023520
O O18 0.500000 0.000000 0.052341
O O19 0.000000 0.778397 0.010163
#
# Coordination Sequence:
#
# PCOD8188382 Si02
#       8
#     4   8   4   4   8   8   4   8
#     4  10  20  36  57  76  96 133 187 234 259 300
#     4  10  19  33  53  77 104 133 174 218 256 303
#     4   9  16  30  58  85  99 123 174 227 268 305
#     4   9  18  30  46  73 106 131 155 207 268 303
#     4   9  17  30  51  78 108 136 166 210 262 311
#     4   8  14  28  53  84 106 126 167 220 264 305
#     4  12  26  38  49  74 115 151 176 212 271 334
#     4  10  18  34  60  84 104 133 177 225 266 313
#
# _framework density 18.177652999999999
#
# number of rings (size 3 to 8) (size 9 to 14) (size 15 to 20)
#    0.000    2.500    1.667    2.750    0.000    3.333 
#    0.000    2.500    0.000    5.000    0.000    0.000 
#    0.000    0.000    0.000    0.000    0.000    0.000 
#
# Total GULP energy -297536.727528 kJ/mol
# GULP energy per Si atom -12397.363647 kJ/mol
# Density = 1.813628 g / cm^3
# Si number density = 18.177653 Si / 1000 Ang^3
#
#
#
# Elastic Constant Matrix: (Units=GPa)
#
#
# Indices 1 2 3 4 5 6 
#
# 1 30.3450 31.0951 36.9648 0.0000 0.0000 0.0000
# 2 31.0951 140.1870 85.4923 0.0000 0.0000 0.0000
# 3 36.9648 85.4923 186.6084 0.0000 0.0000 0.0000
# 4 0.0000 0.0000 0.0000 49.4186 0.0000 0.0000
# 5 0.0000 0.0000 0.0000 0.0000 26.7154 0.0000
# 6 0.0000 0.0000 0.0000 0.0000 0.0000 11.0921
#
#
#
# Elastic Compliance Matrix: (Units=1/GPa)
#
#
# Indices 1 2 3 4 5 6 
#
# 1 0.047533 -0.006663 -0.006363 0.000000 0.000000 0.000000
# 2 -0.006663 0.010833 -0.003643 0.000000 0.000000 0.000000
# 3 -0.006363 -0.003643 0.008288 0.000000 0.000000 0.000000
# 4 0.000000 0.000000 0.000000 0.020235 0.000000 0.000000
# 5 0.000000 0.000000 0.000000 0.000000 0.037432 0.000000
# 6 0.000000 0.000000 0.000000 0.000000 0.000000 0.090155
#
#
# Mechanical properties :
#
#
# Convention : Reuss Voigt Hill
#
# Bulk Modulus (GPa) = 30.01546 73.80496 51.91021
# Shear Modulus (GPa) = 19.31097 31.01775 25.16436
#
# Velocity S-wave (km/s) = 3.26290 4.13530 3.72473
# Velocity P-wave (km/s) = 5.54468 7.96813 6.86421
#
# Compressibility (1/GPa) = 0.03331616
#
# Stress axis : x y z
#
# Youngs Moduli (GPa) = 21.03786 92.31056 120.65095
#
# Poissons Ratio (x) = 0.61505 0.76773
# Poissons Ratio (y) = 0.14017 0.43955
# Poissons Ratio (z) = 0.13387 0.33630
#
# Static dielectric constant tensor:
#      x y z
#    x 2.900430 0.000000 0.000000 
#    y 0.000000 3.424720 0.000000 
#    z 0.000000 0.000000 3.757060 
# 
# 
# High freq. dielectric constant tensor:
#      x y z
#    x 1.657620 0.000000 0.000000 
#    y 0.000000 1.695260 0.000000 
#    z 0.000000 0.000000 1.725270 
# 
# From -- ./inp_files/27065.got.cif
#   From: 2010.03.12/outbox.cif.g09.slc.cpg/sg44_14_cif.got.tgz:27065.got - 2010.04.14 02:36:11.
