data_PCOD8188112
_publ_section_title
;
Structure prediction by ZEFSAII (Michael W. Deem and Ramdas Pophale) SiO2 
 PCOD8188112
Probable space group: I M M 2
;
_chemical_formula_sum "Si O2"
_cell_formula_units_Z 64
_cell_length_a 25.367048
_cell_length_b 18.488747
_cell_length_c 9.432956
_cell_angle_alpha 90.000000
_cell_angle_beta 90.000000
_cell_angle_gamma 90.000000
_cell_volume 4424.102893
_symmetry_space_group_name_H-M "I M M 2"
_symmetry_group_IT_number 44
_symmetry_cell_setting 'orthorhombic'
loop_
_space_group_symop_operation_xyz
x,y,z
-x,-y,z
-x,y,z
x,-y,z
1/2+x,1/2+y,1/2+z
1/2-x,1/2-y,1/2+z
1/2-x,1/2+y,1/2+z
1/2+x,1/2-y,1/2+z
loop_
_atom_site_type_symbol
_atom_site_label
_atom_site_fract_x
_atom_site_fract_y
_atom_site_fract_z
Si Si1 0.335515 0.581775 0.113880
Si Si2 0.697862 0.788926 0.742324
Si Si3 0.143466 0.846584 0.337242
Si Si4 0.145518 0.917668 0.929233
Si Si5 0.740067 0.678808 0.526815
Si Si6 0.286507 0.918451 0.572855
Si Si7 0.940651 0.916890 0.149942
Si Si8 0.245804 0.583887 0.764389
O O1 0.348515 0.500000 0.061570
O O2 0.362030 0.599005 0.263849
O O3 0.272761 0.589184 0.130706
O O4 0.359606 0.640586 0.005975
O O5 0.650364 0.738112 0.796368
O O6 0.731343 0.751798 0.616315
O O7 0.733714 0.803837 0.878440
O O8 0.678114 0.864115 0.669637
O O9 0.088890 0.872089 0.270977
O O10 0.193242 0.892848 0.282244
O O11 0.184902 0.861589 0.001758
O O12 0.166654 0.000000 0.950684
O O13 0.088426 0.907139 0.999608
O O14 0.776607 0.627106 0.627597
O O15 0.287676 0.897664 0.405743
O O16 0.307752 0.000000 0.594709
O O17 0.000000 0.887116 0.134229
O O18 0.940746 0.000000 0.197583
O O19 0.243534 0.500000 0.731292
#
# Coordination Sequence:
#
# PCOD8188112 Si02
#       8
#     8   8   8   8   8   8   8   8
#     4   9  16  27  43  59  83 114 147 177 214 259
#     4  11  20  27  39  61  87 117 146 183 223 264
#     4  10  18  29  42  62  88 112 146 186 223 267
#     4  10  18  29  44  63  85 118 152 187 222 261
#     4  11  19  26  40  59  90 113 151 184 215 271
#     4   9  17  29  41  59  84 115 150 179 212 258
#     4  10  19  32  49  66  83 111 155 199 230 256
#     4   9  16  27  43  59  83 116 150 181 210 254
#
# _framework density 14.46621
#
# number of rings (size 3 to 8) (size 9 to 14) (size 15 to 20)
#    0.000    2.125    3.750    4.500    0.000    0.500 
#    0.000    0.625    0.000    2.250    0.000    0.000 
#    0.000    0.500    0.000    0.000    0.000    2.500 
#
# Total GULP energy -396588.644584 kJ/mol
# GULP energy per Si atom -12393.395143 kJ/mol
# Density = 1.443328 g / cm^3
# Si number density = 14.466210 Si / 1000 Ang^3
#
#
#
# Elastic Constant Matrix: (Units=GPa)
#
#
# Indices 1 2 3 4 5 6 
#
# 1 39.2120 24.1239 24.4334 0.0000 0.0000 0.0000
# 2 24.1239 88.2356 53.8700 0.0000 0.0000 0.0000
# 3 24.4334 53.8700 103.3827 0.0000 0.0000 0.0000
# 4 0.0000 0.0000 0.0000 32.1352 0.0000 0.0000
# 5 0.0000 0.0000 0.0000 0.0000 12.3479 0.0000
# 6 0.0000 0.0000 0.0000 0.0000 0.0000 13.0818
#
#
#
# Elastic Compliance Matrix: (Units=1/GPa)
#
#
# Indices 1 2 3 4 5 6 
#
# 1 0.031969 -0.006053 -0.004401 0.000000 0.000000 0.000000
# 2 -0.006053 0.017767 -0.007827 0.000000 0.000000 0.000000
# 3 -0.004401 -0.007827 0.014792 0.000000 0.000000 0.000000
# 4 0.000000 0.000000 0.000000 0.031119 0.000000 0.000000
# 5 0.000000 0.000000 0.000000 0.000000 0.080985 0.000000
# 6 0.000000 0.000000 0.000000 0.000000 0.000000 0.076442
#
#
# Mechanical properties :
#
#
# Convention : Reuss Voigt Hill
#
# Bulk Modulus (GPa) = 35.76055 48.40944 42.08500
# Shear Modulus (GPa) = 16.72471 20.07318 18.39895
#
# Velocity S-wave (km/s) = 3.40387 3.72908 3.57018
# Velocity P-wave (km/s) = 6.34209 7.21650 6.79338
#
# Compressibility (1/GPa) = 0.02796378
#
# Stress axis : x y z
#
# Youngs Moduli (GPa) = 31.28032 56.28389 67.60588
#
# Poissons Ratio (x) = 0.34070 0.29755
# Poissons Ratio (y) = 0.18935 0.52917
# Poissons Ratio (z) = 0.13767 0.44055
#
# Static dielectric constant tensor:
#      x y z
#    x 2.327010 0.000000 0.000000 
#    y 0.000000 3.029660 0.000000 
#    z 0.000000 0.000000 3.147100 
# 
# 
# High freq. dielectric constant tensor:
#      x y z
#    x 1.474490 0.000000 0.000000 
#    y 0.000000 1.554210 0.000000 
#    z 0.000000 0.000000 1.577490 
# 
# From -- ./inp_files/9818.got.cif
#   From: 2010.03.12/outbox.cif.g09.slc.cpg/sg44_5_cif.got.tgz:9818.got - 2010.04.14 02:36:11.
