data_PCOD8188896
_publ_section_title
;
Structure prediction by ZEFSAII (Michael W. Deem and Ramdas Pophale) SiO2 
 PCOD8188896
Probable space group: I M M 2
;
_chemical_formula_sum "Si O2"
_cell_formula_units_Z 48
_cell_length_a 17.937264
_cell_length_b 21.468456
_cell_length_c 7.385458
_cell_angle_alpha 90.000000
_cell_angle_beta 90.000000
_cell_angle_gamma 90.000000
_cell_volume 2844.031774
_symmetry_space_group_name_H-M "I M M 2"
_symmetry_group_IT_number 44
_symmetry_cell_setting 'orthorhombic'
loop_
_space_group_symop_operation_xyz
x,y,z
-x,-y,z
-x,y,z
x,-y,z
1/2+x,1/2+y,1/2+z
1/2-x,1/2-y,1/2+z
1/2-x,1/2+y,1/2+z
1/2+x,1/2-y,1/2+z
loop_
_atom_site_type_symbol
_atom_site_label
_atom_site_fract_x
_atom_site_fract_y
_atom_site_fract_z
Si Si1 0.583875 0.151008 0.321060
Si Si2 0.221577 0.428967 0.293503
Si Si3 0.794915 0.145974 0.072041
Si Si4 0.855799 0.319566 0.450597
Si Si5 0.587311 0.746074 0.616645
Si Si6 0.223845 0.571583 0.878567
O O1 0.500000 0.128250 0.362228
O O2 0.607596 0.204300 0.462620
O O3 0.638983 0.092695 0.340861
O O4 0.586580 0.177842 0.116871
O O5 0.200027 0.500000 0.334412
O O6 0.292398 0.407209 0.415367
O O7 0.149446 0.386839 0.347522
O O8 0.244930 0.419124 0.086884
O O9 0.873320 0.180934 0.068448
O O10 0.781762 0.113033 0.265353
O O11 0.727073 0.195209 0.031643
O O12 0.882419 0.267347 0.311685
O O13 0.500000 0.733112 0.627376
O O14 0.230059 0.500000 0.818476
#
# Coordination Sequence:
#
# PCOD8188896 Si02
#       6
#     8   8   8   8   8   8
#     4  10  20  33  49  74 108 142 171 209 261 314
#     4   9  18  33  54  77 100 129 175 223 258 297
#     4   9  21  31  55  77 102 137 180 212 257 303
#     4   9  20  31  54  76 104 135 179 213 257 305
#     4  11  22  36  51  78 114 141 171 214 262 314
#     4  10  19  34  54  78 102 133 179 222 257 306
#
# _framework density 16.877448000000001
#
# number of rings (size 3 to 8) (size 9 to 14) (size 15 to 20)
#    1.000    1.333    1.667    1.000    4.667    1.667 
#    0.000    0.000    0.000    3.500    0.000    2.333 
#    0.000    0.000    0.000    0.000    0.000    0.000 
#
# Total GULP energy -297449.348157 kJ/mol
# GULP energy per Si atom -12393.722840 kJ/mol
# Density = 1.683903 g / cm^3
# Si number density = 16.877448 Si / 1000 Ang^3
#
#
#
# Elastic Constant Matrix: (Units=GPa)
#
#
# Indices 1 2 3 4 5 6 
#
# 1 67.6682 38.6535 24.5107 0.0000 0.0000 0.0000
# 2 38.6535 60.1434 30.5927 0.0000 0.0000 0.0000
# 3 24.5107 30.5927 108.6718 0.0000 0.0000 0.0000
# 4 0.0000 0.0000 0.0000 24.7805 0.0000 0.0000
# 5 0.0000 0.0000 0.0000 0.0000 14.8423 0.0000
# 6 0.0000 0.0000 0.0000 0.0000 0.0000 18.7643
#
#
#
# Elastic Compliance Matrix: (Units=1/GPa)
#
#
# Indices 1 2 3 4 5 6 
#
# 1 0.023489 -0.014474 -0.001223 0.000000 0.000000 0.000000
# 2 -0.014474 0.028325 -0.004709 0.000000 0.000000 0.000000
# 3 -0.001223 -0.004709 0.010804 0.000000 0.000000 0.000000
# 4 0.000000 0.000000 0.000000 0.040354 0.000000 0.000000
# 5 0.000000 0.000000 0.000000 0.000000 0.067375 0.000000
# 6 0.000000 0.000000 0.000000 0.000000 0.000000 0.053293
#
#
# Mechanical properties :
#
#
# Convention : Reuss Voigt Hill
#
# Bulk Modulus (GPa) = 45.86232 47.11079 46.48655
# Shear Modulus (GPa) = 18.40132 21.19253 19.79693
#
# Velocity S-wave (km/s) = 3.30554 3.54739 3.42860
# Velocity P-wave (km/s) = 6.46541 6.68974 6.57853
#
# Compressibility (1/GPa) = 0.02180439
#
# Stress axis : x y z
#
# Youngs Moduli (GPa) = 42.57340 35.30511 92.56138
#
# Poissons Ratio (x) = 0.51100 0.11323
# Poissons Ratio (y) = 0.61620 0.43589
# Poissons Ratio (z) = 0.05208 0.16626
#
# Static dielectric constant tensor:
#      x y z
#    x 2.814290 0.000000 0.000000 
#    y 0.000000 2.962890 0.000000 
#    z 0.000000 0.000000 3.378360 
# 
# 
# High freq. dielectric constant tensor:
#      x y z
#    x 1.613310 0.000000 0.000000 
#    y 0.000000 1.633180 0.000000 
#    z 0.000000 0.000000 1.675180 
# 
# From -- ./inp_files/7122.got.cif
#   From: 2010.03.12/outbox.cif.g09.slc.cpg/sg44_4_cif.got.tgz:7122.got - 2010.04.14 02:36:11.
