data_PCOD8188471
_publ_section_title
;
Structure prediction by ZEFSAII (Michael W. Deem and Ramdas Pophale) SiO2 
 PCOD8188471
Probable space group: I M M 2
;
_chemical_formula_sum "Si O2"
_cell_formula_units_Z 56
_cell_length_a 8.898449
_cell_length_b 18.791892
_cell_length_c 18.110390
_cell_angle_alpha 90.000000
_cell_angle_beta 90.000000
_cell_angle_gamma 90.000000
_cell_volume 3028.395738
_symmetry_space_group_name_H-M "I M M 2"
_symmetry_group_IT_number 44
_symmetry_cell_setting 'orthorhombic'
loop_
_space_group_symop_operation_xyz
x,y,z
-x,-y,z
-x,y,z
x,-y,z
1/2+x,1/2+y,1/2+z
1/2-x,1/2-y,1/2+z
1/2-x,1/2+y,1/2+z
1/2+x,1/2-y,1/2+z
loop_
_atom_site_type_symbol
_atom_site_label
_atom_site_fract_x
_atom_site_fract_y
_atom_site_fract_z
Si Si1 0.323131 0.294841 0.545650
Si Si2 0.823384 0.417317 0.640278
Si Si3 0.664632 0.796398 0.683935
Si Si4 0.669162 0.654847 0.773631
Si Si5 0.823723 0.197166 0.433217
Si Si6 0.829954 0.579170 0.020048
Si Si7 0.169401 0.075913 0.671228
O O1 0.500000 0.309081 0.537850
O O2 0.251084 0.368153 0.576629
O O3 0.288295 0.230100 0.601982
O O4 0.255138 0.268545 0.466919
O O5 0.785541 0.500000 0.623560
O O6 0.765544 0.398818 0.723070
O O7 0.000000 0.403090 0.638693
O O8 0.500000 0.831082 0.681504
O O9 0.665108 0.730629 0.736690
O O10 0.781029 0.854870 0.717854
O O11 0.500000 0.623469 0.780644
O O12 0.740876 0.672228 0.853503
O O13 0.792073 0.128952 0.482714
O O14 0.000000 0.213594 0.428296
O O15 0.818983 0.500000 0.985573
O O16 0.000000 0.609180 0.010915
O O17 0.788957 0.575615 0.105590
O O18 0.000000 0.085431 0.642250
O O19 0.183325 0.000000 0.714448
#
# Coordination Sequence:
#
# PCOD8188471 Si02
#       7
#     8   8   8   8   8   8   8
#     4  10  20  34  55  80 106 139 178 223 273 323
#     4  10  21  37  58  84 111 142 184 231 277 327
#     4   9  17  32  51  71  98 130 169 213 255 309
#     4   9  21  37  53  76 106 141 178 218 269 328
#     4  11  21  34  53  77 107 142 180 223 270 320
#     4  10  20  32  46  68 101 138 171 204 246 300
#     4  10  19  29  45  71  99 127 162 205 251 297
#
# _framework density 18.491638999999999
#
# number of rings (size 3 to 8) (size 9 to 14) (size 15 to 20)
#    0.000    2.143    1.429    3.000    0.000    6.857 
#    0.000    2.857    0.000    0.857    0.000    2.000 
#    0.000    0.000    0.000    0.000    0.000    0.000 
#
# Total GULP energy -346902.633094 kJ/mol
# GULP energy per Si atom -12389.379753 kJ/mol
# Density = 1.844955 g / cm^3
# Si number density = 18.491639 Si / 1000 Ang^3
#
#
#
# Elastic Constant Matrix: (Units=GPa)
#
#
# Indices 1 2 3 4 5 6 
#
# 1 88.1927 57.9093 15.6374 0.0000 0.0000 0.0000
# 2 57.9093 96.7572 15.9212 0.0000 0.0000 0.0000
# 3 15.6374 15.9212 49.8370 0.0000 0.0000 0.0000
# 4 0.0000 0.0000 0.0000 10.5705 0.0000 0.0000
# 5 0.0000 0.0000 0.0000 0.0000 22.0906 0.0000
# 6 0.0000 0.0000 0.0000 0.0000 0.0000 32.2968
#
#
#
# Elastic Compliance Matrix: (Units=1/GPa)
#
#
# Indices 1 2 3 4 5 6 
#
# 1 0.018960 -0.010944 -0.002453 0.000000 0.000000 0.000000
# 2 -0.010944 0.017225 -0.002069 0.000000 0.000000 0.000000
# 3 -0.002453 -0.002069 0.021496 0.000000 0.000000 0.000000
# 4 0.000000 0.000000 0.000000 0.094603 0.000000 0.000000
# 5 0.000000 0.000000 0.000000 0.000000 0.045268 0.000000
# 6 0.000000 0.000000 0.000000 0.000000 0.000000 0.030963
#
#
# Mechanical properties :
#
#
# Convention : Reuss Voigt Hill
#
# Bulk Modulus (GPa) = 37.38350 45.96917 41.67633
# Shear Modulus (GPa) = 18.63147 22.67951 20.65549
#
# Velocity S-wave (km/s) = 3.17765 3.50590 3.34581
# Velocity P-wave (km/s) = 5.80721 6.42665 6.12477
#
# Compressibility (1/GPa) = 0.02674977
#
# Stress axis : x y z
#
# Youngs Moduli (GPa) = 52.74366 58.05366 46.52016
#
# Poissons Ratio (x) = 0.63532 0.11411
# Poissons Ratio (y) = 0.57721 0.09625
# Poissons Ratio (z) = 0.12937 0.12012
#
# Static dielectric constant tensor:
#      x y z
#    x 3.601150 0.000000 0.000000 
#    y 0.000000 3.675470 0.000000 
#    z 0.000000 0.000000 3.398440 
# 
# 
# High freq. dielectric constant tensor:
#      x y z
#    x 1.726040 0.000000 0.000000 
#    y 0.000000 1.725240 0.000000 
#    z 0.000000 0.000000 1.676320 
# 
# From -- ./inp_files/23214.got.cif
#   From: 2010.03.12/outbox.cif.g09.slc.cpg/sg44_12_cif.got.tgz:23214.got - 2010.04.14 02:36:11.
