data_PCOD8188735
_publ_section_title
;
Structure prediction by ZEFSAII (Michael W. Deem and Ramdas Pophale) SiO2 
 PCOD8188735
Probable space group: I M M 2
;
_chemical_formula_sum "Si O2"
_cell_formula_units_Z 64
_cell_length_a 8.677926
_cell_length_b 20.830723
_cell_length_c 19.764600
_cell_angle_alpha 90.000000
_cell_angle_beta 90.000000
_cell_angle_gamma 90.000000
_cell_volume 3572.796791
_symmetry_space_group_name_H-M "I M M 2"
_symmetry_group_IT_number 44
_symmetry_cell_setting 'orthorhombic'
loop_
_space_group_symop_operation_xyz
x,y,z
-x,-y,z
-x,y,z
x,-y,z
1/2+x,1/2+y,1/2+z
1/2-x,1/2-y,1/2+z
1/2-x,1/2+y,1/2+z
1/2+x,1/2-y,1/2+z
loop_
_atom_site_type_symbol
_atom_site_label
_atom_site_fract_x
_atom_site_fract_y
_atom_site_fract_z
Si Si1 0.818499 0.427128 0.771350
Si Si2 0.182408 0.570104 0.194021
Si Si3 0.182528 0.228297 0.914320
Si Si4 0.818872 0.372940 0.909677
Si Si5 0.181299 0.369725 0.056928
Si Si6 0.816956 0.309588 0.277996
Si Si7 0.818464 0.187645 0.190575
Si Si8 0.318810 0.768880 0.055100
O O1 0.781581 0.500000 0.750358
O O2 0.756786 0.416639 0.848477
O O3 0.725021 0.380247 0.722989
O O4 0.000000 0.412352 0.765648
O O5 0.248210 0.500000 0.215594
O O6 0.228731 0.581251 0.115670
O O7 0.249241 0.627075 0.240335
O O8 0.000000 0.570135 0.200809
O O9 0.245352 0.300652 0.903233
O O10 0.249449 0.186291 0.853273
O O11 0.000000 0.224099 0.914164
O O12 0.243953 0.202929 0.986361
O O13 0.000000 0.370099 0.903586
O O14 0.772823 0.400463 0.983917
O O15 0.270018 0.303872 0.069044
O O16 0.000000 0.352929 0.059147
O O17 0.758884 0.246206 0.238025
O O18 0.000000 0.310103 0.281299
O O19 0.737530 0.188743 0.117917
O O20 0.000000 0.192861 0.180292
O O21 0.500000 0.774306 0.048043
#
# Coordination Sequence:
#
# PCOD8188735 Si02
#       8
#     8   8   8   8   8   8   8   8
#     4  10  20  34  51  76 110 145 183 224 266 316
#     4   9  17  30  50  76 108 144 181 220 261 308
#     4  10  19  33  54  78 106 137 174 218 268 318
#     4   8  15  27  46  72 103 137 173 213 252 302
#     4   9  16  30  49  75 107 142 182 217 256 306
#     4  10  19  32  52  79 107 138 179 223 265 310
#     4  11  21  35  55  78 107 141 180 225 269 314
#     4  11  21  33  53  80 108 137 174 219 273 320
#
# _framework density 17.913136999999999
#
# number of rings (size 3 to 8) (size 9 to 14) (size 15 to 20)
#    0.000    2.250    2.500    2.625    0.000    1.250 
#    0.000    2.500    0.000    2.250    0.000    1.750 
#    0.000    0.000    0.000    0.000    0.000    0.000 
#
# Total GULP energy -396683.246540 kJ/mol
# GULP energy per Si atom -12396.351454 kJ/mol
# Density = 1.787237 g / cm^3
# Si number density = 17.913137 Si / 1000 Ang^3
#
#
#
# Elastic Constant Matrix: (Units=GPa)
#
#
# Indices 1 2 3 4 5 6 
#
# 1 44.5868 20.2346 26.0412 0.0000 0.0000 0.0000
# 2 20.2346 99.1275 57.7361 0.0000 0.0000 0.0000
# 3 26.0412 57.7361 131.8427 0.0000 0.0000 0.0000
# 4 0.0000 0.0000 0.0000 23.3673 0.0000 0.0000
# 5 0.0000 0.0000 0.0000 0.0000 26.6781 0.0000
# 6 0.0000 0.0000 0.0000 0.0000 0.0000 17.8718
#
#
#
# Elastic Compliance Matrix: (Units=1/GPa)
#
#
# Indices 1 2 3 4 5 6 
#
# 1 0.026050 -0.003115 -0.003781 0.000000 0.000000 0.000000
# 2 -0.003115 0.013915 -0.005478 0.000000 0.000000 0.000000
# 3 -0.003781 -0.005478 0.010731 0.000000 0.000000 0.000000
# 4 0.000000 0.000000 0.000000 0.042795 0.000000 0.000000
# 5 0.000000 0.000000 0.000000 0.000000 0.037484 0.000000
# 6 0.000000 0.000000 0.000000 0.000000 0.000000 0.055954
#
#
# Mechanical properties :
#
#
# Convention : Reuss Voigt Hill
#
# Bulk Modulus (GPa) = 38.54092 53.73120 46.13606
# Shear Modulus (GPa) = 22.69363 25.01980 23.85671
#
# Velocity S-wave (km/s) = 3.56317 3.74134 3.65334
# Velocity P-wave (km/s) = 6.20407 6.98026 6.60358
#
# Compressibility (1/GPa) = 0.02594645
#
# Stress axis : x y z
#
# Youngs Moduli (GPa) = 38.38722 71.86688 93.19145
#
# Poissons Ratio (x) = 0.22389 0.35237
# Poissons Ratio (y) = 0.11959 0.51051
# Poissons Ratio (z) = 0.14515 0.39370
#
# Static dielectric constant tensor:
#      x y z
#    x 3.036350 0.000000 0.000000 
#    y 0.000000 3.234590 0.000000 
#    z 0.000000 0.000000 3.624020 
# 
# 
# High freq. dielectric constant tensor:
#      x y z
#    x 1.669320 0.000000 0.000000 
#    y 0.000000 1.664210 0.000000 
#    z 0.000000 0.000000 1.705110 
# 
# From -- ./inp_files/20785.got.cif
#   From: 2010.03.12/outbox.cif.g09.slc.cpg/sg44_11_cif.got.tgz:20785.got - 2010.04.14 02:36:11.
