data_PCOD8188444
_publ_section_title
;
Structure prediction by ZEFSAII (Michael W. Deem and Ramdas Pophale) SiO2 
 PCOD8188444
Probable space group: I M M 2
;
_chemical_formula_sum "Si O2"
_cell_formula_units_Z 64
_cell_length_a 22.519819
_cell_length_b 8.886806
_cell_length_c 20.579346
_cell_angle_alpha 90.000000
_cell_angle_beta 90.000000
_cell_angle_gamma 90.000000
_cell_volume 4118.529340
_symmetry_space_group_name_H-M "I M M 2"
_symmetry_group_IT_number 44
_symmetry_cell_setting 'orthorhombic'
loop_
_space_group_symop_operation_xyz
x,y,z
-x,-y,z
-x,y,z
x,-y,z
1/2+x,1/2+y,1/2+z
1/2-x,1/2-y,1/2+z
1/2-x,1/2+y,1/2+z
1/2+x,1/2-y,1/2+z
loop_
_atom_site_type_symbol
_atom_site_label
_atom_site_fract_x
_atom_site_fract_y
_atom_site_fract_z
Si Si1 0.349348 0.178077 0.907230
Si Si2 0.155199 0.833982 0.209166
Si Si3 0.065644 0.822585 0.655595
Si Si4 0.346655 0.321094 0.042783
Si Si5 0.754241 0.169202 0.327890
Si Si6 0.066070 0.676688 0.291081
Si Si7 0.333138 0.324319 0.244352
Si Si8 0.738717 0.177307 0.130807
O O1 0.283946 0.229360 0.883836
O O2 0.398189 0.231724 0.854499
O O3 0.349851 0.000000 0.917776
O O4 0.366919 0.263798 0.972597
O O5 0.205364 0.826109 0.264238
O O6 0.100908 0.723365 0.225331
O O7 0.190084 0.795899 0.141694
O O8 0.127311 0.000000 0.205806
O O9 0.102674 0.765211 0.593133
O O10 0.098998 0.783366 0.723846
O O11 0.000000 0.748074 0.656185
O O12 0.060035 0.000000 0.649062
O O13 0.337976 0.500000 0.042803
O O14 0.284032 0.238298 0.061044
O O15 0.689363 0.234692 0.308153
O O16 0.746371 0.000000 0.354289
O O17 0.061518 0.500000 0.290912
O O18 0.000000 0.747939 0.291842
O O19 0.325219 0.500000 0.258704
O O20 0.294879 0.281706 0.181906
O O21 0.724045 0.000000 0.140121
#
# Coordination Sequence:
#
# PCOD8188444 Si02
#       8
#     8   8   8   8   8   8   8   8
#     4  10  19  30  43  58  81 112 144 176 209 245
#     4   8  15  26  41  60  78 100 131 168 209 249
#     4   8  15  27  41  58  82 112 144 175 203 237
#     4  10  19  29  42  60  82 110 145 178 209 245
#     4   9  16  27  42  59  80 103 132 171 213 253
#     4   9  18  30  42  58  82 112 143 173 205 242
#     4   9  15  24  41  62  81 103 134 170 210 251
#     4   9  16  27  42  59  80 104 133 170 212 252
#
# _framework density 15.539528000000001
#
# number of rings (size 3 to 8) (size 9 to 14) (size 15 to 20)
#    0.000    3.000    0.000    3.375    0.000    4.750 
#    0.000    0.000    0.000   13.125    0.000    0.000 
#    0.000    1.000    0.000    5.250    0.000    4.500 
#
# Total GULP energy -396481.121838 kJ/mol
# GULP energy per Si atom -12390.035057 kJ/mol
# Density = 1.550416 g / cm^3
# Si number density = 15.539528 Si / 1000 Ang^3
#
#
#
# Elastic Constant Matrix: (Units=GPa)
#
#
# Indices 1 2 3 4 5 6 
#
# 1 103.7645 34.3410 53.2006 0.0000 0.0000 0.0000
# 2 34.3410 52.0433 18.9416 0.0000 0.0000 0.0000
# 3 53.2006 18.9416 32.7584 0.0000 0.0000 0.0000
# 4 0.0000 0.0000 0.0000 24.4313 0.0000 0.0000
# 5 0.0000 0.0000 0.0000 0.0000 16.6240 0.0000
# 6 0.0000 0.0000 0.0000 0.0000 0.0000 15.7458
#
#
#
# Elastic Compliance Matrix: (Units=1/GPa)
#
#
# Indices 1 2 3 4 5 6 
#
# 1 0.058639 -0.005108 -0.092279 0.000000 0.000000 0.000000
# 2 -0.005108 0.024781 -0.006034 0.000000 0.000000 0.000000
# 3 -0.092279 -0.006034 0.183878 0.000000 0.000000 0.000000
# 4 0.000000 0.000000 0.000000 0.040931 0.000000 0.000000
# 5 0.000000 0.000000 0.000000 0.000000 0.060154 0.000000
# 6 0.000000 0.000000 0.000000 0.000000 0.000000 0.063509
#
#
# Mechanical properties :
#
#
# Convention : Reuss Voigt Hill
#
# Bulk Modulus (GPa) = 16.54019 44.61471 30.57745
# Shear Modulus (GPa) = 7.58856 16.83241 12.21048
#
# Velocity S-wave (km/s) = 2.21224 3.29477 2.80620
# Velocity P-wave (km/s) = 4.14637 6.57623 5.49724
#
# Compressibility (1/GPa) = 0.06045881
#
# Stress axis : x y z
#
# Youngs Moduli (GPa) = 17.05339 40.35308 5.43838
#
# Poissons Ratio (x) = 0.20612 0.50185
# Poissons Ratio (y) = 0.08711 0.03281
# Poissons Ratio (z) = 1.57366 0.24348
#
# Static dielectric constant tensor:
#      x y z
#    x 3.272940 0.000000 0.000000 
#    y 0.000000 2.958590 0.000000 
#    z 0.000000 0.000000 2.885850 
# 
# 
# High freq. dielectric constant tensor:
#      x y z
#    x 1.577370 0.000000 0.000000 
#    y 0.000000 1.599350 0.000000 
#    z 0.000000 0.000000 1.559340 
# 
# From -- ./inp_files/23405.got.cif
#   From: 2010.03.12/outbox.cif.g09.slc.cpg/sg44_12_cif.got.tgz:23405.got - 2010.04.14 02:36:11.
