data_PCOD8188534
_publ_section_title
;
Structure prediction by ZEFSAII (Michael W. Deem and Ramdas Pophale) SiO2 
 PCOD8188534
Probable space group: I M M 2
;
_chemical_formula_sum "Si O2"
_cell_formula_units_Z 64
_cell_length_a 22.559911
_cell_length_b 9.222353
_cell_length_c 15.283784
_cell_angle_alpha 90.000000
_cell_angle_beta 90.000000
_cell_angle_gamma 90.000000
_cell_volume 3179.874755
_symmetry_space_group_name_H-M "I M M 2"
_symmetry_group_IT_number 44
_symmetry_cell_setting 'orthorhombic'
loop_
_space_group_symop_operation_xyz
x,y,z
-x,-y,z
-x,y,z
x,-y,z
1/2+x,1/2+y,1/2+z
1/2-x,1/2-y,1/2+z
1/2-x,1/2+y,1/2+z
1/2+x,1/2-y,1/2+z
loop_
_atom_site_type_symbol
_atom_site_label
_atom_site_fract_x
_atom_site_fract_y
_atom_site_fract_z
Si Si1 0.433921 0.665732 0.210310
Si Si2 0.068557 0.339919 0.360005
Si Si3 0.569878 0.339197 0.700778
Si Si4 0.820376 0.330669 0.763610
Si Si5 0.311969 0.834197 0.456328
Si Si6 0.112016 0.833018 0.520046
Si Si7 0.773634 0.328143 0.578223
Si Si8 0.934113 0.664442 0.030136
O O1 0.500000 0.720713 0.235276
O O2 0.425496 0.500000 0.239295
O O3 0.384532 0.757480 0.259346
O O4 0.427092 0.681102 0.106405
O O5 0.097684 0.500000 0.372394
O O6 0.098809 0.257616 0.277841
O O7 0.074380 0.239918 0.444288
O O8 0.000000 0.361166 0.339375
O O9 0.500000 0.350963 0.714854
O O10 0.598510 0.500000 0.703153
O O11 0.585040 0.267556 0.608872
O O12 0.833236 0.500000 0.759556
O O13 0.791004 0.289621 0.857713
O O14 0.777819 0.285297 0.682002
O O15 0.285351 0.732984 0.532440
O O16 0.383730 0.816860 0.456443
O O17 0.293626 0.000000 0.476526
O O18 0.172849 0.745673 0.527066
O O19 0.126072 0.000000 0.497362
O O20 0.776071 0.500000 0.566109
O O21 0.935145 0.500000 0.065746
O O22 0.000000 0.705714 0.993583
#
# Coordination Sequence:
#
# PCOD8188534 Si02
#       8
#     8   8   8   8   8   8   8   8
#     4   9  18  32  52  81 116 151 186 226 278 338
#     4  10  19  30  47  74 109 147 189 237 286 337
#     4   9  17  30  48  71 103 143 183 224 274 330
#     4   9  20  38  59  83 113 148 190 238 284 335
#     4  10  21  39  62  86 112 147 190 234 285 345
#     4  10  19  33  53  76 107 148 191 237 284 335
#     4  10  21  39  59  81 111 147 188 239 289 336
#     4   9  18  34  56  81 110 143 180 227 282 341
#
# _framework density 20.126579
#
# number of rings (size 3 to 8) (size 9 to 14) (size 15 to 20)
#    0.000    2.500    0.000    1.875    0.000    5.500 
#    2.250    1.250    0.000    1.500    0.000    0.000 
#    0.000    0.000    0.000    0.000    0.000    0.000 
#
# Total GULP energy -396643.152435 kJ/mol
# GULP energy per Si atom -12395.098514 kJ/mol
# Density = 2.008077 g / cm^3
# Si number density = 20.126579 Si / 1000 Ang^3
#
#
#
# Elastic Constant Matrix: (Units=GPa)
#
#
# Indices 1 2 3 4 5 6 
#
# 1 72.6542 30.4628 33.0055 0.0000 0.0000 0.0000
# 2 30.4628 105.7817 54.2153 0.0000 0.0000 0.0000
# 3 33.0055 54.2153 105.4173 0.0000 0.0000 0.0000
# 4 0.0000 0.0000 0.0000 28.3226 0.0000 0.0000
# 5 0.0000 0.0000 0.0000 0.0000 22.3563 0.0000
# 6 0.0000 0.0000 0.0000 0.0000 0.0000 29.3948
#
#
#
# Elastic Compliance Matrix: (Units=1/GPa)
#
#
# Indices 1 2 3 4 5 6 
#
# 1 0.016671 -0.002887 -0.003735 0.000000 0.000000 0.000000
# 2 -0.002887 0.013337 -0.005955 0.000000 0.000000 0.000000
# 3 -0.003735 -0.005955 0.013718 0.000000 0.000000 0.000000
# 4 0.000000 0.000000 0.000000 0.035307 0.000000 0.000000
# 5 0.000000 0.000000 0.000000 0.000000 0.044730 0.000000
# 6 0.000000 0.000000 0.000000 0.000000 0.000000 0.034020
#
#
# Mechanical properties :
#
#
# Convention : Reuss Voigt Hill
#
# Bulk Modulus (GPa) = 53.84364 57.69117 55.76741
# Shear Modulus (GPa) = 26.43714 27.09271 26.76493
#
# Velocity S-wave (km/s) = 3.62822 3.67293 3.65064
# Velocity P-wave (km/s) = 6.66052 6.83473 6.74819
#
# Compressibility (1/GPa) = 0.01857229
#
# Stress axis : x y z
#
# Youngs Moduli (GPa) = 59.98487 74.97984 72.89542
#
# Poissons Ratio (x) = 0.21644 0.27226
# Poissons Ratio (y) = 0.17315 0.43411
# Poissons Ratio (z) = 0.22404 0.44653
#
# Static dielectric constant tensor:
#      x y z
#    x 3.407080 0.000000 0.000000 
#    y 0.000000 3.819360 0.000000 
#    z 0.000000 0.000000 3.619840 
# 
# 
# High freq. dielectric constant tensor:
#      x y z
#    x 1.759950 0.000000 0.000000 
#    y 0.000000 1.791300 0.000000 
#    z 0.000000 0.000000 1.782430 
# 
# From -- ./inp_files/16874.got.cif
#   From: 2010.03.12/outbox.cif.g09.slc.cpg/sg44_9_cif.got.tgz:16874.got - 2010.04.14 02:36:11.
