data_PCOD8188825
_publ_section_title
;
Structure prediction by ZEFSAII (Michael W. Deem and Ramdas Pophale) SiO2 
 PCOD8188825
Probable space group: I M M 2
;
_chemical_formula_sum "Si O2"
_cell_formula_units_Z 64
_cell_length_a 8.541278
_cell_length_b 20.498271
_cell_length_c 19.599745
_cell_angle_alpha 90.000000
_cell_angle_beta 90.000000
_cell_angle_gamma 90.000000
_cell_volume 3431.551404
_symmetry_space_group_name_H-M "I M M 2"
_symmetry_group_IT_number 44
_symmetry_cell_setting 'orthorhombic'
loop_
_space_group_symop_operation_xyz
x,y,z
-x,-y,z
-x,y,z
x,-y,z
1/2+x,1/2+y,1/2+z
1/2-x,1/2-y,1/2+z
1/2-x,1/2+y,1/2+z
1/2+x,1/2-y,1/2+z
loop_
_atom_site_type_symbol
_atom_site_label
_atom_site_fract_x
_atom_site_fract_y
_atom_site_fract_z
Si Si1 0.182238 0.261316 0.465280
Si Si2 0.182051 0.311759 0.188601
Si Si3 0.816609 0.619969 0.969552
Si Si4 0.320498 0.573976 0.104265
Si Si5 0.184003 0.772225 0.825170
Si Si6 0.317034 0.690269 0.597783
Si Si7 0.182811 0.426154 0.679208
Si Si8 0.684669 0.874488 0.320600
O O1 0.285040 0.196790 0.477698
O O2 0.230634 0.296298 0.394308
O O3 0.221684 0.309927 0.527143
O O4 0.000000 0.243523 0.464844
O O5 0.212114 0.378176 0.147765
O O6 0.270284 0.316804 0.260924
O O7 0.243750 0.249623 0.145460
O O8 0.000000 0.304265 0.203379
O O9 0.758277 0.597582 0.893891
O O10 0.000000 0.607090 0.981005
O O11 0.720648 0.578763 0.024388
O O12 0.500000 0.594388 0.115038
O O13 0.290827 0.500000 0.128638
O O14 0.245941 0.699118 0.809355
O O15 0.000000 0.775814 0.837634
O O16 0.500000 0.697607 0.582794
O O17 0.284026 0.621065 0.632500
O O18 0.213826 0.500000 0.655608
O O19 0.240791 0.419033 0.757826
O O20 0.000000 0.407577 0.673466
O O21 0.500000 0.871693 0.324083
#
# Coordination Sequence:
#
# PCOD8188825 Si02
#       8
#     8   8   8   8   8   8   8   8
#     4  11  21  34  56  84 115 146 184 232 284 333
#     4  11  22  36  58  85 111 145 190 236 283 334
#     4  10  19  33  53  80 111 149 192 230 277 330
#     4  11  24  39  55  79 112 152 193 234 285 340
#     4  10  19  34  57  83 115 147 183 229 281 334
#     4  11  22  36  56  83 113 146 190 236 282 332
#     4  10  20  35  55  80 111 150 193 232 278 335
#     4   8  16  30  50  77 109 145 185 224 265 322
#
# _framework density 18.650455999999998
#
# number of rings (size 3 to 8) (size 9 to 14) (size 15 to 20)
#    0.000    1.750    2.500    3.750    0.000    2.750 
#    0.000    1.875    0.000    0.750    0.000    0.000 
#    0.000    0.000    0.000    0.000    0.000    0.000 
#
# Total GULP energy -396840.713730 kJ/mol
# GULP energy per Si atom -12401.272304 kJ/mol
# Density = 1.860801 g / cm^3
# Si number density = 18.650456 Si / 1000 Ang^3
#
#
#
# Elastic Constant Matrix: (Units=GPa)
#
#
# Indices 1 2 3 4 5 6 
#
# 1 56.8548 17.3412 27.7796 0.0000 0.0000 0.0000
# 2 17.3412 72.5282 37.2496 0.0000 0.0000 0.0000
# 3 27.7796 37.2496 117.4255 0.0000 0.0000 0.0000
# 4 0.0000 0.0000 0.0000 24.0559 0.0000 0.0000
# 5 0.0000 0.0000 0.0000 0.0000 31.3481 0.0000
# 6 0.0000 0.0000 0.0000 0.0000 0.0000 21.2538
#
#
#
# Elastic Compliance Matrix: (Units=1/GPa)
#
#
# Indices 1 2 3 4 5 6 
#
# 1 0.020373 -0.002862 -0.003912 0.000000 0.000000 0.000000
# 2 -0.002862 0.016873 -0.004675 0.000000 0.000000 0.000000
# 3 -0.003912 -0.004675 0.010925 0.000000 0.000000 0.000000
# 4 0.000000 0.000000 0.000000 0.041570 0.000000 0.000000
# 5 0.000000 0.000000 0.000000 0.000000 0.031900 0.000000
# 6 0.000000 0.000000 0.000000 0.000000 0.000000 0.047050
#
#
# Mechanical properties :
#
#
# Convention : Reuss Voigt Hill
#
# Bulk Modulus (GPa) = 39.56907 45.72773 42.64840
# Shear Modulus (GPa) = 24.99830 26.29410 25.64620
#
# Velocity S-wave (km/s) = 3.66506 3.75885 3.71225
# Velocity P-wave (km/s) = 6.25879 6.58864 6.42583
#
# Compressibility (1/GPa) = 0.02527226
#
# Stress axis : x y z
#
# Youngs Moduli (GPa) = 49.08475 59.26525 91.53654
#
# Poissons Ratio (x) = 0.16962 0.35807
# Poissons Ratio (y) = 0.14048 0.42797
# Poissons Ratio (z) = 0.19201 0.27709
#
# Static dielectric constant tensor:
#      x y z
#    x 3.283310 0.000000 0.000000 
#    y 0.000000 3.106180 0.000000 
#    z 0.000000 0.000000 3.638770 
# 
# 
# High freq. dielectric constant tensor:
#      x y z
#    x 1.720830 0.000000 0.000000 
#    y 0.000000 1.688750 0.000000 
#    z 0.000000 0.000000 1.731920 
# 
# From -- ./inp_files/20763.got.cif
#   From: 2010.03.12/outbox.cif.g09.slc.cpg/sg44_11_cif.got.tgz:20763.got - 2010.04.14 02:36:11.
