data_PCOD8188130
_publ_section_title
;
Structure prediction by ZEFSAII (Michael W. Deem and Ramdas Pophale) SiO2 
 PCOD8188130
Probable space group: I M M 2
;
_chemical_formula_sum "Si O2"
_cell_formula_units_Z 48
_cell_length_a 8.495453
_cell_length_b 24.222886
_cell_length_c 13.768641
_cell_angle_alpha 90.000000
_cell_angle_beta 90.000000
_cell_angle_gamma 90.000000
_cell_volume 2833.371383
_symmetry_space_group_name_H-M "I M M 2"
_symmetry_group_IT_number 44
_symmetry_cell_setting 'orthorhombic'
loop_
_space_group_symop_operation_xyz
x,y,z
-x,-y,z
-x,y,z
x,-y,z
1/2+x,1/2+y,1/2+z
1/2-x,1/2-y,1/2+z
1/2-x,1/2+y,1/2+z
1/2+x,1/2-y,1/2+z
loop_
_atom_site_type_symbol
_atom_site_label
_atom_site_fract_x
_atom_site_fract_y
_atom_site_fract_z
Si Si1 0.685360 0.331957 0.479330
Si Si2 0.813199 0.060870 0.087109
Si Si3 0.184389 0.231714 0.591372
Si Si4 0.814148 0.166738 0.409023
Si Si5 0.315406 0.774165 0.798199
Si Si6 0.312391 0.560647 0.805374
O O1 0.500000 0.332493 0.460379
O O2 0.749500 0.391427 0.515714
O O3 0.723749 0.287283 0.562669
O O4 0.773608 0.319874 0.378586
O O5 0.000000 0.063404 0.090050
O O6 0.757633 0.000000 0.050775
O O7 0.749879 0.071329 0.196247
O O8 0.236910 0.182238 0.518587
O O9 0.225347 0.212094 0.699105
O O10 0.000000 0.243658 0.579566
O O11 0.755793 0.214734 0.336233
O O12 0.740800 0.107952 0.376123
O O13 0.000000 0.163238 0.401643
O O14 0.500000 0.774962 0.777954
O O15 0.500000 0.562888 0.805959
O O16 0.255873 0.500000 0.841432
#
# Coordination Sequence:
#
# PCOD8188130 Si02
#       6
#     8   8   8   8   8   8
#     4  10  18  29  47  69  93 119 148 186 232 276
#     4   8  14  24  41  67  94 118 146 181 223 273
#     4  10  19  30  44  64  92 122 152 185 223 272
#     4   8  15  26  40  61  87 112 138 175 220 262
#     4  10  19  31  46  64  89 119 152 188 226 271
#     4   8  12  20  37  61  87 112 138 171 214 262
#
# _framework density 16.940947999999999
#
# number of rings (size 3 to 8) (size 9 to 14) (size 15 to 20)
#    0.000    3.000    0.000    4.500    0.000    2.667 
#    0.000    0.000    0.000    3.000    0.000    4.667 
#    0.000   22.667    0.000    0.000    0.000    0.000 
#
# Total GULP energy -297451.420991 kJ/mol
# GULP energy per Si atom -12393.809208 kJ/mol
# Density = 1.690239 g / cm^3
# Si number density = 16.940948 Si / 1000 Ang^3
#
#
#
# Elastic Constant Matrix: (Units=GPa)
#
#
# Indices 1 2 3 4 5 6 
#
# 1 22.7117 10.1636 7.8759 -0.0001 0.0000 0.0000
# 2 10.1636 154.6739 76.4743 0.0001 0.0000 0.0000
# 3 7.8759 76.4743 119.6868 -0.0005 0.0001 0.0000
# 4 -0.0001 0.0001 -0.0005 28.3000 0.0000 0.0000
# 5 0.0000 0.0000 0.0001 0.0000 22.1787 0.0000
# 6 0.0000 0.0000 0.0000 0.0000 0.0000 15.8843
#
#
#
# Elastic Compliance Matrix: (Units=1/GPa)
#
#
# Indices 1 2 3 4 5 6 
#
# 1 0.045569 -0.002210 -0.001587 0.000000 0.000000 0.000000
# 2 -0.002210 0.009558 -0.005962 0.000000 0.000000 0.000000
# 3 -0.001587 -0.005962 0.012269 0.000000 0.000000 0.000000
# 4 0.000000 0.000000 0.000000 0.035336 0.000000 0.000000
# 5 0.000000 0.000000 0.000000 0.000000 0.045088 0.000000
# 6 0.000000 0.000000 0.000000 0.000000 0.000000 0.062955
#
#
# Mechanical properties :
#
#
# Convention : Reuss Voigt Hill
#
# Bulk Modulus (GPa) = 20.88571 54.01112 37.44842
# Shear Modulus (GPa) = 20.30443 26.77652 23.54047
#
# Velocity S-wave (km/s) = 3.46575 3.97996 3.73173
# Velocity P-wave (km/s) = 5.32640 7.28501 6.38130
#
# Compressibility (1/GPa) = 0.04787962
#
# Stress axis : x y z
#
# Youngs Moduli (GPa) = 21.94461 104.62407 81.50758
#
# Poissons Ratio (x) = 0.23121 0.12932
# Poissons Ratio (y) = 0.04850 0.48592
# Poissons Ratio (z) = 0.03482 0.62374
#
# Static dielectric constant tensor:
#      x y z
#    x 2.804920 0.000000 0.000000 
#    y 0.000000 3.543760 0.000000 
#    z 0.000000 0.000000 3.196600 
# 
# 
# High freq. dielectric constant tensor:
#      x y z
#    x 1.621400 0.000000 0.000000 
#    y 0.000000 1.648150 0.000000 
#    z 0.000000 0.000000 1.643760 
# 
# From -- ./inp_files/11165.got.cif
#   From: 2010.03.12/outbox.cif.g09.slc.cpg/sg44_6_cif.got.tgz:11165.got - 2010.04.14 02:36:11.
