data_PCOD8188255
_publ_section_title
;
Structure prediction by ZEFSAII (Michael W. Deem and Ramdas Pophale) SiO2 
 PCOD8188255
Probable space group: I M M 2
;
_chemical_formula_sum "Si O2"
_cell_formula_units_Z 56
_cell_length_a 24.671213
_cell_length_b 9.118753
_cell_length_c 14.135749
_cell_angle_alpha 90.000000
_cell_angle_beta 90.000000
_cell_angle_gamma 90.000000
_cell_volume 3180.129313
_symmetry_space_group_name_H-M "I M M 2"
_symmetry_group_IT_number 44
_symmetry_cell_setting 'orthorhombic'
loop_
_space_group_symop_operation_xyz
x,y,z
-x,-y,z
-x,y,z
x,-y,z
1/2+x,1/2+y,1/2+z
1/2-x,1/2-y,1/2+z
1/2-x,1/2+y,1/2+z
1/2+x,1/2-y,1/2+z
loop_
_atom_site_type_symbol
_atom_site_label
_atom_site_fract_x
_atom_site_fract_y
_atom_site_fract_z
Si Si1 0.791941 0.173241 0.459380
Si Si2 0.385546 0.164901 0.854128
Si Si3 0.000000 0.827275 0.093971
Si Si4 0.388169 0.671700 0.499508
Si Si5 0.665634 0.162051 0.658048
Si Si6 0.787232 0.831995 0.674684
Si Si7 0.317642 0.826103 0.355404
Si Si8 0.000000 0.672102 0.296110
O O1 0.846417 0.227379 0.409663
O O2 0.794379 0.226864 0.567812
O O3 0.737141 0.230816 0.408400
O O4 0.791484 0.000000 0.454383
O O5 0.376828 0.173666 0.741956
O O6 0.448385 0.213387 0.862271
O O7 0.375613 0.000000 0.891924
O O8 0.052033 0.778925 0.032331
O O9 0.000000 0.754679 0.196403
O O10 0.000000 0.000000 0.111694
O O11 0.384707 0.500000 0.478841
O O12 0.345891 0.713188 0.581791
O O13 0.370703 0.759238 0.405825
O O14 0.724529 0.184432 0.703017
O O15 0.662770 0.000000 0.609065
O O16 0.820065 0.731303 0.747660
O O17 0.806997 0.000000 0.684079
O O18 0.321518 0.000000 0.355152
O O19 0.000000 0.500000 0.271925
#
# Coordination Sequence:
#
# PCOD8188255 Si02
#       8
#     8   8   4   8   8   8   8   4
#     4  10  21  35  53  77 109 143 177 218 266 317
#     4  10  20  33  52  78 109 143 180 216 262 318
#     4  10  22  36  52  79 110 141 180 221 262 318
#     4  11  22  35  53  78 110 146 180 218 266 318
#     4  10  18  31  52  79 111 143 175 217 261 316
#     4  10  20  36  53  76 110 144 177 217 264 317
#     4  11  22  36  54  80 109 140 179 221 266 321
#     4  10  20  34  54  79 108 145 180 219 270 316
#
# _framework density 17.609348000000001
#
# number of rings (size 3 to 8) (size 9 to 14) (size 15 to 20)
#    0.000    1.714    4.286    0.857    0.000    3.429 
#    0.000    0.000    0.000    0.857    0.000    1.000 
#    0.000    0.000    0.000    0.000    0.000    0.000 
#
# Total GULP energy -347173.140485 kJ/mol
# GULP energy per Si atom -12399.040732 kJ/mol
# Density = 1.756927 g / cm^3
# Si number density = 17.609348 Si / 1000 Ang^3
#
#
#
# Elastic Constant Matrix: (Units=GPa)
#
#
# Indices 1 2 3 4 5 6 
#
# 1 78.1803 23.3384 30.8470 0.0000 0.0000 0.0000
# 2 23.3384 46.5205 35.0792 0.0000 0.0000 0.0000
# 3 30.8470 35.0792 85.8441 0.0000 0.0000 0.0000
# 4 0.0000 0.0000 0.0000 32.3799 0.0000 0.0000
# 5 0.0000 0.0000 0.0000 0.0000 26.6875 0.0000
# 6 0.0000 0.0000 0.0000 0.0000 0.0000 25.4375
#
#
#
# Elastic Compliance Matrix: (Units=1/GPa)
#
#
# Indices 1 2 3 4 5 6 
#
# 1 0.015744 -0.005250 -0.003512 0.000000 0.000000 0.000000
# 2 -0.005250 0.032820 -0.011525 0.000000 0.000000 0.000000
# 3 -0.003512 -0.011525 0.017621 0.000000 0.000000 0.000000
# 4 0.000000 0.000000 0.000000 0.030883 0.000000 0.000000
# 5 0.000000 0.000000 0.000000 0.000000 0.037471 0.000000
# 6 0.000000 0.000000 0.000000 0.000000 0.000000 0.039312
#
#
# Mechanical properties :
#
#
# Convention : Reuss Voigt Hill
#
# Bulk Modulus (GPa) = 39.04653 43.23045 41.13849
# Shear Modulus (GPa) = 22.42532 24.98634 23.70583
#
# Velocity S-wave (km/s) = 3.57247 3.77095 3.67305
# Velocity P-wave (km/s) = 6.26407 6.60023 6.43435
#
# Compressibility (1/GPa) = 0.02561047
#
# Stress axis : x y z
#
# Youngs Moduli (GPa) = 63.51661 30.46887 56.75179
#
# Poissons Ratio (x) = 0.15997 0.19931
# Poissons Ratio (y) = 0.33347 0.65407
# Poissons Ratio (z) = 0.22307 0.35116
#
# Static dielectric constant tensor:
#      x y z
#    x 3.335440 0.000000 0.000000 
#    y 0.000000 3.204180 0.000000 
#    z 0.000000 0.000000 3.132560 
# 
# 
# High freq. dielectric constant tensor:
#      x y z
#    x 1.672580 0.000000 0.000000 
#    y 0.000000 1.677750 0.000000 
#    z 0.000000 0.000000 1.666860 
# 
# From -- ./inp_files/19248.got.cif
#   From: 2010.03.12/outbox.cif.g09.slc.cpg/sg44_10_cif.got.tgz:19248.got - 2010.04.14 02:36:11.
