data_PCOD8188830
_publ_section_title
;
Structure prediction by ZEFSAII (Michael W. Deem and Ramdas Pophale) SiO2 
 PCOD8188830
Probable space group: I M M 2
;
_chemical_formula_sum "Si O2"
_cell_formula_units_Z 64
_cell_length_a 29.151242
_cell_length_b 9.122985
_cell_length_c 12.593110
_cell_angle_alpha 90.000000
_cell_angle_beta 90.000000
_cell_angle_gamma 90.000000
_cell_volume 3349.091558
_symmetry_space_group_name_H-M "I M M 2"
_symmetry_group_IT_number 44
_symmetry_cell_setting 'orthorhombic'
loop_
_space_group_symop_operation_xyz
x,y,z
-x,-y,z
-x,y,z
x,-y,z
1/2+x,1/2+y,1/2+z
1/2-x,1/2-y,1/2+z
1/2-x,1/2+y,1/2+z
1/2+x,1/2-y,1/2+z
loop_
_atom_site_type_symbol
_atom_site_label
_atom_site_fract_x
_atom_site_fract_y
_atom_site_fract_z
Si Si1 0.049713 0.665376 0.123550
Si Si2 0.447278 0.674270 0.003476
Si Si3 0.391770 0.326870 0.208332
Si Si4 0.080354 0.171788 0.939616
Si Si5 0.697859 0.833947 0.271473
Si Si6 0.668550 0.832046 0.504743
Si Si7 0.202114 0.829879 0.201774
Si Si8 0.393303 0.330058 0.795768
O O1 0.066939 0.500000 0.107681
O O2 0.086067 0.748016 0.195404
O O3 0.000000 0.669808 0.179727
O O4 0.042560 0.741000 0.007432
O O5 0.500000 0.733878 0.997163
O O6 0.448478 0.500000 0.006076
O O7 0.422068 0.732746 0.110020
O O8 0.416417 0.730617 0.904313
O O9 0.385195 0.500000 0.201473
O O10 0.419133 0.282379 0.315718
O O11 0.340703 0.259926 0.209980
O O12 0.072419 0.000000 0.952102
O O13 0.126506 0.220886 0.998305
O O14 0.696937 0.817237 0.397471
O O15 0.749060 0.781539 0.247369
O O16 0.689050 0.000000 0.235164
O O17 0.698666 0.776831 0.601862
O O18 0.652672 0.000000 0.522728
O O19 0.161749 0.803676 0.289895
O O20 0.201468 0.000000 0.166613
O O21 0.405770 0.500000 0.784430
#
# Coordination Sequence:
#
# PCOD8188830 Si02
#       8
#     8   8   8   8   8   8   8   8
#     4  11  23  36  52  78 111 142 177 226 279 332
#     4   9  18  34  57  84 113 146 186 235 286 336
#     4   9  19  35  57  83 111 143 186 234 278 330
#     4  10  19  33  54  79 106 140 180 225 276 330
#     4   9  20  36  53  78 112 149 186 229 283 337
#     4  10  19  33  54  77 106 143 179 223 279 334
#     4  10  20  34  53  79 110 144 186 233 279 332
#     4  10  20  35  57  81 107 144 188 230 277 337
#
# _framework density 19.109659000000001
#
# number of rings (size 3 to 8) (size 9 to 14) (size 15 to 20)
#    0.000    2.250    1.250    1.500    0.000    4.500 
#    0.000    4.375    0.000    1.125    0.000    0.000 
#    0.000    0.000    0.000    0.000    0.000    0.000 
#
# Total GULP energy -396590.722500 kJ/mol
# GULP energy per Si atom -12393.460078 kJ/mol
# Density = 1.906616 g / cm^3
# Si number density = 19.109659 Si / 1000 Ang^3
#
#
#
# Elastic Constant Matrix: (Units=GPa)
#
#
# Indices 1 2 3 4 5 6 
#
# 1 127.6119 25.9107 61.6041 0.0000 0.0000 0.0000
# 2 25.9107 46.4840 36.3768 0.0000 0.0000 0.0000
# 3 61.6041 36.3768 124.3610 0.0000 0.0000 0.0000
# 4 0.0000 0.0000 0.0000 20.9148 0.0000 0.0000
# 5 0.0000 0.0000 0.0000 0.0000 26.4832 0.0000
# 6 0.0000 0.0000 0.0000 0.0000 0.0000 22.9383
#
#
#
# Elastic Compliance Matrix: (Units=1/GPa)
#
#
# Indices 1 2 3 4 5 6 
#
# 1 0.010487 -0.002309 -0.004519 0.000000 0.000000 0.000000
# 2 -0.002309 0.028407 -0.007166 0.000000 0.000000 0.000000
# 3 -0.004519 -0.007166 0.012376 0.000000 0.000000 0.000000
# 4 0.000000 0.000000 0.000000 0.047813 0.000000 0.000000
# 5 0.000000 0.000000 0.000000 0.000000 0.037760 0.000000
# 6 0.000000 0.000000 0.000000 0.000000 0.000000 0.043595
#
#
# Mechanical properties :
#
#
# Convention : Reuss Voigt Hill
#
# Bulk Modulus (GPa) = 42.95121 60.69335 51.82228
# Shear Modulus (GPa) = 23.12813 25.70493 24.41653
#
# Velocity S-wave (km/s) = 3.48269 3.67158 3.57838
# Velocity P-wave (km/s) = 6.22070 7.05716 6.65209
#
# Compressibility (1/GPa) = 0.02328223
#
# Stress axis : x y z
#
# Youngs Moduli (GPa) = 95.35824 35.20209 80.80176
#
# Poissons Ratio (x) = 0.08127 0.36518
# Poissons Ratio (y) = 0.22015 0.57901
# Poissons Ratio (z) = 0.43097 0.25225
#
# Static dielectric constant tensor:
#      x y z
#    x 3.629860 0.000000 0.000000 
#    y 0.000000 3.351600 0.000000 
#    z 0.000000 0.000000 3.755620 
# 
# 
# High freq. dielectric constant tensor:
#      x y z
#    x 1.747460 0.000000 0.000000 
#    y 0.000000 1.726670 0.000000 
#    z 0.000000 0.000000 1.742950 
# 
# From -- ./inp_files/11526.got.cif
#   From: 2010.03.12/outbox.cif.g09.slc.cpg/sg44_6_cif.got.tgz:11526.got - 2010.04.14 02:36:11.
