data_PCOD8188187
_publ_section_title
;
Structure prediction by ZEFSAII (Michael W. Deem and Ramdas Pophale) SiO2 
 PCOD8188187
Probable space group: I M M 2
;
_chemical_formula_sum "Si O2"
_cell_formula_units_Z 64
_cell_length_a 9.373712
_cell_length_b 24.212372
_cell_length_c 15.506907
_cell_angle_alpha 90.000000
_cell_angle_beta 90.000000
_cell_angle_gamma 90.000000
_cell_volume 3519.444542
_symmetry_space_group_name_H-M "I M M 2"
_symmetry_group_IT_number 44
_symmetry_cell_setting 'orthorhombic'
loop_
_space_group_symop_operation_xyz
x,y,z
-x,-y,z
-x,y,z
x,-y,z
1/2+x,1/2+y,1/2+z
1/2-x,1/2-y,1/2+z
1/2-x,1/2+y,1/2+z
1/2+x,1/2-y,1/2+z
loop_
_atom_site_type_symbol
_atom_site_label
_atom_site_fract_x
_atom_site_fract_y
_atom_site_fract_z
Si Si1 0.169523 0.061895 0.519720
Si Si2 0.335560 0.244387 0.621400
Si Si3 0.166922 0.861427 0.365624
Si Si4 0.833179 0.136548 0.866786
Si Si5 0.664440 0.244386 0.418040
Si Si6 0.833179 0.136548 0.172654
Si Si7 0.833078 0.138573 0.673815
Si Si8 0.170623 0.938180 0.019720
O O1 0.224470 0.093908 0.434590
O O2 0.224472 0.093908 0.604849
O O3 0.000000 0.058642 0.519721
O O4 0.234125 0.000000 0.519720
O O5 0.500000 0.236436 0.648113
O O6 0.315836 0.242545 0.519720
O O7 0.271427 0.302082 0.656792
O O8 0.245253 0.196343 0.664488
O O9 0.245254 0.803658 0.374952
O O10 0.198443 0.884382 0.269630
O O11 0.000000 0.850586 0.380056
O O12 0.771426 0.197918 0.882648
O O13 0.801556 0.115618 0.769809
O O14 0.768744 0.092850 0.934739
O O15 0.000000 0.140822 0.885550
O O16 0.500000 0.236436 0.391327
O O17 0.000000 0.140822 0.153889
O O18 0.768744 0.092850 0.104701
O O19 0.000000 0.149413 0.659384
O O20 0.000000 0.939752 0.019719
O O21 0.232883 0.000000 0.019720
#
# Coordination Sequence:
#
# PCOD8188187 Si02
#       8
#     8   8   8   8   8   8   8   8
#     4   9  18  31  45  65  95 125 152 189 234 272
#     4  10  18  30  49  69  96 128 153 186 237 287
#     4  10  19  31  49  71  96 124 157 194 230 276
#     4   9  17  29  45  68  96 126 155 189 237 281
#     4  10  18  30  49  69  96 128 153 186 237 287
#     4   9  17  29  45  68  96 126 155 189 237 281
#     4  10  19  31  49  71  96 124 157 194 230 276
#     4   9  16  27  44  68  97 125 158 197 232 274
#
# _framework density 18.184687
#
# number of rings (size 3 to 8) (size 9 to 14) (size 15 to 20)
#    0.000    2.500    2.500    0.750    0.000    1.000 
#    0.000    5.000    0.000    1.500    0.000    0.000 
#    0.000    7.000    0.000    0.000    0.000    0.000 
#
# Total GULP energy -396727.343755 kJ/mol
# GULP energy per Si atom -12397.729492 kJ/mol
# Density = 1.814330 g / cm^3
# Si number density = 18.184687 Si / 1000 Ang^3
#
#
#
# Elastic Constant Matrix: (Units=GPa)
#
#
# Indices 1 2 3 4 5 6 
#
# 1 20.3048 21.0999 22.8793 0.0000 0.0000 0.0000
# 2 21.0999 166.3818 85.0636 -0.0001 0.0000 0.0000
# 3 22.8793 85.0636 149.5525 -0.0004 0.0002 0.0000
# 4 0.0000 -0.0001 -0.0004 18.8328 0.0000 0.0000
# 5 0.0000 0.0000 0.0002 0.0000 11.9599 0.0000
# 6 0.0000 0.0000 0.0000 0.0000 0.0000 19.2462
#
#
#
# Elastic Compliance Matrix: (Units=1/GPa)
#
#
# Indices 1 2 3 4 5 6 
#
# 1 0.061537 -0.004217 -0.007016 0.000000 0.000000 0.000000
# 2 -0.004217 0.008764 -0.004340 0.000000 0.000000 0.000000
# 3 -0.007016 -0.004340 0.010228 0.000000 0.000000 0.000000
# 4 0.000000 0.000000 0.000000 0.053099 0.000000 0.000000
# 5 0.000000 0.000000 0.000000 0.000000 0.083612 0.000000
# 6 0.000000 0.000000 0.000000 0.000000 0.000000 0.051958
#
#
# Mechanical properties :
#
#
# Convention : Reuss Voigt Hill
#
# Bulk Modulus (GPa) = 20.24935 66.03609 43.14272
# Shear Modulus (GPa) = 15.78262 23.82087 19.80174
#
# Velocity S-wave (km/s) = 2.94922 3.62324 3.30346
# Velocity P-wave (km/s) = 4.77041 7.34144 6.19086
#
# Compressibility (1/GPa) = 0.04938431
#
# Stress axis : x y z
#
# Youngs Moduli (GPa) = 16.25041 114.10738 97.76933
#
# Poissons Ratio (x) = 0.48121 0.68591
# Poissons Ratio (y) = 0.06853 0.42427
# Poissons Ratio (z) = 0.11401 0.49517
#
# Static dielectric constant tensor:
#      x y z
#    x 2.826920 0.000000 0.000000 
#    y 0.000000 3.568820 0.000000 
#    z 0.000000 0.000000 3.583560 
# 
# 
# High freq. dielectric constant tensor:
#      x y z
#    x 1.638300 0.000000 0.000000 
#    y 0.000000 1.705860 0.000000 
#    z 0.000000 0.000000 1.724250 
# 
# From -- ./inp_files/16828.got.cif
#   From: 2010.03.12/outbox.cif.g09.slc.cpg/sg44_9_cif.got.tgz:16828.got - 2010.04.14 02:36:11.
