data_PCOD8188024
_publ_section_title
;
Structure prediction by ZEFSAII (Michael W. Deem and Ramdas Pophale) SiO2 
 PCOD8188024
Probable space group: I M M 2
;
_chemical_formula_sum "Si O2"
_cell_formula_units_Z 56
_cell_length_a 8.866372
_cell_length_b 22.211141
_cell_length_c 17.520141
_cell_angle_alpha 90.000000
_cell_angle_beta 90.000000
_cell_angle_gamma 90.000000
_cell_volume 3450.280589
_symmetry_space_group_name_H-M "I M M 2"
_symmetry_group_IT_number 44
_symmetry_cell_setting 'orthorhombic'
loop_
_space_group_symop_operation_xyz
x,y,z
-x,-y,z
-x,y,z
x,-y,z
1/2+x,1/2+y,1/2+z
1/2-x,1/2-y,1/2+z
1/2-x,1/2+y,1/2+z
1/2+x,1/2-y,1/2+z
loop_
_atom_site_type_symbol
_atom_site_label
_atom_site_fract_x
_atom_site_fract_y
_atom_site_fract_z
Si Si1 0.832906 0.182501 0.567920
Si Si2 0.330350 0.181647 0.010555
Si Si3 0.678118 0.722815 0.365302
Si Si4 0.675273 0.352405 0.657992
Si Si5 0.325232 0.929501 0.285972
Si Si6 0.172989 0.283183 0.211125
Si Si7 0.321926 0.348506 0.905301
O O1 0.833201 0.249894 0.536944
O O2 0.718704 0.175526 0.638494
O O3 0.784011 0.141651 0.495308
O O4 0.000000 0.164705 0.596381
O O5 0.500000 0.156363 0.002168
O O6 0.240202 0.142160 0.072398
O O7 0.246456 0.178391 0.929245
O O8 0.500000 0.723731 0.374146
O O9 0.725639 0.697256 0.282774
O O10 0.740434 0.790221 0.371519
O O11 0.500000 0.368827 0.656550
O O12 0.762793 0.399932 0.709291
O O13 0.703262 0.286305 0.691832
O O14 0.500000 0.912821 0.295066
O O15 0.235639 0.906557 0.360188
O O16 0.298020 0.000000 0.279616
O O17 0.000000 0.295612 0.230715
O O18 0.500000 0.339294 0.892863
#
# Coordination Sequence:
#
# PCOD8188024 Si02
#       7
#     8   8   8   8   8   8   8
#     4   8  16  28  42  61  85 114 147 182 223 270
#     4   9  17  29  44  62  88 117 150 186 224 271
#     4  11  19  27  43  65  92 122 153 185 224 271
#     4  10  19  31  47  64  87 118 154 191 231 274
#     4  11  23  35  48  67  90 120 159 198 235 274
#     4  10  18  27  42  65  91 119 152 184 221 271
#     4  10  19  32  47  63  86 117 153 192 233 274
#
# _framework density 16.230564000000001
#
# number of rings (size 3 to 8) (size 9 to 14) (size 15 to 20)
#    0.000    2.143    1.429    4.286    0.000    6.286 
#    0.000    0.000    0.000    0.000    0.000    0.000 
#    0.000    1.143    0.000    8.286    0.000    6.857 
#
# Total GULP energy -347185.856756 kJ/mol
# GULP energy per Si atom -12399.494884 kJ/mol
# Density = 1.619362 g / cm^3
# Si number density = 16.230564 Si / 1000 Ang^3
#
#
#
# Elastic Constant Matrix: (Units=GPa)
#
#
# Indices 1 2 3 4 5 6 
#
# 1 97.7214 20.5227 59.7461 0.0000 0.0000 0.0000
# 2 20.5227 33.6056 32.6419 0.0000 0.0000 0.0000
# 3 59.7461 32.6419 134.7668 0.0000 0.0000 0.0000
# 4 0.0000 0.0000 0.0000 14.6743 0.0000 0.0000
# 5 0.0000 0.0000 0.0000 0.0000 35.0517 0.0000
# 6 0.0000 0.0000 0.0000 0.0000 0.0000 15.3602
#
#
#
# Elastic Compliance Matrix: (Units=1/GPa)
#
#
# Indices 1 2 3 4 5 6 
#
# 1 0.014325 -0.003373 -0.005534 0.000000 0.000000 0.000000
# 2 -0.003373 0.039706 -0.008122 0.000000 0.000000 0.000000
# 3 -0.005534 -0.008122 0.011841 0.000000 0.000000 0.000000
# 4 0.000000 0.000000 0.000000 0.068146 0.000000 0.000000
# 5 0.000000 0.000000 0.000000 0.000000 0.028529 0.000000
# 6 0.000000 0.000000 0.000000 0.000000 0.000000 0.065103
#
#
# Mechanical properties :
#
#
# Convention : Reuss Voigt Hill
#
# Bulk Modulus (GPa) = 31.43251 54.65723 43.04487
# Shear Modulus (GPa) = 18.36131 23.22945 20.79538
#
# Velocity S-wave (km/s) = 3.36710 3.78725 3.58334
# Velocity P-wave (km/s) = 5.87578 7.27138 6.61051
#
# Compressibility (1/GPa) = 0.03181420
#
# Stress axis : x y z
#
# Youngs Moduli (GPa) = 69.80915 25.18529 84.45527
#
# Poissons Ratio (x) = 0.08495 0.46734
# Poissons Ratio (y) = 0.23548 0.68592
# Poissons Ratio (z) = 0.38629 0.20455
#
# Static dielectric constant tensor:
#      x y z
#    x 3.235100 0.000000 0.000000 
#    y 0.000000 2.529380 0.000000 
#    z 0.000000 0.000000 3.389000 
# 
# 
# High freq. dielectric constant tensor:
#      x y z
#    x 1.643100 0.000000 0.000000 
#    y 0.000000 1.546580 0.000000 
#    z 0.000000 0.000000 1.641090 
# 
# From -- ./inp_files/20659.got.cif
#   From: 2010.03.12/outbox.cif.g09.slc.cpg/sg44_11_cif.got.tgz:20659.got - 2010.04.14 02:36:11.
