data_PCOD8188972
_publ_section_title
;
Structure prediction by ZEFSAII (Michael W. Deem and Ramdas Pophale) SiO2 
 PCOD8188972
Probable space group: I M M 2
;
_chemical_formula_sum "Si O2"
_cell_formula_units_Z 48
_cell_length_a 8.530239
_cell_length_b 20.379520
_cell_length_c 14.351752
_cell_angle_alpha 90.000000
_cell_angle_beta 90.000000
_cell_angle_gamma 90.000000
_cell_volume 2494.939801
_symmetry_space_group_name_H-M "I M M 2"
_symmetry_group_IT_number 44
_symmetry_cell_setting 'orthorhombic'
loop_
_space_group_symop_operation_xyz
x,y,z
-x,-y,z
-x,y,z
x,-y,z
1/2+x,1/2+y,1/2+z
1/2-x,1/2-y,1/2+z
1/2-x,1/2+y,1/2+z
1/2+x,1/2-y,1/2+z
loop_
_atom_site_type_symbol
_atom_site_label
_atom_site_fract_x
_atom_site_fract_y
_atom_site_fract_z
Si Si1 0.183657 0.693342 0.750000
Si Si2 0.818649 0.309731 0.131647
Si Si3 0.684170 0.878971 0.931779
Si Si4 0.686104 0.072219 0.131166
Si Si5 0.318375 0.726828 0.938054
Si Si6 0.819663 0.075254 0.742478
O O1 0.273182 0.755232 0.707268
O O2 0.249214 0.626582 0.703295
O O3 0.218026 0.689128 0.859804
O O4 0.000000 0.702082 0.730407
O O5 0.787657 0.380746 0.175822
O O6 0.000000 0.302779 0.106408
O O7 0.718234 0.303105 0.038379
O O8 0.500000 0.889616 0.915692
O O9 0.728079 0.802783 0.936651
O O10 0.777564 0.913969 0.849972
O O11 0.743833 0.911303 0.027342
O O12 0.500000 0.073137 0.132707
O O13 0.749451 0.000000 0.159754
O O14 0.500000 0.716503 0.915784
O O15 0.000000 0.094822 0.727210
O O16 0.788553 0.000000 0.715533
#
# Coordination Sequence:
#
# PCOD8188972 Si02
#       6
#     8   8   8   8   8   8
#     4  11  21  37  60  87 119 155 197 245 294 352
#     4  12  24  39  61  87 117 158 201 246 297 354
#     4  10  19  34  59  89 120 155 194 240 294 355
#     4   9  18  34  57  85 117 152 191 236 287 343
#     4  11  22  38  60  90 119 152 198 246 296 351
#     4  11  24  40  59  87 123 159 196 247 306 360
#
# _framework density 19.238941000000001
#
# number of rings (size 3 to 8) (size 9 to 14) (size 15 to 20)
#    0.000    1.333    3.333    3.500    0.000    2.667 
#    0.000    0.833    0.000    6.000    0.000    0.000 
#    0.000    0.000    0.000    0.000    0.000    0.000 
#
# Total GULP energy -297713.732923 kJ/mol
# GULP energy per Si atom -12404.738872 kJ/mol
# Density = 1.919515 g / cm^3
# Si number density = 19.238941 Si / 1000 Ang^3
#
#
#
# Elastic Constant Matrix: (Units=GPa)
#
#
# Indices 1 2 3 4 5 6 
#
# 1 50.5330 29.7580 5.7848 0.0000 0.0000 0.0000
# 2 29.7580 119.3924 42.4195 0.0000 0.0000 0.0000
# 3 5.7848 42.4195 95.9669 0.0002 0.0000 0.0000
# 4 0.0000 0.0000 0.0002 28.6424 0.0000 0.0000
# 5 0.0000 0.0000 0.0000 0.0000 33.6256 0.0000
# 6 0.0000 0.0000 0.0000 0.0000 0.0000 13.9759
#
#
#
# Elastic Compliance Matrix: (Units=1/GPa)
#
#
# Indices 1 2 3 4 5 6 
#
# 1 0.023347 -0.006310 0.001382 0.000000 0.000000 0.000000
# 2 -0.006310 0.011642 -0.004766 0.000000 0.000000 0.000000
# 3 0.001382 -0.004766 0.012443 0.000000 0.000000 0.000000
# 4 0.000000 0.000000 0.000000 0.034913 0.000000 0.000000
# 5 0.000000 0.000000 0.000000 0.000000 0.029739 0.000000
# 6 0.000000 0.000000 0.000000 0.000000 0.000000 0.071552
#
#
# Mechanical properties :
#
#
# Convention : Reuss Voigt Hill
#
# Bulk Modulus (GPa) = 35.65771 46.86855 41.26313
# Shear Modulus (GPa) = 23.54365 27.77744 25.66054
#
# Velocity S-wave (km/s) = 3.50201 3.80388 3.65606
# Velocity P-wave (km/s) = 5.90986 6.61111 6.27030
#
# Compressibility (1/GPa) = 0.02804443
#
# Stress axis : x y z
#
# Youngs Moduli (GPa) = 42.83256 85.89846 80.36371
#
# Poissons Ratio (x) = 0.54202 -0.11105
# Poissons Ratio (y) = 0.27028 0.38297
# Poissons Ratio (z) = -0.05919 0.40935
#
# Static dielectric constant tensor:
#      x y z
#    x 3.361260 0.000000 0.000000 
#    y 0.000000 3.712130 0.000000 
#    z 0.000000 0.000000 3.525130 
# 
# 
# High freq. dielectric constant tensor:
#      x y z
#    x 1.738460 0.000000 0.000000 
#    y 0.000000 1.748990 0.000000 
#    z 0.000000 0.000000 1.750550 
# 
# From -- ./inp_files/16072.got.cif
#   From: 2010.03.12/outbox.cif.g09.slc.cpg/sg44_9_cif.got.tgz:16072.got - 2010.04.14 02:36:11.
