data_PCOD8188527
_publ_section_title
;
Structure prediction by ZEFSAII (Michael W. Deem and Ramdas Pophale) SiO2 
 PCOD8188527
Probable space group: I M M 2
;
_chemical_formula_sum "Si O2"
_cell_formula_units_Z 64
_cell_length_a 14.445678
_cell_length_b 13.920753
_cell_length_c 17.335685
_cell_angle_alpha 90.000000
_cell_angle_beta 90.000000
_cell_angle_gamma 90.000000
_cell_volume 3486.114641
_symmetry_space_group_name_H-M "I M M 2"
_symmetry_group_IT_number 44
_symmetry_cell_setting 'orthorhombic'
loop_
_space_group_symop_operation_xyz
x,y,z
-x,-y,z
-x,y,z
x,-y,z
1/2+x,1/2+y,1/2+z
1/2-x,1/2-y,1/2+z
1/2-x,1/2+y,1/2+z
1/2+x,1/2-y,1/2+z
loop_
_atom_site_type_symbol
_atom_site_label
_atom_site_fract_x
_atom_site_fract_y
_atom_site_fract_z
Si Si1 0.397238 0.710635 0.488260
Si Si2 0.603403 0.112499 0.006899
Si Si3 0.602021 0.389007 0.142718
Si Si4 0.858448 0.393596 0.075529
Si Si5 0.331604 0.395409 0.985241
Si Si6 0.772260 0.111952 0.110589
Si Si7 0.719275 0.778626 0.889669
Si Si8 0.228053 0.288291 0.210054
O O1 0.500000 0.674306 0.462575
O O2 0.415241 0.815355 0.526671
O O3 0.352783 0.636807 0.549457
O O4 0.327261 0.714897 0.415396
O O5 0.500000 0.157551 0.017029
O O6 0.653300 0.142695 0.928056
O O7 0.593765 0.000000 0.003881
O O8 0.671581 0.142142 0.076767
O O9 0.500000 0.375979 0.177721
O O10 0.635277 0.500000 0.148588
O O11 0.597087 0.359498 0.051273
O O12 0.667797 0.322147 0.193410
O O13 0.905971 0.500000 0.077128
O O14 0.761069 0.400812 0.034511
O O15 0.844076 0.355269 0.163031
O O16 0.358263 0.500000 0.951414
O O17 0.323221 0.324469 0.913345
O O18 0.784967 0.176642 0.186375
O O19 0.778012 0.000000 0.132713
O O20 0.708456 0.795885 0.799804
#
# Coordination Sequence:
#
# PCOD8188527 Si02
#       8
#     8   8   8   8   8   8   8   8
#     4   9  18  33  52  73  96 127 168 204 236 283
#     4   9  18  34  55  74  92 121 164 209 246 281
#     4   9  17  30  51  77  99 123 160 203 247 295
#     4   8  15  30  50  68  89 121 161 203 240 276
#     4   8  15  29  47  66  90 123 162 199 235 277
#     4   9  19  35  53  72  94 127 172 211 239 275
#     4  10  20  31  47  74 105 132 156 192 244 298
#     4  10  19  30  47  72 103 134 159 192 244 300
#
# _framework density 18.358546
#
# number of rings (size 3 to 8) (size 9 to 14) (size 15 to 20)
#    0.000    3.000    0.000    3.375    0.000    4.500 
#    0.000    2.500    0.000    0.000    0.000    5.250 
#    0.000    0.000    0.000    0.000    0.000    0.000 
#
# Total GULP energy -396464.291117 kJ/mol
# GULP energy per Si atom -12389.509097 kJ/mol
# Density = 1.831676 g / cm^3
# Si number density = 18.358546 Si / 1000 Ang^3
#
#
#
# Elastic Constant Matrix: (Units=GPa)
#
#
# Indices 1 2 3 4 5 6 
#
# 1 66.0531 10.9479 6.8605 0.0000 0.0000 0.0000
# 2 10.9479 46.2336 -1.0538 0.0000 0.0000 0.0000
# 3 6.8605 -1.0538 52.4195 0.0000 0.0000 0.0000
# 4 0.0000 0.0000 0.0000 15.0064 0.0000 0.0000
# 5 0.0000 0.0000 0.0000 0.0000 9.4066 0.0000
# 6 0.0000 0.0000 0.0000 0.0000 0.0000 11.8429
#
#
#
# Elastic Compliance Matrix: (Units=1/GPa)
#
#
# Indices 1 2 3 4 5 6 
#
# 1 0.016001 -0.003838 -0.002171 0.000000 0.000000 0.000000
# 2 -0.003838 0.022560 0.000956 0.000000 0.000000 0.000000
# 3 -0.002171 0.000956 0.019380 0.000000 0.000000 0.000000
# 4 0.000000 0.000000 0.000000 0.066638 0.000000 0.000000
# 5 0.000000 0.000000 0.000000 0.000000 0.106308 0.000000
# 6 0.000000 0.000000 0.000000 0.000000 0.000000 0.084439
#
#
# Mechanical properties :
#
#
# Convention : Reuss Voigt Hill
#
# Bulk Modulus (GPa) = 20.90583 22.02393 21.46488
# Shear Modulus (GPa) = 14.64647 17.11461 15.88054
#
# Velocity S-wave (km/s) = 2.82760 3.05658 2.94432
# Velocity P-wave (km/s) = 4.69816 4.94767 4.82453
#
# Compressibility (1/GPa) = 0.04783354
#
# Stress axis : x y z
#
# Youngs Moduli (GPa) = 62.49582 44.32620 51.59890
#
# Poissons Ratio (x) = 0.17015 0.11204
# Poissons Ratio (y) = 0.23989 -0.04932
# Poissons Ratio (z) = 0.13570 -0.04237
#
# Static dielectric constant tensor:
#      x y z
#    x 3.574820 0.000000 0.000000 
#    y 0.000000 3.726100 0.000000 
#    z 0.000000 0.000000 2.981420 
# 
# 
# High freq. dielectric constant tensor:
#      x y z
#    x 1.706980 0.000000 0.000000 
#    y 0.000000 1.721880 0.000000 
#    z 0.000000 0.000000 1.670470 
# 
# From -- ./inp_files/21945.got.cif
#   From: 2010.03.12/outbox.cif.g09.slc.cpg/sg44_11_cif.got.tgz:21945.got - 2010.04.14 02:36:11.
