data_PCOD8188353
_publ_section_title
;
Structure prediction by ZEFSAII (Michael W. Deem and Ramdas Pophale) SiO2 
 PCOD8188353
Probable space group: I M M 2
;
_chemical_formula_sum "Si O2"
_cell_formula_units_Z 64
_cell_length_a 17.263797
_cell_length_b 19.251711
_cell_length_c 9.745144
_cell_angle_alpha 90.000000
_cell_angle_beta 90.000000
_cell_angle_gamma 90.000000
_cell_volume 3238.872970
_symmetry_space_group_name_H-M "I M M 2"
_symmetry_group_IT_number 44
_symmetry_cell_setting 'orthorhombic'
loop_
_space_group_symop_operation_xyz
x,y,z
-x,-y,z
-x,y,z
x,-y,z
1/2+x,1/2+y,1/2+z
1/2-x,1/2-y,1/2+z
1/2-x,1/2+y,1/2+z
1/2+x,1/2-y,1/2+z
loop_
_atom_site_type_symbol
_atom_site_label
_atom_site_fract_x
_atom_site_fract_y
_atom_site_fract_z
Si Si1 0.231841 0.422699 0.224180
Si Si2 0.197995 0.203408 0.878544
Si Si3 0.807332 0.922836 0.429376
Si Si4 0.849918 0.424435 0.785868
Si Si5 0.910868 0.284750 0.674040
Si Si6 0.086357 0.766189 0.099515
Si Si7 0.914288 0.389905 0.069717
Si Si8 0.143672 0.223032 0.399508
O O1 0.243822 0.500000 0.283993
O O2 0.264513 0.369190 0.334962
O O3 0.141207 0.409124 0.196519
O O4 0.275064 0.413296 0.081281
O O5 0.141660 0.232642 0.761691
O O6 0.265050 0.259026 0.912425
O O7 0.148133 0.187212 0.016167
O O8 0.740819 0.912692 0.315517
O O9 0.868708 0.860658 0.408594
O O10 0.845231 0.000000 0.413607
O O11 0.862047 0.500000 0.714108
O O12 0.882483 0.364261 0.687974
O O13 0.893316 0.429868 0.931373
O O14 0.904328 0.262754 0.515733
O O15 0.000000 0.278453 0.721704
O O16 0.089662 0.691086 0.027810
O O17 0.110220 0.752922 0.255320
O O18 0.000000 0.798641 0.090567
O O19 0.000000 0.410875 0.118581
#
# Coordination Sequence:
#
# PCOD8188353 Si02
#       8
#     8   8   8   8   8   8   8   8
#     4  10  20  36  58  89 121 155 203 256 302 356
#     4  12  21  39  64  89 115 159 207 255 295 359
#     4   9  18  34  60  91 120 150 197 258 309 355
#     4  10  20  35  58  91 127 162 203 248 303 372
#     4  12  24  38  61  92 124 158 203 254 308 363
#     4  11  23  38  60  91 126 158 197 253 312 365
#     4  10  18  33  57  91 128 162 200 247 309 375
#     4  12  22  39  64  89 122 160 204 253 304 367
#
# _framework density 19.75996
#
# number of rings (size 3 to 8) (size 9 to 14) (size 15 to 20)
#    0.000    1.250    5.000    3.750    0.000    1.750 
#    0.000    1.250    0.000    4.500    0.000    0.000 
#    0.000    0.000    0.000    0.000    0.000    0.000 
#
# Total GULP energy -396791.374817 kJ/mol
# GULP energy per Si atom -12399.730463 kJ/mol
# Density = 1.971499 g / cm^3
# Si number density = 19.759960 Si / 1000 Ang^3
#
#
#
# Elastic Constant Matrix: (Units=GPa)
#
#
# Indices 1 2 3 4 5 6 
#
# 1 72.2299 31.0086 24.0849 0.0000 0.0000 0.0000
# 2 31.0086 135.5337 28.4224 0.0000 0.0000 0.0000
# 3 24.0849 28.4224 75.0494 0.0000 0.0000 0.0000
# 4 0.0000 0.0000 0.0000 27.7638 0.0000 0.0000
# 5 0.0000 0.0000 0.0000 0.0000 21.1871 0.0000
# 6 0.0000 0.0000 0.0000 0.0000 0.0000 18.4935
#
#
#
# Elastic Compliance Matrix: (Units=1/GPa)
#
#
# Indices 1 2 3 4 5 6 
#
# 1 0.016485 -0.002892 -0.004195 0.000000 0.000000 0.000000
# 2 -0.002892 0.008522 -0.002299 0.000000 0.000000 0.000000
# 3 -0.004195 -0.002299 0.015542 0.000000 0.000000 0.000000
# 4 0.000000 0.000000 0.000000 0.036018 0.000000 0.000000
# 5 0.000000 0.000000 0.000000 0.000000 0.047198 0.000000
# 6 0.000000 0.000000 0.000000 0.000000 0.000000 0.054073
#
#
# Mechanical properties :
#
#
# Convention : Reuss Voigt Hill
#
# Bulk Modulus (GPa) = 45.92223 49.98274 47.95249
# Shear Modulus (GPa) = 24.52545 26.77536 25.65041
#
# Velocity S-wave (km/s) = 3.52684 3.68507 3.60682
# Velocity P-wave (km/s) = 6.31469 6.59213 6.45490
#
# Compressibility (1/GPa) = 0.02177594
#
# Stress axis : x y z
#
# Youngs Moduli (GPa) = 60.66106 117.34261 64.34299
#
# Poissons Ratio (x) = 0.33933 0.26993
# Poissons Ratio (y) = 0.17542 0.14795
# Poissons Ratio (z) = 0.25449 0.26982
#
# Static dielectric constant tensor:
#      x y z
#    x 3.571880 0.000000 0.000000 
#    y 0.000000 3.712110 0.000000 
#    z 0.000000 0.000000 3.354350 
# 
# 
# High freq. dielectric constant tensor:
#      x y z
#    x 1.757650 0.000000 0.000000 
#    y 0.000000 1.769720 0.000000 
#    z 0.000000 0.000000 1.751540 
# 
# From -- ./inp_files/9033.got.cif
#   From: 2010.03.12/outbox.cif.g09.slc.cpg/sg44_5_cif.got.tgz:9033.got - 2010.04.14 02:36:11.
