data_PCOD8188400
_publ_section_title
;
Structure prediction by ZEFSAII (Michael W. Deem and Ramdas Pophale) SiO2 
 PCOD8188400
Probable space group: I M M 2
;
_chemical_formula_sum "Si O2"
_cell_formula_units_Z 32
_cell_length_a 5.332939
_cell_length_b 26.445701
_cell_length_c 11.301921
_cell_angle_alpha 90.000000
_cell_angle_beta 90.000000
_cell_angle_gamma 90.000000
_cell_volume 1593.947331
_symmetry_space_group_name_H-M "I M M 2"
_symmetry_group_IT_number 44
_symmetry_cell_setting 'orthorhombic'
loop_
_space_group_symop_operation_xyz
x,y,z
-x,-y,z
-x,y,z
x,-y,z
1/2+x,1/2+y,1/2+z
1/2-x,1/2-y,1/2+z
1/2-x,1/2+y,1/2+z
1/2+x,1/2-y,1/2+z
loop_
_atom_site_type_symbol
_atom_site_label
_atom_site_fract_x
_atom_site_fract_y
_atom_site_fract_z
Si Si1 0.000000 0.387722 0.844770
Si Si2 0.500000 0.288117 0.847232
Si Si3 0.500000 0.686908 0.107277
Si Si4 0.000000 0.272811 0.771211
Si Si5 0.000000 0.107612 0.234045
Si Si6 0.500000 0.869835 0.623677
Si Si7 0.500000 0.559684 0.478984
Si Si8 0.500000 0.059049 0.837849
O O1 0.747624 0.415472 0.799333
O O2 0.000000 0.333321 0.777936
O O3 0.000000 0.385115 0.986167
O O4 0.251430 0.253451 0.838467
O O5 0.500000 0.330824 0.743506
O O6 0.500000 0.319725 0.967218
O O7 0.500000 0.746653 0.142136
O O8 0.248427 0.661610 0.157279
O O9 0.000000 0.091630 0.098638
O O10 0.500000 0.918749 0.705964
O O11 0.500000 0.500000 0.507675
O O12 0.250448 0.575713 0.407726
O O13 0.500000 0.000000 0.817623
#
# Coordination Sequence:
#
# PCOD8188400 Si02
#       8
#     4   4   4   4   4   4   4   4
#     4  10  19  37  60  84 119 157 190 252 296 350
#     4  10  19  38  54  79 115 157 192 247 294 339
#     4  12  21  37  60  83 122 158 197 245 296 358
#     4  10  20  35  55  83 109 162 196 233 301 337
#     4  10  18  35  62  83 114 154 194 236 308 351
#     4  12  21  40  64  86 121 163 198 249 303 354
#     4  10  21  40  63  87 122 155 192 249 301 362
#     4  10  23  42  63  89 122 158 198 245 301 361
#
# _framework density 20.075944
#
# number of rings (size 3 to 8) (size 9 to 14) (size 15 to 20)
#    0.000    1.500    5.000    2.250    0.000    0.000 
#    0.000   16.250    0.000    0.000    0.000    0.000 
#    0.000    0.000    0.000    0.000    0.000    0.000 
#
# Total GULP energy -198235.330170 kJ/mol
# GULP energy per Si atom -12389.708136 kJ/mol
# Density = 2.003025 g / cm^3
# Si number density = 20.075944 Si / 1000 Ang^3
#
#
#
# Elastic Constant Matrix: (Units=GPa)
#
#
# Indices 1 2 3 4 5 6 
#
# 1 239.1678 29.2303 60.6446 0.0000 0.0000 0.0000
# 2 29.2303 45.1999 60.7414 0.0001 0.0000 0.0000
# 3 60.6446 60.7414 128.8080 0.0002 0.0000 0.0000
# 4 0.0000 0.0001 0.0002 28.3512 0.0000 0.0000
# 5 0.0000 0.0000 0.0000 0.0000 17.0712 0.0000
# 6 0.0000 0.0000 0.0000 0.0000 0.0000 6.5949
#
#
#
# Elastic Compliance Matrix: (Units=1/GPa)
#
#
# Indices 1 2 3 4 5 6 
#
# 1 0.004749 -0.000181 -0.002150 0.000000 0.000000 0.000000
# 2 -0.000181 0.060407 -0.028400 0.000000 0.000000 0.000000
# 3 -0.002150 -0.028400 0.022168 0.000000 0.000000 0.000000
# 4 0.000000 0.000000 0.000000 0.035272 0.000000 0.000000
# 5 0.000000 0.000000 0.000000 0.000000 0.058578 0.000000
# 6 0.000000 0.000000 0.000000 0.000000 0.000000 0.151632
#
#
# Mechanical properties :
#
#
# Convention : Reuss Voigt Hill
#
# Bulk Modulus (GPa) = 38.66980 79.37871 59.02426
# Shear Modulus (GPa) = 12.41037 27.90743 20.15890
#
# Velocity S-wave (km/s) = 2.48900 3.73244 3.17224
# Velocity P-wave (km/s) = 5.25012 7.62888 6.54842
#
# Compressibility (1/GPa) = 0.02585997
#
# Stress axis : x y z
#
# Youngs Moduli (GPa) = 210.59129 16.55445 45.10924
#
# Poissons Ratio (x) = 0.00300 0.09699
# Poissons Ratio (y) = 0.03820 1.28112
# Poissons Ratio (z) = 0.45280 0.47015
#
# Static dielectric constant tensor:
#      x y z
#    x 5.151980 0.000000 0.000000 
#    y 0.000000 3.150310 0.000000 
#    z 0.000000 0.000000 3.442230 
# 
# 
# High freq. dielectric constant tensor:
#      x y z
#    x 1.832320 0.000000 0.000000 
#    y 0.000000 1.730770 0.000000 
#    z 0.000000 0.000000 1.771920 
# 
# From -- ./inp_files/3568.got.cif
#   From: 2010.03.12/outbox.cif.g09.slc.cpg/sg44_2_cif.got.tgz:3568.got - 2010.04.14 02:36:11.
