data_PCOD8188843
_publ_section_title
;
Structure prediction by ZEFSAII (Michael W. Deem and Ramdas Pophale) SiO2 
 PCOD8188843
Probable space group: I M M 2
;
_chemical_formula_sum "Si O2"
_cell_formula_units_Z 48
_cell_length_a 18.430466
_cell_length_b 9.233906
_cell_length_c 15.044181
_cell_angle_alpha 90.000000
_cell_angle_beta 90.000000
_cell_angle_gamma 90.000000
_cell_volume 2560.296811
_symmetry_space_group_name_H-M "I M M 2"
_symmetry_group_IT_number 44
_symmetry_cell_setting 'orthorhombic'
loop_
_space_group_symop_operation_xyz
x,y,z
-x,-y,z
-x,y,z
x,-y,z
1/2+x,1/2+y,1/2+z
1/2-x,1/2-y,1/2+z
1/2-x,1/2+y,1/2+z
1/2+x,1/2-y,1/2+z
loop_
_atom_site_type_symbol
_atom_site_label
_atom_site_fract_x
_atom_site_fract_y
_atom_site_fract_z
Si Si1 0.080090 0.832708 0.857620
Si Si2 0.731178 0.829847 0.098856
Si Si3 0.000000 0.828345 0.382578
Si Si4 0.222991 0.669771 0.804111
Si Si5 0.384899 0.668176 0.553685
Si Si6 0.500000 0.674170 0.686104
Si Si7 0.656445 0.327910 0.948584
O O1 0.143945 0.737129 0.818634
O O2 0.000000 0.793358 0.817816
O O3 0.098605 0.000000 0.838454
O O4 0.074201 0.802525 0.962287
O O5 0.740613 0.789932 0.202401
O O6 0.803836 0.769982 0.051271
O O7 0.716030 0.000000 0.086225
O O8 0.669920 0.742073 0.045489
O O9 0.000000 0.761537 0.284088
O O10 0.074382 0.775225 0.428093
O O11 0.000000 0.000000 0.377108
O O12 0.215104 0.500000 0.817515
O O13 0.286462 0.726294 0.871515
O O14 0.376711 0.500000 0.574443
O O15 0.429989 0.736705 0.634671
O O16 0.500000 0.500000 0.684968
O O17 0.660606 0.500000 0.956181
#
# Coordination Sequence:
#
# PCOD8188843 Si02
#       7
#     8   8   4   8   8   4   8
#     4  10  19  33  54  81 108 137 176 220 267 319
#     4  10  20  35  55  78 104 142 183 218 262 321
#     4   9  18  32  51  76 107 138 172 221 273 312
#     4  10  21  36  55  80 109 142 182 222 269 326
#     4   9  15  26  48  77 105 129 164 213 262 312
#     4   9  14  24  48  80 105 128 164 217 271 314
#     4  10  20  36  56  80 109 140 177 224 271 317
#
# _framework density 18.747826
#
# number of rings (size 3 to 8) (size 9 to 14) (size 15 to 20)
#    0.000    2.333    2.500    1.000    0.000    5.000 
#    1.500    0.417    0.000    0.000    0.000    2.333 
#    0.000    0.000    0.000    0.000    0.000    0.000 
#
# Total GULP energy -297365.093955 kJ/mol
# GULP energy per Si atom -12390.212248 kJ/mol
# Density = 1.870515 g / cm^3
# Si number density = 18.747826 Si / 1000 Ang^3
#
#
#
# Elastic Constant Matrix: (Units=GPa)
#
#
# Indices 1 2 3 4 5 6 
#
# 1 132.9189 25.5131 41.2076 0.0000 0.0000 0.0000
# 2 25.5131 20.3334 27.5060 0.0000 0.0000 0.0000
# 3 41.2076 27.5060 77.3915 0.0000 0.0000 0.0000
# 4 0.0000 0.0000 0.0000 25.2714 0.0000 0.0000
# 5 0.0000 0.0000 0.0000 0.0000 33.5642 0.0000
# 6 0.0000 0.0000 0.0000 0.0000 0.0000 24.8297
#
#
#
# Elastic Compliance Matrix: (Units=1/GPa)
#
#
# Indices 1 2 3 4 5 6 
#
# 1 0.010021 -0.010315 -0.001670 0.000000 0.000000 0.000000
# 2 -0.010315 0.105338 -0.031946 0.000000 0.000000 0.000000
# 3 -0.001670 -0.031946 0.025164 0.000000 0.000000 0.000000
# 4 0.000000 0.000000 0.000000 0.039570 0.000000 0.000000
# 5 0.000000 0.000000 0.000000 0.000000 0.029794 0.000000
# 6 0.000000 0.000000 0.000000 0.000000 0.000000 0.040274
#
#
# Mechanical properties :
#
#
# Convention : Reuss Voigt Hill
#
# Bulk Modulus (GPa) = 18.98922 46.56635 32.77779
# Shear Modulus (GPa) = 14.06165 25.82754 19.94460
#
# Velocity S-wave (km/s) = 2.74166 3.71567 3.26519
# Velocity P-wave (km/s) = 4.49144 6.58031 5.63354
#
# Compressibility (1/GPa) = 0.05266146
#
# Stress axis : x y z
#
# Youngs Moduli (GPa) = 99.79121 9.49327 39.73873
#
# Poissons Ratio (x) = 0.09792 0.06635
# Poissons Ratio (y) = 1.02936 1.26950
# Poissons Ratio (z) = 0.16661 0.30327
#
# Static dielectric constant tensor:
#      x y z
#    x 3.650070 0.000000 0.000000 
#    y 0.000000 2.982480 0.000000 
#    z 0.000000 0.000000 3.497280 
# 
# 
# High freq. dielectric constant tensor:
#      x y z
#    x 1.744480 0.000000 0.000000 
#    y 0.000000 1.676320 0.000000 
#    z 0.000000 0.000000 1.727500 
# 
# From -- ./inp_files/16188.got.cif
#   From: 2010.03.12/outbox.cif.g09.slc.cpg/sg44_9_cif.got.tgz:16188.got - 2010.04.14 02:36:11.
