data_PCOD8188285
_publ_section_title
;
Structure prediction by ZEFSAII (Michael W. Deem and Ramdas Pophale) SiO2 
 PCOD8188285
Probable space group: I M M 2
;
_chemical_formula_sum "Si O2"
_cell_formula_units_Z 36
_cell_length_a 9.795472
_cell_length_b 13.072521
_cell_length_c 15.222277
_cell_angle_alpha 90.000000
_cell_angle_beta 90.000000
_cell_angle_gamma 90.000000
_cell_volume 1949.235608
_symmetry_space_group_name_H-M "I M M 2"
_symmetry_group_IT_number 44
_symmetry_cell_setting 'orthorhombic'
loop_
_space_group_symop_operation_xyz
x,y,z
-x,-y,z
-x,y,z
x,-y,z
1/2+x,1/2+y,1/2+z
1/2-x,1/2-y,1/2+z
1/2-x,1/2+y,1/2+z
1/2+x,1/2-y,1/2+z
loop_
_atom_site_type_symbol
_atom_site_label
_atom_site_fract_x
_atom_site_fract_y
_atom_site_fract_z
Si Si1 0.208403 0.187708 0.042980
Si Si2 0.500000 0.619915 0.214913
Si Si3 0.715797 0.883069 0.642109
Si Si4 0.500000 0.378364 0.407505
Si Si5 0.000000 0.112998 0.179887
Si Si6 0.000000 0.377992 0.480108
Si Si7 0.500000 0.183161 0.777113
O O1 0.172795 0.307008 0.063933
O O2 0.136539 0.122877 0.120417
O O3 0.138024 0.162448 0.951171
O O4 0.368293 0.161762 0.033799
O O5 0.500000 0.500000 0.230792
O O6 0.631099 0.653203 0.160899
O O7 0.500000 0.670298 0.310840
O O8 0.630890 0.869230 0.731711
O O9 0.703748 0.000000 0.609372
O O10 0.500000 0.500000 0.410761
O O11 0.000000 0.195003 0.258714
O O12 0.000000 0.000000 0.222256
O O13 0.000000 0.334528 0.380959
O O14 0.000000 0.500000 0.476037
#
# Coordination Sequence:
#
# PCOD8188285 Si02
#       7
#     8   4   8   4   4   4   4
#     4  10  20  31  50  76 100 128 164 199 247 295
#     4   9  18  31  51  70  93 125 158 195 242 285
#     4  10  19  34  51  72  99 131 164 201 241 292
#     4  10  18  32  50  72  97 127 161 200 242 291
#     4   9  18  37  54  69  96 137 173 197 231 299
#     4  12  21  32  50  79 106 122 153 215 263 284
#     4  10  21  32  52  78 100 127 166 205 251 293
#
# _framework density 18.468776999999999
#
# number of rings (size 3 to 8) (size 9 to 14) (size 15 to 20)
#    0.000    2.000    0.000    6.333    0.000    1.778 
#    0.000    1.111    0.000    0.000    0.000    9.333 
#    0.000    0.000    0.000    0.000    0.000    0.000 
#
# Total GULP energy -223128.009565 kJ/mol
# GULP energy per Si atom -12396.000531 kJ/mol
# Density = 1.842674 g / cm^3
# Si number density = 18.468777 Si / 1000 Ang^3
#
#
#
# Elastic Constant Matrix: (Units=GPa)
#
#
# Indices 1 2 3 4 5 6 
#
# 1 121.6365 24.6067 11.4452 0.0000 0.0000 0.0000
# 2 24.6067 131.9024 40.3780 0.0000 0.0000 0.0000
# 3 11.4452 40.3780 58.9013 0.0000 0.0000 0.0000
# 4 0.0000 0.0000 0.0000 23.5658 0.0000 0.0000
# 5 0.0000 0.0000 0.0000 0.0000 0.9680 0.0000
# 6 0.0000 0.0000 0.0000 0.0000 0.0000 24.4369
#
#
#
# Elastic Compliance Matrix: (Units=1/GPa)
#
#
# Indices 1 2 3 4 5 6 
#
# 1 0.008568 -0.001378 -0.000720 0.000000 0.000000 0.000000
# 2 -0.001378 0.009816 -0.006462 0.000000 0.000000 0.000000
# 3 -0.000720 -0.006462 0.021547 0.000000 0.000000 0.000000
# 4 0.000000 0.000000 0.000000 0.042434 0.000000 0.000000
# 5 0.000000 0.000000 0.000000 0.000000 1.033030 0.000000
# 6 0.000000 0.000000 0.000000 0.000000 0.000000 0.040922
#
#
# Mechanical properties :
#
#
# Convention : Reuss Voigt Hill
#
# Bulk Modulus (GPa) = 43.83703 51.69998 47.76850
# Shear Modulus (GPa) = 4.23355 25.52815 14.88085
#
# Velocity S-wave (km/s) = 1.51567 3.72187 2.84162
# Velocity P-wave (km/s) = 5.18173 6.82083 6.05698
#
# Compressibility (1/GPa) = 0.02281177
#
# Stress axis : x y z
#
# Youngs Moduli (GPa) = 116.71715 101.86992 46.40997
#
# Poissons Ratio (x) = 0.14036 0.03343
# Poissons Ratio (y) = 0.16082 0.29988
# Poissons Ratio (z) = 0.08407 0.65825
#
# Static dielectric constant tensor:
#      x y z
#    x 3.676600 0.000000 0.000000 
#    y 0.000000 3.375630 0.000000 
#    z 0.000000 0.000000 3.167580 
# 
# 
# High freq. dielectric constant tensor:
#      x y z
#    x 1.734980 0.000000 0.000000 
#    y 0.000000 1.713640 0.000000 
#    z 0.000000 0.000000 1.689920 
# 
# From -- ./inp_files/15766.got.cif
#   From: 2010.03.12/outbox.cif.g09.slc.cpg/sg44_8_cif.got.tgz:15766.got - 2010.04.14 02:36:11.
