data_PCOD8188428
_publ_section_title
;
Structure prediction by ZEFSAII (Michael W. Deem and Ramdas Pophale) SiO2 
 PCOD8188428
Probable space group: I M M 2
;
_chemical_formula_sum "Si O2"
_cell_formula_units_Z 64
_cell_length_a 18.555534
_cell_length_b 8.827181
_cell_length_c 21.913288
_cell_angle_alpha 90.000000
_cell_angle_beta 90.000000
_cell_angle_gamma 90.000000
_cell_volume 3589.244434
_symmetry_space_group_name_H-M "I M M 2"
_symmetry_group_IT_number 44
_symmetry_cell_setting 'orthorhombic'
loop_
_space_group_symop_operation_xyz
x,y,z
-x,-y,z
-x,y,z
x,-y,z
1/2+x,1/2+y,1/2+z
1/2-x,1/2-y,1/2+z
1/2-x,1/2+y,1/2+z
1/2+x,1/2-y,1/2+z
loop_
_atom_site_type_symbol
_atom_site_label
_atom_site_fract_x
_atom_site_fract_y
_atom_site_fract_z
Si Si1 0.315409 0.175783 0.153090
Si Si2 0.418943 0.179777 0.257698
Si Si3 0.079352 0.824433 0.423417
Si Si4 0.273549 0.822999 0.558153
Si Si5 0.078586 0.666381 0.546167
Si Si6 0.221554 0.322001 0.434858
Si Si7 0.128867 0.822552 0.882010
Si Si8 0.920735 0.673059 0.999945
O O1 0.354414 0.242495 0.213746
O O2 0.244862 0.262882 0.126942
O O3 0.371552 0.211648 0.100781
O O4 0.295873 0.000000 0.161527
O O5 0.500000 0.236343 0.239572
O O6 0.402301 0.231939 0.325536
O O7 0.417372 0.000000 0.253953
O O8 0.080326 0.795971 0.495539
O O9 0.149133 0.732939 0.398666
O O10 0.000000 0.771391 0.397529
O O11 0.090428 0.000000 0.408977
O O12 0.226549 0.744007 0.504058
O O13 0.358310 0.785151 0.548361
O O14 0.257496 0.000000 0.554569
O O15 0.099564 0.500000 0.517890
O O16 0.000000 0.655767 0.575691
O O17 0.222062 0.500000 0.441285
O O18 0.288936 0.268920 0.394120
O O19 0.082626 0.781661 0.941431
O O20 0.122866 0.000000 0.868613
O O21 0.910019 0.500000 0.977837
O O22 0.000000 0.695003 0.030263
#
# Coordination Sequence:
#
# PCOD8188428 Si02
#       8
#     8   8   8   8   8   8   8   8
#     4  10  19  31  47  67  95 130 166 200 234 283
#     4  10  21  36  52  71  97 133 174 206 237 286
#     4  10  19  28  41  66  96 122 154 196 238 282
#     4  10  19  30  47  71  97 125 159 202 247 291
#     4   9  16  26  41  60  86 124 161 189 223 269
#     4  10  19  32  48  67  94 129 164 199 244 299
#     4  10  21  34  50  73  99 127 165 210 251 288
#     4   9  18  33  52  73  98 129 162 198 246 302
#
# _framework density 17.831052
#
# number of rings (size 3 to 8) (size 9 to 14) (size 15 to 20)
#    0.000    2.250    1.250    2.250    0.000    6.750 
#    0.000    0.000    0.000    2.250    0.000    0.875 
#    0.000    3.000    0.000    0.000    0.000    0.125 
#
# Total GULP energy -396433.742532 kJ/mol
# GULP energy per Si atom -12388.554454 kJ/mol
# Density = 1.779047 g / cm^3
# Si number density = 17.831052 Si / 1000 Ang^3
#
#
#
# Elastic Constant Matrix: (Units=GPa)
#
#
# Indices 1 2 3 4 5 6 
#
# 1 129.9489 27.2541 36.0295 0.0000 0.0000 0.0000
# 2 27.2541 41.9560 15.9863 0.0000 0.0000 0.0000
# 3 36.0295 15.9863 60.1593 0.0000 0.0000 0.0000
# 4 0.0000 0.0000 0.0000 19.6821 0.0000 0.0000
# 5 0.0000 0.0000 0.0000 0.0000 21.8189 0.0000
# 6 0.0000 0.0000 0.0000 0.0000 0.0000 25.2537
#
#
#
# Elastic Compliance Matrix: (Units=1/GPa)
#
#
# Indices 1 2 3 4 5 6 
#
# 1 0.009992 -0.004685 -0.004739 0.000000 0.000000 0.000000
# 2 -0.004685 0.028716 -0.004825 0.000000 0.000000 0.000000
# 3 -0.004739 -0.004825 0.020743 0.000000 0.000000 0.000000
# 4 0.000000 0.000000 0.000000 0.050808 0.000000 0.000000
# 5 0.000000 0.000000 0.000000 0.000000 0.045832 0.000000
# 6 0.000000 0.000000 0.000000 0.000000 0.000000 0.039598
#
#
# Mechanical properties :
#
#
# Convention : Reuss Voigt Hill
#
# Bulk Modulus (GPa) = 32.30726 43.40045 37.85386
# Shear Modulus (GPa) = 21.32155 23.53723 22.42939
#
# Velocity S-wave (km/s) = 3.46172 3.63714 3.55051
# Velocity P-wave (km/s) = 5.84259 6.48314 6.17118
#
# Compressibility (1/GPa) = 0.03095279
#
# Stress axis : x y z
#
# Youngs Moduli (GPa) = 100.08141 34.82358 48.20893
#
# Poissons Ratio (x) = 0.16314 0.22847
# Poissons Ratio (y) = 0.46886 0.23261
# Poissons Ratio (z) = 0.47431 0.16803
#
# Static dielectric constant tensor:
#      x y z
#    x 3.922370 0.000000 0.000000 
#    y 0.000000 3.278680 0.000000 
#    z 0.000000 0.000000 2.999860 
# 
# 
# High freq. dielectric constant tensor:
#      x y z
#    x 1.709400 0.000000 0.000000 
#    y 0.000000 1.687430 0.000000 
#    z 0.000000 0.000000 1.632470 
# 
# From -- ./inp_files/24464.got.cif
#   From: 2010.03.12/outbox.cif.g09.slc.cpg/sg44_13_cif.got.tgz:24464.got - 2010.04.14 02:36:11.
