data_PCOD8188240
_publ_section_title
;
Structure prediction by ZEFSAII (Michael W. Deem and Ramdas Pophale) SiO2 
 PCOD8188240
Probable space group: I M M 2
;
_chemical_formula_sum "Si O2"
_cell_formula_units_Z 64
_cell_length_a 9.095373
_cell_length_b 18.473490
_cell_length_c 21.299687
_cell_angle_alpha 90.000000
_cell_angle_beta 90.000000
_cell_angle_gamma 90.000000
_cell_volume 3578.843319
_symmetry_space_group_name_H-M "I M M 2"
_symmetry_group_IT_number 44
_symmetry_cell_setting 'orthorhombic'
loop_
_space_group_symop_operation_xyz
x,y,z
-x,-y,z
-x,y,z
x,-y,z
1/2+x,1/2+y,1/2+z
1/2-x,1/2-y,1/2+z
1/2-x,1/2+y,1/2+z
1/2+x,1/2-y,1/2+z
loop_
_atom_site_type_symbol
_atom_site_label
_atom_site_fract_x
_atom_site_fract_y
_atom_site_fract_z
Si Si1 0.828820 0.082588 0.931190
Si Si2 0.329326 0.715682 0.729210
Si Si3 0.326282 0.222295 0.596278
Si Si4 0.672480 0.859889 0.050359
Si Si5 0.166979 0.920471 0.587445
Si Si6 0.168660 0.332899 0.324800
Si Si7 0.328969 0.919262 0.186115
Si Si8 0.841410 0.920256 0.734741
O O1 0.773316 0.142254 0.881110
O O2 0.000000 0.097064 0.943392
O O3 0.801970 0.000000 0.907672
O O4 0.739335 0.092595 0.994874
O O5 0.500000 0.701428 0.719614
O O6 0.275162 0.764316 0.669135
O O7 0.297948 0.752598 0.797162
O O8 0.250864 0.638165 0.730856
O O9 0.500000 0.226895 0.588932
O O10 0.251436 0.282301 0.552370
O O11 0.273100 0.145230 0.567786
O O12 0.500000 0.848066 0.039186
O O13 0.705811 0.903741 0.113588
O O14 0.178127 0.925029 0.661440
O O15 0.000000 0.903765 0.565880
O O16 0.215692 0.000000 0.560390
O O17 0.200556 0.381714 0.264100
O O18 0.000000 0.341214 0.345935
O O19 0.500000 0.912045 0.199831
O O20 0.272465 0.000000 0.202132
O O21 0.000000 0.882608 0.751482
O O22 0.845592 0.000000 0.764053
#
# Coordination Sequence:
#
# PCOD8188240 Si02
#       8
#     8   8   8   8   8   8   8   8
#     4  11  24  39  53  73 102 137 177 216 255 301
#     4   9  19  32  46  70 101 132 166 204 250 303
#     4  10  18  31  49  72 102 133 169 213 260 308
#     4  10  20  35  55  76 100 133 173 215 258 305
#     4   9  17  28  43  66  97 132 169 207 249 299
#     4  11  21  33  48  69  98 133 173 212 248 294
#     4   9  18  32  52  78 103 128 162 205 253 304
#     4   9  17  28  42  62  91 128 167 204 243 288
#
# _framework density 17.882874000000001
#
# number of rings (size 3 to 8) (size 9 to 14) (size 15 to 20)
#    0.000    2.250    1.250    3.000    0.000    5.750 
#    0.000    1.250    0.000    0.000    0.000    0.875 
#    0.000    3.000    0.000    0.000    0.000    0.000 
#
# Total GULP energy -396573.163917 kJ/mol
# GULP energy per Si atom -12392.911372 kJ/mol
# Density = 1.784217 g / cm^3
# Si number density = 17.882874 Si / 1000 Ang^3
#
#
#
# Elastic Constant Matrix: (Units=GPa)
#
#
# Indices 1 2 3 4 5 6 
#
# 1 79.4463 54.7929 26.7997 0.0000 0.0000 0.0000
# 2 54.7929 128.4734 24.7848 0.0000 0.0000 0.0000
# 3 26.7997 24.7848 43.5289 0.0000 0.0000 0.0000
# 4 0.0000 0.0000 0.0000 20.6416 0.0000 0.0000
# 5 0.0000 0.0000 0.0000 0.0000 25.2029 0.0000
# 6 0.0000 0.0000 0.0000 0.0000 0.0000 31.7164
#
#
#
# Elastic Compliance Matrix: (Units=1/GPa)
#
#
# Indices 1 2 3 4 5 6 
#
# 1 0.020292 -0.007015 -0.008499 0.000000 0.000000 0.000000
# 2 -0.007015 0.011169 -0.002041 0.000000 0.000000 0.000000
# 3 -0.008499 -0.002041 0.029368 0.000000 0.000000 0.000000
# 4 0.000000 0.000000 0.000000 0.048446 0.000000 0.000000
# 5 0.000000 0.000000 0.000000 0.000000 0.039678 0.000000
# 6 0.000000 0.000000 0.000000 0.000000 0.000000 0.031529
#
#
# Mechanical properties :
#
#
# Convention : Reuss Voigt Hill
#
# Bulk Modulus (GPa) = 38.88062 51.57813 45.22938
# Shear Modulus (GPa) = 22.30495 25.18359 23.74427
#
# Velocity S-wave (km/s) = 3.53552 3.75674 3.64781
# Velocity P-wave (km/s) = 6.20125 6.90813 6.56421
#
# Compressibility (1/GPa) = 0.02571976
#
# Stress axis : x y z
#
# Youngs Moduli (GPa) = 49.28012 89.53221 34.05068
#
# Poissons Ratio (x) = 0.62805 0.28941
# Poissons Ratio (y) = 0.34569 0.06949
# Poissons Ratio (z) = 0.41884 0.18271
#
# Static dielectric constant tensor:
#      x y z
#    x 3.352120 0.000000 0.000000 
#    y 0.000000 3.624770 0.000000 
#    z 0.000000 0.000000 2.959680 
# 
# 
# High freq. dielectric constant tensor:
#      x y z
#    x 1.697400 0.000000 0.000000 
#    y 0.000000 1.693880 0.000000 
#    z 0.000000 0.000000 1.644570 
# 
# From -- ./inp_files/24365.got.cif
#   From: 2010.03.12/outbox.cif.g09.slc.cpg/sg44_13_cif.got.tgz:24365.got - 2010.04.14 02:36:11.
