data_PCOD8188580
_publ_section_title
;
Structure prediction by ZEFSAII (Michael W. Deem and Ramdas Pophale) SiO2 
 PCOD8188580
Probable space group: I M M 2
;
_chemical_formula_sum "Si O2"
_cell_formula_units_Z 40
_cell_length_a 9.174023
_cell_length_b 25.936605
_cell_length_c 9.618806
_cell_angle_alpha 90.000000
_cell_angle_beta 90.000000
_cell_angle_gamma 90.000000
_cell_volume 2288.727660
_symmetry_space_group_name_H-M "I M M 2"
_symmetry_group_IT_number 44
_symmetry_cell_setting 'orthorhombic'
loop_
_space_group_symop_operation_xyz
x,y,z
-x,-y,z
-x,y,z
x,-y,z
1/2+x,1/2+y,1/2+z
1/2-x,1/2-y,1/2+z
1/2-x,1/2+y,1/2+z
1/2+x,1/2-y,1/2+z
loop_
_atom_site_type_symbol
_atom_site_label
_atom_site_fract_x
_atom_site_fract_y
_atom_site_fract_z
Si Si1 0.670122 0.208881 0.061950
Si Si2 0.664207 0.099187 0.759445
Si Si3 0.339389 0.903648 0.089563
Si Si4 0.834357 0.000000 0.757074
Si Si5 0.338008 0.500000 0.589366
Si Si6 0.329003 0.701575 0.278461
O O1 0.500000 0.206786 0.018330
O O2 0.714803 0.153765 0.131201
O O3 0.703653 0.252884 0.171732
O O4 0.765352 0.219449 0.925780
O O5 0.500000 0.100676 0.697781
O O6 0.751008 0.050192 0.698003
O O7 0.750083 0.150950 0.718210
O O8 0.657588 0.093986 0.923964
O O9 0.500000 0.914244 0.150070
O O10 0.236424 0.948316 0.149920
O O11 0.000000 0.000000 0.701554
O O12 0.833437 0.000000 0.923513
O O13 0.500000 0.500000 0.648107
O O14 0.500000 0.690051 0.294606
#
# Coordination Sequence:
#
# PCOD8188580 Si02
#       6
#     8   8   8   4   4   8
#     4   9  19  33  47  67  94 122 155 192 230 275
#     4   9  16  26  40  60  88 119 149 184 228 275
#     4   8  14  25  39  55  81 115 144 174 217 266
#     4   9  15  23  37  59  86 115 148 185 226 272
#     4   9  15  21  33  57  84 107 138 179 218 260
#     4  10  19  31  48  69  93 122 156 193 232 276
#
# _framework density 17.476959000000001
#
# number of rings (size 3 to 8) (size 9 to 14) (size 15 to 20)
#    0.000    3.000    0.000    3.000    0.000    8.800 
#    0.000    0.000    0.000    0.000    0.000    1.400 
#    0.000    4.800    0.000    0.000    0.000    0.000 
#
# Total GULP energy -247915.224838 kJ/mol
# GULP energy per Si atom -12395.761242 kJ/mol
# Density = 1.743718 g / cm^3
# Si number density = 17.476959 Si / 1000 Ang^3
#
#
#
# Elastic Constant Matrix: (Units=GPa)
#
#
# Indices 1 2 3 4 5 6 
#
# 1 144.5931 99.6305 33.6253 -0.0002 0.0000 0.0000
# 2 99.6305 185.2495 41.0606 -0.0004 0.0001 0.0000
# 3 33.6253 41.0606 25.5460 -0.0027 -0.0005 0.0004
# 4 -0.0002 -0.0004 -0.0027 18.2337 -0.0002 0.0001
# 5 0.0000 0.0001 -0.0005 -0.0002 13.1185 -0.0002
# 6 0.0000 0.0000 0.0004 0.0001 -0.0002 35.2961
#
#
#
# Elastic Compliance Matrix: (Units=1/GPa)
#
#
# Indices 1 2 3 4 5 6 
#
# 1 0.012061 -0.004610 -0.008466 -0.000001 0.000000 0.000000
# 2 -0.004610 0.010148 -0.010242 -0.000001 0.000000 0.000000
# 3 -0.008466 -0.010242 0.066751 0.000010 0.000003 -0.000001
# 4 -0.000001 -0.000001 0.000010 0.054844 0.000001 0.000000
# 5 0.000000 0.000000 0.000003 0.000001 0.076228 0.000000
# 6 0.000000 0.000000 -0.000001 0.000000 0.000000 0.028332
#
#
# Mechanical properties :
#
#
# Convention : Reuss Voigt Hill
#
# Bulk Modulus (GPa) = 23.62758 78.22460 50.92609
# Shear Modulus (GPa) = 16.17554 25.40112 20.78833
#
# Velocity S-wave (km/s) = 3.04556 3.81649 3.45261
# Velocity P-wave (km/s) = 5.09076 8.01727 6.71538
#
# Compressibility (1/GPa) = 0.04232342
#
# Stress axis : x y z
#
# Youngs Moduli (GPa) = 82.90897 98.54201 14.98105
#
# Poissons Ratio (x) = 0.45432 0.12682
# Poissons Ratio (y) = 0.38225 0.15344
# Poissons Ratio (z) = 0.70187 1.00931
#
# Static dielectric constant tensor:
#      x y z
#    x 3.472090 0.000000 0.000000 
#    y 0.000000 3.652160 0.000000 
#    z 0.000000 0.000000 2.527400 
# 
# 
# High freq. dielectric constant tensor:
#      x y z
#    x 1.688630 0.000000 0.000000 
#    y 0.000000 1.697960 0.000000 
#    z 0.000000 0.000000 1.591190 
# 
# From -- ./inp_files/4630.got.cif
#   From: 2010.03.12/outbox.cif.g09.slc.cpg/sg44_3_cif.got.tgz:4630.got - 2010.04.14 02:36:11.
