data_PCOD8188973
_publ_section_title
;
Structure prediction by ZEFSAII (Michael W. Deem and Ramdas Pophale) SiO2 
 PCOD8188973
Probable space group: I M M 2
;
_chemical_formula_sum "Si O2"
_cell_formula_units_Z 48
_cell_length_a 9.061297
_cell_length_b 18.081154
_cell_length_c 14.815047
_cell_angle_alpha 90.000000
_cell_angle_beta 90.000000
_cell_angle_gamma 90.000000
_cell_volume 2427.278137
_symmetry_space_group_name_H-M "I M M 2"
_symmetry_group_IT_number 44
_symmetry_cell_setting 'orthorhombic'
loop_
_space_group_symop_operation_xyz
x,y,z
-x,-y,z
-x,y,z
x,-y,z
1/2+x,1/2+y,1/2+z
1/2-x,1/2-y,1/2+z
1/2-x,1/2+y,1/2+z
1/2+x,1/2-y,1/2+z
loop_
_atom_site_type_symbol
_atom_site_label
_atom_site_fract_x
_atom_site_fract_y
_atom_site_fract_z
Si Si1 0.335292 0.376779 0.424930
Si Si2 0.674236 0.000000 0.597711
Si Si3 0.167841 0.000000 0.781544
Si Si4 0.168822 0.758276 0.372257
Si Si5 0.671530 0.351138 0.043833
Si Si6 0.174205 0.725849 0.684455
Si Si7 0.166930 0.081350 0.122727
O O1 0.500000 0.342338 0.416939
O O2 0.302354 0.427391 0.339301
O O3 0.212157 0.313625 0.429864
O O4 0.322980 0.424767 0.514954
O O5 0.714643 0.000000 0.702388
O O6 0.738758 0.926595 0.552067
O O7 0.500000 0.000000 0.585214
O O8 0.000000 0.000000 0.743987
O O9 0.193973 0.826716 0.439932
O O10 0.271124 0.758687 0.284959
O O11 0.000000 0.753819 0.340974
O O12 0.500000 0.366177 0.064825
O O13 0.731905 0.288591 0.114226
O O14 0.226534 0.644119 0.659146
O O15 0.000000 0.726050 0.683664
O O16 0.000000 0.100498 0.153450
O O17 0.212213 0.000000 0.160548
#
# Coordination Sequence:
#
# PCOD8188973 Si02
#       7
#     8   4   4   8   8   8   8
#     4  10  19  34  59  89 121 157 197 244 295 356
#     4  12  26  40  60  91 120 153 204 259 304 350
#     4  10  20  36  58  87 124 163 196 235 302 372
#     4  11  23  40  62  90 119 158 206 250 301 362
#     4  10  23  44  65  85 121 165 202 245 305 369
#     4  11  23  41  64  92 122 160 205 250 303 362
#     4  10  20  37  61  90 124 161 200 243 296 356
#
# _framework density 19.775237000000001
#
# number of rings (size 3 to 8) (size 9 to 14) (size 15 to 20)
#    0.000    1.500    2.500    2.750    0.000    7.667 
#    1.500    0.000    0.000    0.000    0.000    0.000 
#    0.000    0.000    0.000    0.000    0.000    0.000 
#
# Total GULP energy -297593.586642 kJ/mol
# GULP energy per Si atom -12399.732777 kJ/mol
# Density = 1.973023 g / cm^3
# Si number density = 19.775237 Si / 1000 Ang^3
#
#
#
# Elastic Constant Matrix: (Units=GPa)
#
#
# Indices 1 2 3 4 5 6 
#
# 1 82.0282 59.8900 29.0079 0.0000 0.0000 0.0000
# 2 59.8900 133.5162 26.8319 0.0000 0.0000 0.0000
# 3 29.0079 26.8319 62.2459 0.0000 0.0000 0.0000
# 4 0.0000 0.0000 0.0000 24.0065 0.0000 0.0000
# 5 0.0000 0.0000 0.0000 0.0000 32.2140 0.0000
# 6 0.0000 0.0000 0.0000 0.0000 0.0000 35.9880
#
#
#
# Elastic Compliance Matrix: (Units=1/GPa)
#
#
# Indices 1 2 3 4 5 6 
#
# 1 0.019961 -0.007756 -0.005959 0.000000 0.000000 0.000000
# 2 -0.007756 0.011214 -0.001219 0.000000 0.000000 0.000000
# 3 -0.005959 -0.001219 0.019368 0.000000 0.000000 0.000000
# 4 0.000000 0.000000 0.000000 0.041655 0.000000 0.000000
# 5 0.000000 0.000000 0.000000 0.000000 0.031042 0.000000
# 6 0.000000 0.000000 0.000000 0.000000 0.000000 0.027787
#
#
# Mechanical properties :
#
#
# Convention : Reuss Voigt Hill
#
# Bulk Modulus (GPa) = 48.36988 56.58331 52.47659
# Shear Modulus (GPa) = 26.62577 29.24574 27.93575
#
# Velocity S-wave (km/s) = 3.67334 3.84983 3.76262
# Velocity P-wave (km/s) = 6.51952 6.95966 6.74318
#
# Compressibility (1/GPa) = 0.02067402
#
# Stress axis : x y z
#
# Youngs Moduli (GPa) = 50.09735 89.17497 51.63190
#
# Poissons Ratio (x) = 0.69166 0.30767
# Poissons Ratio (y) = 0.38857 0.06296
# Poissons Ratio (z) = 0.29852 0.10873
#
# Static dielectric constant tensor:
#      x y z
#    x 3.537770 0.000000 0.000000 
#    y 0.000000 3.689910 0.000000 
#    z 0.000000 0.000000 3.595800 
# 
# 
# High freq. dielectric constant tensor:
#      x y z
#    x 1.763690 0.000000 0.000000 
#    y 0.000000 1.778270 0.000000 
#    z 0.000000 0.000000 1.770720 
# 
# From -- ./inp_files/16112.got.cif
#   From: 2010.03.12/outbox.cif.g09.slc.cpg/sg44_9_cif.got.tgz:16112.got - 2010.04.14 02:36:11.
