data_PCOD8188174
_publ_section_title
;
Structure prediction by ZEFSAII (Michael W. Deem and Ramdas Pophale) SiO2 
 PCOD8188174
Probable space group: I M M 2
;
_chemical_formula_sum "Si O2"
_cell_formula_units_Z 64
_cell_length_a 23.192640
_cell_length_b 9.104641
_cell_length_c 18.954275
_cell_angle_alpha 90.000000
_cell_angle_beta 90.000000
_cell_angle_gamma 90.000000
_cell_volume 4002.397239
_symmetry_space_group_name_H-M "I M M 2"
_symmetry_group_IT_number 44
_symmetry_cell_setting 'orthorhombic'
loop_
_space_group_symop_operation_xyz
x,y,z
-x,-y,z
-x,y,z
x,-y,z
1/2+x,1/2+y,1/2+z
1/2-x,1/2-y,1/2+z
1/2-x,1/2+y,1/2+z
1/2+x,1/2-y,1/2+z
loop_
_atom_site_type_symbol
_atom_site_label
_atom_site_fract_x
_atom_site_fract_y
_atom_site_fract_z
Si Si1 0.329735 0.326503 0.902050
Si Si2 0.436439 0.673791 0.989985
Si Si3 0.749216 0.670303 0.124544
Si Si4 0.843274 0.168499 0.857030
Si Si5 0.226043 0.330926 0.281161
Si Si6 0.730902 0.328795 0.487819
Si Si7 0.382965 0.325984 0.135445
Si Si8 0.066738 0.670732 0.771156
O O1 0.320535 0.500000 0.904135
O O2 0.320241 0.267436 0.822933
O O3 0.285581 0.255299 0.956674
O O4 0.393869 0.280464 0.926578
O O5 0.500000 0.739513 0.974633
O O6 0.439214 0.500000 0.995420
O O7 0.413543 0.733302 0.064814
O O8 0.751735 0.500000 0.103076
O O9 0.781715 0.698998 0.198337
O O10 0.683444 0.722924 0.132028
O O11 0.782222 0.764920 0.065319
O O12 0.790640 0.210488 0.805072
O O13 0.824671 0.197299 0.938022
O O14 0.897480 0.269953 0.838282
O O15 0.861150 0.000000 0.845125
O O16 0.214421 0.500000 0.300823
O O17 0.745965 0.500000 0.492127
O O18 0.387825 0.500000 0.144684
O O19 0.414578 0.253146 0.200808
O O20 0.079631 0.500000 0.761317
O O21 0.000000 0.701704 0.786781
#
# Coordination Sequence:
#
# PCOD8188174 Si02
#       8
#     8   8   8   8   8   8   8   8
#     4  10  18  30  47  68  93 123 161 199 234 278
#     4   9  17  29  46  67  91 123 162 198 226 261
#     4  10  18  31  50  72  96 124 158 193 232 284
#     4   9  18  34  50  66  90 125 163 195 230 280
#     4   9  18  32  48  68  96 123 154 197 238 278
#     4  10  20  32  48  70  97 123 153 196 242 286
#     4  10  18  32  49  66  93 130 169 195 222 276
#     4  11  23  34  45  68  99 127 161 204 242 276
#
# _framework density 15.990416
#
# number of rings (size 3 to 8) (size 9 to 14) (size 15 to 20)
#    0.000    2.250    2.500    2.250    0.000    5.000 
#    0.000    0.000    0.000    2.250    0.000    0.875 
#    0.000    3.000    0.000    0.000    0.000    0.000 
#
# Total GULP energy -396797.468355 kJ/mol
# GULP energy per Si atom -12399.920886 kJ/mol
# Density = 1.595402 g / cm^3
# Si number density = 15.990416 Si / 1000 Ang^3
#
#
#
# Elastic Constant Matrix: (Units=GPa)
#
#
# Indices 1 2 3 4 5 6 
#
# 1 85.8182 41.2323 54.9679 0.0000 0.0000 0.0000
# 2 41.2323 65.8119 48.7947 0.0000 0.0000 0.0000
# 3 54.9679 48.7947 112.4882 0.0000 0.0000 0.0000
# 4 0.0000 0.0000 0.0000 30.2027 0.0000 0.0000
# 5 0.0000 0.0000 0.0000 0.0000 22.7912 0.0000
# 6 0.0000 0.0000 0.0000 0.0000 0.0000 19.8290
#
#
#
# Elastic Compliance Matrix: (Units=1/GPa)
#
#
# Indices 1 2 3 4 5 6 
#
# 1 0.019162 -0.007463 -0.006126 0.000000 0.000000 0.000000
# 2 -0.007463 0.025305 -0.007330 0.000000 0.000000 0.000000
# 3 -0.006126 -0.007330 0.015063 0.000000 0.000000 0.000000
# 4 0.000000 0.000000 0.000000 0.033110 0.000000 0.000000
# 5 0.000000 0.000000 0.000000 0.000000 0.043876 0.000000
# 6 0.000000 0.000000 0.000000 0.000000 0.000000 0.050431
#
#
# Mechanical properties :
#
#
# Convention : Reuss Voigt Hill
#
# Bulk Modulus (GPa) = 56.52401 61.56758 59.04579
# Shear Modulus (GPa) = 21.30522 22.50614 21.90568
#
# Velocity S-wave (km/s) = 3.65413 3.75571 3.70527
# Velocity P-wave (km/s) = 7.29582 7.57585 7.43715
#
# Compressibility (1/GPa) = 0.01769160
#
# Stress axis : x y z
#
# Youngs Moduli (GPa) = 52.18541 39.51752 66.38782
#
# Poissons Ratio (x) = 0.29493 0.40672
# Poissons Ratio (y) = 0.38948 0.48661
# Poissons Ratio (z) = 0.31971 0.28966
#
# Static dielectric constant tensor:
#      x y z
#    x 3.015450 0.000000 0.000000 
#    y 0.000000 2.979660 0.000000 
#    z 0.000000 0.000000 3.124800 
# 
# 
# High freq. dielectric constant tensor:
#      x y z
#    x 1.586770 0.000000 0.000000 
#    y 0.000000 1.609460 0.000000 
#    z 0.000000 0.000000 1.613630 
# 
# From -- ./inp_files/20845.got.cif
#   From: 2010.03.12/outbox.cif.g09.slc.cpg/sg44_11_cif.got.tgz:20845.got - 2010.04.14 02:36:11.
