data_PCOD8188019
_publ_section_title
;
Structure prediction by ZEFSAII (Michael W. Deem and Ramdas Pophale) SiO2 
 PCOD8188019
Probable space group: I M M 2
;
_chemical_formula_sum "Si O2"
_cell_formula_units_Z 64
_cell_length_a 26.281214
_cell_length_b 8.880877
_cell_length_c 18.501894
_cell_angle_alpha 90.000000
_cell_angle_beta 90.000000
_cell_angle_gamma 90.000000
_cell_volume 4318.346296
_symmetry_space_group_name_H-M "I M M 2"
_symmetry_group_IT_number 44
_symmetry_cell_setting 'orthorhombic'
loop_
_space_group_symop_operation_xyz
x,y,z
-x,-y,z
-x,y,z
x,-y,z
1/2+x,1/2+y,1/2+z
1/2-x,1/2-y,1/2+z
1/2-x,1/2+y,1/2+z
1/2+x,1/2-y,1/2+z
loop_
_atom_site_type_symbol
_atom_site_label
_atom_site_fract_x
_atom_site_fract_y
_atom_site_fract_z
Si Si1 0.942588 0.827195 0.528400
Si Si2 0.695847 0.335410 0.659566
Si Si3 0.152857 0.175429 0.619642
Si Si4 0.799284 0.333115 0.748271
Si Si5 0.854308 0.819904 0.296769
Si Si6 0.558817 0.825779 0.880036
Si Si7 0.741472 0.823172 0.868394
Si Si8 0.741430 0.821503 0.033754
O O1 0.905043 0.793520 0.594849
O O2 0.926753 0.725321 0.460553
O O3 0.000000 0.789750 0.554087
O O4 0.937858 0.000000 0.503050
O O5 0.674076 0.500000 0.641272
O O6 0.747634 0.345954 0.704392
O O7 0.655455 0.256668 0.714199
O O8 0.711162 0.256958 0.583286
O O9 0.159092 0.250108 0.698416
O O10 0.189343 0.243595 0.558176
O O11 0.165119 0.000000 0.626790
O O12 0.819395 0.500000 0.768269
O O13 0.788446 0.240513 0.821589
O O14 0.909771 0.767702 0.321028
O O15 0.812231 0.753534 0.350587
O O16 0.849604 0.000000 0.297834
O O17 0.500000 0.793128 0.863691
O O18 0.572776 0.000000 0.872562
O O19 0.736264 0.000000 0.854674
O O20 0.753998 0.784450 0.951344
O O21 0.735366 0.000000 0.047586
#
# Coordination Sequence:
#
# PCOD8188019 Si02
#       8
#     8   8   8   8   8   8   8   8
#     4   9  18  31  44  59  81 108 138 173 210 247
#     4   7  13  26  40  54  73 101 133 160 192 234
#     4  10  18  27  42  61  80 106 141 174 204 243
#     4   9  17  29  42  56  80 110 137 168 205 243
#     4  10  18  28  43  59  79 110 142 170 204 245
#     4  10  20  31  42  58  81 108 139 176 212 244
#     4  10  18  27  42  63  85 109 139 171 202 242
#     4   9  17  28  41  58  83 111 135 164 203 243
#
# _framework density 14.820487999999999
#
# number of rings (size 3 to 8) (size 9 to 14) (size 15 to 20)
#    0.000    2.750    0.000    4.125    0.000    4.750 
#    0.000    0.625    0.000    0.000    0.000    0.000 
#    0.000    1.000    0.000    7.250    0.000    2.125 
#
# Total GULP energy -396552.915571 kJ/mol
# GULP energy per Si atom -12392.278612 kJ/mol
# Density = 1.478676 g / cm^3
# Si number density = 14.820488 Si / 1000 Ang^3
#
#
#
# Elastic Constant Matrix: (Units=GPa)
#
#
# Indices 1 2 3 4 5 6 
#
# 1 68.7943 32.8400 52.5599 0.0000 0.0000 0.0000
# 2 32.8400 71.4736 44.1064 0.0000 0.0000 0.0000
# 3 52.5599 44.1064 110.6039 0.0000 0.0000 0.0000
# 4 0.0000 0.0000 0.0000 21.4029 0.0000 0.0000
# 5 0.0000 0.0000 0.0000 0.0000 25.9749 0.0000
# 6 0.0000 0.0000 0.0000 0.0000 0.0000 18.3964
#
#
#
# Elastic Compliance Matrix: (Units=1/GPa)
#
#
# Indices 1 2 3 4 5 6 
#
# 1 0.024273 -0.005352 -0.009401 0.000000 0.000000 0.000000
# 2 -0.005352 0.019738 -0.005328 0.000000 0.000000 0.000000
# 3 -0.009401 -0.005328 0.015633 0.000000 0.000000 0.000000
# 4 0.000000 0.000000 0.000000 0.046723 0.000000 0.000000
# 5 0.000000 0.000000 0.000000 0.000000 0.038499 0.000000
# 6 0.000000 0.000000 0.000000 0.000000 0.000000 0.054359
#
#
# Mechanical properties :
#
#
# Convention : Reuss Voigt Hill
#
# Bulk Modulus (GPa) = 51.32464 56.65383 53.98924
# Shear Modulus (GPa) = 20.33521 21.24587 20.79054
#
# Velocity S-wave (km/s) = 3.70821 3.79033 3.74949
# Velocity P-wave (km/s) = 7.28289 7.58058 7.43322
#
# Compressibility (1/GPa) = 0.01948382
#
# Stress axis : x y z
#
# Youngs Moduli (GPa) = 41.19801 50.66377 63.96630
#
# Poissons Ratio (x) = 0.27113 0.60133
# Poissons Ratio (y) = 0.22047 0.34081
# Poissons Ratio (z) = 0.38729 0.26993
#
# Static dielectric constant tensor:
#      x y z
#    x 2.757220 0.000000 0.000000 
#    y 0.000000 2.940830 0.000000 
#    z 0.000000 0.000000 3.053620 
# 
# 
# High freq. dielectric constant tensor:
#      x y z
#    x 1.532460 0.000000 0.000000 
#    y 0.000000 1.572000 0.000000 
#    z 0.000000 0.000000 1.559520 
# 
# From -- ./inp_files/20927.got.cif
#   From: 2010.03.12/outbox.cif.g09.slc.cpg/sg44_11_cif.got.tgz:20927.got - 2010.04.14 02:36:11.
