data_PCOD8188059
_publ_section_title
;
Structure prediction by ZEFSAII (Michael W. Deem and Ramdas Pophale) SiO2 
 PCOD8188059
Probable space group: I M M 2
;
_chemical_formula_sum "Si O2"
_cell_formula_units_Z 64
_cell_length_a 26.165683
_cell_length_b 9.119401
_cell_length_c 18.281757
_cell_angle_alpha 90.000000
_cell_angle_beta 90.000000
_cell_angle_gamma 90.000000
_cell_volume 4362.307950
_symmetry_space_group_name_H-M "I M M 2"
_symmetry_group_IT_number 44
_symmetry_cell_setting 'orthorhombic'
loop_
_space_group_symop_operation_xyz
x,y,z
-x,-y,z
-x,y,z
x,-y,z
1/2+x,1/2+y,1/2+z
1/2-x,1/2-y,1/2+z
1/2-x,1/2+y,1/2+z
1/2+x,1/2-y,1/2+z
loop_
_atom_site_type_symbol
_atom_site_label
_atom_site_fract_x
_atom_site_fract_y
_atom_site_fract_z
Si Si1 0.704098 0.331996 0.331220
Si Si2 0.738530 0.168123 0.556269
Si Si3 0.750289 0.671169 0.705554
Si Si4 0.287762 0.664539 0.911683
Si Si5 0.943371 0.672725 0.209536
Si Si6 0.148109 0.828961 0.972232
Si Si7 0.355323 0.334859 0.786043
Si Si8 0.440768 0.169385 0.543677
O O1 0.707589 0.500000 0.306275
O O2 0.704560 0.232321 0.258359
O O3 0.752607 0.292635 0.380756
O O4 0.655698 0.304073 0.384756
O O5 0.755879 0.252314 0.627918
O O6 0.786732 0.177615 0.499701
O O7 0.688208 0.238620 0.520896
O O8 0.725657 0.000000 0.575691
O O9 0.758647 0.500000 0.695004
O O10 0.695236 0.709368 0.740366
O O11 0.267343 0.500000 0.889163
O O12 0.343330 0.683196 0.873307
O O13 0.943885 0.500000 0.216692
O O14 0.902653 0.733448 0.266640
O O15 0.000000 0.734021 0.228317
O O16 0.928445 0.717004 0.126970
O O17 0.091588 0.772090 0.990038
O O18 0.153881 0.000000 0.992222
O O19 0.371188 0.500000 0.766583
O O20 0.500000 0.195768 0.525854
O O21 0.426152 0.000000 0.531158
#
# Coordination Sequence:
#
# PCOD8188059 Si02
#       8
#     8   8   8   8   8   8   8   8
#     4   9  17  28  41  58  80 107 138 167 199 243
#     4  10  18  28  43  60  81 111 141 167 201 245
#     4  10  19  29  41  60  85 108 135 172 206 239
#     4   8  16  29  41  56  80 107 134 167 203 237
#     4   9  18  30  41  56  79 105 135 170 202 233
#     4  10  19  29  42  61  84 109 139 174 207 241
#     4   9  17  28  41  57  78 105 135 165 199 236
#     4   9  18  31  44  58  79 109 143 175 207 245
#
# _framework density 14.671132999999999
#
# number of rings (size 3 to 8) (size 9 to 14) (size 15 to 20)
#    0.000    2.750    0.000    3.750    0.000    7.500 
#    0.000    1.250    0.000    0.000    0.000    0.000 
#    0.000    1.000    0.000    9.500    0.000    5.500 
#
# Total GULP energy -396573.861863 kJ/mol
# GULP energy per Si atom -12392.933183 kJ/mol
# Density = 1.463774 g / cm^3
# Si number density = 14.671133 Si / 1000 Ang^3
#
#
#
# Elastic Constant Matrix: (Units=GPa)
#
#
# Indices 1 2 3 4 5 6 
#
# 1 66.2622 36.7678 44.5314 0.0000 0.0000 0.0000
# 2 36.7678 77.6716 50.4302 0.0000 0.0000 0.0000
# 3 44.5314 50.4302 99.0060 0.0000 0.0000 0.0000
# 4 0.0000 0.0000 0.0000 25.3557 0.0000 0.0000
# 5 0.0000 0.0000 0.0000 0.0000 21.9654 0.0000
# 6 0.0000 0.0000 0.0000 0.0000 0.0000 22.2646
#
#
#
# Elastic Compliance Matrix: (Units=1/GPa)
#
#
# Indices 1 2 3 4 5 6 
#
# 1 0.023576 -0.006388 -0.007350 0.000000 0.000000 0.000000
# 2 -0.006388 0.020967 -0.007807 0.000000 0.000000 0.000000
# 3 -0.007350 -0.007807 0.017383 0.000000 0.000000 0.000000
# 4 0.000000 0.000000 0.000000 0.039439 0.000000 0.000000
# 5 0.000000 0.000000 0.000000 0.000000 0.045526 0.000000
# 6 0.000000 0.000000 0.000000 0.000000 0.000000 0.044914
#
#
# Mechanical properties :
#
#
# Convention : Reuss Voigt Hill
#
# Bulk Modulus (GPa) = 53.08948 56.26653 54.67800
# Shear Modulus (GPa) = 20.73190 21.33118 21.03154
#
# Velocity S-wave (km/s) = 3.76321 3.81721 3.79031
# Velocity P-wave (km/s) = 7.42612 7.60679 7.51700
#
# Compressibility (1/GPa) = 0.01883612
#
# Stress axis : x y z
#
# Youngs Moduli (GPa) = 42.41633 47.69312 57.52746
#
# Poissons Ratio (x) = 0.30466 0.42284
# Poissons Ratio (y) = 0.27095 0.44911
# Poissons Ratio (z) = 0.31177 0.37234
#
# Static dielectric constant tensor:
#      x y z
#    x 2.650960 0.000000 0.000000 
#    y 0.000000 2.906500 0.000000 
#    z 0.000000 0.000000 2.971400 
# 
# 
# High freq. dielectric constant tensor:
#      x y z
#    x 1.521340 0.000000 0.000000 
#    y 0.000000 1.574370 0.000000 
#    z 0.000000 0.000000 1.552770 
# 
# From -- ./inp_files/20844.got.cif
#   From: 2010.03.12/outbox.cif.g09.slc.cpg/sg44_11_cif.got.tgz:20844.got - 2010.04.14 02:36:11.
