data_PCOD8188746
_publ_section_title
;
Structure prediction by ZEFSAII (Michael W. Deem and Ramdas Pophale) SiO2 
 PCOD8188746
Probable space group: I M M 2
;
_chemical_formula_sum "Si O2"
_cell_formula_units_Z 64
_cell_length_a 9.197309
_cell_length_b 20.621825
_cell_length_c 19.533570
_cell_angle_alpha 90.000000
_cell_angle_beta 90.000000
_cell_angle_gamma 90.000000
_cell_volume 3704.840349
_symmetry_space_group_name_H-M "I M M 2"
_symmetry_group_IT_number 44
_symmetry_cell_setting 'orthorhombic'
loop_
_space_group_symop_operation_xyz
x,y,z
-x,-y,z
-x,y,z
x,-y,z
1/2+x,1/2+y,1/2+z
1/2-x,1/2-y,1/2+z
1/2-x,1/2+y,1/2+z
1/2+x,1/2-y,1/2+z
loop_
_atom_site_type_symbol
_atom_site_label
_atom_site_fract_x
_atom_site_fract_y
_atom_site_fract_z
Si Si1 0.826961 0.373208 0.609480
Si Si2 0.668197 0.375959 0.473253
Si Si3 0.671364 0.313017 0.833996
Si Si4 0.832771 0.740237 0.113008
Si Si5 0.167378 0.926776 0.235061
Si Si6 0.332409 0.184951 0.756139
Si Si7 0.834759 0.725157 0.962446
Si Si8 0.669192 0.426902 0.329291
O O1 0.766655 0.398344 0.536724
O O2 0.771909 0.300872 0.624637
O O3 0.766721 0.420203 0.668122
O O4 0.000000 0.374928 0.608727
O O5 0.500000 0.387857 0.492373
O O6 0.697174 0.301276 0.454742
O O7 0.718019 0.417457 0.407875
O O8 0.500000 0.311418 0.841092
O O9 0.722171 0.377188 0.793508
O O10 0.728621 0.249392 0.793580
O O11 0.736256 0.315296 0.910261
O O12 0.808556 0.690304 0.174602
O O13 0.000000 0.765977 0.111772
O O14 0.798140 0.704679 0.040894
O O15 0.000000 0.911108 0.215670
O O16 0.183309 0.000000 0.263216
O O17 0.500000 0.176260 0.775049
O O18 0.250319 0.120878 0.778531
O O19 0.000000 0.708876 0.943777
O O20 0.500000 0.411046 0.323181
O O21 0.705950 0.500000 0.306871
#
# Coordination Sequence:
#
# PCOD8188746 Si02
#       8
#     8   8   8   8   8   8   8   8
#     4  11  21  31  49  78 109 136 169 216 262 298
#     4   9  18  33  50  70 102 143 182 207 241 307
#     4  10  19  32  53  79 103 130 171 217 259 302
#     4   9  18  35  54  75 104 139 177 209 250 313
#     4  10  21  38  56  72  99 143 182 209 250 313
#     4  10  19  33  55  78 104 134 172 221 260 299
#     4   9  17  30  52  77 102 133 169 211 253 301
#     4  10  21  36  53  75 105 140 178 215 255 309
#
# _framework density 17.274698000000001
#
# number of rings (size 3 to 8) (size 9 to 14) (size 15 to 20)
#    0.000    2.250    2.500    1.875    0.000    4.500 
#    0.000    1.250    0.000    0.750    0.000    3.500 
#    0.000    0.000    0.000    0.000    0.000    0.000 
#
# Total GULP energy -396811.903600 kJ/mol
# GULP energy per Si atom -12400.371987 kJ/mol
# Density = 1.723538 g / cm^3
# Si number density = 17.274698 Si / 1000 Ang^3
#
#
#
# Elastic Constant Matrix: (Units=GPa)
#
#
# Indices 1 2 3 4 5 6 
#
# 1 63.2237 37.0229 45.7932 0.0000 0.0000 0.0000
# 2 37.0229 91.4545 61.0158 0.0000 0.0000 0.0000
# 3 45.7932 61.0158 123.3748 0.0000 0.0000 0.0000
# 4 0.0000 0.0000 0.0000 24.8779 0.0000 0.0000
# 5 0.0000 0.0000 0.0000 0.0000 32.0954 0.0000
# 6 0.0000 0.0000 0.0000 0.0000 0.0000 20.9947
#
#
#
# Elastic Compliance Matrix: (Units=1/GPa)
#
#
# Indices 1 2 3 4 5 6 
#
# 1 0.023335 -0.005474 -0.005954 0.000000 0.000000 0.000000
# 2 -0.005474 0.017603 -0.006674 0.000000 0.000000 0.000000
# 3 -0.005954 -0.006674 0.013616 0.000000 0.000000 0.000000
# 4 0.000000 0.000000 0.000000 0.040196 0.000000 0.000000
# 5 0.000000 0.000000 0.000000 0.000000 0.031157 0.000000
# 6 0.000000 0.000000 0.000000 0.000000 0.000000 0.047631
#
#
# Mechanical properties :
#
#
# Convention : Reuss Voigt Hill
#
# Bulk Modulus (GPa) = 54.49616 62.85743 58.67680
# Shear Modulus (GPa) = 23.16324 24.54166 23.85245
#
# Velocity S-wave (km/s) = 3.66577 3.77327 3.71991
# Velocity P-wave (km/s) = 7.03793 7.44643 7.24506
#
# Compressibility (1/GPa) = 0.01834992
#
# Stress axis : x y z
#
# Youngs Moduli (GPa) = 42.85411 56.80823 73.44349
#
# Poissons Ratio (x) = 0.31098 0.43728
# Poissons Ratio (y) = 0.23459 0.49015
# Poissons Ratio (z) = 0.25515 0.37913
#
# Static dielectric constant tensor:
#      x y z
#    x 3.100850 0.000000 0.000000 
#    y 0.000000 2.993890 0.000000 
#    z 0.000000 0.000000 3.347640 
# 
# 
# High freq. dielectric constant tensor:
#      x y z
#    x 1.657970 0.000000 0.000000 
#    y 0.000000 1.638990 0.000000 
#    z 0.000000 0.000000 1.671990 
# 
# From -- ./inp_files/20762.got.cif
#   From: 2010.03.12/outbox.cif.g09.slc.cpg/sg44_11_cif.got.tgz:20762.got - 2010.04.14 02:36:11.
