data_PCOD8188153
_publ_section_title
;
Structure prediction by ZEFSAII (Michael W. Deem and Ramdas Pophale) SiO2 
 PCOD8188153
Probable space group: I M M 2
;
_chemical_formula_sum "Si O2"
_cell_formula_units_Z 64
_cell_length_a 14.512462
_cell_length_b 8.823872
_cell_length_c 28.055168
_cell_angle_alpha 90.000000
_cell_angle_beta 90.000000
_cell_angle_gamma 90.000000
_cell_volume 3592.635598
_symmetry_space_group_name_H-M "I M M 2"
_symmetry_group_IT_number 44
_symmetry_cell_setting 'orthorhombic'
loop_
_space_group_symop_operation_xyz
x,y,z
-x,-y,z
-x,y,z
x,-y,z
1/2+x,1/2+y,1/2+z
1/2-x,1/2-y,1/2+z
1/2-x,1/2+y,1/2+z
1/2+x,1/2-y,1/2+z
loop_
_atom_site_type_symbol
_atom_site_label
_atom_site_fract_x
_atom_site_fract_y
_atom_site_fract_z
Si Si1 0.601249 0.179528 0.709360
Si Si2 0.104916 0.321953 0.560135
Si Si3 0.897165 0.679719 0.103525
Si Si4 0.393414 0.326952 0.158415
Si Si5 0.894932 0.675612 0.837483
Si Si6 0.105355 0.177890 0.937246
Si Si7 0.212803 0.821436 0.752716
Si Si8 0.226115 0.679650 0.018208
O O1 0.500000 0.241395 0.725222
O O2 0.627281 0.241063 0.656467
O O3 0.679540 0.225654 0.747286
O O4 0.596891 0.000000 0.705455
O O5 0.115270 0.500000 0.555260
O O6 0.135168 0.273107 0.613213
O O7 0.169793 0.242742 0.520838
O O8 0.000000 0.269146 0.550288
O O9 0.890728 0.500000 0.102547
O O10 0.827479 0.746249 0.064366
O O11 0.000000 0.732854 0.089658
O O12 0.500000 0.307778 0.171297
O O13 0.368221 0.500000 0.145597
O O14 0.337356 0.271788 0.204217
O O15 0.878790 0.500000 0.849318
O O16 0.870695 0.773443 0.883701
O O17 0.827120 0.726089 0.795847
O O18 0.000000 0.705953 0.821224
O O19 0.000000 0.224162 0.949700
O O20 0.120428 0.000000 0.942388
O O21 0.175835 0.263753 0.971108
O O22 0.199336 0.000000 0.762356
O O23 0.228524 0.500000 0.017046
#
# Coordination Sequence:
#
# PCOD8188153 Si02
#       8
#     8   8   8   8   8   8   8   8
#     4   8  14  25  42  67  99 132 166 202 237 277
#     4  10  21  35  49  68  99 138 177 215 253 295
#     4   8  14  25  43  70 102 132 162 197 237 284
#     4   9  17  29  46  70  99 130 167 209 252 301
#     4  10  21  36  53  74 100 128 160 201 250 303
#     4  10  21  37  56  78 105 133 160 196 246 303
#     4  10  18  29  49  74  99 130 168 208 251 301
#     4  11  20  31  52  78 103 132 168 209 252 300
#
# _framework density 17.814219000000001
#
# number of rings (size 3 to 8) (size 9 to 14) (size 15 to 20)
#    0.000    2.500    0.000    3.750    0.000    5.750 
#    0.000    1.250    0.000    1.125    0.000    5.250 
#    0.000    0.000    0.000    0.000    0.000    0.000 
#
# Total GULP energy -396751.692383 kJ/mol
# GULP energy per Si atom -12398.490387 kJ/mol
# Density = 1.777367 g / cm^3
# Si number density = 17.814219 Si / 1000 Ang^3
#
#
#
# Elastic Constant Matrix: (Units=GPa)
#
#
# Indices 1 2 3 4 5 6 
#
# 1 111.0471 33.5438 67.0408 0.0000 0.0000 0.0000
# 2 33.5438 49.3684 28.9222 0.0000 0.0000 0.0000
# 3 67.0408 28.9222 83.9923 0.0000 0.0000 0.0000
# 4 0.0000 0.0000 0.0000 29.2011 0.0000 0.0000
# 5 0.0000 0.0000 0.0000 0.0000 31.9540 0.0000
# 6 0.0000 0.0000 0.0000 0.0000 0.0000 21.3861
#
#
#
# Elastic Compliance Matrix: (Units=1/GPa)
#
#
# Indices 1 2 3 4 5 6 
#
# 1 0.018261 -0.004846 -0.012907 0.000000 0.000000 0.000000
# 2 -0.004846 0.026661 -0.005312 0.000000 0.000000 0.000000
# 3 -0.012907 -0.005312 0.024037 0.000000 0.000000 0.000000
# 4 0.000000 0.000000 0.000000 0.034245 0.000000 0.000000
# 5 0.000000 0.000000 0.000000 0.000000 0.031295 0.000000
# 6 0.000000 0.000000 0.000000 0.000000 0.000000 0.046759
#
#
# Mechanical properties :
#
#
# Convention : Reuss Voigt Hill
#
# Bulk Modulus (GPa) = 43.80542 55.93573 49.87057
# Shear Modulus (GPa) = 21.27667 24.16831 22.72249
#
# Velocity S-wave (km/s) = 3.45971 3.68732 3.57532
# Velocity P-wave (km/s) = 6.37205 7.04245 6.71562
#
# Compressibility (1/GPa) = 0.02282823
#
# Stress axis : x y z
#
# Youngs Moduli (GPa) = 54.76091 37.50808 41.60231
#
# Poissons Ratio (x) = 0.18178 0.53696
# Poissons Ratio (y) = 0.26539 0.22100
# Poissons Ratio (z) = 0.70679 0.19925
#
# Static dielectric constant tensor:
#      x y z
#    x 3.611590 0.000000 0.000000 
#    y 0.000000 3.056720 0.000000 
#    z 0.000000 0.000000 3.165720 
# 
# 
# High freq. dielectric constant tensor:
#      x y z
#    x 1.695410 0.000000 0.000000 
#    y 0.000000 1.667880 0.000000 
#    z 0.000000 0.000000 1.669920 
# 
# From -- ./inp_files/25140.got.cif
#   From: 2010.03.12/outbox.cif.g09.slc.cpg/sg44_13_cif.got.tgz:25140.got - 2010.04.14 02:36:11.
