data_PCOD8188664
_publ_section_title
;
Structure prediction by ZEFSAII (Michael W. Deem and Ramdas Pophale) SiO2 
 PCOD8188664
Probable space group: I M M 2
;
_chemical_formula_sum "Si O2"
_cell_formula_units_Z 56
_cell_length_a 23.579661
_cell_length_b 9.212363
_cell_length_c 13.478205
_cell_angle_alpha 90.000000
_cell_angle_beta 90.000000
_cell_angle_gamma 90.000000
_cell_volume 2927.794948
_symmetry_space_group_name_H-M "I M M 2"
_symmetry_group_IT_number 44
_symmetry_cell_setting 'orthorhombic'
loop_
_space_group_symop_operation_xyz
x,y,z
-x,-y,z
-x,y,z
x,-y,z
1/2+x,1/2+y,1/2+z
1/2-x,1/2-y,1/2+z
1/2-x,1/2+y,1/2+z
1/2+x,1/2-y,1/2+z
loop_
_atom_site_type_symbol
_atom_site_label
_atom_site_fract_x
_atom_site_fract_y
_atom_site_fract_z
Si Si1 0.837166 0.331635 0.134230
Si Si2 0.065266 0.166820 0.029787
Si Si3 0.872021 0.668213 0.634972
Si Si4 0.662642 0.329680 0.831607
Si Si5 0.934727 0.667737 0.435449
Si Si6 0.776678 0.833904 0.530544
Si Si7 0.935451 0.167769 0.800996
O O1 0.845275 0.500000 0.159263
O O2 0.816273 0.249873 0.232883
O O3 0.789835 0.307030 0.049318
O O4 0.896781 0.269258 0.097756
O O5 0.079101 0.197391 0.915286
O O6 0.000000 0.203362 0.052953
O O7 0.078485 0.000000 0.055902
O O8 0.862196 0.500000 0.654038
O O9 0.917894 0.698832 0.549137
O O10 0.811801 0.735616 0.606224
O O11 0.893281 0.736498 0.736803
O O12 0.657038 0.500000 0.811662
O O13 0.601109 0.268725 0.862247
O O14 0.708737 0.293455 0.916904
O O15 0.923058 0.500000 0.408724
O O16 0.000000 0.709688 0.421408
O O17 0.793787 0.000000 0.551614
O O18 0.000000 0.214126 0.778839
O O19 0.926524 0.000000 0.774205
#
# Coordination Sequence:
#
# PCOD8188664 Si02
#       7
#     8   8   8   8   8   8   8
#     4  11  23  39  60  84 109 139 176 220 271 322
#     4   9  20  39  59  80 108 142 182 224 264 315
#     4  10  19  31  52  82 113 145 183 227 273 320
#     4  10  21  38  58  80 108 141 180 223 265 317
#     4   9  18  33  52  77 111 147 183 225 271 317
#     4   9  21  40  57  77 108 143 181 223 265 318
#     4   9  18  33  53  78 111 150 187 223 267 320
#
# _framework density 19.127020999999999
#
# number of rings (size 3 to 8) (size 9 to 14) (size 15 to 20)
#    0.000    2.429    0.000    2.571    0.000    6.000 
#    0.000    4.286    0.000    0.000    0.000    0.000 
#    0.000    0.000    0.000    0.000    0.000    0.000 
#
# Total GULP energy -347292.288979 kJ/mol
# GULP energy per Si atom -12403.296035 kJ/mol
# Density = 1.908349 g / cm^3
# Si number density = 19.127021 Si / 1000 Ang^3
#
#
#
# Elastic Constant Matrix: (Units=GPa)
#
#
# Indices 1 2 3 4 5 6 
#
# 1 98.0354 54.3675 52.3565 0.0000 0.0000 0.0000
# 2 54.3675 102.9610 58.1785 0.0000 0.0000 0.0000
# 3 52.3565 58.1785 96.2340 0.0000 0.0000 0.0000
# 4 0.0000 0.0000 0.0000 34.9153 0.0000 0.0000
# 5 0.0000 0.0000 0.0000 0.0000 27.2291 0.0000
# 6 0.0000 0.0000 0.0000 0.0000 0.0000 30.2126
#
#
#
# Elastic Compliance Matrix: (Units=1/GPa)
#
#
# Indices 1 2 3 4 5 6 
#
# 1 0.016145 -0.005410 -0.005513 0.000000 0.000000 0.000000
# 2 -0.005410 0.016564 -0.007071 0.000000 0.000000 0.000000
# 3 -0.005513 -0.007071 0.017665 0.000000 0.000000 0.000000
# 4 0.000000 0.000000 0.000000 0.028641 0.000000 0.000000
# 5 0.000000 0.000000 0.000000 0.000000 0.036725 0.000000
# 6 0.000000 0.000000 0.000000 0.000000 0.000000 0.033099
#
#
# Mechanical properties :
#
#
# Convention : Reuss Voigt Hill
#
# Bulk Modulus (GPa) = 69.50664 69.67062 69.58863
# Shear Modulus (GPa) = 26.36810 27.29326 26.83068
#
# Velocity S-wave (km/s) = 3.71695 3.78159 3.74941
# Velocity P-wave (km/s) = 7.40536 7.45463 7.43004
#
# Compressibility (1/GPa) = 0.01438712
#
# Stress axis : x y z
#
# Youngs Moduli (GPa) = 61.93900 60.37028 56.60780
#
# Poissons Ratio (x) = 0.32660 0.31208
# Poissons Ratio (y) = 0.33509 0.40026
# Poissons Ratio (z) = 0.34148 0.42686
#
# Static dielectric constant tensor:
#      x y z
#    x 3.362920 0.000000 0.000000 
#    y 0.000000 3.492520 0.000000 
#    z 0.000000 0.000000 3.447000 
# 
# 
# High freq. dielectric constant tensor:
#      x y z
#    x 1.738510 0.000000 0.000000 
#    y 0.000000 1.747380 0.000000 
#    z 0.000000 0.000000 1.742640 
# 
# From -- ./inp_files/16488.got.cif
#   From: 2010.03.12/outbox.cif.g09.slc.cpg/sg44_9_cif.got.tgz:16488.got - 2010.04.14 02:36:11.
