data_PCOD8188270
_publ_section_title
;
Structure prediction by ZEFSAII (Michael W. Deem and Ramdas Pophale) SiO2 
 PCOD8188270
Probable space group: I M M 2
;
_chemical_formula_sum "Si O2"
_cell_formula_units_Z 48
_cell_length_a 20.444388
_cell_length_b 8.874386
_cell_length_c 14.532276
_cell_angle_alpha 90.000000
_cell_angle_beta 90.000000
_cell_angle_gamma 90.000000
_cell_volume 2636.611044
_symmetry_space_group_name_H-M "I M M 2"
_symmetry_group_IT_number 44
_symmetry_cell_setting 'orthorhombic'
loop_
_space_group_symop_operation_xyz
x,y,z
-x,-y,z
-x,y,z
x,-y,z
1/2+x,1/2+y,1/2+z
1/2-x,1/2-y,1/2+z
1/2-x,1/2+y,1/2+z
1/2+x,1/2-y,1/2+z
loop_
_atom_site_type_symbol
_atom_site_label
_atom_site_fract_x
_atom_site_fract_y
_atom_site_fract_z
Si Si1 0.773476 0.177783 0.164890
Si Si2 0.194026 0.820678 0.962204
Si Si3 0.364936 0.674821 0.161553
Si Si4 0.571642 0.322578 0.351110
Si Si5 0.924561 0.175155 0.466143
Si Si6 0.317627 0.178081 0.845960
O O1 0.698346 0.223135 0.172933
O O2 0.816357 0.254245 0.243922
O O3 0.779700 0.000000 0.174280
O O4 0.801494 0.235105 0.067074
O O5 0.127487 0.753638 0.917756
O O6 0.256246 0.758883 0.904978
O O7 0.194790 0.000000 0.956635
O O8 0.343539 0.500000 0.164262
O O9 0.413031 0.714133 0.245149
O O10 0.402522 0.717324 0.068840
O O11 0.500000 0.253849 0.374980
O O12 0.569807 0.500000 0.366512
O O13 0.884734 0.272761 0.393257
O O14 0.000000 0.218416 0.454769
O O15 0.912184 0.000000 0.446196
O O16 0.315123 0.000000 0.838610
#
# Coordination Sequence:
#
# PCOD8188270 Si02
#       6
#     8   8   8   8   8   8
#     4  11  21  34  53  81 112 143 181 229 277 325
#     4   9  18  32  51  77 108 139 178 225 269 322
#     4  10  18  31  54  84 113 140 175 224 277 333
#     4   9  16  29  52  80 107 137 174 218 268 321
#     4  10  21  36  55  84 118 148 183 230 282 335
#     4  11  21  37  57  79 109 147 189 231 274 329
#
# _framework density 18.205188
#
# number of rings (size 3 to 8) (size 9 to 14) (size 15 to 20)
#    0.000    2.000    3.333    1.500    0.000    2.333 
#    0.000    0.833    0.000    4.500    0.000    0.000 
#    0.000    0.000    0.000    0.000    0.000    0.000 
#
# Total GULP energy -297621.160415 kJ/mol
# GULP energy per Si atom -12400.881684 kJ/mol
# Density = 1.816375 g / cm^3
# Si number density = 18.205188 Si / 1000 Ang^3
#
#
#
# Elastic Constant Matrix: (Units=GPa)
#
#
# Indices 1 2 3 4 5 6 
#
# 1 115.8783 21.9313 53.1003 0.0000 0.0000 0.0000
# 2 21.9313 39.4565 31.0599 0.0000 0.0000 0.0000
# 3 53.1003 31.0599 133.6090 0.0000 0.0000 0.0000
# 4 0.0000 0.0000 0.0000 21.5465 0.0000 0.0000
# 5 0.0000 0.0000 0.0000 0.0000 25.1733 0.0000
# 6 0.0000 0.0000 0.0000 0.0000 0.0000 25.2269
#
#
#
# Elastic Compliance Matrix: (Units=1/GPa)
#
#
# Indices 1 2 3 4 5 6 
#
# 1 0.010879 -0.003235 -0.003571 0.000000 0.000000 0.000000
# 2 -0.003235 0.031983 -0.006149 0.000000 0.000000 0.000000
# 3 -0.003571 -0.006149 0.010333 0.000000 0.000000 0.000000
# 4 0.000000 0.000000 0.000000 0.046411 0.000000 0.000000
# 5 0.000000 0.000000 0.000000 0.000000 0.039725 0.000000
# 6 0.000000 0.000000 0.000000 0.000000 0.000000 0.039640
#
#
# Mechanical properties :
#
#
# Convention : Reuss Voigt Hill
#
# Bulk Modulus (GPa) = 36.65241 55.68076 46.16658
# Shear Modulus (GPa) = 23.36689 26.57950 24.97320
#
# Velocity S-wave (km/s) = 3.58652 3.82513 3.70775
# Velocity P-wave (km/s) = 6.10963 7.08240 6.61392
#
# Compressibility (1/GPa) = 0.02728334
#
# Stress axis : x y z
#
# Youngs Moduli (GPa) = 91.92338 31.26627 96.77338
#
# Poissons Ratio (x) = 0.10116 0.34561
# Poissons Ratio (y) = 0.29740 0.59509
# Poissons Ratio (z) = 0.32829 0.19227
#
# Static dielectric constant tensor:
#      x y z
#    x 3.655440 0.000000 0.000000 
#    y 0.000000 3.047300 0.000000 
#    z 0.000000 0.000000 3.575200 
# 
# 
# High freq. dielectric constant tensor:
#      x y z
#    x 1.705360 0.000000 0.000000 
#    y 0.000000 1.672770 0.000000 
#    z 0.000000 0.000000 1.713680 
# 
# From -- ./inp_files/16082.got.cif
#   From: 2010.03.12/outbox.cif.g09.slc.cpg/sg44_9_cif.got.tgz:16082.got - 2010.04.14 02:36:11.
