data_PCOD8188469
_publ_section_title
;
Structure prediction by ZEFSAII (Michael W. Deem and Ramdas Pophale) SiO2 
 PCOD8188469
Probable space group: I M M 2
;
_chemical_formula_sum "Si O2"
_cell_formula_units_Z 48
_cell_length_a 8.985696
_cell_length_b 13.734252
_cell_length_c 23.949541
_cell_angle_alpha 90.000000
_cell_angle_beta 90.000000
_cell_angle_gamma 90.000000
_cell_volume 2955.656282
_symmetry_space_group_name_H-M "I M M 2"
_symmetry_group_IT_number 44
_symmetry_cell_setting 'orthorhombic'
loop_
_space_group_symop_operation_xyz
x,y,z
-x,-y,z
-x,y,z
x,-y,z
1/2+x,1/2+y,1/2+z
1/2-x,1/2-y,1/2+z
1/2-x,1/2+y,1/2+z
1/2+x,1/2-y,1/2+z
loop_
_atom_site_type_symbol
_atom_site_label
_atom_site_fract_x
_atom_site_fract_y
_atom_site_fract_z
Si Si1 0.323580 0.107860 0.995920
Si Si2 0.176073 0.795950 0.223526
Si Si3 0.175998 0.275410 0.390803
Si Si4 0.828018 0.611960 0.827071
Si Si5 0.675197 0.106616 0.783393
Si Si6 0.827662 0.386409 0.620974
O O1 0.500000 0.100445 0.991609
O O2 0.264526 0.184825 0.950310
O O3 0.257360 0.000000 0.984039
O O4 0.278862 0.142187 0.058094
O O5 0.248667 0.868684 0.268089
O O6 0.227024 0.684879 0.236911
O O7 0.228182 0.821607 0.161626
O O8 0.000000 0.807416 0.228668
O O9 0.256443 0.173963 0.377316
O O10 0.221522 0.354874 0.344401
O O11 0.000000 0.256579 0.390892
O O12 0.806416 0.500000 0.843395
O O13 0.000000 0.639833 0.820404
O O14 0.500000 0.095306 0.780841
O O15 0.748854 0.000000 0.772808
O O16 0.797212 0.500000 0.631857
O O17 0.000000 0.362175 0.631460
#
# Coordination Sequence:
#
# PCOD8188469 Si02
#       6
#     8   8   8   8   8   8
#     4   8  14  26  46  70  92 116 147 178 212 261
#     4  10  19  29  45  68  89 113 148 188 222 253
#     4   9  16  27  47  71  89 109 141 182 220 254
#     4  10  20  32  45  62  88 121 149 176 218 268
#     4   8  14  25  42  64  87 109 136 173 217 261
#     4   9  17  29  45  65  91 122 149 175 215 265
#
# _framework density 16.240048999999999
#
# number of rings (size 3 to 8) (size 9 to 14) (size 15 to 20)
#    0.000    3.000    0.000    4.000    0.000    5.667 
#    0.000    0.833    0.000   19.000    0.000    4.667 
#    0.000    0.000    0.000    0.000    0.000    0.000 
#
# Total GULP energy -297490.211743 kJ/mol
# GULP energy per Si atom -12395.425489 kJ/mol
# Density = 1.620309 g / cm^3
# Si number density = 16.240049 Si / 1000 Ang^3
#
#
#
# Elastic Constant Matrix: (Units=GPa)
#
#
# Indices 1 2 3 4 5 6 
#
# 1 53.8905 41.8063 39.2783 0.0000 0.0000 0.0000
# 2 41.8063 113.4520 70.8817 0.0000 0.0000 0.0000
# 3 39.2783 70.8817 134.1943 0.0000 0.0000 0.0000
# 4 0.0000 0.0000 0.0000 28.1194 0.0000 0.0000
# 5 0.0000 0.0000 0.0000 0.0000 23.9125 0.0000
# 6 0.0000 0.0000 0.0000 0.0000 0.0000 17.3732
#
#
#
# Elastic Compliance Matrix: (Units=1/GPa)
#
#
# Indices 1 2 3 4 5 6 
#
# 1 0.027353 -0.007578 -0.004003 0.000000 0.000000 0.000000
# 2 -0.007578 0.015255 -0.005840 0.000000 0.000000 0.000000
# 3 -0.004003 -0.005840 0.011708 0.000000 0.000000 0.000000
# 4 0.000000 0.000000 0.000000 0.035563 0.000000 0.000000
# 5 0.000000 0.000000 0.000000 0.000000 0.041819 0.000000
# 6 0.000000 0.000000 0.000000 0.000000 0.000000 0.057560
#
#
# Mechanical properties :
#
#
# Convention : Reuss Voigt Hill
#
# Bulk Modulus (GPa) = 51.35084 67.27437 59.31261
# Shear Modulus (GPa) = 21.68331 23.85238 22.76785
#
# Velocity S-wave (km/s) = 3.65797 3.83657 3.74833
# Velocity P-wave (km/s) = 7.03772 7.81925 7.43875
#
# Compressibility (1/GPa) = 0.01947388
#
# Stress axis : x y z
#
# Youngs Moduli (GPa) = 36.55927 65.55074 85.41016
#
# Poissons Ratio (x) = 0.49676 0.34192
# Poissons Ratio (y) = 0.27705 0.49878
# Poissons Ratio (z) = 0.14636 0.38280
#
# Static dielectric constant tensor:
#      x y z
#    x 2.816800 0.000000 0.000000 
#    y 0.000000 3.203450 0.000000 
#    z 0.000000 0.000000 3.143040 
# 
# 
# High freq. dielectric constant tensor:
#      x y z
#    x 1.599380 0.000000 0.000000 
#    y 0.000000 1.617760 0.000000 
#    z 0.000000 0.000000 1.617970 
# 
# From -- ./inp_files/24017.got.cif
#   From: 2010.03.12/outbox.cif.g09.slc.cpg/sg44_13_cif.got.tgz:24017.got - 2010.04.14 02:36:11.
