data_PCOD8188007
_publ_section_title
;
Structure prediction by ZEFSAII (Michael W. Deem and Ramdas Pophale) SiO2 
 PCOD8188007
Probable space group: I M M 2
;
_chemical_formula_sum "Si O2"
_cell_formula_units_Z 56
_cell_length_a 13.627557
_cell_length_b 7.905413
_cell_length_c 31.903056
_cell_angle_alpha 90.000000
_cell_angle_beta 90.000000
_cell_angle_gamma 90.000000
_cell_volume 3436.963001
_symmetry_space_group_name_H-M "I M M 2"
_symmetry_group_IT_number 44
_symmetry_cell_setting 'orthorhombic'
loop_
_space_group_symop_operation_xyz
x,y,z
-x,-y,z
-x,y,z
x,-y,z
1/2+x,1/2+y,1/2+z
1/2-x,1/2-y,1/2+z
1/2-x,1/2+y,1/2+z
1/2+x,1/2-y,1/2+z
loop_
_atom_site_type_symbol
_atom_site_label
_atom_site_fract_x
_atom_site_fract_y
_atom_site_fract_z
Si Si1 0.116881 0.000000 0.809748
Si Si2 0.609175 0.692289 0.073434
Si Si3 0.116318 0.000000 0.713330
Si Si4 0.889021 0.299908 0.404885
Si Si5 0.798074 0.688920 0.860367
Si Si6 0.609560 0.694862 0.442710
Si Si7 0.203267 0.304770 0.491196
Si Si8 0.116717 0.314081 0.660964
O O1 0.162669 0.829163 0.828467
O O2 0.147878 0.000000 0.761433
O O3 0.000000 0.000000 0.816956
O O4 0.500000 0.759384 0.061798
O O5 0.603563 0.500000 0.088407
O O6 0.653965 0.793400 0.112983
O O7 0.677791 0.704025 0.032931
O O8 0.160410 0.168767 0.691262
O O9 0.000000 0.000000 0.709323
O O10 0.875321 0.500000 0.402278
O O11 0.816831 0.217645 0.370788
O O12 0.860894 0.239320 0.451773
O O13 0.000000 0.243051 0.394807
O O14 0.810433 0.500000 0.841089
O O15 0.861213 0.694310 0.902862
O O16 0.500000 0.740517 0.457572
O O17 0.618938 0.500000 0.428126
O O18 0.682019 0.729232 0.481536
O O19 0.180792 0.500000 0.499785
O O20 0.149771 0.500000 0.677223
O O21 0.000000 0.297999 0.660413
#
# Coordination Sequence:
#
# PCOD8188007 Si02
#       8
#     4   8   4   8   8   8   8   8
#     4  11  22  36  51  69  99 129 164 212 247 281
#     4  10  18  27  40  60  91 127 157 186 226 278
#     4   9  18  32  48  67  91 119 155 198 240 285
#     4   9  17  32  51  68  96 134 164 198 247 291
#     4  11  21  33  50  73  97 126 166 202 243 296
#     4   9  17  32  49  61  86 128 166 204 246 280
#     4   9  17  27  41  66  92 119 162 204 235 275
#     4   9  16  28  46  65  88 120 154 186 228 284
#
# _framework density 16.293455000000002
#
# number of rings (size 3 to 8) (size 9 to 14) (size 15 to 20)
#    0.000    2.429    2.143    2.143    0.000    5.714 
#    0.000    1.429    0.000    0.000    0.000    0.000 
#    0.000    2.286    0.000    4.000    0.000    0.143 
#
# Total GULP energy -347101.017347 kJ/mol
# GULP energy per Si atom -12396.464905 kJ/mol
# Density = 1.625637 g / cm^3
# Si number density = 16.293455 Si / 1000 Ang^3
#
#
#
# Elastic Constant Matrix: (Units=GPa)
#
#
# Indices 1 2 3 4 5 6 
#
# 1 92.2592 28.4891 35.1430 0.0000 0.0000 0.0000
# 2 28.4891 106.6526 52.8854 0.0000 0.0000 0.0000
# 3 35.1430 52.8854 97.4140 0.0000 0.0000 0.0000
# 4 0.0000 0.0000 0.0000 19.8294 0.0000 0.0000
# 5 0.0000 0.0000 0.0000 0.0000 15.7780 0.0000
# 6 0.0000 0.0000 0.0000 0.0000 0.0000 12.4936
#
#
#
# Elastic Compliance Matrix: (Units=1/GPa)
#
#
# Indices 1 2 3 4 5 6 
#
# 1 0.012748 -0.001539 -0.003763 0.000000 0.000000 0.000000
# 2 -0.001539 0.013016 -0.006511 0.000000 0.000000 0.000000
# 3 -0.003763 -0.006511 0.015158 0.000000 0.000000 0.000000
# 4 0.000000 0.000000 0.000000 0.050430 0.000000 0.000000
# 5 0.000000 0.000000 0.000000 0.000000 0.063379 0.000000
# 6 0.000000 0.000000 0.000000 0.000000 0.000000 0.080041
#
#
# Mechanical properties :
#
#
# Convention : Reuss Voigt Hill
#
# Bulk Modulus (GPa) = 57.82094 58.81786 58.31940
# Shear Modulus (GPa) = 18.92764 21.60742 20.26753
#
# Velocity S-wave (km/s) = 3.41203 3.64557 3.53073
# Velocity P-wave (km/s) = 7.14751 7.34151 7.24515
#
# Compressibility (1/GPa) = 0.01729477
#
# Stress axis : x y z
#
# Youngs Moduli (GPa) = 78.44494 76.82875 65.97218
#
# Poissons Ratio (x) = 0.11825 0.24827
# Poissons Ratio (y) = 0.12073 0.42955
# Poissons Ratio (z) = 0.29521 0.50023
#
# Static dielectric constant tensor:
#      x y z
#    x 2.928910 0.000000 0.000000 
#    y 0.000000 3.131810 0.000000 
#    z 0.000000 0.000000 2.896880 
# 
# 
# High freq. dielectric constant tensor:
#      x y z
#    x 1.590660 0.000000 0.000000 
#    y 0.000000 1.636460 0.000000 
#    z 0.000000 0.000000 1.602160 
# 
# From -- ./inp_files/27490.got.cif
#   From: 2010.03.12/outbox.cif.g09.slc.cpg/sg44_14_cif.got.tgz:27490.got - 2010.04.14 02:36:11.
