data_PCOD8188748
_publ_section_title
;
Structure prediction by ZEFSAII (Michael W. Deem and Ramdas Pophale) SiO2 
 PCOD8188748
Probable space group: I M M 2
;
_chemical_formula_sum "Si O2"
_cell_formula_units_Z 40
_cell_length_a 9.120649
_cell_length_b 7.657512
_cell_length_c 29.419625
_cell_angle_alpha 90.000000
_cell_angle_beta 90.000000
_cell_angle_gamma 90.000000
_cell_volume 2054.710126
_symmetry_space_group_name_H-M "I M M 2"
_symmetry_group_IT_number 44
_symmetry_cell_setting 'orthorhombic'
loop_
_space_group_symop_operation_xyz
x,y,z
-x,-y,z
-x,y,z
x,-y,z
1/2+x,1/2+y,1/2+z
1/2-x,1/2-y,1/2+z
1/2-x,1/2+y,1/2+z
1/2+x,1/2-y,1/2+z
loop_
_atom_site_type_symbol
_atom_site_label
_atom_site_fract_x
_atom_site_fract_y
_atom_site_fract_z
Si Si1 0.826370 0.000000 0.058720
Si Si2 0.669336 0.794362 0.312949
Si Si3 0.335198 0.707211 0.901553
Si Si4 0.167429 0.305062 0.224288
Si Si5 0.327622 0.799993 0.491906
Si Si6 0.173981 0.000000 0.159807
O O1 0.774797 0.175658 0.032910
O O2 0.756728 0.000000 0.109249
O O3 0.000000 0.000000 0.062122
O O4 0.500000 0.744168 0.317177
O O5 0.750513 0.720088 0.357544
O O6 0.735936 0.701267 0.269283
O O7 0.693125 0.000000 0.307718
O O8 0.500000 0.782440 0.901698
O O9 0.335620 0.500000 0.899808
O O10 0.252726 0.769101 0.946840
O O11 0.176844 0.500000 0.203746
O O12 0.229091 0.171891 0.186477
O O13 0.000000 0.255791 0.237044
O O14 0.500000 0.783174 0.482843
O O15 0.284903 0.000000 0.503914
O O16 0.000000 0.000000 0.155885
#
# Coordination Sequence:
#
# PCOD8188748 Si02
#       6
#     4   8   8   8   8   4
#     4   9  18  32  53  81 107 137 177 221 270 315
#     4  10  19  32  53  79 108 144 182 220 267 321
#     4   9  17  30  51  77 106 142 179 216 264 319
#     4  10  20  34  54  79 107 141 180 222 270 321
#     4   9  17  31  51  75 105 138 175 219 262 311
#     4   9  18  34  55  79 109 139 175 227 274 317
#
# _framework density 19.467468
#
# number of rings (size 3 to 8) (size 9 to 14) (size 15 to 20)
#    0.000    2.600    1.000    1.200    0.000    4.400 
#    1.800    4.500    0.000    2.400    0.000    2.800 
#    0.000    0.000    0.000    0.000    0.000    0.000 
#
# Total GULP energy -247996.263145 kJ/mol
# GULP energy per Si atom -12399.813157 kJ/mol
# Density = 1.942316 g / cm^3
# Si number density = 19.467468 Si / 1000 Ang^3
#
#
#
# Elastic Constant Matrix: (Units=GPa)
#
#
# Indices 1 2 3 4 5 6 
#
# 1 73.8866 29.4876 49.0910 0.0000 0.0000 0.0000
# 2 29.4876 101.2693 69.3529 0.0000 0.0000 0.0000
# 3 49.0910 69.3529 181.6948 0.0000 0.0000 0.0000
# 4 0.0000 0.0000 0.0000 13.4022 0.0000 0.0000
# 5 0.0000 0.0000 0.0000 0.0000 23.6334 0.0000
# 6 0.0000 0.0000 0.0000 0.0000 0.0000 12.1908
#
#
#
# Elastic Compliance Matrix: (Units=1/GPa)
#
#
# Indices 1 2 3 4 5 6 
#
# 1 0.016927 -0.002433 -0.003645 0.000000 0.000000 0.000000
# 2 -0.002433 0.013719 -0.004579 0.000000 0.000000 0.000000
# 3 -0.003645 -0.004579 0.008236 0.000000 0.000000 0.000000
# 4 0.000000 0.000000 0.000000 0.074615 0.000000 0.000000
# 5 0.000000 0.000000 0.000000 0.000000 0.042313 0.000000
# 6 0.000000 0.000000 0.000000 0.000000 0.000000 0.082029
#
#
# Mechanical properties :
#
#
# Convention : Reuss Voigt Hill
#
# Bulk Modulus (GPa) = 56.91925 72.52373 64.72149
# Shear Modulus (GPa) = 18.86730 23.77323 21.32026
#
# Velocity S-wave (km/s) = 3.11653 3.49833 3.31293
# Velocity P-wave (km/s) = 6.50015 7.32478 6.92475
#
# Compressibility (1/GPa) = 0.01756875
#
# Stress axis : x y z
#
# Youngs Moduli (GPa) = 59.07816 72.89122 121.41205
#
# Poissons Ratio (x) = 0.17732 0.44252
# Poissons Ratio (y) = 0.14372 0.55598
# Poissons Ratio (z) = 0.21533 0.33379
#
# Static dielectric constant tensor:
#      x y z
#    x 3.384310 0.000000 0.000000 
#    y 0.000000 3.496680 0.000000 
#    z 0.000000 0.000000 3.693620 
# 
# 
# High freq. dielectric constant tensor:
#      x y z
#    x 1.732300 0.000000 0.000000 
#    y 0.000000 1.755060 0.000000 
#    z 0.000000 0.000000 1.754430 
# 
# From -- ./inp_files/25936.got.cif
#   From: 2010.03.12/outbox.cif.g09.slc.cpg/sg44_13_cif.got.tgz:25936.got - 2010.04.14 02:36:11.
