data_PCOD8188876
_publ_section_title
;
Structure prediction by ZEFSAII (Michael W. Deem and Ramdas Pophale) SiO2 
 PCOD8188876
Probable space group: I M M 2
;
_chemical_formula_sum "Si O2"
_cell_formula_units_Z 64
_cell_length_a 8.792126
_cell_length_b 28.700054
_cell_length_c 12.606933
_cell_angle_alpha 90.000000
_cell_angle_beta 90.000000
_cell_angle_gamma 90.000000
_cell_volume 3181.164021
_symmetry_space_group_name_H-M "I M M 2"
_symmetry_group_IT_number 44
_symmetry_cell_setting 'orthorhombic'
loop_
_space_group_symop_operation_xyz
x,y,z
-x,-y,z
-x,y,z
x,-y,z
1/2+x,1/2+y,1/2+z
1/2-x,1/2-y,1/2+z
1/2-x,1/2+y,1/2+z
1/2+x,1/2-y,1/2+z
loop_
_atom_site_type_symbol
_atom_site_label
_atom_site_fract_x
_atom_site_fract_y
_atom_site_fract_z
Si Si1 0.177930 0.110669 0.763190
Si Si2 0.674398 0.424538 0.890039
Si Si3 0.320298 0.053544 0.955840
Si Si4 0.674738 0.168856 0.441161
Si Si5 0.173869 0.301663 0.177019
Si Si6 0.670598 0.051023 0.590218
Si Si7 0.677228 0.600334 0.658820
Si Si8 0.322768 0.700289 0.746391
O O1 0.229068 0.164630 0.754399
O O2 0.219816 0.085750 0.652480
O O3 0.000000 0.108593 0.782616
O O4 0.256618 0.083577 0.858914
O O5 0.500000 0.437873 0.909819
O O6 0.704792 0.371870 0.923532
O O7 0.714018 0.429759 0.765247
O O8 0.777755 0.455644 0.967740
O O9 0.500000 0.053768 0.946563
O O10 0.273935 0.078126 0.065072
O O11 0.259504 0.000000 0.951905
O O12 0.500000 0.152380 0.428909
O O13 0.707844 0.189192 0.555216
O O14 0.718337 0.205873 0.350924
O O15 0.216068 0.247479 0.185102
O O16 0.000000 0.311031 0.208063
O O17 0.500000 0.071922 0.593809
O O18 0.673619 0.000000 0.643849
O O19 0.500000 0.596677 0.629520
O O20 0.722882 0.654682 0.676728
O O21 0.500000 0.696450 0.777216
#
# Coordination Sequence:
#
# PCOD8188876 Si02
#       8
#     8   8   8   8   8   8   8   8
#     4  12  25  40  62  89 119 157 205 257 309 371
#     4  10  20  36  59  86 117 154 195 243 299 358
#     4  11  25  44  65  89 122 166 213 261 316 379
#     4  10  19  33  56  83 116 156 196 245 302 360
#     4  10  21  38  60  86 121 162 203 252 310 369
#     4  11  23  38  58  86 120 155 193 242 300 362
#     4   9  20  39  62  89 124 160 201 254 307 362
#     4   9  20  38  59  87 123 162 203 253 310 368
#
# _framework density 20.118421000000001
#
# number of rings (size 3 to 8) (size 9 to 14) (size 15 to 20)
#    0.000    1.750    1.250    3.750    0.000    8.500 
#    0.000    3.750    0.000    0.000    0.000    0.000 
#    0.000    0.000    0.000    0.000    0.000    0.000 
#
# Total GULP energy -396676.657959 kJ/mol
# GULP energy per Si atom -12396.145561 kJ/mol
# Density = 2.007263 g / cm^3
# Si number density = 20.118421 Si / 1000 Ang^3
#
#
#
# Elastic Constant Matrix: (Units=GPa)
#
#
# Indices 1 2 3 4 5 6 
#
# 1 71.3455 33.7228 41.7263 -0.0004 -0.0001 0.0000
# 2 33.7228 99.7657 48.4229 0.0001 -0.0001 -0.0001
# 3 41.7263 48.4229 115.1562 0.0006 0.0001 0.0001
# 4 -0.0004 0.0001 0.0006 24.3414 0.0000 0.0000
# 5 -0.0001 -0.0001 0.0001 0.0000 35.8424 0.0000
# 6 0.0000 -0.0001 0.0001 0.0000 0.0000 23.9431
#
#
#
# Elastic Compliance Matrix: (Units=1/GPa)
#
#
# Indices 1 2 3 4 5 6 
#
# 1 0.018893 -0.003849 -0.005227 0.000000 0.000000 0.000000
# 2 -0.003849 0.013378 -0.004231 0.000000 0.000000 0.000000
# 3 -0.005227 -0.004231 0.012357 0.000000 0.000000 0.000000
# 4 0.000000 0.000000 0.000000 0.041082 0.000000 0.000000
# 5 0.000000 0.000000 0.000000 0.000000 0.027900 0.000000
# 6 0.000000 0.000000 0.000000 0.000000 0.000000 0.041766
#
#
# Mechanical properties :
#
#
# Convention : Reuss Voigt Hill
#
# Bulk Modulus (GPa) = 55.51316 59.33460 57.42388
# Shear Modulus (GPa) = 26.59661 27.65175 27.12418
#
# Velocity S-wave (km/s) = 3.63988 3.71138 3.67580
# Velocity P-wave (km/s) = 6.73187 6.92261 6.82790
#
# Compressibility (1/GPa) = 0.01801375
#
# Stress axis : x y z
#
# Youngs Moduli (GPa) = 52.93042 74.74968 80.92639
#
# Poissons Ratio (x) = 0.28771 0.42302
# Poissons Ratio (y) = 0.20373 0.34238
# Poissons Ratio (z) = 0.27668 0.31625
#
# Static dielectric constant tensor:
#      x y z
#    x 3.694820 0.000000 0.000000 
#    y 0.000000 3.781670 0.000000 
#    z 0.000000 0.000000 3.921530 
# 
# 
# High freq. dielectric constant tensor:
#      x y z
#    x 1.783480 0.000000 0.000000 
#    y 0.000000 1.788020 0.000000 
#    z 0.000000 0.000000 1.787800 
# 
# From -- ./inp_files/11508.got.cif
#   From: 2010.03.12/outbox.cif.g09.slc.cpg/sg44_6_cif.got.tgz:11508.got - 2010.04.14 02:36:11.
