data_PCOD8188756
_publ_section_title
;
Structure prediction by ZEFSAII (Michael W. Deem and Ramdas Pophale) SiO2 
 PCOD8188756
Probable space group: I M M 2
;
_chemical_formula_sum "Si O2"
_cell_formula_units_Z 48
_cell_length_a 8.684924
_cell_length_b 13.659744
_cell_length_c 18.948286
_cell_angle_alpha 90.000000
_cell_angle_beta 90.000000
_cell_angle_gamma 90.000000
_cell_volume 2247.907901
_symmetry_space_group_name_H-M "I M M 2"
_symmetry_group_IT_number 44
_symmetry_cell_setting 'orthorhombic'
loop_
_space_group_symop_operation_xyz
x,y,z
-x,-y,z
-x,y,z
x,-y,z
1/2+x,1/2+y,1/2+z
1/2-x,1/2-y,1/2+z
1/2-x,1/2+y,1/2+z
1/2+x,1/2-y,1/2+z
loop_
_atom_site_type_symbol
_atom_site_label
_atom_site_fract_x
_atom_site_fract_y
_atom_site_fract_z
Si Si1 0.818144 0.110881 0.851320
Si Si2 0.829596 0.392750 0.847276
Si Si3 0.322860 0.394457 0.994242
Si Si4 0.679571 0.109669 0.130372
Si Si5 0.323065 0.743869 0.747577
Si Si6 0.680824 0.300855 0.502090
O O1 0.748531 0.155753 0.778841
O O2 0.000000 0.110250 0.844037
O O3 0.755968 0.000000 0.859212
O O4 0.769252 0.172831 0.921437
O O5 0.837022 0.500000 0.813028
O O6 0.694622 0.333788 0.810164
O O7 0.000000 0.342784 0.838178
O O8 0.790609 0.399619 0.928458
O O9 0.500000 0.381593 0.971765
O O10 0.303719 0.500000 0.035249
O O11 0.264598 0.297266 0.033785
O O12 0.500000 0.125484 0.118316
O O13 0.736641 0.197564 0.180626
O O14 0.765430 0.114241 0.054943
O O15 0.712936 0.000000 0.160734
O O16 0.500000 0.761003 0.727822
O O17 0.500000 0.286906 0.507036
#
# Coordination Sequence:
#
# PCOD8188756 Si02
#       6
#     8   8   8   8   8   8
#     4  10  22  41  65  92 124 165 210 256 311 375
#     4  10  19  32  53  82 117 156 198 245 299 357
#     4  10  20  34  55  87 124 161 204 252 304 360
#     4  11  25  44  66  92 126 168 210 257 316 379
#     4  12  24  38  60  90 124 161 205 258 313 371
#     4  11  22  39  65  95 129 167 209 258 313 374
#
# _framework density 21.353186999999998
#
# number of rings (size 3 to 8) (size 9 to 14) (size 15 to 20)
#    0.000    1.333    1.667    4.500    0.000    7.000 
#    0.000    0.833    0.000    5.000    0.000    0.000 
#    0.000    0.000    0.000    0.000    0.000    0.000 
#
# Total GULP energy -297363.651113 kJ/mol
# GULP energy per Si atom -12390.152130 kJ/mol
# Density = 2.130459 g / cm^3
# Si number density = 21.353187 Si / 1000 Ang^3
#
#
#
# Elastic Constant Matrix: (Units=GPa)
#
#
# Indices 1 2 3 4 5 6 
#
# 1 91.4319 49.2338 26.8818 0.0000 0.0000 0.0000
# 2 49.2338 138.5195 29.8581 0.0000 0.0000 0.0000
# 3 26.8818 29.8581 76.4097 0.0000 0.0000 0.0000
# 4 0.0000 0.0000 0.0000 25.5129 0.0000 0.0000
# 5 0.0000 0.0000 0.0000 0.0000 32.8107 0.0000
# 6 0.0000 0.0000 0.0000 0.0000 0.0000 30.9264
#
#
#
# Elastic Compliance Matrix: (Units=1/GPa)
#
#
# Indices 1 2 3 4 5 6 
#
# 1 0.014255 -0.004352 -0.003314 0.000000 0.000000 0.000000
# 2 -0.004352 0.009212 -0.002069 0.000000 0.000000 0.000000
# 3 -0.003314 -0.002069 0.015062 0.000000 0.000000 0.000000
# 4 0.000000 0.000000 0.000000 0.039196 0.000000 0.000000
# 5 0.000000 0.000000 0.000000 0.000000 0.030478 0.000000
# 6 0.000000 0.000000 0.000000 0.000000 0.000000 0.032335
#
#
# Mechanical properties :
#
#
# Convention : Reuss Voigt Hill
#
# Bulk Modulus (GPa) = 52.47027 57.58986 55.03006
# Shear Modulus (GPa) = 30.05517 31.20914 30.63215
#
# Velocity S-wave (km/s) = 3.75577 3.82719 3.79165
# Velocity P-wave (km/s) = 6.59042 6.82338 6.70792
#
# Compressibility (1/GPa) = 0.01905841
#
# Stress axis : x y z
#
# Youngs Moduli (GPa) = 70.15006 108.55407 66.39354
#
# Poissons Ratio (x) = 0.47246 0.22006
# Poissons Ratio (y) = 0.30531 0.13734
# Poissons Ratio (z) = 0.23251 0.22455
#
# Static dielectric constant tensor:
#      x y z
#    x 3.723700 0.000000 0.000000 
#    y 0.000000 4.647320 0.000000 
#    z 0.000000 0.000000 3.606040 
# 
# 
# High freq. dielectric constant tensor:
#      x y z
#    x 1.838420 0.000000 0.000000 
#    y 0.000000 1.853390 0.000000 
#    z 0.000000 0.000000 1.806510 
# 
# From -- ./inp_files/20311.got.cif
#   From: 2010.03.12/outbox.cif.g09.slc.cpg/sg44_11_cif.got.tgz:20311.got - 2010.04.14 02:36:11.
