data_PCOD8188617
_publ_section_title
;
Structure prediction by ZEFSAII (Michael W. Deem and Ramdas Pophale) SiO2 
 PCOD8188617
Probable space group: I M M 2
;
_chemical_formula_sum "Si O2"
_cell_formula_units_Z 64
_cell_length_a 18.824819
_cell_length_b 9.077562
_cell_length_c 20.893424
_cell_angle_alpha 90.000000
_cell_angle_beta 90.000000
_cell_angle_gamma 90.000000
_cell_volume 3570.340618
_symmetry_space_group_name_H-M "I M M 2"
_symmetry_group_IT_number 44
_symmetry_cell_setting 'orthorhombic'
loop_
_space_group_symop_operation_xyz
x,y,z
-x,-y,z
-x,y,z
x,-y,z
1/2+x,1/2+y,1/2+z
1/2-x,1/2-y,1/2+z
1/2-x,1/2+y,1/2+z
1/2+x,1/2-y,1/2+z
loop_
_atom_site_type_symbol
_atom_site_label
_atom_site_fract_x
_atom_site_fract_y
_atom_site_fract_z
Si Si1 0.328722 0.169527 0.278620
Si Si2 0.918402 0.826145 0.884454
Si Si3 0.332502 0.325890 0.507288
Si Si4 0.079212 0.675267 0.386814
Si Si5 0.173081 0.330837 0.131175
Si Si6 0.171361 0.669451 0.501011
Si Si7 0.678735 0.172141 0.772195
Si Si8 0.184639 0.333413 0.638695
O O1 0.384118 0.253738 0.322442
O O2 0.250077 0.235857 0.284001
O O3 0.358194 0.184767 0.205156
O O4 0.325234 0.000000 0.299800
O O5 0.879495 0.768161 0.948347
O O6 0.000000 0.777811 0.888671
O O7 0.909717 0.000000 0.877681
O O8 0.336027 0.500000 0.512621
O O9 0.363940 0.261830 0.574195
O O10 0.251793 0.267005 0.497596
O O11 0.074715 0.500000 0.391023
O O12 0.119635 0.744061 0.448911
O O13 0.121059 0.724884 0.323592
O O14 0.000000 0.742480 0.384665
O O15 0.164814 0.500000 0.112376
O O16 0.142537 0.298655 0.202483
O O17 0.255345 0.289478 0.136933
O O18 0.176942 0.500000 0.481454
O O19 0.138978 0.689454 0.573229
O O20 0.698358 0.000000 0.780037
O O21 0.217859 0.500000 0.636111
#
# Coordination Sequence:
#
# PCOD8188617 Si02
#       8
#     8   8   8   8   8   8   8   8
#     4  10  19  31  50  74  98 125 158 199 245 290
#     4  10  21  36  52  70  95 129 166 202 243 294
#     4   9  17  31  50  68  90 121 156 196 240 288
#     4   9  16  26  43  68  95 123 158 197 231 267
#     4   9  16  26  44  71  97 120 152 196 240 280
#     4   8  13  24  44  67  89 116 152 192 230 270
#     4   9  17  30  48  71  99 128 160 198 238 284
#     4   8  15  28  45  68  97 125 154 192 239 285
#
# _framework density 17.925460999999999
#
# number of rings (size 3 to 8) (size 9 to 14) (size 15 to 20)
#    0.000    3.000    0.000    2.250    0.000    3.750 
#    0.000    1.250    0.000    3.375    0.000    0.000 
#    0.000    0.000    0.000    0.000    0.000    0.000 
#
# Total GULP energy -396478.688474 kJ/mol
# GULP energy per Si atom -12389.959015 kJ/mol
# Density = 1.788466 g / cm^3
# Si number density = 17.925461 Si / 1000 Ang^3
#
#
#
# Elastic Constant Matrix: (Units=GPa)
#
#
# Indices 1 2 3 4 5 6 
#
# 1 93.3817 23.2803 77.5930 0.0000 0.0000 0.0000
# 2 23.2803 24.5383 33.8482 0.0000 0.0000 0.0000
# 3 77.5930 33.8482 186.2072 0.0000 0.0000 0.0000
# 4 0.0000 0.0000 0.0000 27.5707 0.0000 0.0000
# 5 0.0000 0.0000 0.0000 0.0000 6.6373 0.0000
# 6 0.0000 0.0000 0.0000 0.0000 0.0000 11.9720
#
#
#
# Elastic Compliance Matrix: (Units=1/GPa)
#
#
# Indices 1 2 3 4 5 6 
#
# 1 0.017709 -0.008838 -0.005773 0.000000 0.000000 0.000000
# 2 -0.008838 0.058802 -0.007006 0.000000 0.000000 0.000000
# 3 -0.005773 -0.007006 0.009049 0.000000 0.000000 0.000000
# 4 0.000000 0.000000 0.000000 0.036270 0.000000 0.000000
# 5 0.000000 0.000000 0.000000 0.000000 0.150664 0.000000
# 6 0.000000 0.000000 0.000000 0.000000 0.000000 0.083528
#
#
# Mechanical properties :
#
#
# Convention : Reuss Voigt Hill
#
# Bulk Modulus (GPa) = 23.62596 63.73004 43.67800
# Shear Modulus (GPa) = 12.09587 20.52972 16.31280
#
# Velocity S-wave (km/s) = 2.60048 3.38787 3.01995
# Velocity P-wave (km/s) = 4.71438 7.13678 6.04810
#
# Compressibility (1/GPa) = 0.04232632
#
# Stress axis : x y z
#
# Youngs Moduli (GPa) = 56.46918 17.00636 110.50447
#
# Poissons Ratio (x) = 0.15030 0.63791
# Poissons Ratio (y) = 0.49907 0.77419
# Poissons Ratio (z) = 0.32598 0.11915
#
# Static dielectric constant tensor:
#      x y z
#    x 3.087490 0.000000 0.000000 
#    y 0.000000 3.067580 0.000000 
#    z 0.000000 0.000000 3.859430 
# 
# 
# High freq. dielectric constant tensor:
#      x y z
#    x 1.648270 0.000000 0.000000 
#    y 0.000000 1.665070 0.000000 
#    z 0.000000 0.000000 1.722570 
# 
# From -- ./inp_files/23259.got.cif
#   From: 2010.03.12/outbox.cif.g09.slc.cpg/sg44_12_cif.got.tgz:23259.got - 2010.04.14 02:36:11.
