data_PCOD8188247
_publ_section_title
;
Structure prediction by ZEFSAII (Michael W. Deem and Ramdas Pophale) SiO2 
 PCOD8188247
Probable space group: I M M 2
;
_chemical_formula_sum "Si O2"
_cell_formula_units_Z 40
_cell_length_a 8.600806
_cell_length_b 18.703667
_cell_length_c 13.647083
_cell_angle_alpha 90.000000
_cell_angle_beta 90.000000
_cell_angle_gamma 90.000000
_cell_volume 2195.359997
_symmetry_space_group_name_H-M "I M M 2"
_symmetry_group_IT_number 44
_symmetry_cell_setting 'orthorhombic'
loop_
_space_group_symop_operation_xyz
x,y,z
-x,-y,z
-x,y,z
x,-y,z
1/2+x,1/2+y,1/2+z
1/2-x,1/2-y,1/2+z
1/2-x,1/2+y,1/2+z
1/2+x,1/2-y,1/2+z
loop_
_atom_site_type_symbol
_atom_site_label
_atom_site_fract_x
_atom_site_fract_y
_atom_site_fract_z
Si Si1 0.316927 0.500000 0.335011
Si Si2 0.683430 0.859629 0.741099
Si Si3 0.683607 0.712245 0.059822
Si Si4 0.182437 0.782402 0.342624
Si Si5 0.683728 0.647232 0.647264
Si Si6 0.315408 0.500000 0.555615
O O1 0.500000 0.500000 0.341218
O O2 0.262961 0.431218 0.276507
O O3 0.247474 0.500000 0.445312
O O4 0.500000 0.868235 0.749080
O O5 0.729017 0.844359 0.628632
O O6 0.749394 0.794004 0.806405
O O7 0.500000 0.700935 0.069821
O O8 0.726235 0.793741 0.084660
O O9 0.746217 0.696682 0.949532
O O10 0.224308 0.843324 0.262707
O O11 0.000000 0.772260 0.350677
O O12 0.500000 0.657405 0.629333
O O13 0.744705 0.569950 0.613022
O O14 0.500000 0.500000 0.554128
#
# Coordination Sequence:
#
# PCOD8188247 Si02
#       6
#     4   8   8   8   8   4
#     4  11  21  33  50  77 104 128 161 207 252 291
#     4  10  20  35  52  73 100 134 168 201 244 301
#     4  10  18  31  50  74  99 127 165 212 251 287
#     4   8  16  30  50  72  97 128 166 203 243 292
#     4   9  17  32  50  72 100 133 168 202 243 300
#     4   9  18  31  52  77 102 130 165 205 248 293
#
# _framework density 18.220244999999998
#
# number of rings (size 3 to 8) (size 9 to 14) (size 15 to 20)
#    0.000    2.600    0.000    3.900    0.000    0.000 
#    0.000   11.500    0.000    3.600    0.000    0.000 
#    0.000    0.000    0.000    0.000    0.000    0.000 
#
# Total GULP energy -247948.629264 kJ/mol
# GULP energy per Si atom -12397.431463 kJ/mol
# Density = 1.817878 g / cm^3
# Si number density = 18.220245 Si / 1000 Ang^3
#
#
#
# Elastic Constant Matrix: (Units=GPa)
#
#
# Indices 1 2 3 4 5 6 
#
# 1 35.0920 15.3314 15.7440 0.0000 0.0000 0.0000
# 2 15.3314 135.7698 76.2889 0.0000 0.0000 0.0000
# 3 15.7440 76.2889 165.4953 -0.0001 0.0000 0.0000
# 4 0.0000 0.0000 -0.0001 9.8067 0.0000 0.0000
# 5 0.0000 0.0000 0.0000 0.0000 20.5072 0.0000
# 6 0.0000 0.0000 0.0000 0.0000 0.0000 23.9660
#
#
#
# Elastic Compliance Matrix: (Units=1/GPa)
#
#
# Indices 1 2 3 4 5 6 
#
# 1 0.030352 -0.002436 -0.001765 0.000000 0.000000 0.000000
# 2 -0.002436 0.010136 -0.004441 0.000000 0.000000 0.000000
# 3 -0.001765 -0.004441 0.008257 0.000000 0.000000 0.000000
# 4 0.000000 0.000000 0.000000 0.101971 0.000000 0.000000
# 5 0.000000 0.000000 0.000000 0.000000 0.048763 0.000000
# 6 0.000000 0.000000 0.000000 0.000000 0.000000 0.041726
#
#
# Mechanical properties :
#
#
# Convention : Reuss Voigt Hill
#
# Bulk Modulus (GPa) = 31.78312 61.23175 46.50744
# Shear Modulus (GPa) = 18.58905 26.12217 22.35561
#
# Velocity S-wave (km/s) = 3.19759 3.79052 3.50661
# Velocity P-wave (km/s) = 5.57803 7.26889 6.47886
#
# Compressibility (1/GPa) = 0.03146324
#
# Stress axis : x y z
#
# Youngs Moduli (GPa) = 32.94629 98.66221 121.10511
#
# Poissons Ratio (x) = 0.24033 0.21370
# Poissons Ratio (y) = 0.08025 0.53777
# Poissons Ratio (z) = 0.05814 0.43811
#
# Static dielectric constant tensor:
#      x y z
#    x 3.125170 0.000000 0.000000 
#    y 0.000000 3.337990 0.000000 
#    z 0.000000 0.000000 3.799900 
# 
# 
# High freq. dielectric constant tensor:
#      x y z
#    x 1.685770 0.000000 0.000000 
#    y 0.000000 1.694120 0.000000 
#    z 0.000000 0.000000 1.718450 
# 
# From -- ./inp_files/16275.got.cif
#   From: 2010.03.12/outbox.cif.g09.slc.cpg/sg44_9_cif.got.tgz:16275.got - 2010.04.14 02:36:11.
