data_PCOD8188221
_publ_section_title
;
Structure prediction by ZEFSAII (Michael W. Deem and Ramdas Pophale) SiO2 
 PCOD8188221
Probable space group: I M M 2
;
_chemical_formula_sum "Si O2"
_cell_formula_units_Z 40
_cell_length_a 8.512076
_cell_length_b 25.924009
_cell_length_c 9.088838
_cell_angle_alpha 90.000000
_cell_angle_beta 90.000000
_cell_angle_gamma 90.000000
_cell_volume 2005.607840
_symmetry_space_group_name_H-M "I M M 2"
_symmetry_group_IT_number 44
_symmetry_cell_setting 'orthorhombic'
loop_
_space_group_symop_operation_xyz
x,y,z
-x,-y,z
-x,y,z
x,-y,z
1/2+x,1/2+y,1/2+z
1/2-x,1/2-y,1/2+z
1/2-x,1/2+y,1/2+z
1/2+x,1/2-y,1/2+z
loop_
_atom_site_type_symbol
_atom_site_label
_atom_site_fract_x
_atom_site_fract_y
_atom_site_fract_z
Si Si1 0.683658 0.896352 0.847610
Si Si2 0.183504 0.705923 0.514818
Si Si3 0.317393 0.000000 0.510950
Si Si4 0.182421 0.000000 0.830399
Si Si5 0.181133 0.697526 0.854992
Si Si6 0.682257 0.394945 0.026400
O O1 0.500000 0.906023 0.862043
O O2 0.725930 0.885295 0.678230
O O3 0.772364 0.947047 0.914053
O O4 0.737299 0.848160 0.945335
O O5 0.224908 0.705693 0.685902
O O6 0.286078 0.750114 0.441073
O O7 0.000000 0.716700 0.485832
O O8 0.239055 0.052138 0.446769
O O9 0.500000 0.000000 0.472015
O O10 0.289624 0.000000 0.685291
O O11 0.000000 0.000000 0.788994
O O12 0.000000 0.681960 0.874567
O O13 0.288106 0.651840 0.916519
O O14 0.500000 0.399131 0.064831
#
# Coordination Sequence:
#
# PCOD8188221 Si02
#       6
#     8   8   4   4   8   8
#     4  10  19  35  58  83 112 147 186 226 273 324
#     4  10  23  40  58  82 110 143 184 229 276 328
#     4  10  18  32  55  82 111 146 186 224 270 322
#     4  10  18  30  51  82 115 146 184 226 270 320
#     4  11  23  39  58  81 110 144 183 227 276 329
#     4  11  21  35  56  84 115 146 184 227 272 322
#
# _framework density 19.944078999999999
#
# number of rings (size 3 to 8) (size 9 to 14) (size 15 to 20)
#    0.000    1.600    0.000    8.400    0.000    6.400 
#    0.000    1.000    0.000    2.400    0.000    0.000 
#    0.000    0.000    0.000    0.000    0.000    0.000 
#
# Total GULP energy -248041.914662 kJ/mol
# GULP energy per Si atom -12402.095733 kJ/mol
# Density = 1.989868 g / cm^3
# Si number density = 19.944079 Si / 1000 Ang^3
#
#
#
# Elastic Constant Matrix: (Units=GPa)
#
#
# Indices 1 2 3 4 5 6 
#
# 1 59.2771 42.7964 15.9323 0.0002 -0.0005 0.0000
# 2 42.7964 169.8815 55.4537 0.0006 0.0001 -0.0001
# 3 15.9323 55.4537 80.4208 0.0040 -0.0008 0.0000
# 4 0.0002 0.0006 0.0040 31.6761 0.0001 0.0000
# 5 -0.0005 0.0001 -0.0008 0.0001 20.3386 0.0003
# 6 0.0000 -0.0001 0.0000 0.0000 0.0003 38.5659
#
#
#
# Elastic Compliance Matrix: (Units=1/GPa)
#
#
# Indices 1 2 3 4 5 6 
#
# 1 0.020647 -0.004989 -0.000650 0.000000 0.000001 0.000000
# 2 -0.004989 0.008802 -0.005081 0.000001 0.000000 0.000000
# 3 -0.000650 -0.005081 0.016067 -0.000002 0.000001 0.000000
# 4 0.000000 0.000001 -0.000002 0.031570 0.000000 0.000000
# 5 0.000001 0.000000 0.000001 0.000000 0.049168 0.000000
# 6 0.000000 0.000000 0.000000 0.000000 0.000000 0.025930
#
#
# Mechanical properties :
#
#
# Convention : Reuss Voigt Hill
#
# Bulk Modulus (GPa) = 41.53652 59.77156 50.65404
# Shear Modulus (GPa) = 27.52587 31.14258 29.33423
#
# Velocity S-wave (km/s) = 3.71907 3.95586 3.83929
# Velocity P-wave (km/s) = 6.27006 7.13441 6.71615
#
# Compressibility (1/GPa) = 0.02407520
#
# Stress axis : x y z
#
# Youngs Moduli (GPa) = 48.43406 113.61292 62.23982
#
# Poissons Ratio (x) = 0.56682 0.04047
# Poissons Ratio (y) = 0.24164 0.31623
# Poissons Ratio (z) = 0.03149 0.57725
#
# Static dielectric constant tensor:
#      x y z
#    x 3.585260 0.000000 0.000000 
#    y 0.000000 4.183650 0.000000 
#    z 0.000000 0.000000 3.317900 
# 
# 
# High freq. dielectric constant tensor:
#      x y z
#    x 1.786870 0.000000 0.000000 
#    y 0.000000 1.804430 0.000000 
#    z 0.000000 0.000000 1.741770 
# 
# From -- ./inp_files/4633.got.cif
#   From: 2010.03.12/outbox.cif.g09.slc.cpg/sg44_3_cif.got.tgz:4633.got - 2010.04.14 02:36:11.
