data_PCOD8188864
_publ_section_title
;
Structure prediction by ZEFSAII (Michael W. Deem and Ramdas Pophale) SiO2 
 PCOD8188864
Probable space group: I M M 2
;
_chemical_formula_sum "Si O2"
_cell_formula_units_Z 40
_cell_length_a 9.272949
_cell_length_b 7.793174
_cell_length_c 28.834852
_cell_angle_alpha 90.000000
_cell_angle_beta 90.000000
_cell_angle_gamma 90.000000
_cell_volume 2083.770910
_symmetry_space_group_name_H-M "I M M 2"
_symmetry_group_IT_number 44
_symmetry_cell_setting 'orthorhombic'
loop_
_space_group_symop_operation_xyz
x,y,z
-x,-y,z
-x,y,z
x,-y,z
1/2+x,1/2+y,1/2+z
1/2-x,1/2-y,1/2+z
1/2-x,1/2+y,1/2+z
1/2+x,1/2-y,1/2+z
loop_
_atom_site_type_symbol
_atom_site_label
_atom_site_fract_x
_atom_site_fract_y
_atom_site_fract_z
Si Si1 0.334825 0.797522 0.397060
Si Si2 0.172057 0.500000 0.061332
Si Si3 0.336983 0.804162 0.808706
Si Si4 0.330148 0.500000 0.158114
Si Si5 0.835459 0.309112 0.723293
Si Si6 0.670964 0.691475 0.497663
O O1 0.500000 0.737574 0.390785
O O2 0.239616 0.710024 0.357975
O O3 0.271572 0.735306 0.446350
O O4 0.321780 0.000000 0.393493
O O5 0.241832 0.500000 0.111294
O O6 0.228954 0.330847 0.034355
O O7 0.000000 0.500000 0.066134
O O8 0.500000 0.736085 0.813398
O O9 0.256727 0.693048 0.770081
O O10 0.333422 0.000000 0.792168
O O11 0.500000 0.500000 0.147474
O O12 0.281987 0.669700 0.186139
O O13 0.820824 0.500000 0.701479
O O14 0.000000 0.268375 0.737297
O O15 0.500000 0.704672 0.496374
O O16 0.722182 0.500000 0.512246
#
# Coordination Sequence:
#
# PCOD8188864 Si02
#       6
#     8   4   8   4   8   8
#     4  10  19  33  55  82 111 147 192 235 275 328
#     4  10  20  36  58  84 112 144 190 236 277 334
#     4  11  23  36  52  80 118 153 186 229 283 339
#     4  10  22  40  60  84 114 146 184 236 291 336
#     4  10  21  39  62  84 108 145 192 235 277 335
#     4   9  17  32  55  82 112 145 184 233 278 321
#
# _framework density 19.195969999999999
#
# number of rings (size 3 to 8) (size 9 to 14) (size 15 to 20)
#    0.000    2.000    2.000    1.800    0.000    6.800 
#    0.000    1.000    0.000    1.200    0.000    0.000 
#    0.000    0.000    0.000    0.000    0.000    0.000 
#
# Total GULP energy -248027.200159 kJ/mol
# GULP energy per Si atom -12401.360008 kJ/mol
# Density = 1.915228 g / cm^3
# Si number density = 19.195970 Si / 1000 Ang^3
#
#
#
# Elastic Constant Matrix: (Units=GPa)
#
#
# Indices 1 2 3 4 5 6 
#
# 1 65.3195 31.9514 51.0964 0.0000 0.0000 0.0000
# 2 31.9514 126.7521 62.5404 0.0000 0.0000 0.0000
# 3 51.0964 62.5404 147.8598 0.0000 0.0000 0.0000
# 4 0.0000 0.0000 0.0000 29.3338 0.0000 0.0000
# 5 0.0000 0.0000 0.0000 0.0000 31.2634 0.0000
# 6 0.0000 0.0000 0.0000 0.0000 0.0000 13.0004
#
#
#
# Elastic Compliance Matrix: (Units=1/GPa)
#
#
# Indices 1 2 3 4 5 6 
#
# 1 0.021461 -0.002212 -0.006481 0.000000 0.000000 0.000000
# 2 -0.002212 0.010198 -0.003549 0.000000 0.000000 0.000000
# 3 -0.006481 -0.003549 0.010504 0.000000 0.000000 0.000000
# 4 0.000000 0.000000 0.000000 0.034090 0.000000 0.000000
# 5 0.000000 0.000000 0.000000 0.000000 0.031986 0.000000
# 6 0.000000 0.000000 0.000000 0.000000 0.000000 0.076921
#
#
# Mechanical properties :
#
#
# Convention : Reuss Voigt Hill
#
# Bulk Modulus (GPa) = 56.56370 70.12309 63.34340
# Shear Modulus (GPa) = 23.19785 27.67573 25.43679
#
# Velocity S-wave (km/s) = 3.48008 3.80115 3.64416
# Velocity P-wave (km/s) = 6.75858 7.47492 7.12576
#
# Compressibility (1/GPa) = 0.01767918
#
# Stress axis : x y z
#
# Youngs Moduli (GPa) = 46.59611 98.05653 95.20325
#
# Poissons Ratio (x) = 0.21693 0.61698
# Poissons Ratio (y) = 0.10308 0.33788
# Poissons Ratio (z) = 0.30197 0.34801
#
# Static dielectric constant tensor:
#      x y z
#    x 3.270990 0.000000 0.000000 
#    y 0.000000 3.770670 0.000000 
#    z 0.000000 0.000000 3.395620 
# 
# 
# High freq. dielectric constant tensor:
#      x y z
#    x 1.715900 0.000000 0.000000 
#    y 0.000000 1.765920 0.000000 
#    z 0.000000 0.000000 1.740810 
# 
# From -- ./inp_files/25945.got.cif
#   From: 2010.03.12/outbox.cif.g09.slc.cpg/sg44_13_cif.got.tgz:25945.got - 2010.04.14 02:36:11.
