data_PCOD8188557
_publ_section_title
;
Structure prediction by ZEFSAII (Michael W. Deem and Ramdas Pophale) SiO2 
 PCOD8188557
Probable space group: I M M 2
;
_chemical_formula_sum "Si O2"
_cell_formula_units_Z 64
_cell_length_a 33.184597
_cell_length_b 8.999091
_cell_length_c 11.743068
_cell_angle_alpha 90.000000
_cell_angle_beta 90.000000
_cell_angle_gamma 90.000000
_cell_volume 3506.846585
_symmetry_space_group_name_H-M "I M M 2"
_symmetry_group_IT_number 44
_symmetry_cell_setting 'orthorhombic'
loop_
_space_group_symop_operation_xyz
x,y,z
-x,-y,z
-x,y,z
x,-y,z
1/2+x,1/2+y,1/2+z
1/2-x,1/2-y,1/2+z
1/2-x,1/2+y,1/2+z
1/2+x,1/2-y,1/2+z
loop_
_atom_site_type_symbol
_atom_site_label
_atom_site_fract_x
_atom_site_fract_y
_atom_site_fract_z
Si Si1 0.171975 0.327912 0.907500
Si Si2 0.045681 0.175344 0.408489
Si Si3 0.270285 0.826824 0.613744
Si Si4 0.123845 0.673260 0.470448
Si Si5 0.333076 0.329964 0.760934
Si Si6 0.189947 0.328323 0.652136
Si Si7 0.545966 0.166970 0.672043
Si Si8 0.390806 0.331838 0.546083
O O1 0.159790 0.500000 0.912142
O O2 0.185305 0.278878 0.782476
O O3 0.207835 0.291476 0.994785
O O4 0.132828 0.232179 0.938220
O O5 0.079526 0.253112 0.486814
O O6 0.053298 0.229153 0.280507
O O7 0.000000 0.217548 0.448217
O O8 0.052339 0.000000 0.411927
O O9 0.291251 0.743409 0.720008
O O10 0.224968 0.770172 0.596917
O O11 0.270802 0.000000 0.642147
O O12 0.118070 0.500000 0.445099
O O13 0.148951 0.744025 0.367836
O O14 0.148165 0.701766 0.586692
O O15 0.324554 0.500000 0.795607
O O16 0.364424 0.317974 0.659079
O O17 0.202587 0.500000 0.642133
O O18 0.500000 0.165789 0.634336
O O19 0.569533 0.233375 0.564575
O O20 0.560938 0.000000 0.700671
O O21 0.403316 0.500000 0.519727
#
# Coordination Sequence:
#
# PCOD8188557 Si02
#       8
#     8   8   8   8   8   8   8   8
#     4   9  20  39  57  74 103 142 183 223 271 325
#     4  10  20  34  53  79 113 149 184 227 281 336
#     4  10  21  36  57  82 105 139 183 227 275 327
#     4  11  22  35  55  83 114 147 187 230 275 332
#     4  10  20  34  53  77 109 145 179 218 270 326
#     4  10  23  40  56  79 110 145 184 231 278 326
#     4  10  19  30  49  79 112 144 177 216 266 325
#     4  10  19  32  53  79 106 140 176 219 268 317
#
# _framework density 18.250014
#
# number of rings (size 3 to 8) (size 9 to 14) (size 15 to 20)
#    0.000    2.000    1.250    2.250    1.750    4.500 
#    0.000    0.000    0.000    0.750    0.000    1.750 
#    0.000    0.000    0.000    0.000    0.000    0.000 
#
# Total GULP energy -396878.301455 kJ/mol
# GULP energy per Si atom -12402.446920 kJ/mol
# Density = 1.820848 g / cm^3
# Si number density = 18.250014 Si / 1000 Ang^3
#
#
#
# Elastic Constant Matrix: (Units=GPa)
#
#
# Indices 1 2 3 4 5 6 
#
# 1 121.1922 63.8910 44.7299 0.0000 0.0000 0.0000
# 2 63.8910 111.1720 41.9631 0.0000 0.0000 0.0000
# 3 44.7299 41.9631 79.2231 0.0000 0.0000 0.0000
# 4 0.0000 0.0000 0.0000 20.9323 0.0000 0.0000
# 5 0.0000 0.0000 0.0000 0.0000 23.1637 0.0000
# 6 0.0000 0.0000 0.0000 0.0000 0.0000 36.6738
#
#
#
# Elastic Compliance Matrix: (Units=1/GPa)
#
#
# Indices 1 2 3 4 5 6 
#
# 1 0.012858 -0.005811 -0.004182 0.000000 0.000000 0.000000
# 2 -0.005811 0.013869 -0.004065 0.000000 0.000000 0.000000
# 3 -0.004182 -0.004065 0.017137 0.000000 0.000000 0.000000
# 4 0.000000 0.000000 0.000000 0.047773 0.000000 0.000000
# 5 0.000000 0.000000 0.000000 0.000000 0.043171 0.000000
# 6 0.000000 0.000000 0.000000 0.000000 0.000000 0.027267
#
#
# Mechanical properties :
#
#
# Convention : Reuss Voigt Hill
#
# Bulk Modulus (GPa) = 63.50018 68.08394 65.79206
# Shear Modulus (GPa) = 25.58300 26.88752 26.23526
#
# Velocity S-wave (km/s) = 3.74813 3.84251 3.79561
# Velocity P-wave (km/s) = 7.32130 7.55471 7.43892
#
# Compressibility (1/GPa) = 0.01574799
#
# Stress axis : x y z
#
# Youngs Moduli (GPa) = 77.76988 72.10156 58.35349
#
# Poissons Ratio (x) = 0.41901 0.24402
# Poissons Ratio (y) = 0.45195 0.23722
# Poissons Ratio (z) = 0.32522 0.29311
#
# Static dielectric constant tensor:
#      x y z
#    x 3.502200 0.000000 0.000000 
#    y 0.000000 3.500830 0.000000 
#    z 0.000000 0.000000 3.153130 
# 
# 
# High freq. dielectric constant tensor:
#      x y z
#    x 1.711080 0.000000 0.000000 
#    y 0.000000 1.721430 0.000000 
#    z 0.000000 0.000000 1.675350 
# 
# From -- ./inp_files/11486.got.cif
#   From: 2010.03.12/outbox.cif.g09.slc.cpg/sg44_6_cif.got.tgz:11486.got - 2010.04.14 02:36:11.
