data_PCOD8188869
_publ_section_title
;
Structure prediction by ZEFSAII (Michael W. Deem and Ramdas Pophale) SiO2 
 PCOD8188869
Probable space group: I M M 2
;
_chemical_formula_sum "Si O2"
_cell_formula_units_Z 64
_cell_length_a 24.400344
_cell_length_b 8.894701
_cell_length_c 15.155544
_cell_angle_alpha 90.000000
_cell_angle_beta 90.000000
_cell_angle_gamma 90.000000
_cell_volume 3289.264762
_symmetry_space_group_name_H-M "I M M 2"
_symmetry_group_IT_number 44
_symmetry_cell_setting 'orthorhombic'
loop_
_space_group_symop_operation_xyz
x,y,z
-x,-y,z
-x,y,z
x,-y,z
1/2+x,1/2+y,1/2+z
1/2-x,1/2-y,1/2+z
1/2-x,1/2+y,1/2+z
1/2+x,1/2-y,1/2+z
loop_
_atom_site_type_symbol
_atom_site_label
_atom_site_fract_x
_atom_site_fract_y
_atom_site_fract_z
Si Si1 0.391134 0.823139 0.581490
Si Si2 0.937902 0.171896 0.917025
Si Si3 0.339958 0.823138 0.086783
Si Si4 0.644069 0.325687 0.267576
Si Si5 0.645229 0.676304 0.911016
Si Si6 0.231575 0.325298 0.298838
Si Si7 0.283932 0.323605 0.618050
Si Si8 0.063284 0.174092 0.255576
O O1 0.431532 0.770498 0.504513
O O2 0.330994 0.755111 0.560308
O O3 0.414483 0.771129 0.675061
O O4 0.386810 0.000000 0.581704
O O5 0.899569 0.232922 0.838688
O O6 0.000000 0.185714 0.883709
O O7 0.922456 0.000000 0.939909
O O8 0.365239 0.769900 0.179241
O O9 0.275762 0.777527 0.083010
O O10 0.348579 0.000000 0.077169
O O11 0.371005 0.737306 0.007818
O O12 0.635283 0.500000 0.243914
O O13 0.703815 0.297763 0.309491
O O14 0.657044 0.500000 0.914910
O O15 0.700943 0.763843 0.885020
O O16 0.596048 0.715846 0.844417
O O17 0.218193 0.500000 0.284124
O O18 0.207482 0.231019 0.217856
O O19 0.293064 0.500000 0.614516
O O20 0.000000 0.212767 0.273396
O O21 0.071422 0.000000 0.230775
#
# Coordination Sequence:
#
# PCOD8188869 Si02
#       8
#     8   8   8   8   8   8   8   8
#     4  12  24  36  56  88 121 154 191 239 294 349
#     4  10  22  41  63  85 113 154 201 244 287 344
#     4  10  22  38  59  85 118 155 193 242 294 346
#     4   9  20  39  61  85 114 150 194 242 293 347
#     4  11  22  36  58  86 118 156 197 239 286 347
#     4  10  19  33  55  85 118 149 186 236 290 345
#     4  10  20  36  56  81 115 156 195 231 283 348
#     4  10  22  41  62  83 113 156 200 241 286 343
#
# _framework density 19.457236000000002
#
# number of rings (size 3 to 8) (size 9 to 14) (size 15 to 20)
#    0.000    1.750    1.250    3.000    1.750    5.000 
#    0.000    0.625    0.000    3.750    0.000    0.000 
#    0.000    0.000    0.000    0.000    0.000    0.000 
#
# Total GULP energy -396949.041254 kJ/mol
# GULP energy per Si atom -12404.657539 kJ/mol
# Density = 1.941295 g / cm^3
# Si number density = 19.457236 Si / 1000 Ang^3
#
#
#
# Elastic Constant Matrix: (Units=GPa)
#
#
# Indices 1 2 3 4 5 6 
#
# 1 95.0940 42.8891 55.1017 0.0000 0.0000 0.0000
# 2 42.8891 92.4582 51.8065 0.0000 0.0000 0.0000
# 3 55.1017 51.8065 116.3655 0.0000 0.0000 0.0000
# 4 0.0000 0.0000 0.0000 31.9753 0.0000 0.0000
# 5 0.0000 0.0000 0.0000 0.0000 28.7974 0.0000
# 6 0.0000 0.0000 0.0000 0.0000 0.0000 22.2042
#
#
#
# Elastic Compliance Matrix: (Units=1/GPa)
#
#
# Indices 1 2 3 4 5 6 
#
# 1 0.015590 -0.004124 -0.005546 0.000000 0.000000 0.000000
# 2 -0.004124 0.015502 -0.004949 0.000000 0.000000 0.000000
# 3 -0.005546 -0.004949 0.013423 0.000000 0.000000 0.000000
# 4 0.000000 0.000000 0.000000 0.031274 0.000000 0.000000
# 5 0.000000 0.000000 0.000000 0.000000 0.034725 0.000000
# 6 0.000000 0.000000 0.000000 0.000000 0.000000 0.045037
#
#
# Mechanical properties :
#
#
# Convention : Reuss Voigt Hill
#
# Bulk Modulus (GPa) = 65.45859 67.05693 66.25776
# Shear Modulus (GPa) = 26.33251 26.87005 26.60128
#
# Velocity S-wave (km/s) = 3.68279 3.72019 3.70153
# Velocity P-wave (km/s) = 7.19717 7.27953 7.23847
#
# Compressibility (1/GPa) = 0.01527683
#
# Stress axis : x y z
#
# Youngs Moduli (GPa) = 64.14571 64.50977 74.49989
#
# Poissons Ratio (x) = 0.26604 0.41317
# Poissons Ratio (y) = 0.26454 0.36866
# Poissons Ratio (z) = 0.35575 0.31923
#
# Static dielectric constant tensor:
#      x y z
#    x 3.588220 0.000000 0.000000 
#    y 0.000000 3.502820 0.000000 
#    z 0.000000 0.000000 3.488210 
# 
# 
# High freq. dielectric constant tensor:
#      x y z
#    x 1.750330 0.000000 0.000000 
#    y 0.000000 1.759500 0.000000 
#    z 0.000000 0.000000 1.755620 
# 
# From -- ./inp_files/16888.got.cif
#   From: 2010.03.12/outbox.cif.g09.slc.cpg/sg44_9_cif.got.tgz:16888.got - 2010.04.14 02:36:11.
