data_PCOD8188920
_publ_section_title
;
Structure prediction by ZEFSAII (Michael W. Deem and Ramdas Pophale) SiO2 
 PCOD8188920
Probable space group: I M M 2
;
_chemical_formula_sum "Si O2"
_cell_formula_units_Z 40
_cell_length_a 29.019822
_cell_length_b 8.982423
_cell_length_c 7.952393
_cell_angle_alpha 90.000000
_cell_angle_beta 90.000000
_cell_angle_gamma 90.000000
_cell_volume 2072.936896
_symmetry_space_group_name_H-M "I M M 2"
_symmetry_group_IT_number 44
_symmetry_cell_setting 'orthorhombic'
loop_
_space_group_symop_operation_xyz
x,y,z
-x,-y,z
-x,y,z
x,-y,z
1/2+x,1/2+y,1/2+z
1/2-x,1/2-y,1/2+z
1/2-x,1/2+y,1/2+z
1/2+x,1/2-y,1/2+z
loop_
_atom_site_type_symbol
_atom_site_label
_atom_site_fract_x
_atom_site_fract_y
_atom_site_fract_z
Si Si1 0.702750 0.672335 0.415130
Si Si2 0.800028 0.325153 0.264107
Si Si3 0.393573 0.672683 0.266519
Si Si4 0.552089 0.322258 0.584587
Si Si5 0.387891 0.322884 0.897769
O O1 0.704338 0.500000 0.471530
O O2 0.749409 0.722856 0.324920
O O3 0.693359 0.773573 0.574702
O O4 0.660765 0.702531 0.288318
O O5 0.807451 0.500000 0.276018
O O6 0.837265 0.245330 0.380626
O O7 0.404777 0.500000 0.277344
O O8 0.423506 0.746145 0.417362
O O9 0.407738 0.729810 0.080022
O O10 0.500000 0.262294 0.590612
O O11 0.553383 0.500000 0.583934
O O12 0.578575 0.263729 0.750647
O O13 0.382753 0.500000 0.891684
#
# Coordination Sequence:
#
# PCOD8188920 Si02
#       5
#     8   8   8   8   8
#     4  10  20  35  52  74 108 145 183 223 269 323
#     4  11  22  34  53  81 110 142 186 228 267 326
#     4   9  17  31  52  77 106 142 179 221 271 323
#     4   9  17  30  52  83 112 140 182 232 274 318
#     4  10  19  34  56  78 111 149 178 221 279 326
#
# _framework density 19.296294
#
# number of rings (size 3 to 8) (size 9 to 14) (size 15 to 20)
#    0.000    2.200    2.000    1.800    0.000    4.000 
#    0.000    5.000    0.000    0.600    0.000    0.000 
#    0.000    0.000    0.000    0.000    0.000    0.000 
#
# Total GULP energy -247953.485520 kJ/mol
# GULP energy per Si atom -12397.674276 kJ/mol
# Density = 1.925237 g / cm^3
# Si number density = 19.296294 Si / 1000 Ang^3
#
#
#
# Elastic Constant Matrix: (Units=GPa)
#
#
# Indices 1 2 3 4 5 6 
#
# 1 138.9372 14.8948 74.6135 0.0000 0.0000 0.0000
# 2 14.8948 21.6805 19.5735 0.0000 0.0000 0.0000
# 3 74.6135 19.5735 183.3886 0.0000 0.0000 0.0000
# 4 0.0000 0.0000 0.0000 14.5214 0.0000 0.0000
# 5 0.0000 0.0000 0.0000 0.0000 29.5029 0.0000
# 6 0.0000 0.0000 0.0000 0.0000 0.0000 19.8233
#
#
#
# Elastic Compliance Matrix: (Units=1/GPa)
#
#
# Indices 1 2 3 4 5 6 
#
# 1 0.009423 -0.003334 -0.003478 0.000000 0.000000 0.000000
# 2 -0.003334 0.052222 -0.004218 0.000000 0.000000 0.000000
# 3 -0.003478 -0.004218 0.007318 0.000000 0.000000 0.000000
# 4 0.000000 0.000000 0.000000 0.068864 0.000000 0.000000
# 5 0.000000 0.000000 0.000000 0.000000 0.033895 0.000000
# 6 0.000000 0.000000 0.000000 0.000000 0.000000 0.050446
#
#
# Mechanical properties :
#
#
# Convention : Reuss Voigt Hill
#
# Bulk Modulus (GPa) = 21.31969 62.46331 41.89150
# Shear Modulus (GPa) = 19.24111 28.43117 23.83614
#
# Velocity S-wave (km/s) = 3.16118 3.84265 3.51845
# Velocity P-wave (km/s) = 4.93930 7.22003 6.18569
#
# Compressibility (1/GPa) = 0.04690499
#
# Stress axis : x y z
#
# Youngs Moduli (GPa) = 106.12782 19.14893 136.64839
#
# Poissons Ratio (x) = 0.06383 0.47525
# Poissons Ratio (y) = 0.35378 0.57631
# Poissons Ratio (z) = 0.36910 0.08076
#
# Static dielectric constant tensor:
#      x y z
#    x 3.742260 0.000000 0.000000 
#    y 0.000000 3.066320 0.000000 
#    z 0.000000 0.000000 3.942800 
# 
# 
# High freq. dielectric constant tensor:
#      x y z
#    x 1.752720 0.000000 0.000000 
#    y 0.000000 1.695550 0.000000 
#    z 0.000000 0.000000 1.768620 
# 
# From -- ./inp_files/4442.got.cif
#   From: 2010.03.12/outbox.cif.g09.slc.cpg/sg44_3_cif.got.tgz:4442.got - 2010.04.14 02:36:11.
