data_PCOD8188501
_publ_section_title
;
Structure prediction by ZEFSAII (Michael W. Deem and Ramdas Pophale) SiO2 
 PCOD8188501
Probable space group: I M M 2
;
_chemical_formula_sum "Si O2"
_cell_formula_units_Z 64
_cell_length_a 19.885064
_cell_length_b 17.222624
_cell_length_c 11.208463
_cell_angle_alpha 90.000000
_cell_angle_beta 90.000000
_cell_angle_gamma 90.000000
_cell_volume 3838.595730
_symmetry_space_group_name_H-M "I M M 2"
_symmetry_group_IT_number 44
_symmetry_cell_setting 'orthorhombic'
loop_
_space_group_symop_operation_xyz
x,y,z
-x,-y,z
-x,y,z
x,-y,z
1/2+x,1/2+y,1/2+z
1/2-x,1/2-y,1/2+z
1/2-x,1/2+y,1/2+z
1/2+x,1/2-y,1/2+z
loop_
_atom_site_type_symbol
_atom_site_label
_atom_site_fract_x
_atom_site_fract_y
_atom_site_fract_z
Si Si1 0.368466 0.089156 0.038170
Si Si2 0.572565 0.130377 0.262955
Si Si3 0.289874 0.912849 0.371605
Si Si4 0.076836 0.219641 0.897042
Si Si5 0.819158 0.911843 0.904054
Si Si6 0.736981 0.648062 0.636158
Si Si7 0.675296 0.911166 0.789205
Si Si8 0.671143 0.196604 0.574892
O O1 0.432125 0.110579 0.120658
O O2 0.312344 0.146636 0.088730
O O3 0.344753 0.000000 0.056571
O O4 0.378107 0.103363 0.897060
O O5 0.500000 0.104588 0.317324
O O6 0.633352 0.083724 0.323484
O O7 0.581458 0.222672 0.284095
O O8 0.236474 0.885888 0.270553
O O9 0.284285 0.852684 0.480845
O O10 0.270845 0.000000 0.413175
O O11 0.120794 0.144427 0.862485
O O12 0.000000 0.194702 0.924480
O O13 0.106188 0.265228 0.012304
O O14 0.750508 0.889209 0.834654
O O15 0.840269 0.000000 0.876183
O O16 0.809577 0.902293 0.046898
O O17 0.716085 0.737638 0.635941
O O18 0.648426 0.860192 0.680457
O O19 0.674066 0.000000 0.747060
#
# Coordination Sequence:
#
# PCOD8188501 Si02
#       8
#     8   8   8   8   8   8   8   8
#     4   9  17  28  45  65  89 118 149 191 237 277
#     4   9  17  29  46  67  91 119 156 201 233 266
#     4  10  19  30  45  68  95 124 156 194 235 285
#     4   9  19  33  46  68  96 126 164 199 233 284
#     4   9  17  30  49  70  93 122 154 198 247 285
#     4   9  17  27  45  67  91 116 153 193 237 281
#     4   9  18  31  46  69  99 122 150 192 240 293
#     4  10  20  29  48  68  94 129 156 186 242 288
#
# _framework density 16.672764000000001
#
# number of rings (size 3 to 8) (size 9 to 14) (size 15 to 20)
#    0.000    2.750    0.000    3.375    8.750    1.250 
#    0.000    0.625    0.000    1.875    0.000    0.000 
#    0.000    0.000    0.000    4.375    0.000    0.500 
#
# Total GULP energy -396502.769484 kJ/mol
# GULP energy per Si atom -12390.711546 kJ/mol
# Density = 1.663482 g / cm^3
# Si number density = 16.672764 Si / 1000 Ang^3
#
#
#
# Elastic Constant Matrix: (Units=GPa)
#
#
# Indices 1 2 3 4 5 6 
#
# 1 42.9926 24.0277 10.4318 0.0000 0.0000 0.0000
# 2 24.0277 86.8603 32.1557 0.0000 0.0000 0.0000
# 3 10.4318 32.1557 72.2248 0.0000 0.0000 0.0000
# 4 0.0000 0.0000 0.0000 29.2963 0.0000 0.0000
# 5 0.0000 0.0000 0.0000 0.0000 13.8589 0.0000
# 6 0.0000 0.0000 0.0000 0.0000 0.0000 18.2485
#
#
#
# Elastic Compliance Matrix: (Units=1/GPa)
#
#
# Indices 1 2 3 4 5 6 
#
# 1 0.027543 -0.007359 -0.000702 0.000000 0.000000 0.000000
# 2 -0.007359 0.015751 -0.005950 0.000000 0.000000 0.000000
# 3 -0.000702 -0.005950 0.016596 0.000000 0.000000 0.000000
# 4 0.000000 0.000000 0.000000 0.034134 0.000000 0.000000
# 5 0.000000 0.000000 0.000000 0.000000 0.072156 0.000000
# 6 0.000000 0.000000 0.000000 0.000000 0.000000 0.054799
#
#
# Mechanical properties :
#
#
# Convention : Reuss Voigt Hill
#
# Bulk Modulus (GPa) = 31.37883 37.25646 34.31764
# Shear Modulus (GPa) = 19.25868 21.31159 20.28514
#
# Velocity S-wave (km/s) = 3.40236 3.57911 3.49185
# Velocity P-wave (km/s) = 5.85628 6.28285 6.07331
#
# Compressibility (1/GPa) = 0.03186862
#
# Stress axis : x y z
#
# Youngs Moduli (GPa) = 36.30683 63.48762 60.25579
#
# Poissons Ratio (x) = 0.46723 0.04228
# Poissons Ratio (y) = 0.26719 0.35850
# Poissons Ratio (z) = 0.02548 0.37773
#
# Static dielectric constant tensor:
#      x y z
#    x 2.935820 0.000000 0.000000 
#    y 0.000000 3.152860 0.000000 
#    z 0.000000 0.000000 3.225180 
# 
# 
# High freq. dielectric constant tensor:
#      x y z
#    x 1.605770 0.000000 0.000000 
#    y 0.000000 1.647720 0.000000 
#    z 0.000000 0.000000 1.634880 
# 
# From -- ./inp_files/14081.got.cif
#   From: 2010.03.12/outbox.cif.g09.slc.cpg/sg44_8_cif.got.tgz:14081.got - 2010.04.14 02:36:11.
