data_PCOD8188365
_publ_section_title
;
Structure prediction by ZEFSAII (Michael W. Deem and Ramdas Pophale) SiO2 
 PCOD8188365
Probable space group: I M M 2
;
_chemical_formula_sum "Si O2"
_cell_formula_units_Z 44
_cell_length_a 12.779377
_cell_length_b 11.619294
_cell_length_c 16.540334
_cell_angle_alpha 90.000000
_cell_angle_beta 90.000000
_cell_angle_gamma 90.000000
_cell_volume 2456.030174
_symmetry_space_group_name_H-M "I M M 2"
_symmetry_group_IT_number 44
_symmetry_cell_setting 'orthorhombic'
loop_
_space_group_symop_operation_xyz
x,y,z
-x,-y,z
-x,y,z
x,-y,z
1/2+x,1/2+y,1/2+z
1/2-x,1/2-y,1/2+z
1/2-x,1/2+y,1/2+z
1/2+x,1/2-y,1/2+z
loop_
_atom_site_type_symbol
_atom_site_label
_atom_site_fract_x
_atom_site_fract_y
_atom_site_fract_z
Si Si1 0.754970 0.500000 0.187600
Si Si2 0.695151 0.873515 0.376624
Si Si3 0.619939 0.000000 0.522113
Si Si4 0.622560 0.772627 0.922875
Si Si5 0.620626 0.000000 0.837170
Si Si6 0.121604 0.778337 0.734943
Si Si7 0.376910 0.873915 0.089931
O O1 0.795504 0.500000 0.095362
O O2 0.859396 0.500000 0.241694
O O3 0.686684 0.391141 0.213994
O O4 0.815791 0.837701 0.389845
O O5 0.637410 0.775713 0.324092
O O6 0.693608 0.000000 0.333519
O O7 0.639440 0.887252 0.465013
O O8 0.500000 0.000000 0.553983
O O9 0.500000 0.750946 0.907570
O O10 0.667324 0.885111 0.877064
O O11 0.651536 0.789308 0.016645
O O12 0.500000 0.000000 0.858254
O O13 0.162552 0.682018 0.672737
O O14 0.000000 0.808924 0.723033
O O15 0.500000 0.890967 0.092127
O O16 0.324312 0.000000 0.079352
#
# Coordination Sequence:
#
# PCOD8188365 Si02
#       7
#     4   8   4   8   4   8   8
#     4  12  22  38  58  86 116 151 200 243 301 353
#     4  10  22  37  57  84 117 155 201 240 294 362
#     4  10  23  41  60  84 118 160 197 237 291 362
#     4  10  18  34  56  83 115 146 190 247 296 347
#     4  10  19  33  56  82 108 141 187 238 288 345
#     4  11  22  36  56  84 118 153 193 247 300 352
#     4   9  17  30  52  78 105 142 186 234 289 345
#
# _framework density 17.915088999999998
#
# number of rings (size 3 to 8) (size 9 to 14) (size 15 to 20)
#    0.545    1.273    2.727    2.727    0.000    1.091 
#    0.000    0.909    0.000    0.000    0.000    0.000 
#    0.000    0.000    0.000    0.000    0.000    0.000 
#
# Total GULP energy -272595.010667 kJ/mol
# GULP energy per Si atom -12390.682303 kJ/mol
# Density = 1.787431 g / cm^3
# Si number density = 17.915089 Si / 1000 Ang^3
#
#
#
# Elastic Constant Matrix: (Units=GPa)
#
#
# Indices 1 2 3 4 5 6 
#
# 1 66.2027 38.0732 24.4099 0.0000 0.0000 0.0000
# 2 38.0732 92.4774 31.3275 0.0000 0.0000 0.0000
# 3 24.4099 31.3275 107.2337 0.0000 0.0000 0.0000
# 4 0.0000 0.0000 0.0000 32.6455 0.0000 0.0000
# 5 0.0000 0.0000 0.0000 0.0000 25.2791 0.0000
# 6 0.0000 0.0000 0.0000 0.0000 0.0000 17.9368
#
#
#
# Elastic Compliance Matrix: (Units=1/GPa)
#
#
# Indices 1 2 3 4 5 6 
#
# 1 0.020343 -0.007554 -0.002424 0.000000 0.000000 0.000000
# 2 -0.007554 0.014806 -0.002606 0.000000 0.000000 0.000000
# 3 -0.002424 -0.002606 0.010638 0.000000 0.000000 0.000000
# 4 0.000000 0.000000 0.000000 0.030632 0.000000 0.000000
# 5 0.000000 0.000000 0.000000 0.000000 0.039558 0.000000
# 6 0.000000 0.000000 0.000000 0.000000 0.000000 0.055751
#
#
# Mechanical properties :
#
#
# Convention : Reuss Voigt Hill
#
# Bulk Modulus (GPa) = 48.49681 50.39279 49.44480
# Shear Modulus (GPa) = 24.53728 26.64581 25.59154
#
# Velocity S-wave (km/s) = 3.70488 3.86079 3.78364
# Velocity P-wave (km/s) = 6.74023 6.93282 6.83720
#
# Compressibility (1/GPa) = 0.02061991
#
# Stress axis : x y z
#
# Youngs Moduli (GPa) = 49.15617 67.53849 93.99828
#
# Poissons Ratio (x) = 0.51021 0.22784
# Poissons Ratio (y) = 0.37134 0.24496
# Poissons Ratio (z) = 0.11915 0.17600
#
# Static dielectric constant tensor:
#      x y z
#    x 3.026490 0.000000 0.000000 
#    y 0.000000 3.330790 0.000000 
#    z 0.000000 0.000000 3.386450 
# 
# 
# High freq. dielectric constant tensor:
#      x y z
#    x 1.667140 0.000000 0.000000 
#    y 0.000000 1.693990 0.000000 
#    z 0.000000 0.000000 1.698220 
# 
# From -- ./inp_files/21689.got.cif
#   From: 2010.03.12/outbox.cif.g09.slc.cpg/sg44_11_cif.got.tgz:21689.got - 2010.04.14 02:36:11.
