data_PCOD8188998
_publ_section_title
;
Structure prediction by ZEFSAII (Michael W. Deem and Ramdas Pophale) SiO2 
 PCOD8188998
Probable space group: I M M 2
;
_chemical_formula_sum "Si O2"
_cell_formula_units_Z 56
_cell_length_a 8.671800
_cell_length_b 18.679537
_cell_length_c 17.191452
_cell_angle_alpha 90.000000
_cell_angle_beta 90.000000
_cell_angle_gamma 90.000000
_cell_volume 2784.760944
_symmetry_space_group_name_H-M "I M M 2"
_symmetry_group_IT_number 44
_symmetry_cell_setting 'orthorhombic'
loop_
_space_group_symop_operation_xyz
x,y,z
-x,-y,z
-x,y,z
x,-y,z
1/2+x,1/2+y,1/2+z
1/2-x,1/2-y,1/2+z
1/2-x,1/2+y,1/2+z
1/2+x,1/2-y,1/2+z
loop_
_atom_site_type_symbol
_atom_site_label
_atom_site_fract_x
_atom_site_fract_y
_atom_site_fract_z
Si Si1 0.683351 0.920387 0.299350
Si Si2 0.680209 0.805294 0.719822
Si Si3 0.183161 0.331379 0.651157
Si Si4 0.682455 0.080819 0.001801
Si Si5 0.318537 0.312662 0.388351
Si Si6 0.316408 0.162432 0.448650
Si Si7 0.818336 0.419966 0.097818
O O1 0.500000 0.922785 0.301914
O O2 0.739179 0.878916 0.223344
O O3 0.749732 0.881403 0.375402
O O4 0.752370 0.000000 0.296499
O O5 0.500000 0.797529 0.737754
O O6 0.732626 0.744691 0.658598
O O7 0.774619 0.799798 0.799051
O O8 0.718446 0.881241 0.679279
O O9 0.242414 0.371677 0.573914
O O10 0.000000 0.319961 0.650487
O O11 0.500000 0.077874 0.002145
O O12 0.748637 0.000000 0.007785
O O13 0.738629 0.116204 0.921452
O O14 0.500000 0.322411 0.393145
O O15 0.262193 0.244786 0.439842
O O16 0.500000 0.159742 0.448381
O O17 0.247655 0.126518 0.526638
O O18 0.746489 0.500000 0.099123
O O19 0.000000 0.425168 0.084713
#
# Coordination Sequence:
#
# PCOD8188998 Si02
#       7
#     8   8   8   8   8   8   8
#     4   9  15  25  48  81 112 142 178 222 271 327
#     4  11  22  36  56  83 115 153 193 235 284 340
#     4  10  19  35  57  84 116 150 188 232 282 342
#     4  10  22  39  59  85 117 153 195 243 295 351
#     4  11  22  38  59  84 113 147 193 242 290 348
#     4   9  16  29  51  80 110 138 176 228 280 331
#     4   9  18  32  51  78 109 139 177 227 278 326
#
# _framework density 20.109444
#
# number of rings (size 3 to 8) (size 9 to 14) (size 15 to 20)
#    0.000    2.143    1.429    2.571    0.000    6.000 
#    0.000    1.429    0.000    2.571    0.000    0.000 
#    0.000    0.000    0.000    0.000    0.000    0.000 
#
# Total GULP energy -347205.125619 kJ/mol
# GULP energy per Si atom -12400.183058 kJ/mol
# Density = 2.006367 g / cm^3
# Si number density = 20.109444 Si / 1000 Ang^3
#
#
#
# Elastic Constant Matrix: (Units=GPa)
#
#
# Indices 1 2 3 4 5 6 
#
# 1 12.3593 18.8270 8.0539 0.0000 0.0000 0.0000
# 2 18.8270 154.3635 57.9043 0.0000 0.0000 0.0000
# 3 8.0539 57.9043 84.7556 0.0000 0.0000 0.0000
# 4 0.0000 0.0000 0.0000 34.4836 0.0000 0.0000
# 5 0.0000 0.0000 0.0000 0.0000 23.2320 0.0000
# 6 0.0000 0.0000 0.0000 0.0000 0.0000 22.5200
#
#
#
# Elastic Compliance Matrix: (Units=1/GPa)
#
#
# Indices 1 2 3 4 5 6 
#
# 1 0.099528 -0.011552 -0.001566 0.000000 0.000000 0.000000
# 2 -0.011552 0.010051 -0.005769 0.000000 0.000000 0.000000
# 3 -0.001566 -0.005769 0.015889 0.000000 0.000000 0.000000
# 4 0.000000 0.000000 0.000000 0.028999 0.000000 0.000000
# 5 0.000000 0.000000 0.000000 0.000000 0.043044 0.000000
# 6 0.000000 0.000000 0.000000 0.000000 0.000000 0.044405
#
#
# Mechanical properties :
#
#
# Convention : Reuss Voigt Hill
#
# Bulk Modulus (GPa) = 11.40318 46.78319 29.09319
# Shear Modulus (GPa) = 16.18539 27.16001 21.67270
#
# Velocity S-wave (km/s) = 2.84009 3.67905 3.28645
# Velocity P-wave (km/s) = 4.05434 6.43133 5.37586
#
# Compressibility (1/GPa) = 0.08769481
#
# Stress axis : x y z
#
# Youngs Moduli (GPa) = 10.04747 99.49008 62.93705
#
# Poissons Ratio (x) = 1.14928 0.09853
# Poissons Ratio (y) = 0.11606 0.36310
# Poissons Ratio (z) = 0.01573 0.57398
#
# Static dielectric constant tensor:
#      x y z
#    x 3.081310 0.000000 0.000000 
#    y 0.000000 3.966690 0.000000 
#    z 0.000000 0.000000 3.709910 
# 
# 
# High freq. dielectric constant tensor:
#      x y z
#    x 1.732800 0.000000 0.000000 
#    y 0.000000 1.799700 0.000000 
#    z 0.000000 0.000000 1.794220 
# 
# From -- ./inp_files/16478.got.cif
#   From: 2010.03.12/outbox.cif.g09.slc.cpg/sg44_9_cif.got.tgz:16478.got - 2010.04.14 02:36:11.
