data_PCOD8188838
_publ_section_title
;
Structure prediction by ZEFSAII (Michael W. Deem and Ramdas Pophale) SiO2 
 PCOD8188838
Probable space group: I M M 2
;
_chemical_formula_sum "Si O2"
_cell_formula_units_Z 48
_cell_length_a 8.641022
_cell_length_b 28.194622
_cell_length_c 9.990142
_cell_angle_alpha 90.000000
_cell_angle_beta 90.000000
_cell_angle_gamma 90.000000
_cell_volume 2433.901782
_symmetry_space_group_name_H-M "I M M 2"
_symmetry_group_IT_number 44
_symmetry_cell_setting 'orthorhombic'
loop_
_space_group_symop_operation_xyz
x,y,z
-x,-y,z
-x,y,z
x,-y,z
1/2+x,1/2+y,1/2+z
1/2-x,1/2-y,1/2+z
1/2-x,1/2+y,1/2+z
1/2+x,1/2-y,1/2+z
loop_
_atom_site_type_symbol
_atom_site_label
_atom_site_fract_x
_atom_site_fract_y
_atom_site_fract_z
Si Si1 0.317439 0.395049 0.305990
Si Si2 0.683517 0.705077 0.411464
Si Si3 0.182171 0.712671 0.708735
Si Si4 0.684280 0.445883 0.044274
Si Si5 0.817079 0.948582 0.062907
Si Si6 0.183643 0.883315 0.294905
O O1 0.500000 0.388948 0.291217
O O2 0.248854 0.344479 0.353228
O O3 0.247705 0.415490 0.168277
O O4 0.271857 0.434663 0.413484
O O5 0.500000 0.702627 0.427085
O O6 0.746693 0.716073 0.560075
O O7 0.735849 0.743592 0.301734
O O8 0.236252 0.667527 0.794801
O O9 0.000000 0.712160 0.690795
O O10 0.500000 0.448665 0.051641
O O11 0.749735 0.500000 0.041044
O O12 0.739532 0.416410 0.916001
O O13 0.752846 0.909193 0.162753
O O14 0.000000 0.951124 0.081798
O O15 0.744230 0.000000 0.094749
O O16 0.000000 0.875810 0.296460
#
# Coordination Sequence:
#
# PCOD8188838 Si02
#       6
#     8   8   8   8   8   8
#     4   9  16  29  49  76 109 139 171 223 281 327
#     4  10  22  40  59  83 112 145 186 231 284 338
#     4  11  24  39  59  85 113 145 188 234 279 338
#     4   9  17  28  48  82 115 143 182 231 278 323
#     4   9  15  25  47  77 105 137 178 224 271 319
#     4  10  19  33  54  79 114 148 180 225 277 332
#
# _framework density 19.721420999999999
#
# number of rings (size 3 to 8) (size 9 to 14) (size 15 to 20)
#    0.000    2.333    1.667    1.500    2.333    5.333 
#    0.000    0.000    0.000    2.000    0.000    0.000 
#    0.000    0.000    0.000    0.000    0.000    0.000 
#
# Total GULP energy -297460.924913 kJ/mol
# GULP energy per Si atom -12394.205205 kJ/mol
# Density = 1.967653 g / cm^3
# Si number density = 19.721421 Si / 1000 Ang^3
#
#
#
# Elastic Constant Matrix: (Units=GPa)
#
#
# Indices 1 2 3 4 5 6 
#
# 1 17.7796 22.2431 19.6864 0.0017 -0.0002 0.0000
# 2 22.2431 147.0447 50.6551 0.0002 -0.0005 -0.0004
# 3 19.6864 50.6551 127.4109 0.0107 0.0008 0.0001
# 4 0.0017 0.0002 0.0107 16.9693 0.0014 0.0005
# 5 -0.0002 -0.0005 0.0008 0.0014 18.3138 0.0001
# 6 0.0000 -0.0004 0.0001 0.0005 0.0001 19.8710
#
#
#
# Elastic Compliance Matrix: (Units=1/GPa)
#
#
# Indices 1 2 3 4 5 6 
#
# 1 0.076335 -0.008672 -0.008347 -0.000002 0.000001 0.000000
# 2 -0.008672 0.008865 -0.002185 0.000002 0.000000 0.000000
# 3 -0.008347 -0.002185 0.010007 -0.000005 -0.000001 0.000000
# 4 -0.000002 0.000002 -0.000005 0.058930 -0.000004 -0.000002
# 5 0.000001 0.000000 -0.000001 -0.000004 0.054604 0.000000
# 6 0.000000 0.000000 0.000000 -0.000002 0.000000 0.050325
#
#
# Mechanical properties :
#
#
# Convention : Reuss Voigt Hill
#
# Bulk Modulus (GPa) = 17.60552 53.04495 35.32523
# Shear Modulus (GPa) = 15.80253 24.34085 20.07169
#
# Velocity S-wave (km/s) = 2.83377 3.51698 3.19370
# Velocity P-wave (km/s) = 4.43323 6.59149 5.61699
#
# Compressibility (1/GPa) = 0.05680037
#
# Stress axis : x y z
#
# Youngs Moduli (GPa) = 13.10015 112.80369 99.93136
#
# Poissons Ratio (x) = 0.97819 0.83413
# Poissons Ratio (y) = 0.11360 0.21831
# Poissons Ratio (z) = 0.10935 0.24643
#
# Static dielectric constant tensor:
#      x y z
#    x 2.993360 0.000000 0.000000 
#    y 0.000000 3.915430 -0.000010 
#    z 0.000000 -0.000010 3.787490 
# 
# 
# High freq. dielectric constant tensor:
#      x y z
#    x 1.701860 0.000000 0.000000 
#    y 0.000000 1.789300 0.000000 
#    z 0.000000 0.000000 1.784780 
# 
# From -- ./inp_files/4886.got.cif
#   From: 2010.03.12/outbox.cif.g09.slc.cpg/sg44_3_cif.got.tgz:4886.got - 2010.04.14 02:36:11.
