data_PCOD8188465
_publ_section_title
;
Structure prediction by ZEFSAII (Michael W. Deem and Ramdas Pophale) SiO2 
 PCOD8188465
Probable space group: I M M 2
;
_chemical_formula_sum "Si O2"
_cell_formula_units_Z 40
_cell_length_a 8.920026
_cell_length_b 13.671414
_cell_length_c 18.727144
_cell_angle_alpha 90.000000
_cell_angle_beta 90.000000
_cell_angle_gamma 90.000000
_cell_volume 2283.763382
_symmetry_space_group_name_H-M "I M M 2"
_symmetry_group_IT_number 44
_symmetry_cell_setting 'orthorhombic'
loop_
_space_group_symop_operation_xyz
x,y,z
-x,-y,z
-x,y,z
x,-y,z
1/2+x,1/2+y,1/2+z
1/2-x,1/2-y,1/2+z
1/2-x,1/2+y,1/2+z
1/2+x,1/2-y,1/2+z
loop_
_atom_site_type_symbol
_atom_site_label
_atom_site_fract_x
_atom_site_fract_y
_atom_site_fract_z
Si Si1 0.177569 0.290798 0.532640
Si Si2 0.821278 0.389284 0.387620
Si Si3 0.676011 0.797271 0.743863
Si Si4 0.325228 0.610009 0.664211
Si Si5 0.322917 0.889404 0.597686
O O1 0.235905 0.332006 0.457223
O O2 0.233301 0.364457 0.593558
O O3 0.243442 0.181969 0.541426
O O4 0.000000 0.285397 0.535834
O O5 0.759921 0.500000 0.389239
O O6 0.752041 0.334798 0.317880
O O7 0.000000 0.389770 0.385750
O O8 0.500000 0.810139 0.751203
O O9 0.719070 0.683797 0.728552
O O10 0.732816 0.863114 0.677622
O O11 0.500000 0.622661 0.645363
O O12 0.286921 0.500000 0.688996
O O13 0.500000 0.873844 0.591750
O O14 0.275668 0.000000 0.579707
#
# Coordination Sequence:
#
# PCOD8188465 Si02
#       5
#     8   8   8   8   8
#     4  10  19  29  44  69  97 121 148 183 225 274
#     4   9  16  26  42  66  94 119 144 181 229 273
#     4   8  14  26  45  68  89 111 147 191 227 260
#     4   9  17  30  48  68  90 119 155 191 224 262
#     4   9  17  31  51  70  88 116 153 189 225 266
#
# _framework density 17.514949999999999
#
# number of rings (size 3 to 8) (size 9 to 14) (size 15 to 20)
#    0.000    3.000    0.000    3.000    0.000    4.000 
#    0.000    1.000    0.000   13.200    0.000    0.000 
#    0.000    0.000    0.000    0.000    0.000    0.000 
#
# Total GULP energy -247917.281351 kJ/mol
# GULP energy per Si atom -12395.864068 kJ/mol
# Density = 1.747509 g / cm^3
# Si number density = 17.514950 Si / 1000 Ang^3
#
#
#
# Elastic Constant Matrix: (Units=GPa)
#
#
# Indices 1 2 3 4 5 6 
#
# 1 28.0045 30.6098 23.0703 0.0000 0.0000 0.0000
# 2 30.6098 181.5483 89.9417 0.0000 0.0000 0.0000
# 3 23.0703 89.9417 143.4614 0.0000 0.0000 0.0000
# 4 0.0000 0.0000 0.0000 25.5846 0.0000 0.0000
# 5 0.0000 0.0000 0.0000 0.0000 19.2410 0.0000
# 6 0.0000 0.0000 0.0000 0.0000 0.0000 22.4278
#
#
#
# Elastic Compliance Matrix: (Units=1/GPa)
#
#
# Indices 1 2 3 4 5 6 
#
# 1 0.045021 -0.005808 -0.003599 0.000000 0.000000 0.000000
# 2 -0.005808 0.008739 -0.004545 0.000000 0.000000 0.000000
# 3 -0.003599 -0.004545 0.010399 0.000000 0.000000 0.000000
# 4 0.000000 0.000000 0.000000 0.039086 0.000000 0.000000
# 5 0.000000 0.000000 0.000000 0.000000 0.051972 0.000000
# 6 0.000000 0.000000 0.000000 0.000000 0.000000 0.044587
#
#
# Mechanical properties :
#
#
# Convention : Reuss Voigt Hill
#
# Bulk Modulus (GPa) = 27.58167 71.13976 49.36072
# Shear Modulus (GPa) = 20.85129 27.41017 24.13073
#
# Velocity S-wave (km/s) = 3.45408 3.96025 3.71579
# Velocity P-wave (km/s) = 5.62932 7.84960 6.83028
#
# Compressibility (1/GPa) = 0.03625596
#
# Stress axis : x y z
#
# Youngs Moduli (GPa) = 22.21164 114.42954 96.16687
#
# Poissons Ratio (x) = 0.66460 0.34608
# Poissons Ratio (y) = 0.12900 0.43706
# Poissons Ratio (z) = 0.07993 0.52007
#
# Static dielectric constant tensor:
#      x y z
#    x 2.861000 0.000000 0.000000 
#    y 0.000000 3.506200 0.000000 
#    z 0.000000 0.000000 3.382980 
# 
# 
# High freq. dielectric constant tensor:
#      x y z
#    x 1.635680 0.000000 0.000000 
#    y 0.000000 1.689890 0.000000 
#    z 0.000000 0.000000 1.666440 
# 
# From -- ./inp_files/18240.got.cif
#   From: 2010.03.12/outbox.cif.g09.slc.cpg/sg44_10_cif.got.tgz:18240.got - 2010.04.14 02:36:11.
