data_PCOD8188300
_publ_section_title
;
Structure prediction by ZEFSAII (Michael W. Deem and Ramdas Pophale) SiO2 
 PCOD8188300
Probable space group: I M M 2
;
_chemical_formula_sum "Si O2"
_cell_formula_units_Z 52
_cell_length_a 14.830135
_cell_length_b 18.826733
_cell_length_c 9.960236
_cell_angle_alpha 90.000000
_cell_angle_beta 90.000000
_cell_angle_gamma 90.000000
_cell_volume 2780.927692
_symmetry_space_group_name_H-M "I M M 2"
_symmetry_group_IT_number 44
_symmetry_cell_setting 'orthorhombic'
loop_
_space_group_symop_operation_xyz
x,y,z
-x,-y,z
-x,y,z
x,-y,z
1/2+x,1/2+y,1/2+z
1/2-x,1/2-y,1/2+z
1/2-x,1/2+y,1/2+z
1/2+x,1/2-y,1/2+z
loop_
_atom_site_type_symbol
_atom_site_label
_atom_site_fract_x
_atom_site_fract_y
_atom_site_fract_z
Si Si1 0.102819 0.145855 0.926880
Si Si2 0.269776 0.210305 0.046782
Si Si3 0.257284 0.000000 0.586709
Si Si4 0.399865 0.152421 0.837109
Si Si5 0.604120 0.500000 0.282070
Si Si6 0.401244 0.000000 0.815161
Si Si7 0.824651 0.352588 0.041445
Si Si8 0.400224 0.211162 0.282029
O O1 0.130048 0.069515 0.867982
O O2 0.111452 0.204789 0.810073
O O3 0.000000 0.145032 0.985006
O O4 0.175148 0.166474 0.042911
O O5 0.253464 0.294139 0.056110
O O6 0.327236 0.184556 0.174203
O O7 0.325775 0.200547 0.909185
O O8 0.319012 0.000000 0.715912
O O9 0.278313 0.928142 0.504547
O O10 0.154896 0.000000 0.639855
O O11 0.500000 0.184825 0.857965
O O12 0.381764 0.145602 0.678217
O O13 0.394488 0.072680 0.901741
O O14 0.500000 0.500000 0.243971
O O15 0.500000 0.000000 0.741650
O O16 0.890246 0.332557 0.919455
O O17 0.500000 0.196393 0.224013
#
# Coordination Sequence:
#
# PCOD8188300 Si02
#       8
#     8   8   4   8   4   4   8   8
#     4   9  19  34  54  77 104 137 175 217 261 307
#     4  11  20  33  52  78 107 136 173 215 256 305
#     4  10  18  32  54  75 101 135 172 216 256 296
#     4  10  19  33  55  80 103 132 169 214 260 304
#     4  10  18  32  55  82 104 132 178 226 266 300
#     4   8  16  30  51  79 103 123 160 210 256 298
#     4  10  20  35  53  75 104 139 175 211 255 313
#     4  10  20  35  53  78 111 141 167 207 261 318
#
# _framework density 18.698795
#
# number of rings (size 3 to 8) (size 9 to 14) (size 15 to 20)
#    0.000    2.154    0.000    5.538    0.000    1.231 
#    0.000    2.308    0.000    0.923    0.000    0.000 
#    0.000    0.000    0.000    0.000    0.000    0.000 
#
# Total GULP energy -322248.840024 kJ/mol
# GULP energy per Si atom -12394.186155 kJ/mol
# Density = 1.865624 g / cm^3
# Si number density = 18.698795 Si / 1000 Ang^3
#
#
#
# Elastic Constant Matrix: (Units=GPa)
#
#
# Indices 1 2 3 4 5 6 
#
# 1 120.9090 39.9580 39.1497 0.0000 0.0000 0.0000
# 2 39.9580 124.4722 22.3863 0.0000 0.0000 0.0000
# 3 39.1497 22.3863 63.8461 0.0000 0.0000 0.0000
# 4 0.0000 0.0000 0.0000 12.0122 0.0000 0.0000
# 5 0.0000 0.0000 0.0000 0.0000 29.7449 0.0000
# 6 0.0000 0.0000 0.0000 0.0000 0.0000 24.7987
#
#
#
# Elastic Compliance Matrix: (Units=1/GPa)
#
#
# Indices 1 2 3 4 5 6 
#
# 1 0.010989 -0.002472 -0.005872 0.000000 0.000000 0.000000
# 2 -0.002472 0.009131 -0.001686 0.000000 0.000000 0.000000
# 3 -0.005872 -0.001686 0.019854 0.000000 0.000000 0.000000
# 4 0.000000 0.000000 0.000000 0.083248 0.000000 0.000000
# 5 0.000000 0.000000 0.000000 0.000000 0.033619 0.000000
# 6 0.000000 0.000000 0.000000 0.000000 0.000000 0.040325
#
#
# Mechanical properties :
#
#
# Convention : Reuss Voigt Hill
#
# Bulk Modulus (GPa) = 50.21246 56.91281 53.56264
# Shear Modulus (GPa) = 22.33518 27.16005 24.74761
#
# Velocity S-wave (km/s) = 3.45986 3.81531 3.64192
# Velocity P-wave (km/s) = 6.54771 7.06480 6.81116
#
# Compressibility (1/GPa) = 0.01991537
#
# Stress axis : x y z
#
# Youngs Moduli (GPa) = 91.00288 109.52230 50.36736
#
# Poissons Ratio (x) = 0.27069 0.29573
# Poissons Ratio (y) = 0.22492 0.08491
# Poissons Ratio (z) = 0.53432 0.18464
#
# Static dielectric constant tensor:
#      x y z
#    x 3.647040 0.000000 0.000000 
#    y 0.000000 3.791640 0.000000 
#    z 0.000000 0.000000 3.011790 
# 
# 
# High freq. dielectric constant tensor:
#      x y z
#    x 1.745310 0.000000 0.000000 
#    y 0.000000 1.730670 0.000000 
#    z 0.000000 0.000000 1.678600 
# 
# From -- ./inp_files/7370.got.cif
#   From: 2010.03.12/outbox.cif.g09.slc.cpg/sg44_4_cif.got.tgz:7370.got - 2010.04.14 02:36:11.
