data_PCOD8188525
_publ_section_title
;
Structure prediction by ZEFSAII (Michael W. Deem and Ramdas Pophale) SiO2 
 PCOD8188525
Probable space group: I M M 2
;
_chemical_formula_sum "Si O2"
_cell_formula_units_Z 64
_cell_length_a 14.397773
_cell_length_b 9.235639
_cell_length_c 27.984344
_cell_angle_alpha 90.000000
_cell_angle_beta 90.000000
_cell_angle_gamma 90.000000
_cell_volume 3721.151928
_symmetry_space_group_name_H-M "I M M 2"
_symmetry_group_IT_number 44
_symmetry_cell_setting 'orthorhombic'
loop_
_space_group_symop_operation_xyz
x,y,z
-x,-y,z
-x,y,z
x,-y,z
1/2+x,1/2+y,1/2+z
1/2-x,1/2-y,1/2+z
1/2-x,1/2+y,1/2+z
1/2+x,1/2-y,1/2+z
loop_
_atom_site_type_symbol
_atom_site_label
_atom_site_fract_x
_atom_site_fract_y
_atom_site_fract_z
Si Si1 0.396654 0.334996 0.770100
Si Si2 0.711330 0.166830 0.225290
Si Si3 0.606059 0.668722 0.038199
Si Si4 0.892428 0.666974 0.365758
Si Si5 0.893753 0.167660 0.915378
Si Si6 0.394317 0.666609 0.305172
Si Si7 0.221885 0.171417 0.445942
Si Si8 0.392824 0.830681 0.132975
O O1 0.500000 0.304019 0.749763
O O2 0.389417 0.500000 0.789302
O O3 0.322955 0.310473 0.727170
O O4 0.373196 0.226901 0.813032
O O5 0.670928 0.238337 0.272478
O O6 0.669198 0.232493 0.176532
O O7 0.682524 0.000000 0.227301
O O8 0.500000 0.711052 0.025421
O O9 0.614800 0.500000 0.049030
O O10 0.640609 0.752242 0.085055
O O11 0.671389 0.716485 0.994793
O O12 0.860663 0.500000 0.367141
O O13 0.833161 0.758008 0.402657
O O14 0.000000 0.684283 0.379475
O O15 0.867925 0.194541 0.860127
O O16 0.826564 0.266489 0.947624
O O17 0.000000 0.213448 0.925540
O O18 0.879125 0.000000 0.928578
O O19 0.500000 0.713069 0.295891
O O20 0.379535 0.500000 0.291848
O O21 0.223757 0.000000 0.438893
O O22 0.500000 0.795063 0.144480
O O23 0.376314 0.000000 0.125341
#
# Coordination Sequence:
#
# PCOD8188525 Si02
#       8
#     8   8   8   8   8   8   8   8
#     4   9  18  32  48  67  95 130 164 198 236 277
#     4  10  19  30  47  71  96 124 158 195 236 280
#     4   9  19  35  52  71  96 124 154 190 235 288
#     4  10  20  32  47  70 100 132 165 200 239 286
#     4   9  19  35  51  69  98 133 167 203 238 275
#     4   9  18  31  46  67  96 128 159 191 229 274
#     4  11  21  32  50  74  98 126 161 201 244 289
#     4   9  18  32  49  70  95 120 150 193 241 286
#
# _framework density 17.198975000000001
#
# number of rings (size 3 to 8) (size 9 to 14) (size 15 to 20)
#    0.000    2.500    0.000    3.000    0.000    6.750 
#    0.000    3.750    0.000    0.750    0.000    1.750 
#    0.000    0.000    0.000    0.000    0.000    0.000 
#
# Total GULP energy -396806.086836 kJ/mol
# GULP energy per Si atom -12400.190214 kJ/mol
# Density = 1.715983 g / cm^3
# Si number density = 17.198975 Si / 1000 Ang^3
#
#
#
# Elastic Constant Matrix: (Units=GPa)
#
#
# Indices 1 2 3 4 5 6 
#
# 1 106.4523 48.0308 75.1499 0.0000 0.0000 0.0000
# 2 48.0308 59.0962 41.4249 0.0000 0.0000 0.0000
# 3 75.1499 41.4249 91.5613 0.0000 0.0000 0.0000
# 4 0.0000 0.0000 0.0000 27.5368 0.0000 0.0000
# 5 0.0000 0.0000 0.0000 0.0000 28.7727 0.0000
# 6 0.0000 0.0000 0.0000 0.0000 0.0000 27.0395
#
#
#
# Elastic Compliance Matrix: (Units=1/GPa)
#
#
# Indices 1 2 3 4 5 6 
#
# 1 0.025067 -0.008715 -0.016631 0.000000 0.000000 0.000000
# 2 -0.008715 0.027811 -0.005429 0.000000 0.000000 0.000000
# 3 -0.016631 -0.005429 0.027028 0.000000 0.000000 0.000000
# 4 0.000000 0.000000 0.000000 0.036315 0.000000 0.000000
# 5 0.000000 0.000000 0.000000 0.000000 0.034755 0.000000
# 6 0.000000 0.000000 0.000000 0.000000 0.000000 0.036983
#
#
# Mechanical properties :
#
#
# Convention : Reuss Voigt Hill
#
# Bulk Modulus (GPa) = 54.48161 65.14676 59.81418
# Shear Modulus (GPa) = 19.55979 22.83674 21.19826
#
# Velocity S-wave (km/s) = 3.37599 3.64785 3.51455
# Velocity P-wave (km/s) = 6.85146 7.46344 7.16398
#
# Compressibility (1/GPa) = 0.01835482
#
# Stress axis : x y z
#
# Youngs Moduli (GPa) = 39.89374 35.95734 36.99922
#
# Poissons Ratio (x) = 0.31338 0.61532
# Poissons Ratio (y) = 0.34769 0.20087
# Poissons Ratio (z) = 0.66346 0.19521
#
# Static dielectric constant tensor:
#      x y z
#    x 3.407610 0.000000 0.000000 
#    y 0.000000 3.189590 0.000000 
#    z 0.000000 0.000000 3.084260 
# 
# 
# High freq. dielectric constant tensor:
#      x y z
#    x 1.669720 0.000000 0.000000 
#    y 0.000000 1.664240 0.000000 
#    z 0.000000 0.000000 1.639440 
# 
# From -- ./inp_files/25086.got.cif
#   From: 2010.03.12/outbox.cif.g09.slc.cpg/sg44_13_cif.got.tgz:25086.got - 2010.04.14 02:36:11.
