data_PCOD8188875
_publ_section_title
;
Structure prediction by ZEFSAII (Michael W. Deem and Ramdas Pophale) SiO2 
 PCOD8188875
Probable space group: I M M 2
;
_chemical_formula_sum "Si O2"
_cell_formula_units_Z 64
_cell_length_a 20.492855
_cell_length_b 8.692519
_cell_length_c 19.656513
_cell_angle_alpha 90.000000
_cell_angle_beta 90.000000
_cell_angle_gamma 90.000000
_cell_volume 3501.503733
_symmetry_space_group_name_H-M "I M M 2"
_symmetry_group_IT_number 44
_symmetry_cell_setting 'orthorhombic'
loop_
_space_group_symop_operation_xyz
x,y,z
-x,-y,z
-x,y,z
x,-y,z
1/2+x,1/2+y,1/2+z
1/2-x,1/2-y,1/2+z
1/2-x,1/2+y,1/2+z
1/2+x,1/2-y,1/2+z
loop_
_atom_site_type_symbol
_atom_site_label
_atom_site_fract_x
_atom_site_fract_y
_atom_site_fract_z
Si Si1 0.683328 0.181446 0.628460
Si Si2 0.381927 0.682135 0.269157
Si Si3 0.234802 0.319619 0.268027
Si Si4 0.686091 0.679753 0.047604
Si Si5 0.426723 0.324485 0.540357
Si Si6 0.876478 0.320009 0.909599
Si Si7 0.073752 0.323311 0.635009
Si Si8 0.763865 0.680675 0.417741
O O1 0.689740 0.241548 0.706647
O O2 0.749657 0.227193 0.589535
O O3 0.621929 0.269890 0.598867
O O4 0.670529 0.000000 0.623168
O O5 0.388390 0.500000 0.261070
O O6 0.308081 0.744610 0.260562
O O7 0.405382 0.731477 0.344196
O O8 0.425417 0.763759 0.212409
O O9 0.240688 0.500000 0.258398
O O10 0.206733 0.277308 0.342876
O O11 0.684805 0.500000 0.032973
O O12 0.621517 0.723663 0.088474
O O13 0.685231 0.767864 0.975321
O O14 0.500000 0.308426 0.569109
O O15 0.410229 0.500000 0.520959
O O16 0.421507 0.219959 0.473470
O O17 0.878009 0.500000 0.894995
O O18 0.803500 0.269482 0.929361
O O19 0.096028 0.500000 0.632425
O O20 0.000000 0.304110 0.607608
O O21 0.749378 0.500000 0.422159
#
# Coordination Sequence:
#
# PCOD8188875 Si02
#       8
#     8   8   8   8   8   8   8   8
#     4  10  19  35  58  83 110 141 182 230 279 330
#     4  10  19  35  56  79 111 149 187 226 275 332
#     4   8  16  32  54  81 109 139 176 221 271 326
#     4  11  21  35  58  85 113 146 185 232 282 332
#     4  11  24  39  54  77 110 149 190 230 280 337
#     4  11  21  34  53  80 112 147 189 230 274 329
#     4  11  24  39  55  80 114 151 191 234 279 331
#     4  10  19  33  56  83 113 146 183 229 280 329
#
# _framework density 18.277861000000001
#
# number of rings (size 3 to 8) (size 9 to 14) (size 15 to 20)
#    0.000    1.750    2.500    3.750    0.000    3.000 
#    0.000    1.250    0.000    0.750    0.000    1.750 
#    0.000    0.000    0.000    0.000    0.000    0.000 
#
# Total GULP energy -396813.509328 kJ/mol
# GULP energy per Si atom -12400.422166 kJ/mol
# Density = 1.823626 g / cm^3
# Si number density = 18.277861 Si / 1000 Ang^3
#
#
#
# Elastic Constant Matrix: (Units=GPa)
#
#
# Indices 1 2 3 4 5 6 
#
# 1 80.0256 26.0856 45.9593 0.0000 0.0000 0.0000
# 2 26.0856 62.7963 26.6245 0.0000 0.0000 0.0000
# 3 45.9593 26.6245 119.6092 0.0000 0.0000 0.0000
# 4 0.0000 0.0000 0.0000 31.8291 0.0000 0.0000
# 5 0.0000 0.0000 0.0000 0.0000 24.3750 0.0000
# 6 0.0000 0.0000 0.0000 0.0000 0.0000 24.0487
#
#
#
# Elastic Compliance Matrix: (Units=1/GPa)
#
#
# Indices 1 2 3 4 5 6 
#
# 1 0.017258 -0.004811 -0.005560 0.000000 0.000000 0.000000
# 2 -0.004811 0.018925 -0.002364 0.000000 0.000000 0.000000
# 3 -0.005560 -0.002364 0.011023 0.000000 0.000000 0.000000
# 4 0.000000 0.000000 0.000000 0.031418 0.000000 0.000000
# 5 0.000000 0.000000 0.000000 0.000000 0.041026 0.000000
# 6 0.000000 0.000000 0.000000 0.000000 0.000000 0.041582
#
#
# Mechanical properties :
#
#
# Convention : Reuss Voigt Hill
#
# Bulk Modulus (GPa) = 46.00827 51.08554 48.54691
# Shear Modulus (GPa) = 25.78010 26.96802 26.37406
#
# Velocity S-wave (km/s) = 3.75968 3.84532 3.80274
# Velocity P-wave (km/s) = 6.63876 6.90836 6.77490
#
# Compressibility (1/GPa) = 0.02173522
#
# Stress axis : x y z
#
# Youngs Moduli (GPa) = 57.94551 52.83891 90.71755
#
# Poissons Ratio (x) = 0.25423 0.50440
# Poissons Ratio (y) = 0.27880 0.21445
# Poissons Ratio (z) = 0.32219 0.12491
#
# Static dielectric constant tensor:
#      x y z
#    x 3.141620 0.000000 0.000000 
#    y 0.000000 3.327010 0.000000 
#    z 0.000000 0.000000 3.640260 
# 
# 
# High freq. dielectric constant tensor:
#      x y z
#    x 1.677440 0.000000 0.000000 
#    y 0.000000 1.710410 0.000000 
#    z 0.000000 0.000000 1.715600 
# 
# From -- ./inp_files/22296.got.cif
#   From: 2010.03.12/outbox.cif.g09.slc.cpg/sg44_12_cif.got.tgz:22296.got - 2010.04.14 02:36:11.
