data_PCOD8188543
_publ_section_title
;
Structure prediction by ZEFSAII (Michael W. Deem and Ramdas Pophale) SiO2 
 PCOD8188543
Probable space group: I M M 2
;
_chemical_formula_sum "Si O2"
_cell_formula_units_Z 48
_cell_length_a 8.649968
_cell_length_b 13.742451
_cell_length_c 23.655322
_cell_angle_alpha 90.000000
_cell_angle_beta 90.000000
_cell_angle_gamma 90.000000
_cell_volume 2811.949792
_symmetry_space_group_name_H-M "I M M 2"
_symmetry_group_IT_number 44
_symmetry_cell_setting 'orthorhombic'
loop_
_space_group_symop_operation_xyz
x,y,z
-x,-y,z
-x,y,z
x,-y,z
1/2+x,1/2+y,1/2+z
1/2-x,1/2-y,1/2+z
1/2-x,1/2+y,1/2+z
1/2+x,1/2-y,1/2+z
loop_
_atom_site_type_symbol
_atom_site_label
_atom_site_fract_x
_atom_site_fract_y
_atom_site_fract_z
Si Si1 0.178823 0.111453 0.476310
Si Si2 0.678813 0.611188 0.761717
Si Si3 0.682647 0.393299 0.433227
Si Si4 0.819582 0.388436 0.643679
Si Si5 0.818021 0.778337 0.041388
Si Si6 0.681409 0.793491 0.368810
O O1 0.234793 0.175538 0.529539
O O2 0.276679 0.135795 0.420438
O O3 0.000000 0.132197 0.463028
O O4 0.207441 0.000000 0.493049
O O5 0.500000 0.625693 0.746826
O O6 0.714609 0.500000 0.779049
O O7 0.778418 0.641896 0.707420
O O8 0.724440 0.679891 0.813228
O O9 0.500000 0.401712 0.435138
O O10 0.756122 0.500000 0.421291
O O11 0.740437 0.355068 0.494132
O O12 0.730798 0.317077 0.384587
O O13 0.768596 0.500000 0.632866
O O14 0.726110 0.317918 0.602557
O O15 0.000000 0.373938 0.633278
O O16 0.000000 0.761249 0.037502
O O17 0.500000 0.802953 0.356714
#
# Coordination Sequence:
#
# PCOD8188543 Si02
#       6
#     8   8   8   8   8   8
#     4  10  20  33  49  70  98 131 164 199 241 290
#     4  10  20  33  49  69  95 128 162 197 241 291
#     4   8  15  28  46  69  96 125 156 189 229 279
#     4  10  20  33  50  73 100 128 159 198 242 289
#     4  10  19  31  50  74  99 128 161 199 241 287
#     4  10  19  30  48  73  98 126 160 200 244 289
#
# _framework density 17.070005999999999
#
# number of rings (size 3 to 8) (size 9 to 14) (size 15 to 20)
#    0.000    2.333    0.000    4.500    0.000    6.000 
#    0.000    0.000    0.000   11.000    0.000    2.333 
#    0.000    0.000    0.000    0.000    0.000    0.000 
#
# Total GULP energy -297623.062892 kJ/mol
# GULP energy per Si atom -12400.960954 kJ/mol
# Density = 1.703115 g / cm^3
# Si number density = 17.070006 Si / 1000 Ang^3
#
#
#
# Elastic Constant Matrix: (Units=GPa)
#
#
# Indices 1 2 3 4 5 6 
#
# 1 44.3725 27.8130 10.2273 0.0000 0.0000 0.0000
# 2 27.8130 119.2422 50.7713 0.0000 0.0000 0.0000
# 3 10.2273 50.7713 85.7632 0.0000 0.0000 0.0000
# 4 0.0000 0.0000 0.0000 27.0406 0.0000 0.0000
# 5 0.0000 0.0000 0.0000 0.0000 31.8114 0.0000
# 6 0.0000 0.0000 0.0000 0.0000 0.0000 23.0988
#
#
#
# Elastic Compliance Matrix: (Units=1/GPa)
#
#
# Indices 1 2 3 4 5 6 
#
# 1 0.026424 -0.006447 0.000665 0.000000 0.000000 0.000000
# 2 -0.006447 0.012785 -0.006800 0.000000 0.000000 0.000000
# 3 0.000665 -0.006800 0.015606 0.000000 0.000000 0.000000
# 4 0.000000 0.000000 0.000000 0.036981 0.000000 0.000000
# 5 0.000000 0.000000 0.000000 0.000000 0.031435 0.000000
# 6 0.000000 0.000000 0.000000 0.000000 0.000000 0.043292
#
#
# Mechanical properties :
#
#
# Convention : Reuss Voigt Hill
#
# Bulk Modulus (GPa) = 33.72368 47.44457 40.58412
# Shear Modulus (GPa) = 24.80510 27.09458 25.94984
#
# Velocity S-wave (km/s) = 3.81614 3.98837 3.90321
# Velocity P-wave (km/s) = 6.26229 7.00456 6.64380
#
# Compressibility (1/GPa) = 0.02965276
#
# Stress axis : x y z
#
# Youngs Moduli (GPa) = 37.84445 78.21486 64.07688
#
# Poissons Ratio (x) = 0.50422 -0.04263
# Poissons Ratio (y) = 0.24397 0.43573
# Poissons Ratio (z) = -0.02518 0.53186
#
# Static dielectric constant tensor:
#      x y z
#    x 3.165110 0.000000 0.000000 
#    y 0.000000 3.385770 0.000000 
#    z 0.000000 0.000000 3.053420 
# 
# 
# High freq. dielectric constant tensor:
#      x y z
#    x 1.661870 0.000000 0.000000 
#    y 0.000000 1.650010 0.000000 
#    z 0.000000 0.000000 1.646370 
# 
# From -- ./inp_files/22899.got.cif
#   From: 2010.03.12/outbox.cif.g09.slc.cpg/sg44_12_cif.got.tgz:22899.got - 2010.04.14 02:36:11.
