data_PCOD8188033
_publ_section_title
;
Structure prediction by ZEFSAII (Michael W. Deem and Ramdas Pophale) SiO2 
 PCOD8188033
Probable space group: I M M 2
;
_chemical_formula_sum "Si O2"
_cell_formula_units_Z 64
_cell_length_a 18.524177
_cell_length_b 8.603360
_cell_length_c 26.637194
_cell_angle_alpha 90.000000
_cell_angle_beta 90.000000
_cell_angle_gamma 90.000000
_cell_volume 4245.173961
_symmetry_space_group_name_H-M "I M M 2"
_symmetry_group_IT_number 44
_symmetry_cell_setting 'orthorhombic'
loop_
_space_group_symop_operation_xyz
x,y,z
-x,-y,z
-x,y,z
x,-y,z
1/2+x,1/2+y,1/2+z
1/2-x,1/2-y,1/2+z
1/2-x,1/2+y,1/2+z
1/2+x,1/2-y,1/2+z
loop_
_atom_site_type_symbol
_atom_site_label
_atom_site_fract_x
_atom_site_fract_y
_atom_site_fract_z
Si Si1 0.919491 0.814971 0.102640
Si Si2 0.209649 0.680972 0.853879
Si Si3 0.918095 0.815640 0.906649
Si Si4 0.340840 0.318714 0.506853
Si Si5 0.418130 0.683199 0.901475
Si Si6 0.161159 0.318971 0.306512
Si Si7 0.710053 0.180929 0.946625
Si Si8 0.915481 0.819814 0.214333
O O1 0.866329 0.744220 0.059764
O O2 0.895209 0.761461 0.158154
O O3 0.000000 0.753853 0.090754
O O4 0.919761 0.000000 0.102571
O O5 0.205094 0.500000 0.842196
O O6 0.128693 0.748170 0.860251
O O7 0.255025 0.763654 0.809293
O O8 0.253280 0.713547 0.904565
O O9 0.000000 0.757117 0.900678
O O10 0.912740 0.000000 0.904760
O O11 0.886686 0.752278 0.959758
O O12 0.357623 0.500000 0.509998
O O13 0.254720 0.288281 0.498198
O O14 0.500000 0.741984 0.905987
O O15 0.412890 0.500000 0.907806
O O16 0.387516 0.729482 0.847198
O O17 0.373415 0.765127 0.947323
O O18 0.156178 0.500000 0.318237
O O19 0.131455 0.284154 0.251439
O O20 0.716513 0.000000 0.931612
O O21 0.000000 0.793311 0.224582
O O22 0.895586 0.000000 0.222151
#
# Coordination Sequence:
#
# PCOD8188033 Si02
#       8
#     8   8   8   8   8   8   8   8
#     4   8  13  22  38  59  81 105 134 166 195 225
#     4  10  18  28  41  56  78 105 134 167 199 235
#     4   9  16  26  41  61  85 110 136 166 197 231
#     4   8  13  22  38  60  82 106 136 165 193 226
#     4  10  19  29  41  57  78 104 134 166 199 238
#     4  11  20  29  42  57  76 104 136 167 202 242
#     4   9  16  26  40  58  80 104 132 165 199 235
#     4   9  17  28  41  58  80 105 134 167 200 234
#
# _framework density 15.075944
#
# number of rings (size 3 to 8) (size 9 to 14) (size 15 to 20)
#    0.000    2.750    0.000    6.750    0.000    4.500 
#    0.000    0.000    0.000    3.750    0.000    3.500 
#    0.000    1.000    0.000    9.250    0.000    3.125 
#
# Total GULP energy -396517.809596 kJ/mol
# GULP energy per Si atom -12391.181550 kJ/mol
# Density = 1.504163 g / cm^3
# Si number density = 15.075944 Si / 1000 Ang^3
#
#
#
# Elastic Constant Matrix: (Units=GPa)
#
#
# Indices 1 2 3 4 5 6 
#
# 1 116.9740 21.6486 56.4037 0.0000 0.0000 0.0000
# 2 21.6486 33.4820 15.5490 0.0000 0.0000 0.0000
# 3 56.4037 15.5490 83.7505 0.0000 0.0000 0.0000
# 4 0.0000 0.0000 0.0000 13.6770 0.0000 0.0000
# 5 0.0000 0.0000 0.0000 0.0000 28.0451 0.0000
# 6 0.0000 0.0000 0.0000 0.0000 0.0000 21.1149
#
#
#
# Elastic Compliance Matrix: (Units=1/GPa)
#
#
# Indices 1 2 3 4 5 6 
#
# 1 0.013350 -0.004877 -0.008086 0.000000 0.000000 0.000000
# 2 -0.004877 0.034467 -0.003114 0.000000 0.000000 0.000000
# 3 -0.008086 -0.003114 0.017964 0.000000 0.000000 0.000000
# 4 0.000000 0.000000 0.000000 0.073115 0.000000 0.000000
# 5 0.000000 0.000000 0.000000 0.000000 0.035657 0.000000
# 6 0.000000 0.000000 0.000000 0.000000 0.000000 0.047360
#
#
# Mechanical properties :
#
#
# Convention : Reuss Voigt Hill
#
# Bulk Modulus (GPa) = 29.73842 46.82321 38.28082
# Shear Modulus (GPa) = 18.84831 21.94109 20.39470
#
# Velocity S-wave (km/s) = 3.53969 3.81907 3.68203
# Velocity P-wave (km/s) = 6.03940 7.11145 6.59724
#
# Compressibility (1/GPa) = 0.03362653
#
# Stress axis : x y z
#
# Youngs Moduli (GPa) = 74.90468 29.01367 55.66721
#
# Poissons Ratio (x) = 0.14150 0.45010
# Poissons Ratio (y) = 0.36531 0.17337
# Poissons Ratio (z) = 0.60565 0.09036
#
# Static dielectric constant tensor:
#      x y z
#    x 3.235620 0.000000 0.000000 
#    y 0.000000 2.718870 0.000000 
#    z 0.000000 0.000000 2.916200 
# 
# 
# High freq. dielectric constant tensor:
#      x y z
#    x 1.571090 0.000000 0.000000 
#    y 0.000000 1.566060 0.000000 
#    z 0.000000 0.000000 1.542170 
# 
# From -- ./inp_files/26603.got.cif
#   From: 2010.03.12/outbox.cif.g09.slc.cpg/sg44_14_cif.got.tgz:26603.got - 2010.04.14 02:36:11.
