data_PCOD8188435
_publ_section_title
;
Structure prediction by ZEFSAII (Michael W. Deem and Ramdas Pophale) SiO2 
 PCOD8188435
Probable space group: I M M 2
;
_chemical_formula_sum "Si O2"
_cell_formula_units_Z 64
_cell_length_a 9.294711
_cell_length_b 22.400699
_cell_length_c 20.160738
_cell_angle_alpha 90.000000
_cell_angle_beta 90.000000
_cell_angle_gamma 90.000000
_cell_volume 4197.627409
_symmetry_space_group_name_H-M "I M M 2"
_symmetry_group_IT_number 44
_symmetry_cell_setting 'orthorhombic'
loop_
_space_group_symop_operation_xyz
x,y,z
-x,-y,z
-x,y,z
x,-y,z
1/2+x,1/2+y,1/2+z
1/2-x,1/2-y,1/2+z
1/2-x,1/2+y,1/2+z
1/2+x,1/2-y,1/2+z
loop_
_atom_site_type_symbol
_atom_site_label
_atom_site_fract_x
_atom_site_fract_y
_atom_site_fract_z
Si Si1 0.338152 0.744394 0.150130
Si Si2 0.829953 0.145949 0.438400
Si Si3 0.660771 0.667449 0.724532
Si Si4 0.659258 0.246337 0.850001
Si Si5 0.661008 0.658284 0.275655
Si Si6 0.828788 0.933542 0.316919
Si Si7 0.832964 0.568574 0.194766
Si Si8 0.330902 0.151637 0.571817
O O1 0.500000 0.754779 0.123645
O O2 0.267016 0.808254 0.167643
O O3 0.339576 0.703539 0.214731
O O4 0.243015 0.713527 0.093484
O O5 0.791456 0.212452 0.411770
O O6 0.777422 0.097134 0.384928
O O7 0.739287 0.130884 0.503401
O O8 0.000000 0.140641 0.452840
O O9 0.500000 0.660124 0.694669
O O10 0.653557 0.713140 0.785080
O O11 0.721966 0.604584 0.752735
O O12 0.500000 0.220476 0.863576
O O13 0.765772 0.190448 0.839075
O O14 0.500000 0.640021 0.296108
O O15 0.746450 0.598818 0.255001
O O16 0.000000 0.934387 0.316867
O O17 0.763346 0.000000 0.312168
O O18 0.785256 0.500000 0.188875
O O19 0.797720 0.599919 0.124940
O O20 0.000000 0.575336 0.212111
O O21 0.500000 0.162613 0.563331
#
# Coordination Sequence:
#
# PCOD8188435 Si02
#       8
#     8   8   8   8   8   8   8   8
#     4   9  16  26  40  57  77 100 128 165 209 250
#     4   9  17  28  41  58  81 110 143 173 200 234
#     4   8  13  23  40  59  77  99 130 166 202 239
#     4   8  14  25  40  56  76 103 131 161 201 246
#     4   9  16  25  40  61  79  96 125 168 211 244
#     4   8  14  25  41  60  82 110 142 171 198 233
#     4   9  18  31  43  55  77 111 144 169 198 241
#     4  10  19  29  41  57  79 108 141 174 205 237
#
# _framework density 15.246708999999999
#
# number of rings (size 3 to 8) (size 9 to 14) (size 15 to 20)
#    0.000    3.250    0.000    2.625    0.000    4.750 
#    0.000    1.875    0.000    1.125    0.000    0.000 
#    0.000    1.000    0.000    6.500    0.000    4.125 
#
# Total GULP energy -396637.202094 kJ/mol
# GULP energy per Si atom -12394.912565 kJ/mol
# Density = 1.521201 g / cm^3
# Si number density = 15.246709 Si / 1000 Ang^3
#
#
#
# Elastic Constant Matrix: (Units=GPa)
#
#
# Indices 1 2 3 4 5 6 
#
# 1 80.1282 53.2196 25.0827 0.0000 0.0000 0.0000
# 2 53.2196 108.8544 48.2248 0.0000 0.0000 0.0000
# 3 25.0827 48.2248 24.9462 0.0000 0.0000 0.0000
# 4 0.0000 0.0000 0.0000 15.7910 0.0000 0.0000
# 5 0.0000 0.0000 0.0000 0.0000 22.8461 0.0000
# 6 0.0000 0.0000 0.0000 0.0000 0.0000 14.1610
#
#
#
# Elastic Compliance Matrix: (Units=1/GPa)
#
#
# Indices 1 2 3 4 5 6 
#
# 1 0.018700 -0.005661 -0.007859 0.000000 0.000000 0.000000
# 2 -0.005661 0.065699 -0.121315 0.000000 0.000000 0.000000
# 3 -0.007859 -0.121315 0.282509 -0.000001 0.000000 0.000000
# 4 0.000000 0.000000 -0.000001 0.063327 0.000000 0.000000
# 5 0.000000 0.000000 0.000000 0.000000 0.043771 0.000000
# 6 0.000000 0.000000 0.000000 0.000000 0.000000 0.070616
#
#
# Mechanical properties :
#
#
# Convention : Reuss Voigt Hill
#
# Bulk Modulus (GPa) = 10.28402 51.88698 31.08550
# Shear Modulus (GPa) = 5.90524 16.38640 11.14582
#
# Velocity S-wave (km/s) = 1.97016 3.28189 2.70669
# Velocity P-wave (km/s) = 3.45472 6.96179 5.49553
#
# Compressibility (1/GPa) = 0.09723824
#
# Stress axis : x y z
#
# Youngs Moduli (GPa) = 53.47611 15.22089 3.53971
#
# Poissons Ratio (x) = 0.08616 0.02782
# Poissons Ratio (y) = 0.30271 0.42942
# Poissons Ratio (z) = 0.42029 1.84652
#
# Static dielectric constant tensor:
#      x y z
#    x 2.993370 0.000000 0.000000 
#    y 0.000000 3.033500 0.000000 
#    z 0.000000 0.000000 2.676370 
# 
# 
# High freq. dielectric constant tensor:
#      x y z
#    x 1.581090 0.000000 0.000000 
#    y 0.000000 1.566050 0.000000 
#    z 0.000000 0.000000 1.546130 
# 
# From -- ./inp_files/20864.got.cif
#   From: 2010.03.12/outbox.cif.g09.slc.cpg/sg44_11_cif.got.tgz:20864.got - 2010.04.14 02:36:11.
