data_PCOD8188544
_publ_section_title
;
Structure prediction by ZEFSAII (Michael W. Deem and Ramdas Pophale) SiO2 
 PCOD8188544
Probable space group: I M M 2
;
_chemical_formula_sum "Si O2"
_cell_formula_units_Z 64
_cell_length_a 9.023233
_cell_length_b 20.967854
_cell_length_c 19.699945
_cell_angle_alpha 90.000000
_cell_angle_beta 90.000000
_cell_angle_gamma 90.000000
_cell_volume 3727.186888
_symmetry_space_group_name_H-M "I M M 2"
_symmetry_group_IT_number 44
_symmetry_cell_setting 'orthorhombic'
loop_
_space_group_symop_operation_xyz
x,y,z
-x,-y,z
-x,y,z
x,-y,z
1/2+x,1/2+y,1/2+z
1/2-x,1/2-y,1/2+z
1/2-x,1/2+y,1/2+z
1/2+x,1/2-y,1/2+z
loop_
_atom_site_type_symbol
_atom_site_label
_atom_site_fract_x
_atom_site_fract_y
_atom_site_fract_z
Si Si1 0.327876 0.927784 0.844730
Si Si2 0.826055 0.735541 0.702919
Si Si3 0.674166 0.930622 0.422788
Si Si4 0.675766 0.189793 0.343714
Si Si5 0.670429 0.135727 0.557002
Si Si6 0.331258 0.133998 0.707463
Si Si7 0.824703 0.731968 0.552479
Si Si8 0.175911 0.184846 0.923296
O O1 0.500000 0.914978 0.860838
O O2 0.295547 0.918741 0.764290
O O3 0.229716 0.879853 0.888362
O O4 0.283343 0.000000 0.863659
O O5 0.776079 0.689037 0.764333
O O6 0.767191 0.804824 0.721338
O O7 0.774338 0.710459 0.628890
O O8 0.000000 0.743259 0.702353
O O9 0.500000 0.932514 0.409325
O O10 0.745174 0.873946 0.377429
O O11 0.707489 0.918361 0.502159
O O12 0.742820 0.000000 0.403807
O O13 0.500000 0.189075 0.351889
O O14 0.734811 0.253425 0.381554
O O15 0.500000 0.158963 0.549093
O O16 0.700181 0.106453 0.631856
O O17 0.775579 0.195354 0.541684
O O18 0.500000 0.157051 0.712852
O O19 0.743029 0.686462 0.499044
O O20 0.000000 0.726232 0.542264
O O21 0.000000 0.183612 0.927865
#
# Coordination Sequence:
#
# PCOD8188544 Si02
#       8
#     8   8   8   8   8   8   8   8
#     4  10  21  35  49  71 105 138 168 207 255 304
#     4   9  17  30  48  70  98 129 160 201 248 292
#     4   9  16  26  44  71  99 126 159 200 241 280
#     4   9  16  28  47  71  96 124 161 204 244 283
#     4   9  16  28  45  70 101 132 166 199 237 289
#     4   9  17  28  45  69  99 131 164 198 235 287
#     4  10  19  30  48  73  99 128 163 203 253 301
#     4  11  20  33  54  74  97 129 169 213 252 296
#
# _framework density 17.171126999999998
#
# number of rings (size 3 to 8) (size 9 to 14) (size 15 to 20)
#    0.000    2.500    2.500    0.750    0.000    1.250 
#    0.000    2.500    0.000    1.125    0.000    7.000 
#    0.000    0.000    0.000    0.000    0.000    0.000 
#
# Total GULP energy -396597.602645 kJ/mol
# GULP energy per Si atom -12393.675083 kJ/mol
# Density = 1.713204 g / cm^3
# Si number density = 17.171127 Si / 1000 Ang^3
#
#
#
# Elastic Constant Matrix: (Units=GPa)
#
#
# Indices 1 2 3 4 5 6 
#
# 1 30.8440 24.1622 35.1696 0.0000 0.0000 0.0000
# 2 24.1622 114.2931 72.4718 0.0000 0.0000 0.0000
# 3 35.1696 72.4718 125.3254 0.0000 0.0000 0.0000
# 4 0.0000 0.0000 0.0000 22.9821 0.0000 0.0000
# 5 0.0000 0.0000 0.0000 0.0000 21.0843 0.0000
# 6 0.0000 0.0000 0.0000 0.0000 0.0000 19.0514
#
#
#
# Elastic Compliance Matrix: (Units=1/GPa)
#
#
# Indices 1 2 3 4 5 6 
#
# 1 0.048141 -0.002544 -0.012039 0.000000 0.000000 0.000000
# 2 -0.002544 0.013949 -0.007353 0.000000 0.000000 0.000000
# 3 -0.012039 -0.007353 0.015609 0.000000 0.000000 0.000000
# 4 0.000000 0.000000 0.000000 0.043512 0.000000 0.000000
# 5 0.000000 0.000000 0.000000 0.000000 0.047429 0.000000
# 6 0.000000 0.000000 0.000000 0.000000 0.000000 0.052490
#
#
# Mechanical properties :
#
#
# Convention : Reuss Voigt Hill
#
# Bulk Modulus (GPa) = 29.55988 59.34106 44.45047
# Shear Modulus (GPa) = 18.09780 21.86749 19.98264
#
# Velocity S-wave (km/s) = 3.25001 3.57249 3.41506
# Velocity P-wave (km/s) = 5.59782 7.18683 6.44151
#
# Compressibility (1/GPa) = 0.03382964
#
# Stress axis : x y z
#
# Youngs Moduli (GPa) = 20.77238 71.68751 64.06378
#
# Poissons Ratio (x) = 0.18235 0.77124
# Poissons Ratio (y) = 0.05284 0.47104
# Poissons Ratio (z) = 0.25007 0.52710
#
# Static dielectric constant tensor:
#      x y z
#    x 3.002400 0.000000 0.000000 
#    y 0.000000 3.121630 0.000000 
#    z 0.000000 0.000000 3.646470 
# 
# 
# High freq. dielectric constant tensor:
#      x y z
#    x 1.638310 0.000000 0.000000 
#    y 0.000000 1.632310 0.000000 
#    z 0.000000 0.000000 1.675780 
# 
# From -- ./inp_files/23328.got.cif
#   From: 2010.03.12/outbox.cif.g09.slc.cpg/sg44_12_cif.got.tgz:23328.got - 2010.04.14 02:36:11.
