data_PCOD8188383
_publ_section_title
;
Structure prediction by ZEFSAII (Michael W. Deem and Ramdas Pophale) SiO2 
 PCOD8188383
Probable space group: I M M 2
;
_chemical_formula_sum "Si O2"
_cell_formula_units_Z 48
_cell_length_a 18.391460
_cell_length_b 8.721155
_cell_length_c 15.072057
_cell_angle_alpha 90.000000
_cell_angle_beta 90.000000
_cell_angle_gamma 90.000000
_cell_volume 2417.479166
_symmetry_space_group_name_H-M "I M M 2"
_symmetry_group_IT_number 44
_symmetry_cell_setting 'orthorhombic'
loop_
_space_group_symop_operation_xyz
x,y,z
-x,-y,z
-x,y,z
x,-y,z
1/2+x,1/2+y,1/2+z
1/2-x,1/2-y,1/2+z
1/2-x,1/2+y,1/2+z
1/2+x,1/2-y,1/2+z
loop_
_atom_site_type_symbol
_atom_site_label
_atom_site_fract_x
_atom_site_fract_y
_atom_site_fract_z
Si Si1 0.271926 0.319158 0.288630
Si Si2 0.734126 0.172389 0.475986
Si Si3 0.103491 0.172680 0.520910
Si Si4 0.151645 0.682167 0.148810
Si Si5 0.000000 0.677115 0.391117
Si Si6 0.922038 0.818275 0.716912
Si Si7 0.000000 0.820218 0.202919
O O1 0.273475 0.500000 0.276353
O O2 0.259543 0.280310 0.390978
O O3 0.207523 0.253997 0.224819
O O4 0.350979 0.246216 0.263888
O O5 0.810336 0.176094 0.525973
O O6 0.677304 0.231504 0.549987
O O7 0.714804 0.000000 0.444767
O O8 0.072527 0.285825 0.446281
O O9 0.075292 0.233173 0.614861
O O10 0.075623 0.000000 0.501432
O O11 0.147358 0.500000 0.156918
O O12 0.072037 0.751461 0.158930
O O13 0.000000 0.783520 0.306014
O O14 0.000000 0.500000 0.362265
O O15 0.000000 0.765191 0.759907
O O16 0.915170 0.000000 0.722460
O O17 0.000000 0.000000 0.187099
#
# Coordination Sequence:
#
# PCOD8188383 Si02
#       7
#     8   8   8   8   4   8   4
#     4  10  20  36  60  88 116 154 200 242 285 346
#     4  10  21  37  60  88 116 154 196 238 294 354
#     4  10  18  34  60  85 112 149 196 238 284 352
#     4  10  21  41  64  85 119 160 197 243 300 354
#     4  12  24  36  54  87 124 155 188 239 304 356
#     4   9  16  31  58  85 111 148 190 234 282 336
#     4  12  26  42  60  85 114 151 202 251 296 348
#
# _framework density 19.855394
#
# number of rings (size 3 to 8) (size 9 to 14) (size 15 to 20)
#    0.000    1.833    2.500    2.500    0.000    4.667 
#    1.500    0.833    0.000    0.000    0.000    0.000 
#    0.000    0.000    0.000    0.000    0.000    0.000 
#
# Total GULP energy -297490.852579 kJ/mol
# GULP energy per Si atom -12395.452191 kJ/mol
# Density = 1.981020 g / cm^3
# Si number density = 19.855394 Si / 1000 Ang^3
#
#
#
# Elastic Constant Matrix: (Units=GPa)
#
#
# Indices 1 2 3 4 5 6 
#
# 1 157.4029 26.5750 52.0363 0.0000 0.0000 0.0000
# 2 26.5750 34.1476 20.0956 0.0000 0.0000 0.0000
# 3 52.0363 20.0956 86.2327 0.0000 0.0000 0.0000
# 4 0.0000 0.0000 0.0000 25.2854 0.0000 0.0000
# 5 0.0000 0.0000 0.0000 0.0000 30.4959 0.0000
# 6 0.0000 0.0000 0.0000 0.0000 0.0000 19.3038
#
#
#
# Elastic Compliance Matrix: (Units=1/GPa)
#
#
# Indices 1 2 3 4 5 6 
#
# 1 0.008409 -0.004124 -0.004114 0.000000 0.000000 0.000000
# 2 -0.004124 0.035961 -0.005892 0.000000 0.000000 0.000000
# 3 -0.004114 -0.005892 0.015452 0.000000 0.000000 0.000000
# 4 0.000000 0.000000 0.000000 0.039548 0.000000 0.000000
# 5 0.000000 0.000000 0.000000 0.000000 0.032791 0.000000
# 6 0.000000 0.000000 0.000000 0.000000 0.000000 0.051803
#
#
# Mechanical properties :
#
#
# Convention : Reuss Voigt Hill
#
# Bulk Modulus (GPa) = 31.68164 52.79968 42.24066
# Shear Modulus (GPa) = 22.44719 26.95544 24.70132
#
# Velocity S-wave (km/s) = 3.36599 3.68854 3.53095
# Velocity P-wave (km/s) = 5.57650 6.69256 6.15986
#
# Compressibility (1/GPa) = 0.03156402
#
# Stress axis : x y z
#
# Youngs Moduli (GPa) = 118.91700 27.80775 64.71717
#
# Poissons Ratio (x) = 0.11467 0.26621
# Poissons Ratio (y) = 0.49037 0.38131
# Poissons Ratio (z) = 0.48917 0.16384
#
# Static dielectric constant tensor:
#      x y z
#    x 4.102880 0.000000 0.000000 
#    y 0.000000 3.246990 0.000000 
#    z 0.000000 0.000000 3.478730 
# 
# 
# High freq. dielectric constant tensor:
#      x y z
#    x 1.795520 0.000000 0.000000 
#    y 0.000000 1.736450 0.000000 
#    z 0.000000 0.000000 1.767740 
# 
# From -- ./inp_files/16156.got.cif
#   From: 2010.03.12/outbox.cif.g09.slc.cpg/sg44_9_cif.got.tgz:16156.got - 2010.04.14 02:36:11.
