data_PCOD8188839
_publ_section_title
;
Structure prediction by ZEFSAII (Michael W. Deem and Ramdas Pophale) SiO2 
 PCOD8188839
Probable space group: I M M 2
;
_chemical_formula_sum "Si O2"
_cell_formula_units_Z 56
_cell_length_a 16.710808
_cell_length_b 9.481346
_cell_length_c 19.953599
_cell_angle_alpha 90.000000
_cell_angle_beta 90.000000
_cell_angle_gamma 90.000000
_cell_volume 3161.467233
_symmetry_space_group_name_H-M "I M M 2"
_symmetry_group_IT_number 44
_symmetry_cell_setting 'orthorhombic'
loop_
_space_group_symop_operation_xyz
x,y,z
-x,-y,z
-x,y,z
x,-y,z
1/2+x,1/2+y,1/2+z
1/2-x,1/2-y,1/2+z
1/2-x,1/2+y,1/2+z
1/2+x,1/2-y,1/2+z
loop_
_atom_site_type_symbol
_atom_site_label
_atom_site_fract_x
_atom_site_fract_y
_atom_site_fract_z
Si Si1 0.170266 0.335448 0.966110
Si Si2 0.000000 0.669800 0.769932
Si Si3 0.000000 0.666596 0.925573
Si Si4 0.909934 0.160436 0.180556
Si Si5 0.754046 0.156550 0.853957
Si Si6 0.913478 0.343503 0.308438
Si Si7 0.152074 0.162650 0.719988
Si Si8 0.222088 0.664161 0.110238
O O1 0.168131 0.500000 0.953848
O O2 0.078119 0.278706 0.966455
O O3 0.209758 0.272127 0.901038
O O4 0.224306 0.298981 0.031017
O O5 0.000000 0.719945 0.847749
O O6 0.922320 0.733787 0.732620
O O7 0.000000 0.500000 0.762468
O O8 0.000000 0.500000 0.922435
O O9 0.905669 0.221697 0.254564
O O10 0.853714 0.248604 0.133060
O O11 0.000000 0.170670 0.152170
O O12 0.879812 0.000000 0.183321
O O13 0.658325 0.173707 0.860803
O O14 0.781502 0.183419 0.777601
O O15 0.780741 0.000000 0.876936
O O16 0.906489 0.500000 0.274726
O O17 0.000000 0.329424 0.345144
O O18 0.196063 0.204406 0.649555
O O19 0.122217 0.000000 0.717488
O O20 0.203526 0.500000 0.122006
#
# Coordination Sequence:
#
# PCOD8188839 Si02
#       8
#     8   4   4   8   8   8   8   8
#     4  10  21  36  55  79 109 145 182 225 275 332
#     4  11  21  35  59  87 111 142 183 232 286 332
#     4   9  18  33  51  81 115 138 177 224 270 328
#     4  10  20  31  46  75 112 141 169 211 260 306
#     4  10  19  33  54  80 108 140 177 223 279 329
#     4   9  17  32  54  77 101 135 180 220 258 316
#     4  10  20  36  56  83 111 141 184 231 275 329
#     4  10  21  37  57  78 105 147 190 221 267 332
#
# _framework density 17.713294000000001
#
# number of rings (size 3 to 8) (size 9 to 14) (size 15 to 20)
#    0.000    2.143    2.857    0.643    1.000    2.571 
#    0.000    0.357    1.571    0.000    0.000    0.000 
#    0.000    0.000    0.000    0.000    0.000    0.000 
#
# Total GULP energy -346987.638625 kJ/mol
# GULP energy per Si atom -12392.415665 kJ/mol
# Density = 1.767298 g / cm^3
# Si number density = 17.713294 Si / 1000 Ang^3
#
#
#
# Elastic Constant Matrix: (Units=GPa)
#
#
# Indices 1 2 3 4 5 6 
#
# 1 110.0894 37.5284 45.6818 0.0000 0.0000 0.0000
# 2 37.5284 41.7929 26.3481 0.0000 0.0000 0.0000
# 3 45.6818 26.3481 85.2870 0.0000 0.0000 0.0000
# 4 0.0000 0.0000 0.0000 16.9639 0.0000 0.0000
# 5 0.0000 0.0000 0.0000 0.0000 27.2796 0.0000
# 6 0.0000 0.0000 0.0000 0.0000 0.0000 28.4426
#
#
#
# Elastic Compliance Matrix: (Units=1/GPa)
#
#
# Indices 1 2 3 4 5 6 
#
# 1 0.014424 -0.010036 -0.004625 0.000000 0.000000 0.000000
# 2 -0.010036 0.036698 -0.005962 0.000000 0.000000 0.000000
# 3 -0.004625 -0.005962 0.016044 0.000000 0.000000 0.000000
# 4 0.000000 0.000000 0.000000 0.058949 0.000000 0.000000
# 5 0.000000 0.000000 0.000000 0.000000 0.036657 0.000000
# 6 0.000000 0.000000 0.000000 0.000000 0.000000 0.035159
#
#
# Mechanical properties :
#
#
# Convention : Reuss Voigt Hill
#
# Bulk Modulus (GPa) = 38.58014 50.69843 44.63928
# Shear Modulus (GPa) = 20.17611 23.04462 21.61037
#
# Velocity S-wave (km/s) = 3.37862 3.61082 3.49665
# Velocity P-wave (km/s) = 6.08669 6.78733 6.44653
#
# Compressibility (1/GPa) = 0.02592007
#
# Stress axis : x y z
#
# Youngs Moduli (GPa) = 69.32842 27.24929 62.32727
#
# Poissons Ratio (x) = 0.27348 0.28829
# Poissons Ratio (y) = 0.69580 0.37157
# Poissons Ratio (z) = 0.32067 0.16245
#
# Static dielectric constant tensor:
#      x y z
#    x 3.520900 0.000000 0.000000 
#    y 0.000000 3.282950 0.000000 
#    z 0.000000 0.000000 3.128630 
# 
# 
# High freq. dielectric constant tensor:
#      x y z
#    x 1.690960 0.000000 0.000000 
#    y 0.000000 1.682850 0.000000 
#    z 0.000000 0.000000 1.655000 
# 
# From -- ./inp_files/23152.got.cif
#   From: 2010.03.12/outbox.cif.g09.slc.cpg/sg44_12_cif.got.tgz:23152.got - 2010.04.14 02:36:11.
