data_PCOD8188118
_publ_section_title
;
Structure prediction by ZEFSAII (Michael W. Deem and Ramdas Pophale) SiO2 
 PCOD8188118
Probable space group: I M M 2
;
_chemical_formula_sum "Si O2"
_cell_formula_units_Z 56
_cell_length_a 13.890360
_cell_length_b 12.752112
_cell_length_c 17.896975
_cell_angle_alpha 90.000000
_cell_angle_beta 90.000000
_cell_angle_gamma 90.000000
_cell_volume 3170.116711
_symmetry_space_group_name_H-M "I M M 2"
_symmetry_group_IT_number 44
_symmetry_cell_setting 'orthorhombic'
loop_
_space_group_symop_operation_xyz
x,y,z
-x,-y,z
-x,y,z
x,-y,z
1/2+x,1/2+y,1/2+z
1/2-x,1/2-y,1/2+z
1/2-x,1/2+y,1/2+z
1/2+x,1/2-y,1/2+z
loop_
_atom_site_type_symbol
_atom_site_label
_atom_site_fract_x
_atom_site_fract_y
_atom_site_fract_z
Si Si1 0.610549 0.246565 0.236750
Si Si2 0.107531 0.619013 0.878071
Si Si3 0.726064 0.880300 0.806891
Si Si4 0.109708 0.379934 0.159034
Si Si5 0.607572 0.500000 0.919961
Si Si6 0.392692 0.500000 0.096926
Si Si7 0.209596 0.787055 0.428136
Si Si8 0.209790 0.209811 0.597849
O O1 0.500000 0.283051 0.224276
O O2 0.614645 0.145317 0.290115
O O3 0.671474 0.338863 0.276785
O O4 0.661290 0.211094 0.158027
O O5 0.139838 0.500000 0.889247
O O6 0.176096 0.691799 0.927888
O O7 0.000000 0.638289 0.908144
O O8 0.644124 0.871036 0.744279
O O9 0.686002 0.812664 0.876900
O O10 0.739617 0.000000 0.833460
O O11 0.118035 0.500000 0.130603
O O12 0.175027 0.303794 0.106917
O O13 0.000000 0.340300 0.153471
O O14 0.500000 0.500000 0.886420
O O15 0.658908 0.391840 0.894443
O O16 0.605982 0.500000 0.008388
O O17 0.500000 0.500000 0.129944
O O18 0.336367 0.399476 0.126375
O O19 0.179618 0.760533 0.513557
#
# Coordination Sequence:
#
# PCOD8188118 Si02
#       8
#     8   8   8   8   4   4   8   8
#     4   9  18  31  49  73  98 127 162 201 245 292
#     4   9  17  31  51  72  96 128 162 200 246 292
#     4   9  19  34  50  71  97 130 171 202 237 286
#     4   9  17  30  47  67  94 127 163 202 241 285
#     4   9  18  30  45  69  97 127 157 188 238 292
#     4   9  16  26  41  63  93 123 145 184 242 290
#     4  10  19  32  50  71 103 130 160 204 245 290
#     4  10  18  29  44  70  97 124 157 198 247 294
#
# _framework density 17.664964999999999
#
# number of rings (size 3 to 8) (size 9 to 14) (size 15 to 20)
#    0.000    2.714    1.429    0.429    1.000    2.000 
#    0.000    2.143    0.000    0.000    0.000    0.000 
#    0.000    0.000    0.000    0.000    0.000    0.000 
#
# Total GULP energy -347034.647303 kJ/mol
# GULP energy per Si atom -12394.094547 kJ/mol
# Density = 1.762476 g / cm^3
# Si number density = 17.664965 Si / 1000 Ang^3
#
#
#
# Elastic Constant Matrix: (Units=GPa)
#
#
# Indices 1 2 3 4 5 6 
#
# 1 96.6257 8.2743 8.8209 0.0000 0.0000 0.0000
# 2 8.2743 49.5238 15.6029 0.0000 0.0000 0.0000
# 3 8.8209 15.6029 68.5639 0.0000 0.0000 0.0000
# 4 0.0000 0.0000 0.0000 18.9620 0.0000 0.0000
# 5 0.0000 0.0000 0.0000 0.0000 20.5664 0.0000
# 6 0.0000 0.0000 0.0000 0.0000 0.0000 17.6042
#
#
#
# Elastic Compliance Matrix: (Units=1/GPa)
#
#
# Indices 1 2 3 4 5 6 
#
# 1 0.010567 -0.001440 -0.001032 0.000000 0.000000 0.000000
# 2 -0.001440 0.021948 -0.004809 0.000000 0.000000 0.000000
# 3 -0.001032 -0.004809 0.015812 0.000000 0.000000 0.000000
# 4 0.000000 0.000000 0.000000 0.052737 0.000000 0.000000
# 5 0.000000 0.000000 0.000000 0.000000 0.048623 0.000000
# 6 0.000000 0.000000 0.000000 0.000000 0.000000 0.056804
#
#
# Mechanical properties :
#
#
# Convention : Reuss Voigt Hill
#
# Bulk Modulus (GPa) = 29.61721 31.12329 30.37025
# Shear Modulus (GPa) = 21.52304 23.56088 22.54196
#
# Velocity S-wave (km/s) = 3.49435 3.65603 3.57611
# Velocity P-wave (km/s) = 5.75179 5.95643 5.85500
#
# Compressibility (1/GPa) = 0.03376415
#
# Stress axis : x y z
#
# Youngs Moduli (GPa) = 94.63658 45.56183 63.24265
#
# Poissons Ratio (x) = 0.06563 0.06524
# Poissons Ratio (y) = 0.13632 0.30416
# Poissons Ratio (z) = 0.09763 0.21912
#
# Static dielectric constant tensor:
#      x y z
#    x 3.442330 0.000000 0.000000 
#    y 0.000000 3.103920 0.000000 
#    z 0.000000 0.000000 3.151140 
# 
# 
# High freq. dielectric constant tensor:
#      x y z
#    x 1.693750 0.000000 0.000000 
#    y 0.000000 1.644250 0.000000 
#    z 0.000000 0.000000 1.672180 
# 
# From -- ./inp_files/21924.got.cif
#   From: 2010.03.12/outbox.cif.g09.slc.cpg/sg44_11_cif.got.tgz:21924.got - 2010.04.14 02:36:11.
