data_PCOD8188725
_publ_section_title
;
Structure prediction by ZEFSAII (Michael W. Deem and Ramdas Pophale) SiO2 
 PCOD8188725
Probable space group: I M M 2
;
_chemical_formula_sum "Si O2"
_cell_formula_units_Z 48
_cell_length_a 8.879947
_cell_length_b 16.569406
_cell_length_c 18.483985
_cell_angle_alpha 90.000000
_cell_angle_beta 90.000000
_cell_angle_gamma 90.000000
_cell_volume 2719.649397
_symmetry_space_group_name_H-M "I M M 2"
_symmetry_group_IT_number 44
_symmetry_cell_setting 'orthorhombic'
loop_
_space_group_symop_operation_xyz
x,y,z
-x,-y,z
-x,y,z
x,-y,z
1/2+x,1/2+y,1/2+z
1/2-x,1/2-y,1/2+z
1/2-x,1/2+y,1/2+z
1/2+x,1/2-y,1/2+z
loop_
_atom_site_type_symbol
_atom_site_label
_atom_site_fract_x
_atom_site_fract_y
_atom_site_fract_z
Si Si1 0.824971 0.177603 0.197660
Si Si2 0.824016 0.259631 0.472872
Si Si3 0.179167 0.500000 0.922533
Si Si4 0.176737 0.500000 0.083703
Si Si5 0.674726 0.091866 0.067243
Si Si6 0.322063 0.164567 0.351340
Si Si7 0.174782 0.326528 0.102939
O O1 0.772018 0.113483 0.137714
O O2 0.729157 0.168308 0.269149
O O3 0.792970 0.268314 0.169956
O O4 0.000000 0.162904 0.213867
O O5 0.781739 0.350244 0.499803
O O6 0.743495 0.239798 0.397078
O O7 0.771574 0.196610 0.533350
O O8 0.000000 0.250522 0.460225
O O9 0.239506 0.420048 0.882600
O O10 0.000000 0.500000 0.921715
O O11 0.246864 0.500000 0.003263
O O12 0.223491 0.417903 0.125755
O O13 0.000000 0.500000 0.073621
O O14 0.500000 0.103978 0.087713
O O15 0.709586 0.000000 0.044184
O O16 0.500000 0.170135 0.354834
O O17 0.000000 0.321936 0.079513
#
# Coordination Sequence:
#
# PCOD8188725 Si02
#       7
#     8   8   4   4   8   8   8
#     4  10  21  34  50  77 107 134 167 212 258 299
#     4  10  19  32  52  77 103 130 168 214 255 296
#     4   9  18  30  50  76  98 127 168 201 236 300
#     4   9  14  28  54  78  96 123 168 207 236 292
#     4   9  19  36  56  76 100 135 174 210 254 312
#     4  11  21  35  53  73 102 141 173 202 249 309
#     4   9  17  32  53  74 100 133 169 204 247 302
#
# _framework density 17.649334
#
# number of rings (size 3 to 8) (size 9 to 14) (size 15 to 20)
#    0.000    2.333    1.667    1.500    1.167    1.667 
#    0.000    2.500    1.833    0.000    0.000    0.000 
#    0.000    0.000    0.000    0.000    0.000    0.000 
#
# Total GULP energy -297539.906898 kJ/mol
# GULP energy per Si atom -12397.496121 kJ/mol
# Density = 1.760916 g / cm^3
# Si number density = 17.649334 Si / 1000 Ang^3
#
#
#
# Elastic Constant Matrix: (Units=GPa)
#
#
# Indices 1 2 3 4 5 6 
#
# 1 55.4570 29.6986 28.4291 0.0000 0.0000 0.0000
# 2 29.6986 142.6688 42.4186 0.0000 0.0000 0.0000
# 3 28.4291 42.4186 74.1370 0.0000 0.0000 0.0000
# 4 0.0000 0.0000 0.0000 19.8088 0.0000 0.0000
# 5 0.0000 0.0000 0.0000 0.0000 31.3451 0.0000
# 6 0.0000 0.0000 0.0000 0.0000 0.0000 20.8876
#
#
#
# Elastic Compliance Matrix: (Units=1/GPa)
#
#
# Indices 1 2 3 4 5 6 
#
# 1 0.023239 -0.002636 -0.007403 0.000000 0.000000 0.000000
# 2 -0.002636 0.008745 -0.003993 0.000000 0.000000 0.000000
# 3 -0.007403 -0.003993 0.018612 0.000000 0.000000 0.000000
# 4 0.000000 0.000000 0.000000 0.050483 0.000000 0.000000
# 5 0.000000 0.000000 0.000000 0.000000 0.031903 0.000000
# 6 0.000000 0.000000 0.000000 0.000000 0.000000 0.047875
#
#
# Mechanical properties :
#
#
# Convention : Reuss Voigt Hill
#
# Bulk Modulus (GPa) = 44.38173 52.59504 48.48839
# Shear Modulus (GPa) = 23.10205 25.85607 24.47906
#
# Velocity S-wave (km/s) = 3.62186 3.83167 3.72824
# Velocity P-wave (km/s) = 6.53387 7.03138 6.78719
#
# Compressibility (1/GPa) = 0.02253179
#
# Stress axis : x y z
#
# Youngs Moduli (GPa) = 43.03146 114.34872 53.72945
#
# Poissons Ratio (x) = 0.30148 0.39775
# Poissons Ratio (y) = 0.11345 0.21453
# Poissons Ratio (z) = 0.31855 0.45656
#
# Static dielectric constant tensor:
#      x y z
#    x 3.191440 0.000000 0.000000 
#    y 0.000000 3.640940 0.000000 
#    z 0.000000 0.000000 3.098870 
# 
# 
# High freq. dielectric constant tensor:
#      x y z
#    x 1.674640 0.000000 0.000000 
#    y 0.000000 1.690930 0.000000 
#    z 0.000000 0.000000 1.661000 
# 
# From -- ./inp_files/20327.got.cif
#   From: 2010.03.12/outbox.cif.g09.slc.cpg/sg44_11_cif.got.tgz:20327.got - 2010.04.14 02:36:11.
