data_PCOD8188014
_publ_section_title
;
Structure prediction by ZEFSAII (Michael W. Deem and Ramdas Pophale) SiO2 
 PCOD8188014
Probable space group: I M M 2
;
_chemical_formula_sum "Si O2"
_cell_formula_units_Z 64
_cell_length_a 9.035612
_cell_length_b 26.348964
_cell_length_c 18.030253
_cell_angle_alpha 90.000000
_cell_angle_beta 90.000000
_cell_angle_gamma 90.000000
_cell_volume 4292.624880
_symmetry_space_group_name_H-M "I M M 2"
_symmetry_group_IT_number 44
_symmetry_cell_setting 'orthorhombic'
loop_
_space_group_symop_operation_xyz
x,y,z
-x,-y,z
-x,y,z
x,-y,z
1/2+x,1/2+y,1/2+z
1/2-x,1/2-y,1/2+z
1/2-x,1/2+y,1/2+z
1/2+x,1/2-y,1/2+z
loop_
_atom_site_type_symbol
_atom_site_label
_atom_site_fract_x
_atom_site_fract_y
_atom_site_fract_z
Si Si1 0.333346 0.797787 0.852960
Si Si2 0.832825 0.802437 0.254786
Si Si3 0.173556 0.258522 0.975533
Si Si4 0.328710 0.253128 0.132386
Si Si5 0.672969 0.856561 0.379400
Si Si6 0.828875 0.851982 0.730768
Si Si7 0.676108 0.444021 0.134041
Si Si8 0.330084 0.558883 0.967267
O O1 0.500000 0.812893 0.875064
O O2 0.330644 0.748348 0.802472
O O3 0.239404 0.787559 0.926981
O O4 0.260414 0.843746 0.806834
O O5 0.744260 0.792768 0.178714
O O6 0.753583 0.846783 0.301114
O O7 0.000000 0.819095 0.235944
O O8 0.210818 0.312193 0.937619
O O9 0.000000 0.249717 0.983974
O O10 0.248685 0.258146 0.054695
O O11 0.500000 0.240356 0.120072
O O12 0.306722 0.305951 0.174353
O O13 0.500000 0.859578 0.363273
O O14 0.729352 0.909645 0.411223
O O15 0.763035 0.902348 0.691493
O O16 0.000000 0.858585 0.751908
O O17 0.500000 0.443029 0.132659
O O18 0.732509 0.500000 0.158321
O O19 0.730164 0.431704 0.050677
O O20 0.500000 0.576978 0.960124
O O21 0.315570 0.500000 0.946068
#
# Coordination Sequence:
#
# PCOD8188014 Si02
#       8
#     8   8   8   8   8   8   8   8
#     4   9  17  28  41  57  78 105 136 170 206 243
#     4   9  17  29  43  58  79 107 138 171 206 246
#     4  10  19  29  41  59  83 110 140 171 204 245
#     4  10  18  27  41  61  84 109 138 171 207 246
#     4  10  19  29  42  60  83 111 142 175 210 247
#     4   9  16  26  41  59  80 108 139 170 204 241
#     4   8  14  25  41  60  81 107 141 176 205 237
#     4   9  17  29  44  61  82 110 144 178 210 246
#
# _framework density 14.909293
#
# number of rings (size 3 to 8) (size 9 to 14) (size 15 to 20)
#    0.000    2.750    0.000    3.375    0.000    6.250 
#    0.000    0.625    0.000    1.125    0.000    0.000 
#    0.000    1.000    0.000    6.000    0.000    4.625 
#
# Total GULP energy -396768.614341 kJ/mol
# GULP energy per Si atom -12399.019198 kJ/mol
# Density = 1.487536 g / cm^3
# Si number density = 14.909293 Si / 1000 Ang^3
#
#
#
# Elastic Constant Matrix: (Units=GPa)
#
#
# Indices 1 2 3 4 5 6 
#
# 1 92.8922 32.9440 50.7497 0.0000 0.0000 0.0000
# 2 32.9440 63.3453 28.1419 0.0000 0.0000 0.0000
# 3 50.7497 28.1419 58.0708 -0.0001 0.0000 0.0000
# 4 0.0000 0.0000 -0.0001 26.3871 0.0000 0.0000
# 5 0.0000 0.0000 0.0000 0.0000 28.6052 0.0000
# 6 0.0000 0.0000 0.0000 0.0000 0.0000 18.0324
#
#
#
# Elastic Compliance Matrix: (Units=1/GPa)
#
#
# Indices 1 2 3 4 5 6 
#
# 1 0.021214 -0.003564 -0.016813 0.000000 0.000000 0.000000
# 2 -0.003564 0.020716 -0.006925 0.000000 0.000000 0.000000
# 3 -0.016813 -0.006925 0.035270 0.000000 0.000000 0.000000
# 4 0.000000 0.000000 0.000000 0.037897 0.000000 0.000000
# 5 0.000000 0.000000 0.000000 0.000000 0.034959 0.000000
# 6 0.000000 0.000000 0.000000 0.000000 0.000000 0.055456
#
#
# Mechanical properties :
#
#
# Convention : Reuss Voigt Hill
#
# Bulk Modulus (GPa) = 44.25330 48.66439 46.45885
# Shear Modulus (GPa) = 18.68128 21.43646 20.05887
#
# Velocity S-wave (km/s) = 3.54361 3.79594 3.67194
# Velocity P-wave (km/s) = 6.81828 7.20579 7.01471
#
# Compressibility (1/GPa) = 0.02259718
#
# Stress axis : x y z
#
# Youngs Moduli (GPa) = 47.13789 48.27102 28.35302
#
# Poissons Ratio (x) = 0.17202 0.47670
# Poissons Ratio (y) = 0.16798 0.19635
# Poissons Ratio (z) = 0.79252 0.33428
#
# Static dielectric constant tensor:
#      x y z
#    x 2.923720 0.000000 0.000000 
#    y 0.000000 2.785110 0.000000 
#    z 0.000000 0.000000 2.846600 
# 
# 
# High freq. dielectric constant tensor:
#      x y z
#    x 1.574860 0.000000 0.000000 
#    y 0.000000 1.537500 0.000000 
#    z 0.000000 0.000000 1.558120 
# 
# From -- ./inp_files/17105.got.cif
#   From: 2010.03.12/outbox.cif.g09.slc.cpg/sg44_9_cif.got.tgz:17105.got - 2010.04.14 02:36:11.
