data_PCOD8188777
_publ_section_title
;
Structure prediction by ZEFSAII (Michael W. Deem and Ramdas Pophale) SiO2 
 PCOD8188777
Probable space group: I M M 2
;
_chemical_formula_sum "Si O2"
_cell_formula_units_Z 40
_cell_length_a 7.790532
_cell_length_b 21.311326
_cell_length_c 13.400856
_cell_angle_alpha 90.000000
_cell_angle_beta 90.000000
_cell_angle_gamma 90.000000
_cell_volume 2224.898119
_symmetry_space_group_name_H-M "I M M 2"
_symmetry_group_IT_number 44
_symmetry_cell_setting 'orthorhombic'
loop_
_space_group_symop_operation_xyz
x,y,z
-x,-y,z
-x,y,z
x,-y,z
1/2+x,1/2+y,1/2+z
1/2-x,1/2-y,1/2+z
1/2-x,1/2+y,1/2+z
1/2+x,1/2-y,1/2+z
loop_
_atom_site_type_symbol
_atom_site_label
_atom_site_fract_x
_atom_site_fract_y
_atom_site_fract_z
Si Si1 0.302606 0.154131 0.991710
Si Si2 0.302954 0.776696 0.191315
Si Si3 0.000000 0.073794 0.681336
Si Si4 0.000000 0.073665 0.912332
Si Si5 0.311514 0.150676 0.599918
Si Si6 0.197582 0.787105 0.408278
O O1 0.500000 0.133369 0.971368
O O2 0.252162 0.214619 0.925676
O O3 0.173359 0.098990 0.963206
O O4 0.275652 0.170060 0.108201
O O5 0.500000 0.756453 0.198124
O O6 0.200662 0.713881 0.165097
O O7 0.238162 0.805949 0.295016
O O8 0.000000 0.092751 0.796863
O O9 0.829609 0.100160 0.629818
O O10 0.000000 0.000000 0.665362
O O11 0.000000 0.000000 0.928257
O O12 0.500000 0.121524 0.619476
O O13 0.299560 0.167559 0.482711
O O14 0.000000 0.796498 0.435553
#
# Coordination Sequence:
#
# PCOD8188777 Si02
#       6
#     8   8   4   4   8   8
#     4   9  21  36  52  82 116 143 183 228 276 330
#     4  10  19  32  54  87 118 146 179 226 283 339
#     4  11  24  42  57  79 113 149 193 238 272 332
#     4  11  24  38  59  79 105 153 193 226 278 326
#     4  11  21  36  56  83 115 149 185 229 284 334
#     4  10  19  32  55  88 117 146 179 225 286 340
#
# _framework density 17.978349999999999
#
# number of rings (size 3 to 8) (size 9 to 14) (size 15 to 20)
#    0.000    1.800    2.000    3.600    8.400    3.200 
#    0.000    2.000    0.000    2.400    0.000    2.800 
#    0.000    0.000    0.000    0.000    0.000    0.000 
#
# Total GULP energy -248043.148957 kJ/mol
# GULP energy per Si atom -12402.157448 kJ/mol
# Density = 1.793743 g / cm^3
# Si number density = 17.978350 Si / 1000 Ang^3
#
#
#
# Elastic Constant Matrix: (Units=GPa)
#
#
# Indices 1 2 3 4 5 6 
#
# 1 125.9402 50.1199 29.8062 0.0000 0.0000 0.0000
# 2 50.1199 67.1094 39.0241 0.0000 0.0000 0.0000
# 3 29.8062 39.0241 110.0323 0.0001 0.0000 0.0000
# 4 0.0000 0.0000 0.0001 20.6785 0.0000 0.0000
# 5 0.0000 0.0000 0.0000 0.0000 29.2703 0.0000
# 6 0.0000 0.0000 0.0000 0.0000 0.0000 22.7646
#
#
#
# Elastic Compliance Matrix: (Units=1/GPa)
#
#
# Indices 1 2 3 4 5 6 
#
# 1 0.011299 -0.008389 -0.000086 0.000000 0.000000 0.000000
# 2 -0.008389 0.025001 -0.006594 0.000000 0.000000 0.000000
# 3 -0.000086 -0.006594 0.011450 0.000000 0.000000 0.000000
# 4 0.000000 0.000000 0.000000 0.048359 0.000000 0.000000
# 5 0.000000 0.000000 0.000000 0.000000 0.034164 0.000000
# 6 0.000000 0.000000 0.000000 0.000000 0.000000 0.043928
#
#
# Mechanical properties :
#
#
# Convention : Reuss Voigt Hill
#
# Bulk Modulus (GPa) = 56.77791 60.10914 58.44352
# Shear Modulus (GPa) = 23.78578 26.81813 25.30196
#
# Velocity S-wave (km/s) = 3.64129 3.86643 3.75555
# Velocity P-wave (km/s) = 7.02342 7.31021 7.16825
#
# Compressibility (1/GPa) = 0.01761248
#
# Stress axis : x y z
#
# Youngs Moduli (GPa) = 88.50374 39.99886 87.33482
#
# Poissons Ratio (x) = 0.33554 0.00747
# Poissons Ratio (y) = 0.74243 0.57592
# Poissons Ratio (z) = 0.00757 0.26377
#
# Static dielectric constant tensor:
#      x y z
#    x 3.421060 0.000000 0.000000 
#    y 0.000000 2.894340 0.000000 
#    z 0.000000 0.000000 3.605990 
# 
# 
# High freq. dielectric constant tensor:
#      x y z
#    x 1.715270 0.000000 0.000000 
#    y 0.000000 1.646660 0.000000 
#    z 0.000000 0.000000 1.707850 
# 
# From -- ./inp_files/11019.got.cif
#   From: 2010.03.12/outbox.cif.g09.slc.cpg/sg44_6_cif.got.tgz:11019.got - 2010.04.14 02:36:11.
