data_PCOD8188515
_publ_section_title
;
Structure prediction by ZEFSAII (Michael W. Deem and Ramdas Pophale) SiO2 
 PCOD8188515
Probable space group: I M M 2
;
_chemical_formula_sum "Si O2"
_cell_formula_units_Z 56
_cell_length_a 18.132228
_cell_length_b 8.909684
_cell_length_c 20.892638
_cell_angle_alpha 90.000000
_cell_angle_beta 90.000000
_cell_angle_gamma 90.000000
_cell_volume 3375.256265
_symmetry_space_group_name_H-M "I M M 2"
_symmetry_group_IT_number 44
_symmetry_cell_setting 'orthorhombic'
loop_
_space_group_symop_operation_xyz
x,y,z
-x,-y,z
-x,y,z
x,-y,z
1/2+x,1/2+y,1/2+z
1/2-x,1/2-y,1/2+z
1/2-x,1/2+y,1/2+z
1/2+x,1/2-y,1/2+z
loop_
_atom_site_type_symbol
_atom_site_label
_atom_site_fract_x
_atom_site_fract_y
_atom_site_fract_z
Si Si1 0.918044 0.676594 0.824370
Si Si2 0.792413 0.165999 0.762690
Si Si3 0.293810 0.831053 0.895264
Si Si4 0.586494 0.325109 0.573069
Si Si5 0.146119 0.678312 0.200290
Si Si6 0.584992 0.672311 0.824631
Si Si7 0.162182 0.677616 0.953016
O O1 0.921279 0.500000 0.821870
O O2 0.864520 0.729410 0.766764
O O3 0.887442 0.730935 0.892958
O O4 0.000000 0.744624 0.814921
O O5 0.749656 0.168188 0.829172
O O6 0.733141 0.218374 0.709433
O O7 0.821208 0.000000 0.746767
O O8 0.369244 0.739125 0.884500
O O9 0.243561 0.750131 0.948632
O O10 0.312105 0.000000 0.917898
O O11 0.500000 0.293700 0.572197
O O12 0.604606 0.500000 0.565025
O O13 0.619122 0.266669 0.639008
O O14 0.623098 0.232447 0.516578
O O15 0.134797 0.500000 0.192804
O O16 0.098571 0.733046 0.260494
O O17 0.500000 0.684466 0.843990
O O18 0.608697 0.500000 0.812565
O O19 0.171035 0.500000 0.954602
#
# Coordination Sequence:
#
# PCOD8188515 Si02
#       7
#     8   8   8   8   8   8   8
#     4   9  17  28  44  68  94 119 149 185 225 269
#     4   8  16  29  44  64  88 116 150 187 228 272
#     4   9  17  30  47  67  92 121 155 193 233 278
#     4  11  23  35  47  67  95 126 160 195 230 273
#     4  10  20  33  48  66  91 124 161 197 233 278
#     4  10  19  30  46  70  98 125 155 193 236 280
#     4  10  19  32  49  67  92 126 160 193 230 274
#
# _framework density 16.591332999999999
#
# number of rings (size 3 to 8) (size 9 to 14) (size 15 to 20)
#    0.000    2.429    0.000    3.857    0.000    9.429 
#    0.000    0.000    0.000    0.000    0.000    1.000 
#    0.000    3.429    0.000    0.000    0.000    0.000 
#
# Total GULP energy -347140.794501 kJ/mol
# GULP energy per Si atom -12397.885518 kJ/mol
# Density = 1.655357 g / cm^3
# Si number density = 16.591333 Si / 1000 Ang^3
#
#
#
# Elastic Constant Matrix: (Units=GPa)
#
#
# Indices 1 2 3 4 5 6 
#
# 1 101.2622 28.9538 28.8385 0.0000 0.0000 0.0000
# 2 28.9538 45.2081 9.7452 0.0000 0.0000 0.0000
# 3 28.8385 9.7452 40.8708 0.0000 0.0000 0.0000
# 4 0.0000 0.0000 0.0000 28.2983 0.0000 0.0000
# 5 0.0000 0.0000 0.0000 0.0000 26.6896 0.0000
# 6 0.0000 0.0000 0.0000 0.0000 0.0000 29.9928
#
#
#
# Elastic Compliance Matrix: (Units=1/GPa)
#
#
# Indices 1 2 3 4 5 6 
#
# 1 0.014379 -0.007402 -0.008381 0.000000 0.000000 0.000000
# 2 -0.007402 0.027129 -0.001246 0.000000 0.000000 0.000000
# 3 -0.008381 -0.001246 0.030678 0.000000 0.000000 0.000000
# 4 0.000000 0.000000 0.000000 0.035338 0.000000 0.000000
# 5 0.000000 0.000000 0.000000 0.000000 0.037468 0.000000
# 6 0.000000 0.000000 0.000000 0.000000 0.000000 0.033341
#
#
# Mechanical properties :
#
#
# Convention : Reuss Voigt Hill
#
# Bulk Modulus (GPa) = 26.22702 35.82403 31.02552
# Shear Modulus (GPa) = 22.21244 24.98304 23.59774
#
# Velocity S-wave (km/s) = 3.66293 3.88466 3.77542
# Velocity P-wave (km/s) = 5.80787 6.46217 6.14374
#
# Compressibility (1/GPa) = 0.03812862
#
# Stress axis : x y z
#
# Youngs Moduli (GPa) = 69.54780 36.86051 32.59695
#
# Poissons Ratio (x) = 0.27285 0.27318
# Poissons Ratio (y) = 0.51482 0.04060
# Poissons Ratio (z) = 0.58285 0.04591
#
# Static dielectric constant tensor:
#      x y z
#    x 3.386240 0.000000 0.000000 
#    y 0.000000 3.282350 0.000000 
#    z 0.000000 0.000000 2.886450 
# 
# 
# High freq. dielectric constant tensor:
#      x y z
#    x 1.641490 0.000000 0.000000 
#    y 0.000000 1.653140 0.000000 
#    z 0.000000 0.000000 1.597250 
# 
# From -- ./inp_files/23210.got.cif
#   From: 2010.03.12/outbox.cif.g09.slc.cpg/sg44_12_cif.got.tgz:23210.got - 2010.04.14 02:36:11.
