data_PCOD8188316
_publ_section_title
;
Structure prediction by ZEFSAII (Michael W. Deem and Ramdas Pophale) SiO2 
 PCOD8188316
Probable space group: I M M 2
;
_chemical_formula_sum "Si O2"
_cell_formula_units_Z 64
_cell_length_a 33.556991
_cell_length_b 8.723568
_cell_length_c 11.741240
_cell_angle_alpha 90.000000
_cell_angle_beta 90.000000
_cell_angle_gamma 90.000000
_cell_volume 3437.091768
_symmetry_space_group_name_H-M "I M M 2"
_symmetry_group_IT_number 44
_symmetry_cell_setting 'orthorhombic'
loop_
_space_group_symop_operation_xyz
x,y,z
-x,-y,z
-x,y,z
x,-y,z
1/2+x,1/2+y,1/2+z
1/2-x,1/2-y,1/2+z
1/2-x,1/2+y,1/2+z
1/2+x,1/2-y,1/2+z
loop_
_atom_site_type_symbol
_atom_site_label
_atom_site_fract_x
_atom_site_fract_y
_atom_site_fract_z
Si Si1 0.318998 0.321863 0.683150
Si Si2 0.123868 0.679787 0.749903
Si Si3 0.454545 0.326720 0.919914
Si Si4 0.385610 0.174226 0.812201
Si Si5 0.955678 0.181661 0.677718
Si Si6 0.185500 0.321433 0.941053
Si Si7 0.735103 0.182183 0.870928
Si Si8 0.332913 0.175427 0.030598
O O1 0.310263 0.500000 0.703980
O O2 0.364017 0.280255 0.719309
O O3 0.314274 0.284415 0.551200
O O4 0.288228 0.220000 0.755059
O O5 0.119240 0.500000 0.728431
O O6 0.079400 0.749460 0.755752
O O7 0.145996 0.715488 0.868039
O O8 0.150471 0.753868 0.646466
O O9 0.500000 0.319891 0.881202
O O10 0.438233 0.500000 0.915518
O O11 0.431147 0.224949 0.827700
O O12 0.449577 0.261398 0.047945
O O13 0.366132 0.197253 0.935162
O O14 0.383062 0.000000 0.769232
O O15 0.000000 0.234382 0.720047
O O16 0.953340 0.000000 0.682403
O O17 0.187272 0.500000 0.973529
O O18 0.223926 0.275196 0.867036
O O19 0.708904 0.240785 0.980401
O O20 0.742198 0.000000 0.875702
O O21 0.324672 0.000000 0.059057
#
# Coordination Sequence:
#
# PCOD8188316 Si02
#       8
#     8   8   8   8   8   8   8   8
#     4  11  23  40  59  78 107 147 190 230 278 332
#     4  10  20  35  55  81 113 147 184 229 278 333
#     4   9  17  29  47  77 115 148 178 217 271 334
#     4  10  18  32  55  79 107 140 181 229 275 327
#     4   9  18  32  51  79 116 150 183 228 276 329
#     4  11  24  39  57  83 113 146 188 235 281 332
#     4  10  21  38  60  84 112 143 183 233 281 334
#     4   8  16  31  51  77 107 139 174 218 270 324
#
# _framework density 18.620393
#
# number of rings (size 3 to 8) (size 9 to 14) (size 15 to 20)
#    0.000    2.250    1.250    3.750    1.750    1.500 
#    0.000    1.875    0.000    0.750    0.000    3.500 
#    0.000    0.000    0.000    0.000    0.000    0.000 
#
# Total GULP energy -396715.192767 kJ/mol
# GULP energy per Si atom -12397.349774 kJ/mol
# Density = 1.857801 g / cm^3
# Si number density = 18.620393 Si / 1000 Ang^3
#
#
#
# Elastic Constant Matrix: (Units=GPa)
#
#
# Indices 1 2 3 4 5 6 
#
# 1 123.0794 26.9223 33.8021 0.0000 0.0000 0.0000
# 2 26.9223 50.7315 17.4159 0.0000 0.0000 0.0000
# 3 33.8021 17.4159 67.3437 0.0000 0.0000 0.0000
# 4 0.0000 0.0000 0.0000 23.9032 0.0000 0.0000
# 5 0.0000 0.0000 0.0000 0.0000 23.5461 0.0000
# 6 0.0000 0.0000 0.0000 0.0000 0.0000 32.7958
#
#
#
# Elastic Compliance Matrix: (Units=1/GPa)
#
#
# Indices 1 2 3 4 5 6 
#
# 1 0.010105 -0.003974 -0.004044 0.000000 0.000000 0.000000
# 2 -0.003974 0.023195 -0.004004 0.000000 0.000000 0.000000
# 3 -0.004044 -0.004004 0.017915 0.000000 0.000000 0.000000
# 4 0.000000 0.000000 0.000000 0.041835 0.000000 0.000000
# 5 0.000000 0.000000 0.000000 0.000000 0.042470 0.000000
# 6 0.000000 0.000000 0.000000 0.000000 0.000000 0.030492
#
#
# Mechanical properties :
#
#
# Convention : Reuss Voigt Hill
#
# Bulk Modulus (GPa) = 36.80493 44.15945 40.48219
# Shear Modulus (GPa) = 25.11147 26.91666 26.01407
#
# Velocity S-wave (km/s) = 3.67631 3.80616 3.74180
# Velocity P-wave (km/s) = 6.15055 6.56376 6.36051
#
# Compressibility (1/GPa) = 0.02717027
#
# Stress axis : x y z
#
# Youngs Moduli (GPa) = 98.96277 43.11260 55.82060
#
# Poissons Ratio (x) = 0.17133 0.22575
# Poissons Ratio (y) = 0.39329 0.22349
# Poissons Ratio (z) = 0.40022 0.17261
#
# Static dielectric constant tensor:
#      x y z
#    x 3.567420 0.000000 0.000000 
#    y 0.000000 3.263520 0.000000 
#    z 0.000000 0.000000 3.205490 
# 
# 
# High freq. dielectric constant tensor:
#      x y z
#    x 1.727820 0.000000 0.000000 
#    y 0.000000 1.712230 0.000000 
#    z 0.000000 0.000000 1.693810 
# 
# From -- ./inp_files/15038.got.cif
#   From: 2010.03.12/outbox.cif.g09.slc.cpg/sg44_8_cif.got.tgz:15038.got - 2010.04.14 02:36:11.
