data_PCOD8188691
_publ_section_title
;
Structure prediction by ZEFSAII (Michael W. Deem and Ramdas Pophale) SiO2 
 PCOD8188691
Probable space group: I M M 2
;
_chemical_formula_sum "Si O2"
_cell_formula_units_Z 64
_cell_length_a 19.423845
_cell_length_b 9.414370
_cell_length_c 20.629734
_cell_angle_alpha 90.000000
_cell_angle_beta 90.000000
_cell_angle_gamma 90.000000
_cell_volume 3772.420488
_symmetry_space_group_name_H-M "I M M 2"
_symmetry_group_IT_number 44
_symmetry_cell_setting 'orthorhombic'
loop_
_space_group_symop_operation_xyz
x,y,z
-x,-y,z
-x,y,z
x,-y,z
1/2+x,1/2+y,1/2+z
1/2-x,1/2-y,1/2+z
1/2-x,1/2+y,1/2+z
1/2+x,1/2-y,1/2+z
loop_
_atom_site_type_symbol
_atom_site_label
_atom_site_fract_x
_atom_site_fract_y
_atom_site_fract_z
Si Si1 0.421634 0.665015 0.891580
Si Si2 0.074163 0.331804 0.643435
Si Si3 0.576768 0.839005 0.763274
Si Si4 0.802236 0.335553 0.443235
Si Si5 0.786281 0.336341 0.196232
Si Si6 0.714949 0.835020 0.087760
Si Si7 0.294786 0.333101 0.325353
Si Si8 0.422195 0.834569 0.291019
O O1 0.500000 0.688841 0.914723
O O2 0.402691 0.500000 0.887910
O O3 0.409582 0.731014 0.821073
O O4 0.371852 0.743420 0.941977
O O5 0.070398 0.500000 0.641621
O O6 0.137251 0.276174 0.599981
O O7 0.085868 0.282311 0.717144
O O8 0.000000 0.271152 0.618479
O O9 0.500000 0.818222 0.734218
O O10 0.632430 0.810102 0.707415
O O11 0.586584 0.000000 0.790113
O O12 0.822946 0.500000 0.435245
O O13 0.766075 0.309288 0.512733
O O14 0.750933 0.286162 0.386712
O O15 0.770048 0.500000 0.181890
O O16 0.768073 0.247312 0.132865
O O17 0.744012 0.285582 0.259609
O O18 0.719410 0.000000 0.106635
O O19 0.308359 0.500000 0.326442
O O20 0.367748 0.254295 0.333080
O O21 0.500000 0.804290 0.315642
O O22 0.404481 0.000000 0.297891
#
# Coordination Sequence:
#
# PCOD8188691 Si02
#       8
#     8   8   8   8   8   8   8   8
#     4  10  20  32  48  74 106 137 170 210 254 298
#     4   8  14  26  44  68  96 122 154 196 235 277
#     4   9  17  32  54  76 100 133 171 209 251 302
#     4  10  21  36  51  72 102 137 175 210 247 302
#     4  10  19  32  51  75 102 131 166 210 254 297
#     4  10  20  33  52  74  98 132 171 207 248 299
#     4  10  19  32  50  74 102 131 167 206 247 297
#     4   9  17  30  50  75 100 125 160 206 249 291
#
# _framework density 16.965235
#
# number of rings (size 3 to 8) (size 9 to 14) (size 15 to 20)
#    0.000    2.500    2.500    1.125    0.000    3.000 
#    0.000    1.250    0.000    1.125    0.000    3.500 
#    0.000    0.000    0.000    0.000    0.000    0.000 
#
# Total GULP energy -396721.362953 kJ/mol
# GULP energy per Si atom -12397.542592 kJ/mol
# Density = 1.692662 g / cm^3
# Si number density = 16.965235 Si / 1000 Ang^3
#
#
#
# Elastic Constant Matrix: (Units=GPa)
#
#
# Indices 1 2 3 4 5 6 
#
# 1 108.5559 46.9033 51.0753 0.0000 0.0000 0.0000
# 2 46.9033 59.8937 40.2956 0.0000 0.0000 0.0000
# 3 51.0753 40.2956 90.1267 0.0000 0.0000 0.0000
# 4 0.0000 0.0000 0.0000 23.0353 0.0000 0.0000
# 5 0.0000 0.0000 0.0000 0.0000 23.1285 0.0000
# 6 0.0000 0.0000 0.0000 0.0000 0.0000 29.1170
#
#
#
# Elastic Compliance Matrix: (Units=1/GPa)
#
#
# Indices 1 2 3 4 5 6 
#
# 1 0.015202 -0.008737 -0.004709 0.000000 0.000000 0.000000
# 2 -0.008737 0.028900 -0.007970 0.000000 0.000000 0.000000
# 3 -0.004709 -0.007970 0.017327 0.000000 0.000000 0.000000
# 4 0.000000 0.000000 0.000000 0.043412 0.000000 0.000000
# 5 0.000000 0.000000 0.000000 0.000000 0.043237 0.000000
# 6 0.000000 0.000000 0.000000 0.000000 0.000000 0.034344
#
#
# Mechanical properties :
#
#
# Convention : Reuss Voigt Hill
#
# Bulk Modulus (GPa) = 53.76850 59.45831 56.61341
# Shear Modulus (GPa) = 21.60255 23.07629 22.33942
#
# Velocity S-wave (km/s) = 3.57226 3.69210 3.63268
# Velocity P-wave (km/s) = 6.98405 7.30060 7.14408
#
# Compressibility (1/GPa) = 0.01859825
#
# Stress axis : x y z
#
# Youngs Moduli (GPa) = 65.77926 34.60163 57.71180
#
# Poissons Ratio (x) = 0.30231 0.27176
# Poissons Ratio (y) = 0.57471 0.45996
# Poissons Ratio (z) = 0.30975 0.27578
#
# Static dielectric constant tensor:
#      x y z
#    x 3.418390 0.000000 0.000000 
#    y 0.000000 3.036800 0.000000 
#    z 0.000000 0.000000 2.933120 
# 
# 
# High freq. dielectric constant tensor:
#      x y z
#    x 1.659090 0.000000 0.000000 
#    y 0.000000 1.640810 0.000000 
#    z 0.000000 0.000000 1.624850 
# 
# From -- ./inp_files/20758.got.cif
#   From: 2010.03.12/outbox.cif.g09.slc.cpg/sg44_11_cif.got.tgz:20758.got - 2010.04.14 02:36:11.
