data_PCOD8188601
_publ_section_title
;
Structure prediction by ZEFSAII (Michael W. Deem and Ramdas Pophale) SiO2 
 PCOD8188601
Probable space group: I M M 2
;
_chemical_formula_sum "Si O2"
_cell_formula_units_Z 48
_cell_length_a 8.964376
_cell_length_b 23.392772
_cell_length_c 13.672459
_cell_angle_alpha 90.000000
_cell_angle_beta 90.000000
_cell_angle_gamma 90.000000
_cell_volume 2867.136581
_symmetry_space_group_name_H-M "I M M 2"
_symmetry_group_IT_number 44
_symmetry_cell_setting 'orthorhombic'
loop_
_space_group_symop_operation_xyz
x,y,z
-x,-y,z
-x,y,z
x,-y,z
1/2+x,1/2+y,1/2+z
1/2-x,1/2-y,1/2+z
1/2-x,1/2+y,1/2+z
1/2+x,1/2-y,1/2+z
loop_
_atom_site_type_symbol
_atom_site_label
_atom_site_fract_x
_atom_site_fract_y
_atom_site_fract_z
Si Si1 0.824656 0.564408 0.223960
Si Si2 0.674487 0.670385 0.548346
Si Si3 0.675760 0.776705 0.228030
Si Si4 0.674320 0.267519 0.930417
Si Si5 0.171797 0.064338 0.922402
Si Si6 0.170103 0.161670 0.618059
O O1 0.768743 0.500000 0.201055
O O2 0.763732 0.585183 0.328455
O O3 0.769767 0.606407 0.138810
O O4 0.000000 0.567189 0.228247
O O5 0.500000 0.682814 0.565152
O O6 0.764338 0.678202 0.648672
O O7 0.734901 0.711994 0.463926
O O8 0.704363 0.605611 0.513655
O O9 0.500000 0.785921 0.241783
O O10 0.762126 0.789084 0.327828
O O11 0.713197 0.712997 0.191299
O O12 0.500000 0.251637 0.922816
O O13 0.699042 0.318812 0.007071
O O14 0.000000 0.067900 0.891366
O O15 0.217261 0.000000 0.953719
O O16 0.000000 0.143886 0.634338
#
# Coordination Sequence:
#
# PCOD8188601 Si02
#       6
#     8   8   8   8   8   8
#     4  10  20  31  46  71  98 123 154 193 235 277
#     4  10  19  31  49  72  97 126 160 195 234 279
#     4  10  20  33  49  71  98 126 158 194 235 282
#     4  10  20  33  49  71  98 125 157 196 237 281
#     4   9  18  32  49  69  95 127 159 191 229 276
#     4   9  19  33  48  68  94 125 158 190 228 279
#
# _framework density 16.741440999999998
#
# number of rings (size 3 to 8) (size 9 to 14) (size 15 to 20)
#    0.000    2.333    0.000    4.000    0.000   10.333 
#    0.000    0.000    0.000    1.000    0.000    2.333 
#    0.000    0.000    0.000    0.000    0.000    0.000 
#
# Total GULP energy -297654.495962 kJ/mol
# GULP energy per Si atom -12402.270665 kJ/mol
# Density = 1.670334 g / cm^3
# Si number density = 16.741441 Si / 1000 Ang^3
#
#
#
# Elastic Constant Matrix: (Units=GPa)
#
#
# Indices 1 2 3 4 5 6 
#
# 1 68.1678 37.7894 36.7289 0.0003 0.0000 0.0000
# 2 37.7894 85.1891 46.6158 0.0002 0.0000 0.0000
# 3 36.7289 46.6158 104.8785 0.0006 -0.0001 -0.0001
# 4 0.0003 0.0002 0.0006 21.1393 0.0000 0.0000
# 5 0.0000 0.0000 -0.0001 0.0000 32.3934 0.0000
# 6 0.0000 0.0000 -0.0001 0.0000 0.0000 26.0640
#
#
#
# Elastic Compliance Matrix: (Units=1/GPa)
#
#
# Indices 1 2 3 4 5 6 
#
# 1 0.020765 -0.006913 -0.004199 0.000000 0.000000 0.000000
# 2 -0.006913 0.017813 -0.005496 0.000000 0.000000 0.000000
# 3 -0.004199 -0.005496 0.013448 0.000000 0.000000 0.000000
# 4 0.000000 0.000000 0.000000 0.047305 0.000000 0.000000
# 5 0.000000 0.000000 0.000000 0.000000 0.030870 0.000000
# 6 0.000000 0.000000 0.000000 0.000000 0.000000 0.038367
#
#
# Mechanical properties :
#
#
# Convention : Reuss Voigt Hill
#
# Bulk Modulus (GPa) = 53.16752 55.61151 54.38951
# Shear Modulus (GPa) = 24.03205 25.05944 24.54575
#
# Velocity S-wave (km/s) = 3.79289 3.87311 3.83321
# Velocity P-wave (km/s) = 7.14201 7.30009 7.22148
#
# Compressibility (1/GPa) = 0.01880848
#
# Stress axis : x y z
#
# Youngs Moduli (GPa) = 48.15887 56.13913 74.35870
#
# Poissons Ratio (x) = 0.38811 0.31224
# Poissons Ratio (y) = 0.33294 0.40870
# Poissons Ratio (z) = 0.20222 0.30856
#
# Static dielectric constant tensor:
#      x y z
#    x 3.225140 0.000000 0.000000 
#    y 0.000000 3.135950 0.000000 
#    z 0.000000 0.000000 3.051900 
# 
# 
# High freq. dielectric constant tensor:
#      x y z
#    x 1.658520 0.000000 0.000000 
#    y 0.000000 1.631910 0.000000 
#    z 0.000000 0.000000 1.635560 
# 
# From -- ./inp_files/11130.got.cif
#   From: 2010.03.12/outbox.cif.g09.slc.cpg/sg44_6_cif.got.tgz:11130.got - 2010.04.14 02:36:11.
