data_PCOD8188942
_publ_section_title
;
Structure prediction by ZEFSAII (Michael W. Deem and Ramdas Pophale) SiO2 
 PCOD8188942
Probable space group: I M M 2
;
_chemical_formula_sum "Si O2"
_cell_formula_units_Z 48
_cell_length_a 9.191772
_cell_length_b 28.003937
_cell_length_c 10.200918
_cell_angle_alpha 90.000000
_cell_angle_beta 90.000000
_cell_angle_gamma 90.000000
_cell_volume 2625.775499
_symmetry_space_group_name_H-M "I M M 2"
_symmetry_group_IT_number 44
_symmetry_cell_setting 'orthorhombic'
loop_
_space_group_symop_operation_xyz
x,y,z
-x,-y,z
-x,y,z
x,-y,z
1/2+x,1/2+y,1/2+z
1/2-x,1/2-y,1/2+z
1/2-x,1/2+y,1/2+z
1/2+x,1/2-y,1/2+z
loop_
_atom_site_type_symbol
_atom_site_label
_atom_site_fract_x
_atom_site_fract_y
_atom_site_fract_z
Si Si1 0.672580 0.948374 0.841040
Si Si2 0.169634 0.554055 0.043125
Si Si3 0.171961 0.648377 0.459067
Si Si4 0.172063 0.855880 0.467273
Si Si5 0.832369 0.691606 0.731999
Si Si6 0.667189 0.302153 0.229388
O O1 0.500000 0.949636 0.841536
O O2 0.724917 0.940284 0.692305
O O3 0.730400 0.905455 0.931822
O O4 0.731582 0.000000 0.892110
O O5 0.199048 0.500000 0.993644
O O6 0.000000 0.566593 0.030369
O O7 0.260477 0.591071 0.955129
O O8 0.218854 0.661767 0.605369
O O9 0.240465 0.684887 0.356505
O O10 0.000000 0.652070 0.440845
O O11 0.231731 0.822905 0.352015
O O12 0.221257 0.832159 0.604140
O O13 0.000000 0.858934 0.454207
O O14 0.808999 0.746789 0.697528
O O15 0.000000 0.680728 0.767061
O O16 0.500000 0.313680 0.260030
#
# Coordination Sequence:
#
# PCOD8188942 Si02
#       6
#     8   8   8   8   8   8
#     4   8  14  27  51  81 105 128 167 218 264 307
#     4   9  17  32  56  83 108 138 180 224 265 315
#     4  10  19  34  57  80 104 137 178 224 270 316
#     4  11  22  36  55  81 112 144 179 221 272 324
#     4  10  22  37  52  75 109 144 179 221 269 322
#     4  10  21  36  53  76 106 140 181 225 268 320
#
# _framework density 18.280314000000001
#
# number of rings (size 3 to 8) (size 9 to 14) (size 15 to 20)
#    0.000    2.333    1.667    2.500    0.000    3.667 
#    0.000    0.833    0.000    3.500    0.000    0.000 
#    0.000    0.000    0.000    0.000    0.000    0.000 
#
# Total GULP energy -297595.731728 kJ/mol
# GULP energy per Si atom -12399.822155 kJ/mol
# Density = 1.823871 g / cm^3
# Si number density = 18.280314 Si / 1000 Ang^3
#
#
#
# Elastic Constant Matrix: (Units=GPa)
#
#
# Indices 1 2 3 4 5 6 
#
# 1 52.9169 32.8636 36.9870 -0.0006 0.0000 0.0002
# 2 32.8636 106.0020 31.8548 0.0005 -0.0014 -0.0005
# 3 36.9870 31.8548 76.9304 0.0028 0.0022 0.0003
# 4 -0.0006 0.0005 0.0028 22.5325 -0.0004 -0.0003
# 5 0.0000 -0.0014 0.0022 -0.0004 25.1754 -0.0001
# 6 0.0002 -0.0005 0.0003 -0.0003 -0.0001 27.0669
#
#
#
# Elastic Compliance Matrix: (Units=1/GPa)
#
#
# Indices 1 2 3 4 5 6 
#
# 1 0.031431 -0.005943 -0.012651 0.000003 0.000001 0.000000
# 2 -0.005943 0.011898 -0.002070 0.000000 0.000001 0.000000
# 3 -0.012651 -0.002070 0.019938 -0.000003 -0.000002 0.000000
# 4 0.000003 0.000000 -0.000003 0.044380 0.000001 0.000001
# 5 0.000001 0.000001 -0.000002 0.000001 0.039721 0.000000
# 6 0.000000 0.000000 0.000000 0.000001 0.000000 0.036946
#
#
# Mechanical properties :
#
#
# Convention : Reuss Voigt Hill
#
# Bulk Modulus (GPa) = 45.57701 48.80667 47.19184
# Shear Modulus (GPa) = 21.46356 23.89789 22.68073
#
# Velocity S-wave (km/s) = 3.43028 3.61959 3.52620
# Velocity P-wave (km/s) = 6.37774 6.65023 6.51541
#
# Compressibility (1/GPa) = 0.02194089
#
# Stress axis : x y z
#
# Youngs Moduli (GPa) = 31.81619 84.04702 50.15569
#
# Poissons Ratio (x) = 0.49947 0.63450
# Poissons Ratio (y) = 0.18907 0.10380
# Poissons Ratio (z) = 0.40249 0.17394
#
# Static dielectric constant tensor:
#      x y z
#    x 3.116810 0.000000 0.000000 
#    y 0.000000 3.757050 0.000000 
#    z 0.000000 0.000000 3.214690 
# 
# 
# High freq. dielectric constant tensor:
#      x y z
#    x 1.685640 0.000000 0.000000 
#    y 0.000000 1.726800 0.000000 
#    z 0.000000 0.000000 1.690700 
# 
# From -- ./inp_files/4882.got.cif
#   From: 2010.03.12/outbox.cif.g09.slc.cpg/sg44_3_cif.got.tgz:4882.got - 2010.04.14 02:36:11.
