data_PCOD8188944
_publ_section_title
;
Structure prediction by ZEFSAII (Michael W. Deem and Ramdas Pophale) SiO2 
 PCOD8188944
Probable space group: I M M 2
;
_chemical_formula_sum "Si O2"
_cell_formula_units_Z 48
_cell_length_a 28.205030
_cell_length_b 9.209134
_cell_length_c 10.149158
_cell_angle_alpha 90.000000
_cell_angle_beta 90.000000
_cell_angle_gamma 90.000000
_cell_volume 2636.181888
_symmetry_space_group_name_H-M "I M M 2"
_symmetry_group_IT_number 44
_symmetry_cell_setting 'orthorhombic'
loop_
_space_group_symop_operation_xyz
x,y,z
-x,-y,z
-x,y,z
x,-y,z
1/2+x,1/2+y,1/2+z
1/2-x,1/2-y,1/2+z
1/2-x,1/2+y,1/2+z
1/2+x,1/2-y,1/2+z
loop_
_atom_site_type_symbol
_atom_site_label
_atom_site_fract_x
_atom_site_fract_y
_atom_site_fract_z
Si Si1 0.448470 0.172434 0.146710
Si Si2 0.193121 0.169654 0.013565
Si Si3 0.354252 0.830394 0.277055
Si Si4 0.356875 0.671096 0.782926
Si Si5 0.053554 0.330476 0.346918
Si Si6 0.698374 0.830633 0.010754
O O1 0.500000 0.226680 0.199230
O O2 0.406345 0.231546 0.238551
O O3 0.447066 0.000000 0.144654
O O4 0.441078 0.224614 0.997072
O O5 0.175076 0.212494 0.158022
O O6 0.187925 0.000000 0.988333
O O7 0.161412 0.250117 0.907515
O O8 0.247368 0.219672 0.999448
O O9 0.356358 0.000000 0.308652
O O10 0.317920 0.797750 0.159222
O O11 0.361288 0.500000 0.801929
O O12 0.409225 0.738508 0.760774
O O13 0.332922 0.738208 0.911560
O O14 0.065950 0.500000 0.334392
O O15 0.000000 0.300916 0.296258
O O16 0.691476 0.000000 0.977269
#
# Coordination Sequence:
#
# PCOD8188944 Si02
#       6
#     8   8   8   8   8   8
#     4   8  14  28  53  81 104 129 167 217 265 307
#     4  10  23  38  51  74 112 149 178 217 270 325
#     4  10  19  34  57  81 105 136 177 224 270 317
#     4  11  22  36  55  81 113 145 178 220 273 325
#     4   9  17  33  58  83 107 139 180 223 266 315
#     4  10  20  37  58  78 103 139 186 230 266 313
#
# _framework density 18.208151999999998
#
# number of rings (size 3 to 8) (size 9 to 14) (size 15 to 20)
#    0.000    2.333    1.667    2.500    0.000    4.333 
#    0.000    0.833    0.000    3.500    0.000    0.000 
#    0.000    0.000    0.000    0.000    0.000    0.000 
#
# Total GULP energy -297582.874264 kJ/mol
# GULP energy per Si atom -12399.286428 kJ/mol
# Density = 1.816671 g / cm^3
# Si number density = 18.208152 Si / 1000 Ang^3
#
#
#
# Elastic Constant Matrix: (Units=GPa)
#
#
# Indices 1 2 3 4 5 6 
#
# 1 132.8586 38.1976 25.7905 0.0000 0.0000 0.0000
# 2 38.1976 45.8704 31.0568 0.0000 0.0000 0.0000
# 3 25.7905 31.0568 51.6372 0.0000 0.0000 0.0000
# 4 0.0000 0.0000 0.0000 31.2337 0.0000 0.0000
# 5 0.0000 0.0000 0.0000 0.0000 18.1648 0.0000
# 6 0.0000 0.0000 0.0000 0.0000 0.0000 27.5023
#
#
#
# Elastic Compliance Matrix: (Units=1/GPa)
#
#
# Indices 1 2 3 4 5 6 
#
# 1 0.009896 -0.008256 0.000023 0.000000 0.000000 0.000000
# 2 -0.008256 0.043664 -0.022138 0.000000 0.000000 0.000000
# 3 0.000023 -0.022138 0.032669 0.000000 0.000000 0.000000
# 4 0.000000 0.000000 0.000000 0.032017 0.000000 0.000000
# 5 0.000000 0.000000 0.000000 0.000000 0.055051 0.000000
# 6 0.000000 0.000000 0.000000 0.000000 0.000000 0.036361
#
#
# Mechanical properties :
#
#
# Convention : Reuss Voigt Hill
#
# Bulk Modulus (GPa) = 39.23551 46.71731 42.97641
# Shear Modulus (GPa) = 17.92780 24.40159 21.16470
#
# Velocity S-wave (km/s) = 3.14124 3.66477 3.41306
# Velocity P-wave (km/s) = 5.89505 6.60458 6.25988
#
# Compressibility (1/GPa) = 0.02548712
#
# Stress axis : x y z
#
# Youngs Moduli (GPa) = 101.05025 22.90193 30.61002
#
# Poissons Ratio (x) = 0.18909 -0.00071
# Poissons Ratio (y) = 0.83431 0.67764
# Poissons Ratio (z) = -0.00233 0.50700
#
# Static dielectric constant tensor:
#      x y z
#    x 3.870450 0.000000 0.000000 
#    y 0.000000 3.122690 0.000000 
#    z 0.000000 0.000000 3.158660 
# 
# 
# High freq. dielectric constant tensor:
#      x y z
#    x 1.728350 0.000000 0.000000 
#    y 0.000000 1.681580 0.000000 
#    z 0.000000 0.000000 1.687580 
# 
# From -- ./inp_files/4862.got.cif
#   From: 2010.03.12/outbox.cif.g09.slc.cpg/sg44_3_cif.got.tgz:4862.got - 2010.04.14 02:36:11.
