data_PCOD8188947
_publ_section_title
;
Structure prediction by ZEFSAII (Michael W. Deem and Ramdas Pophale) SiO2 
 PCOD8188947
Probable space group: I M M 2
;
_chemical_formula_sum "Si O2"
_cell_formula_units_Z 64
_cell_length_a 8.821393
_cell_length_b 19.465605
_cell_length_c 20.721775
_cell_angle_alpha 90.000000
_cell_angle_beta 90.000000
_cell_angle_gamma 90.000000
_cell_volume 3558.213727
_symmetry_space_group_name_H-M "I M M 2"
_symmetry_group_IT_number 44
_symmetry_cell_setting 'orthorhombic'
loop_
_space_group_symop_operation_xyz
x,y,z
-x,-y,z
-x,y,z
x,-y,z
1/2+x,1/2+y,1/2+z
1/2-x,1/2-y,1/2+z
1/2-x,1/2+y,1/2+z
1/2+x,1/2-y,1/2+z
loop_
_atom_site_type_symbol
_atom_site_label
_atom_site_fract_x
_atom_site_fract_y
_atom_site_fract_z
Si Si1 0.676158 0.077739 0.398800
Si Si2 0.675151 0.284215 0.706110
Si Si3 0.678358 0.710292 0.326059
Si Si4 0.821923 0.209155 0.444511
Si Si5 0.178840 0.713001 0.075722
Si Si6 0.179936 0.574739 0.138035
Si Si7 0.827581 0.924088 0.264993
Si Si8 0.322743 0.922332 0.784461
O O1 0.500000 0.093867 0.409050
O O2 0.772268 0.129352 0.442634
O O3 0.715048 0.089389 0.323983
O O4 0.715672 0.000000 0.419910
O O5 0.500000 0.264259 0.717810
O O6 0.771642 0.244194 0.758992
O O7 0.725295 0.262673 0.634557
O O8 0.702567 0.366286 0.711104
O O9 0.500000 0.714698 0.332765
O O10 0.749646 0.750226 0.385664
O O11 0.731266 0.630983 0.328924
O O12 0.764702 0.240056 0.512398
O O13 0.000000 0.216111 0.439349
O O14 0.237569 0.635820 0.092222
O O15 0.000000 0.714412 0.062833
O O16 0.238717 0.500000 0.113069
O O17 0.235538 0.587112 0.211097
O O18 0.000000 0.574599 0.139345
O O19 0.000000 0.918177 0.291195
O O20 0.799018 0.000000 0.234907
O O21 0.500000 0.905581 0.789876
O O22 0.289273 0.000000 0.808195
#
# Coordination Sequence:
#
# PCOD8188947 Si02
#       8
#     8   8   8   8   8   8   8   8
#     4  10  20  34  53  79 110 144 182 223 272 330
#     4  10  19  34  57  82 110 145 182 225 276 334
#     4  12  23  35  56  83 112 144 184 232 279 324
#     4  12  25  39  54  75 109 149 192 234 279 327
#     4  10  20  35  54  77 108 145 186 225 273 329
#     4   8  14  27  50  78 107 141 178 212 253 318
#     4   9  17  30  52  82 112 143 179 220 267 323
#     4   9  17  33  58  85 112 144 181 220 270 329
#
# _framework density 17.986553000000001
#
# number of rings (size 3 to 8) (size 9 to 14) (size 15 to 20)
#    0.000    2.000    2.500    3.375    0.000    2.000 
#    0.000    1.250    0.000    0.750    0.000    1.750 
#    0.000    0.000    0.000    0.000    0.000    0.000 
#
# Total GULP energy -396752.072984 kJ/mol
# GULP energy per Si atom -12398.502281 kJ/mol
# Density = 1.794561 g / cm^3
# Si number density = 17.986553 Si / 1000 Ang^3
#
#
#
# Elastic Constant Matrix: (Units=GPa)
#
#
# Indices 1 2 3 4 5 6 
#
# 1 93.3870 42.6329 49.2379 0.0000 0.0000 0.0000
# 2 42.6329 105.1686 52.7799 0.0000 0.0000 0.0000
# 3 49.2379 52.7799 101.4305 0.0000 0.0000 0.0000
# 4 0.0000 0.0000 0.0000 21.6351 0.0000 0.0000
# 5 0.0000 0.0000 0.0000 0.0000 24.9896 0.0000
# 6 0.0000 0.0000 0.0000 0.0000 0.0000 21.6211
#
#
#
# Elastic Compliance Matrix: (Units=1/GPa)
#
#
# Indices 1 2 3 4 5 6 
#
# 1 0.015207 -0.003329 -0.005649 0.000000 0.000000 0.000000
# 2 -0.003329 0.013598 -0.005460 0.000000 0.000000 0.000000
# 3 -0.005649 -0.005460 0.015442 0.000000 0.000000 0.000000
# 4 0.000000 0.000000 0.000000 0.046221 0.000000 0.000000
# 5 0.000000 0.000000 0.000000 0.000000 0.040017 0.000000
# 6 0.000000 0.000000 0.000000 0.000000 0.000000 0.046251
#
#
# Mechanical properties :
#
#
# Convention : Reuss Voigt Hill
#
# Bulk Modulus (GPa) = 65.06017 65.47636 65.26827
# Shear Modulus (GPa) = 23.72633 24.00486 23.86560
#
# Velocity S-wave (km/s) = 3.63590 3.65718 3.64656
# Velocity P-wave (km/s) = 7.34006 7.36989 7.35499
#
# Compressibility (1/GPa) = 0.01537039
#
# Stress axis : x y z
#
# Youngs Moduli (GPa) = 65.76087 73.53946 64.75666
#
# Poissons Ratio (x) = 0.24482 0.36584
# Poissons Ratio (y) = 0.21893 0.35356
# Poissons Ratio (z) = 0.37151 0.40151
#
# Static dielectric constant tensor:
#      x y z
#    x 3.170350 0.000000 0.000000 
#    y 0.000000 3.699410 0.000000 
#    z 0.000000 0.000000 3.148240 
# 
# 
# High freq. dielectric constant tensor:
#      x y z
#    x 1.681150 0.000000 0.000000 
#    y 0.000000 1.704770 0.000000 
#    z 0.000000 0.000000 1.669770 
# 
# From -- ./inp_files/20803.got.cif
#   From: 2010.03.12/outbox.cif.g09.slc.cpg/sg44_11_cif.got.tgz:20803.got - 2010.04.14 02:36:11.
