data_PCOD8188840
_publ_section_title
;
Structure prediction by ZEFSAII (Michael W. Deem and Ramdas Pophale) SiO2 
 PCOD8188840
Probable space group: I M M 2
;
_chemical_formula_sum "Si O2"
_cell_formula_units_Z 56
_cell_length_a 9.187001
_cell_length_b 18.421702
_cell_length_c 17.325529
_cell_angle_alpha 90.000000
_cell_angle_beta 90.000000
_cell_angle_gamma 90.000000
_cell_volume 2932.175901
_symmetry_space_group_name_H-M "I M M 2"
_symmetry_group_IT_number 44
_symmetry_cell_setting 'orthorhombic'
loop_
_space_group_symop_operation_xyz
x,y,z
-x,-y,z
-x,y,z
x,-y,z
1/2+x,1/2+y,1/2+z
1/2-x,1/2-y,1/2+z
1/2-x,1/2+y,1/2+z
1/2+x,1/2-y,1/2+z
loop_
_atom_site_type_symbol
_atom_site_label
_atom_site_fract_x
_atom_site_fract_y
_atom_site_fract_z
Si Si1 0.665073 0.917043 0.307410
Si Si2 0.672736 0.807512 0.731990
Si Si3 0.327625 0.348095 0.671934
Si Si4 0.666919 0.082687 0.032982
Si Si5 0.167260 0.306652 0.405486
Si Si6 0.671918 0.170206 0.457371
Si Si7 0.826524 0.418116 0.105601
O O1 0.500000 0.896658 0.284056
O O2 0.769778 0.904149 0.235416
O O3 0.718982 0.870029 0.379358
O O4 0.675322 0.000000 0.333410
O O5 0.500000 0.809785 0.733795
O O6 0.726395 0.732656 0.693405
O O7 0.734013 0.813590 0.819219
O O8 0.731130 0.874787 0.680910
O O9 0.500000 0.353159 0.668501
O O10 0.264675 0.369717 0.589548
O O11 0.500000 0.086017 0.061339
O O12 0.722928 0.000000 0.030534
O O13 0.682008 0.115611 0.947139
O O14 0.253838 0.248604 0.456893
O O15 0.000000 0.281225 0.400919
O O16 0.500000 0.181039 0.463811
O O17 0.730268 0.123484 0.529540
O O18 0.763331 0.500000 0.107435
O O19 0.000000 0.420597 0.104402
#
# Coordination Sequence:
#
# PCOD8188840 Si02
#       7
#     8   8   8   8   8   8   8
#     4  10  20  33  51  77 110 145 179 217 263 318
#     4   9  18  32  51  77 107 136 173 219 263 313
#     4  11  21  35  55  79 109 140 176 222 273 324
#     4  10  22  38  55  77 107 143 183 225 268 316
#     4  10  20  36  56  78 107 143 180 218 264 317
#     4  10  19  33  54  80 109 139 176 218 264 316
#     4   9  17  30  51  79 107 135 171 219 268 309
#
# _framework density 19.098445000000002
#
# number of rings (size 3 to 8) (size 9 to 14) (size 15 to 20)
#    0.000    2.143    1.429    2.143    0.000    6.286 
#    0.000    2.857    0.000    1.286    0.000    0.000 
#    0.000    0.000    0.000    0.000    0.000    0.000 
#
# Total GULP energy -347245.437165 kJ/mol
# GULP energy per Si atom -12401.622756 kJ/mol
# Density = 1.905498 g / cm^3
# Si number density = 19.098445 Si / 1000 Ang^3
#
#
#
# Elastic Constant Matrix: (Units=GPa)
#
#
# Indices 1 2 3 4 5 6 
#
# 1 36.7398 24.7921 31.4607 0.0000 0.0000 0.0000
# 2 24.7921 118.1819 70.5500 0.0000 0.0000 0.0000
# 3 31.4607 70.5500 128.5965 0.0000 0.0000 0.0000
# 4 0.0000 0.0000 0.0000 34.4635 0.0000 0.0000
# 5 0.0000 0.0000 0.0000 0.0000 20.8482 0.0000
# 6 0.0000 0.0000 0.0000 0.0000 0.0000 23.8895
#
#
#
# Elastic Compliance Matrix: (Units=1/GPa)
#
#
# Indices 1 2 3 4 5 6 
#
# 1 0.035299 -0.003345 -0.006801 0.000000 0.000000 0.000000
# 2 -0.003345 0.012899 -0.006258 0.000000 0.000000 0.000000
# 3 -0.006801 -0.006258 0.012873 0.000000 0.000000 0.000000
# 4 0.000000 0.000000 0.000000 0.029016 0.000000 0.000000
# 5 0.000000 0.000000 0.000000 0.000000 0.047966 0.000000
# 6 0.000000 0.000000 0.000000 0.000000 0.000000 0.041859
#
#
# Mechanical properties :
#
#
# Convention : Reuss Voigt Hill
#
# Bulk Modulus (GPa) = 35.38128 59.68041 47.53084
# Shear Modulus (GPa) = 22.50802 26.28793 24.39798
#
# Velocity S-wave (km/s) = 3.43669 3.71407 3.57807
# Velocity P-wave (km/s) = 5.85779 7.05047 6.48162
#
# Compressibility (1/GPa) = 0.02826354
#
# Stress axis : x y z
#
# Youngs Moduli (GPa) = 28.32914 77.52362 77.67966
#
# Poissons Ratio (x) = 0.25935 0.52826
# Poissons Ratio (y) = 0.09477 0.48614
# Poissons Ratio (z) = 0.19265 0.48517
#
# Static dielectric constant tensor:
#      x y z
#    x 3.143950 0.000000 0.000000 
#    y 0.000000 3.601390 0.000000 
#    z 0.000000 0.000000 3.643400 
# 
# 
# High freq. dielectric constant tensor:
#      x y z
#    x 1.702150 0.000000 0.000000 
#    y 0.000000 1.750240 0.000000 
#    z 0.000000 0.000000 1.753760 
# 
# From -- ./inp_files/16479.got.cif
#   From: 2010.03.12/outbox.cif.g09.slc.cpg/sg44_9_cif.got.tgz:16479.got - 2010.04.14 02:36:11.
