data_PCOD8188246
_publ_section_title
;
Structure prediction by ZEFSAII (Michael W. Deem and Ramdas Pophale) SiO2 
 PCOD8188246
Probable space group: I M M 2
;
_chemical_formula_sum "Si O2"
_cell_formula_units_Z 64
_cell_length_a 8.837597
_cell_length_b 23.253744
_cell_length_c 19.091982
_cell_angle_alpha 90.000000
_cell_angle_beta 90.000000
_cell_angle_gamma 90.000000
_cell_volume 3923.540111
_symmetry_space_group_name_H-M "I M M 2"
_symmetry_group_IT_number 44
_symmetry_cell_setting 'orthorhombic'
loop_
_space_group_symop_operation_xyz
x,y,z
-x,-y,z
-x,y,z
x,-y,z
1/2+x,1/2+y,1/2+z
1/2-x,1/2-y,1/2+z
1/2-x,1/2+y,1/2+z
1/2+x,1/2-y,1/2+z
loop_
_atom_site_type_symbol
_atom_site_label
_atom_site_fract_x
_atom_site_fract_y
_atom_site_fract_z
Si Si1 0.178210 0.267766 0.397280
Si Si2 0.822343 0.566352 0.893027
Si Si3 0.178966 0.158806 0.483896
Si Si4 0.320272 0.836736 0.025545
Si Si5 0.325256 0.738149 0.747595
Si Si6 0.174355 0.066275 0.109623
Si Si7 0.321476 0.116072 0.245033
Si Si8 0.324973 0.771175 0.596782
O O1 0.237143 0.207789 0.429966
O O2 0.232657 0.321155 0.445766
O O3 0.233368 0.272596 0.316754
O O4 0.000000 0.266583 0.400798
O O5 0.777508 0.500000 0.897375
O O6 0.737769 0.597767 0.956724
O O7 0.764391 0.591220 0.819066
O O8 0.000000 0.576188 0.901569
O O9 0.251306 0.173385 0.559540
O O10 0.000000 0.157330 0.492101
O O11 0.500000 0.839954 0.032792
O O12 0.250321 0.897476 0.047208
O O13 0.261492 0.787159 0.076957
O O14 0.500000 0.719263 0.757296
O O15 0.226331 0.681707 0.737009
O O16 0.306689 0.779504 0.680547
O O17 0.249779 0.077871 0.184210
O O18 0.000000 0.084031 0.115058
O O19 0.195873 0.000000 0.089471
O O20 0.500000 0.110774 0.237900
O O21 0.500000 0.765493 0.575286
#
# Coordination Sequence:
#
# PCOD8188246 Si02
#       8
#     8   8   8   8   8   8   8   8
#     4   8  16  30  48  70  96 124 156 197 243 288
#     4  10  21  35  49  69  99 132 167 206 248 293
#     4  10  19  32  50  70  96 129 166 206 243 285
#     4  10  19  32  50  72  97 126 162 205 247 289
#     4  10  18  31  50  72  99 131 163 195 239 294
#     4  11  23  36  49  67  95 134 174 206 241 289
#     4  11  21  32  48  71 100 131 166 204 242 285
#     4  10  19  30  49  72  99 130 161 199 245 294
#
# _framework density 16.311799000000001
#
# number of rings (size 3 to 8) (size 9 to 14) (size 15 to 20)
#    0.000    2.000    2.500    3.000    0.000    2.750 
#    0.000    0.625    0.000    0.000    0.000    0.875 
#    0.000    3.000    0.000    0.000    0.000    0.000 
#
# Total GULP energy -396758.226340 kJ/mol
# GULP energy per Si atom -12398.694573 kJ/mol
# Density = 1.627467 g / cm^3
# Si number density = 16.311799 Si / 1000 Ang^3
#
#
#
# Elastic Constant Matrix: (Units=GPa)
#
#
# Indices 1 2 3 4 5 6 
#
# 1 71.5867 36.6750 39.0394 0.0000 0.0000 0.0000
# 2 36.6750 80.6621 54.9786 0.0000 0.0000 0.0000
# 3 39.0394 54.9786 118.9953 0.0000 0.0000 0.0000
# 4 0.0000 0.0000 0.0000 27.2437 0.0000 0.0000
# 5 0.0000 0.0000 0.0000 0.0000 20.4977 0.0000
# 6 0.0000 0.0000 0.0000 0.0000 0.0000 24.6027
#
#
#
# Elastic Compliance Matrix: (Units=1/GPa)
#
#
# Indices 1 2 3 4 5 6 
#
# 1 0.019050 -0.006425 -0.003281 0.000000 0.000000 0.000000
# 2 -0.006425 0.020263 -0.007254 0.000000 0.000000 0.000000
# 3 -0.003281 -0.007254 0.012832 0.000000 0.000000 0.000000
# 4 0.000000 0.000000 0.000000 0.036706 0.000000 0.000000
# 5 0.000000 0.000000 0.000000 0.000000 0.048786 0.000000
# 6 0.000000 0.000000 0.000000 0.000000 0.000000 0.040646
#
#
# Mechanical properties :
#
#
# Convention : Reuss Voigt Hill
#
# Bulk Modulus (GPa) = 54.87282 59.18113 57.02697
# Shear Modulus (GPa) = 22.90652 23.83889 23.37271
#
# Velocity S-wave (km/s) = 3.75145 3.82704 3.78944
# Velocity P-wave (km/s) = 7.24414 7.47584 7.36090
#
# Compressibility (1/GPa) = 0.01822396
#
# Stress axis : x y z
#
# Youngs Moduli (GPa) = 52.49282 49.35093 77.93152
#
# Poissons Ratio (x) = 0.31708 0.25572
# Poissons Ratio (y) = 0.33727 0.56532
# Poissons Ratio (z) = 0.17225 0.35800
#
# Static dielectric constant tensor:
#      x y z
#    x 3.093070 0.000000 0.000000 
#    y 0.000000 2.915480 0.000000 
#    z 0.000000 0.000000 3.418660 
# 
# 
# High freq. dielectric constant tensor:
#      x y z
#    x 1.632290 0.000000 0.000000 
#    y 0.000000 1.597150 0.000000 
#    z 0.000000 0.000000 1.627190 
# 
# From -- ./inp_files/23430.got.cif
#   From: 2010.03.12/outbox.cif.g09.slc.cpg/sg44_12_cif.got.tgz:23430.got - 2010.04.14 02:36:11.
