data_PCOD8188241
_publ_section_title
;
Structure prediction by ZEFSAII (Michael W. Deem and Ramdas Pophale) SiO2 
 PCOD8188241
Probable space group: I M M 2
;
_chemical_formula_sum "Si O2"
_cell_formula_units_Z 64
_cell_length_a 23.390169
_cell_length_b 8.559216
_cell_length_c 19.056509
_cell_angle_alpha 90.000000
_cell_angle_beta 90.000000
_cell_angle_gamma 90.000000
_cell_volume 3815.141853
_symmetry_space_group_name_H-M "I M M 2"
_symmetry_group_IT_number 44
_symmetry_cell_setting 'orthorhombic'
loop_
_space_group_symop_operation_xyz
x,y,z
-x,-y,z
-x,y,z
x,-y,z
1/2+x,1/2+y,1/2+z
1/2-x,1/2-y,1/2+z
1/2-x,1/2+y,1/2+z
1/2+x,1/2-y,1/2+z
loop_
_atom_site_type_symbol
_atom_site_label
_atom_site_fract_x
_atom_site_fract_y
_atom_site_fract_z
Si Si1 0.234835 0.818202 0.474710
Si Si2 0.745803 0.181114 0.318291
Si Si3 0.167121 0.318320 0.591652
Si Si4 0.065203 0.681083 0.688291
Si Si5 0.621162 0.317053 0.321581
Si Si6 0.936644 0.185614 0.963971
Si Si7 0.731000 0.180974 0.677699
Si Si8 0.336537 0.682821 0.560253
O O1 0.226205 0.775047 0.393206
O O2 0.177999 0.776487 0.519317
O O3 0.286971 0.716189 0.504004
O O4 0.249956 0.000000 0.483773
O O5 0.679241 0.221426 0.315818
O O6 0.779799 0.277408 0.258902
O O7 0.753401 0.000000 0.301686
O O8 0.171484 0.500000 0.574009
O O9 0.104982 0.273335 0.622047
O O10 0.214573 0.276979 0.649842
O O11 0.074484 0.500000 0.708216
O O12 0.081250 0.785804 0.754876
O O13 0.000000 0.715987 0.666576
O O14 0.635621 0.500000 0.326424
O O15 0.588005 0.254798 0.390007
O O16 0.000000 0.255731 0.975423
O O17 0.938704 0.000000 0.962079
O O18 0.896416 0.242261 0.027803
O O19 0.674860 0.225564 0.632724
O O20 0.744792 0.000000 0.668754
O O21 0.338011 0.500000 0.576403
#
# Coordination Sequence:
#
# PCOD8188241 Si02
#       8
#     8   8   8   8   8   8   8   8
#     4  10  20  32  49  70  97 125 158 202 244 290
#     4  11  21  33  49  71  99 131 163 199 247 297
#     4  10  19  32  50  70  96 128 162 200 241 288
#     4  10  21  35  49  68  98 136 171 202 238 284
#     4  11  20  31  48  71  99 132 170 206 237 278
#     4   9  18  31  47  70  99 131 168 204 237 279
#     4  11  21  32  49  71  97 125 160 204 246 292
#     4  10  18  31  50  70  96 129 163 199 242 288
#
# _framework density 16.775259999999999
#
# number of rings (size 3 to 8) (size 9 to 14) (size 15 to 20)
#    0.000    1.750    2.500    4.875    0.000    2.750 
#    0.000    0.000    0.000    3.750    0.000    0.875 
#    0.000    1.000    0.000    0.000    0.000    0.000 
#
# Total GULP energy -396826.906763 kJ/mol
# GULP energy per Si atom -12400.840836 kJ/mol
# Density = 1.673708 g / cm^3
# Si number density = 16.775260 Si / 1000 Ang^3
#
#
#
# Elastic Constant Matrix: (Units=GPa)
#
#
# Indices 1 2 3 4 5 6 
#
# 1 89.1926 13.0927 61.6899 0.0000 0.0000 0.0000
# 2 13.0927 33.2964 23.8689 0.0000 0.0000 0.0000
# 3 61.6899 23.8689 131.0062 0.0000 0.0000 0.0000
# 4 0.0000 0.0000 0.0000 27.1464 0.0000 0.0000
# 5 0.0000 0.0000 0.0000 0.0000 24.8460 0.0000
# 6 0.0000 0.0000 0.0000 0.0000 0.0000 15.6533
#
#
#
# Elastic Compliance Matrix: (Units=1/GPa)
#
#
# Indices 1 2 3 4 5 6 
#
# 1 0.016660 -0.001066 -0.007651 0.000000 0.000000 0.000000
# 2 -0.001066 0.034613 -0.005804 0.000000 0.000000 0.000000
# 3 -0.007651 -0.005804 0.012293 0.000000 0.000000 0.000000
# 4 0.000000 0.000000 0.000000 0.036837 0.000000 0.000000
# 5 0.000000 0.000000 0.000000 0.000000 0.040248 0.000000
# 6 0.000000 0.000000 0.000000 0.000000 0.000000 0.063884
#
#
# Mechanical properties :
#
#
# Convention : Reuss Voigt Hill
#
# Bulk Modulus (GPa) = 28.96546 50.08868 39.52707
# Shear Modulus (GPa) = 20.40093 23.85207 22.12650
#
# Velocity S-wave (km/s) = 3.49109 3.77485 3.63574
# Velocity P-wave (km/s) = 5.79263 6.99448 6.42173
#
# Compressibility (1/GPa) = 0.03452388
#
# Stress axis : x y z
#
# Youngs Moduli (GPa) = 60.02466 28.89050 81.34448
#
# Poissons Ratio (x) = 0.03081 0.62234
# Poissons Ratio (y) = 0.06401 0.47215
# Poissons Ratio (z) = 0.45923 0.16769
#
# Static dielectric constant tensor:
#      x y z
#    x 3.137200 0.000000 0.000000 
#    y 0.000000 3.108580 0.000000 
#    z 0.000000 0.000000 3.361430 
# 
# 
# High freq. dielectric constant tensor:
#      x y z
#    x 1.615590 0.000000 0.000000 
#    y 0.000000 1.649990 0.000000 
#    z 0.000000 0.000000 1.644530 
# 
# From -- ./inp_files/24507.got.cif
#   From: 2010.03.12/outbox.cif.g09.slc.cpg/sg44_13_cif.got.tgz:24507.got - 2010.04.14 02:36:11.
