data_PCOD8188322
_publ_section_title
;
Structure prediction by ZEFSAII (Michael W. Deem and Ramdas Pophale) SiO2 
 PCOD8188322
Probable space group: I M M 2
;
_chemical_formula_sum "Si O2"
_cell_formula_units_Z 52
_cell_length_a 13.162340
_cell_length_b 12.126296
_cell_length_c 18.780661
_cell_angle_alpha 90.000000
_cell_angle_beta 90.000000
_cell_angle_gamma 90.000000
_cell_volume 2997.589395
_symmetry_space_group_name_H-M "I M M 2"
_symmetry_group_IT_number 44
_symmetry_cell_setting 'orthorhombic'
loop_
_space_group_symop_operation_xyz
x,y,z
-x,-y,z
-x,y,z
x,-y,z
1/2+x,1/2+y,1/2+z
1/2-x,1/2-y,1/2+z
1/2-x,1/2+y,1/2+z
1/2+x,1/2-y,1/2+z
loop_
_atom_site_type_symbol
_atom_site_label
_atom_site_fract_x
_atom_site_fract_y
_atom_site_fract_z
Si Si1 0.113815 0.776300 0.236140
Si Si2 0.690435 0.223829 0.321790
Si Si3 0.886753 0.874151 0.700325
Si Si4 0.612207 0.500000 0.529384
Si Si5 0.382999 0.000000 0.263120
Si Si6 0.694737 0.500000 0.673902
Si Si7 0.807825 0.369036 0.114222
Si Si8 0.617313 0.260372 0.476339
O O1 0.191026 0.761185 0.301736
O O2 0.121988 0.679718 0.177026
O O3 0.000000 0.773918 0.267129
O O4 0.135527 0.893176 0.200389
O O5 0.626109 0.306523 0.272957
O O6 0.680149 0.240869 0.405182
O O7 0.645421 0.103517 0.310531
O O8 0.808310 0.841463 0.637627
O O9 0.000000 0.853635 0.670150
O O10 0.869070 0.000000 0.722543
O O11 0.500000 0.500000 0.565121
O O12 0.697506 0.500000 0.589344
O O13 0.625707 0.391330 0.483106
O O14 0.313569 0.000000 0.192892
O O15 0.500000 0.000000 0.239345
O O16 0.827388 0.500000 0.105788
O O17 0.830889 0.307372 0.040435
O O18 0.500000 0.222399 0.469893
#
# Coordination Sequence:
#
# PCOD8188322 Si02
#       8
#     8   8   8   4   4   4   8   8
#     4  10  19  35  57  77 101 135 175 218 256 296
#     4  10  22  35  51  79 107 136 173 210 255 314
#     4   9  18  35  57  77 100 134 177 220 254 292
#     4  10  20  34  54  78 101 131 171 213 259 300
#     4  10  20  34  52  76 107 139 169 206 256 309
#     4  10  18  32  56  80 102 128 174 221 251 299
#     4  10  21  34  52  80 107 135 172 210 257 313
#     4  11  22  35  53  76 106 138 169 211 260 307
#
# _framework density 17.347272
#
# number of rings (size 3 to 8) (size 9 to 14) (size 15 to 20)
#    0.000    2.000    1.538    2.538    2.154    1.231 
#    0.000    0.769    0.000    0.923    0.000    0.000 
#    0.000    0.000    0.000    0.000    0.000    0.000 
#
# Total GULP energy -322318.728433 kJ/mol
# GULP energy per Si atom -12396.874171 kJ/mol
# Density = 1.730779 g / cm^3
# Si number density = 17.347272 Si / 1000 Ang^3
#
#
#
# Elastic Constant Matrix: (Units=GPa)
#
#
# Indices 1 2 3 4 5 6 
#
# 1 138.3407 43.6994 64.9245 0.0000 0.0000 0.0000
# 2 43.6994 109.7924 47.0207 0.0000 0.0000 0.0000
# 3 64.9245 47.0207 123.9094 0.0000 0.0000 0.0000
# 4 0.0000 0.0000 0.0000 39.4078 0.0000 0.0000
# 5 0.0000 0.0000 0.0000 0.0000 19.6053 0.0000
# 6 0.0000 0.0000 0.0000 0.0000 0.0000 20.8338
#
#
#
# Elastic Compliance Matrix: (Units=1/GPa)
#
#
# Indices 1 2 3 4 5 6 
#
# 1 0.009963 -0.002065 -0.004437 0.000000 0.000000 0.000000
# 2 -0.002065 0.011304 -0.003207 0.000000 0.000000 0.000000
# 3 -0.004437 -0.003207 0.011612 0.000000 0.000000 0.000000
# 4 0.000000 0.000000 0.000000 0.025376 0.000000 0.000000
# 5 0.000000 0.000000 0.000000 0.000000 0.051007 0.000000
# 6 0.000000 0.000000 0.000000 0.000000 0.000000 0.047999
#
#
# Mechanical properties :
#
#
# Convention : Reuss Voigt Hill
#
# Bulk Modulus (GPa) = 74.29201 75.92574 75.10887
# Shear Modulus (GPa) = 27.59909 30.39592 28.99751
#
# Velocity S-wave (km/s) = 3.99303 4.19047 4.09294
# Velocity P-wave (km/s) = 8.01114 8.20223 8.10725
#
# Compressibility (1/GPa) = 0.01346040
#
# Stress axis : x y z
#
# Youngs Moduli (GPa) = 100.37067 88.46605 86.11710
#
# Poissons Ratio (x) = 0.18272 0.38206
# Poissons Ratio (y) = 0.20731 0.27620
# Poissons Ratio (z) = 0.44530 0.28374
#
# Static dielectric constant tensor:
#      x y z
#    x 3.387110 0.000000 0.000000 
#    y 0.000000 3.550280 0.000000 
#    z 0.000000 0.000000 2.988520 
# 
# 
# High freq. dielectric constant tensor:
#      x y z
#    x 1.671510 0.000000 0.000000 
#    y 0.000000 1.690850 0.000000 
#    z 0.000000 0.000000 1.647540 
# 
# From -- ./inp_files/21846.got.cif
#   From: 2010.03.12/outbox.cif.g09.slc.cpg/sg44_11_cif.got.tgz:21846.got - 2010.04.14 02:36:11.
