data_PCOD8188096
_publ_section_title
;
Structure prediction by ZEFSAII (Michael W. Deem and Ramdas Pophale) SiO2 
 PCOD8188096
Probable space group: I M M 2
;
_chemical_formula_sum "Si O2"
_cell_formula_units_Z 40
_cell_length_a 8.680616
_cell_length_b 21.220936
_cell_length_c 12.634116
_cell_angle_alpha 90.000000
_cell_angle_beta 90.000000
_cell_angle_gamma 90.000000
_cell_volume 2327.340572
_symmetry_space_group_name_H-M "I M M 2"
_symmetry_group_IT_number 44
_symmetry_cell_setting 'orthorhombic'
loop_
_space_group_symop_operation_xyz
x,y,z
-x,-y,z
-x,y,z
x,-y,z
1/2+x,1/2+y,1/2+z
1/2-x,1/2-y,1/2+z
1/2-x,1/2+y,1/2+z
1/2+x,1/2-y,1/2+z
loop_
_atom_site_type_symbol
_atom_site_label
_atom_site_fract_x
_atom_site_fract_y
_atom_site_fract_z
Si Si1 0.818918 0.702355 0.364110
Si Si2 0.318291 0.696082 0.147409
Si Si3 0.818982 0.332719 0.936007
Si Si4 0.182305 0.429995 0.760156
Si Si5 0.318403 0.834498 0.089984
O O1 0.733499 0.672224 0.262974
O O2 0.767664 0.773703 0.384729
O O3 0.774190 0.659369 0.466022
O O4 0.000000 0.701690 0.343724
O O5 0.500000 0.689587 0.133748
O O6 0.258144 0.767828 0.134856
O O7 0.236920 0.654727 0.056021
O O8 0.774769 0.394438 0.868612
O O9 0.000000 0.318852 0.931716
O O10 0.255564 0.500000 0.761965
O O11 0.251750 0.391651 0.659172
O O12 0.000000 0.434932 0.748420
O O13 0.500000 0.834145 0.104657
#
# Coordination Sequence:
#
# PCOD8188096 Si02
#       5
#     8   8   8   8   8
#     4  10  18  28  46  70  98 128 156 196 243 291
#     4  10  18  30  47  68  97 127 157 199 243 288
#     4  10  18  29  46  71  99 125 159 199 241 290
#     4   9  16  28  48  71  96 126 159 197 238 282
#     4   8  15  27  42  66  95 119 151 192 235 281
#
# _framework density 17.186999
#
# number of rings (size 3 to 8) (size 9 to 14) (size 15 to 20)
#    0.000    2.600    2.000    3.000    0.000    0.000 
#    0.000    0.000    0.000    3.600    0.000    5.600 
#    0.000    0.000    0.000    0.000    0.000    0.000 
#
# Total GULP energy -247900.101644 kJ/mol
# GULP energy per Si atom -12395.005082 kJ/mol
# Density = 1.714788 g / cm^3
# Si number density = 17.186999 Si / 1000 Ang^3
#
#
#
# Elastic Constant Matrix: (Units=GPa)
#
#
# Indices 1 2 3 4 5 6 
#
# 1 24.1329 13.7764 20.9711 0.0000 0.0000 0.0000
# 2 13.7764 93.4877 59.0624 0.0000 0.0000 0.0000
# 3 20.9711 59.0624 158.4940 -0.0002 0.0000 0.0000
# 4 0.0000 0.0000 -0.0002 22.6687 0.0000 0.0000
# 5 0.0000 0.0000 0.0000 0.0000 28.2394 0.0000
# 6 0.0000 0.0000 0.0000 0.0000 0.0000 12.1690
#
#
#
# Elastic Compliance Matrix: (Units=1/GPa)
#
#
# Indices 1 2 3 4 5 6 
#
# 1 0.047937 -0.003998 -0.004853 0.000000 0.000000 0.000000
# 2 -0.003998 0.014324 -0.004809 0.000000 0.000000 0.000000
# 3 -0.004853 -0.004809 0.008743 0.000000 0.000000 0.000000
# 4 0.000000 0.000000 0.000000 0.044114 0.000000 0.000000
# 5 0.000000 0.000000 0.000000 0.000000 0.035412 0.000000
# 6 0.000000 0.000000 0.000000 0.000000 0.000000 0.082176
#
#
# Mechanical properties :
#
#
# Convention : Reuss Voigt Hill
#
# Bulk Modulus (GPa) = 22.89143 51.52604 37.20874
# Shear Modulus (GPa) = 18.20927 24.76908 21.48917
#
# Velocity S-wave (km/s) = 3.25850 3.80037 3.53982
# Velocity P-wave (km/s) = 5.24452 7.02153 6.19705
#
# Compressibility (1/GPa) = 0.04368446
#
# Stress axis : x y z
#
# Youngs Moduli (GPa) = 20.86093 69.81422 114.37148
#
# Poissons Ratio (x) = 0.27912 0.55503
# Poissons Ratio (y) = 0.08340 0.54998
# Poissons Ratio (z) = 0.10123 0.33572
#
# Static dielectric constant tensor:
#      x y z
#    x 2.988190 0.000000 0.000000 
#    y 0.000000 3.145230 0.000000 
#    z 0.000000 0.000000 3.620920 
# 
# 
# High freq. dielectric constant tensor:
#      x y z
#    x 1.642130 0.000000 0.000000 
#    y 0.000000 1.613660 0.000000 
#    z 0.000000 0.000000 1.683920 
# 
# From -- ./inp_files/10989.got.cif
#   From: 2010.03.12/outbox.cif.g09.slc.cpg/sg44_6_cif.got.tgz:10989.got - 2010.04.14 02:36:11.
