data_PCOD8188314
_publ_section_title
;
Structure prediction by ZEFSAII (Michael W. Deem and Ramdas Pophale) SiO2 
 PCOD8188314
Probable space group: I M M 2
;
_chemical_formula_sum "Si O2"
_cell_formula_units_Z 64
_cell_length_a 9.256987
_cell_length_b 33.035273
_cell_length_c 11.655205
_cell_angle_alpha 90.000000
_cell_angle_beta 90.000000
_cell_angle_gamma 90.000000
_cell_volume 3564.244356
_symmetry_space_group_name_H-M "I M M 2"
_symmetry_group_IT_number 44
_symmetry_cell_setting 'orthorhombic'
loop_
_space_group_symop_operation_xyz
x,y,z
-x,-y,z
-x,y,z
x,-y,z
1/2+x,1/2+y,1/2+z
1/2-x,1/2-y,1/2+z
1/2-x,1/2+y,1/2+z
1/2+x,1/2-y,1/2+z
loop_
_atom_site_type_symbol
_atom_site_label
_atom_site_fract_x
_atom_site_fract_y
_atom_site_fract_z
Si Si1 0.332118 0.766800 0.932900
Si Si2 0.834599 0.954725 0.657648
Si Si3 0.335980 0.827351 0.136718
Si Si4 0.835542 0.171008 0.792232
Si Si5 0.164533 0.888730 0.002308
Si Si6 0.337266 0.953764 0.889192
Si Si7 0.167693 0.871247 0.554652
Si Si8 0.831346 0.686664 0.898954
O O1 0.500000 0.759120 0.907624
O O2 0.266116 0.791282 0.824980
O O3 0.251541 0.724631 0.952757
O O4 0.306269 0.790382 0.051152
O O5 0.733789 0.947819 0.765829
O O6 0.800048 0.919499 0.565610
O O7 0.000000 0.949852 0.700007
O O8 0.809671 0.000000 0.604948
O O9 0.500000 0.842746 0.124225
O O10 0.230773 0.864416 0.108703
O O11 0.302231 0.812494 0.263811
O O12 0.788945 0.152320 0.670955
O O13 0.000000 0.187037 0.789159
O O14 0.817665 0.135874 0.884993
O O15 0.000000 0.898606 0.031824
O O16 0.250650 0.930331 0.987609
O O17 0.500000 0.936917 0.881228
O O18 0.335008 0.000000 0.927855
O O19 0.266456 0.854439 0.452434
O O20 0.000000 0.863869 0.525738
O O21 0.000000 0.689428 0.928511
#
# Coordination Sequence:
#
# PCOD8188314 Si02
#       8
#     8   8   8   8   8   8   8   8
#     4  10  21  37  57  79 102 137 177 221 273 323
#     4   9  17  32  54  79 110 146 182 224 276 328
#     4   9  21  40  56  73 103 139 176 220 271 320
#     4   9  18  33  52  77 108 139 171 216 269 319
#     4  10  18  32  55  79 103 137 177 218 263 314
#     4  10  19  29  46  77 114 146 175 212 263 322
#     4  10  20  35  54  80 113 145 179 224 275 325
#     4  11  24  39  55  78 107 143 184 226 270 322
#
# _framework density 17.956119999999999
#
# number of rings (size 3 to 8) (size 9 to 14) (size 15 to 20)
#    0.000    2.250    1.250    1.500    1.750    3.750 
#    0.000    0.000    0.000    0.750    0.000    3.500 
#    0.000    0.000    0.000    0.000    0.000    0.000 
#
# Total GULP energy -396856.193177 kJ/mol
# GULP energy per Si atom -12401.756037 kJ/mol
# Density = 1.791525 g / cm^3
# Si number density = 17.956120 Si / 1000 Ang^3
#
#
#
# Elastic Constant Matrix: (Units=GPa)
#
#
# Indices 1 2 3 4 5 6 
#
# 1 122.0136 69.4044 42.4982 -0.0002 0.0003 0.0000
# 2 69.4044 115.4024 37.5758 -0.0006 -0.0002 0.0000
# 3 42.4982 37.5758 67.7481 -0.0015 -0.0007 0.0004
# 4 -0.0002 -0.0006 -0.0015 22.5763 -0.0004 0.0001
# 5 0.0003 -0.0002 -0.0007 -0.0004 26.2388 -0.0001
# 6 0.0000 0.0000 0.0004 0.0001 -0.0001 31.6846
#
#
#
# Elastic Compliance Matrix: (Units=1/GPa)
#
#
# Indices 1 2 3 4 5 6 
#
# 1 0.013672 -0.006627 -0.004901 0.000000 0.000000 0.000000
# 2 -0.006627 0.013787 -0.003490 0.000000 0.000000 0.000000
# 3 -0.004901 -0.003490 0.019771 0.000001 0.000001 0.000000
# 4 0.000000 0.000000 0.000001 0.044294 0.000001 0.000000
# 5 0.000000 0.000000 0.000001 0.000001 0.038112 0.000000
# 6 0.000000 0.000000 0.000000 0.000000 0.000000 0.031561
#
#
# Mechanical properties :
#
#
# Convention : Reuss Voigt Hill
#
# Bulk Modulus (GPa) = 58.15842 67.12455 62.64149
# Shear Modulus (GPa) = 25.38526 26.47896 25.93211
#
# Velocity S-wave (km/s) = 3.76405 3.84428 3.80438
# Velocity P-wave (km/s) = 7.16591 7.56098 7.36609
#
# Compressibility (1/GPa) = 0.01719442
#
# Stress axis : x y z
#
# Youngs Moduli (GPa) = 73.13955 72.53106 50.58003
#
# Poissons Ratio (x) = 0.48066 0.24790
# Poissons Ratio (y) = 0.48469 0.17652
# Poissons Ratio (z) = 0.35847 0.25312
#
# Static dielectric constant tensor:
#      x y z
#    x 3.451330 0.000000 0.000000 
#    y 0.000000 3.442560 0.000000 
#    z 0.000000 0.000000 3.039990 
# 
# 
# High freq. dielectric constant tensor:
#      x y z
#    x 1.704870 0.000000 0.000000 
#    y 0.000000 1.697900 0.000000 
#    z 0.000000 0.000000 1.663580 
# 
# From -- ./inp_files/11492.got.cif
#   From: 2010.03.12/outbox.cif.g09.slc.cpg/sg44_6_cif.got.tgz:11492.got - 2010.04.14 02:36:11.
