data_PCOD8188722
_publ_section_title
;
Structure prediction by ZEFSAII (Michael W. Deem and Ramdas Pophale) SiO2 
 PCOD8188722
Probable space group: I M M 2
;
_chemical_formula_sum "Si O2"
_cell_formula_units_Z 56
_cell_length_a 14.331916
_cell_length_b 9.150347
_cell_length_c 22.860028
_cell_angle_alpha 90.000000
_cell_angle_beta 90.000000
_cell_angle_gamma 90.000000
_cell_volume 2997.909897
_symmetry_space_group_name_H-M "I M M 2"
_symmetry_group_IT_number 44
_symmetry_cell_setting 'orthorhombic'
loop_
_space_group_symop_operation_xyz
x,y,z
-x,-y,z
-x,y,z
x,-y,z
1/2+x,1/2+y,1/2+z
1/2-x,1/2-y,1/2+z
1/2-x,1/2+y,1/2+z
1/2+x,1/2-y,1/2+z
loop_
_atom_site_type_symbol
_atom_site_label
_atom_site_fract_x
_atom_site_fract_y
_atom_site_fract_z
Si Si1 0.896515 0.173439 0.884850
Si Si2 0.206637 0.328448 0.562274
Si Si3 0.392356 0.834441 0.943294
Si Si4 0.106642 0.827251 0.668032
Si Si5 0.106906 0.828587 0.325552
Si Si6 0.773201 0.173275 0.778975
Si Si7 0.397378 0.673387 0.515242
O O1 0.823914 0.233723 0.837352
O O2 0.000000 0.226918 0.867252
O O3 0.893007 0.000000 0.883053
O O4 0.872298 0.231407 0.949986
O O5 0.194482 0.500000 0.574705
O O6 0.165374 0.285020 0.499520
O O7 0.152841 0.240193 0.611021
O O8 0.316256 0.280419 0.560725
O O9 0.500000 0.821944 0.960596
O O10 0.366521 0.730243 0.889691
O O11 0.365860 0.000000 0.924834
O O12 0.165560 0.775158 0.723950
O O13 0.000000 0.772434 0.674535
O O14 0.109280 0.000000 0.661597
O O15 0.171991 0.750570 0.277098
O O16 0.000000 0.789393 0.310227
O O17 0.124565 0.000000 0.324135
O O18 0.759601 0.000000 0.778839
O O19 0.500000 0.732511 0.535180
O O20 0.401159 0.500000 0.511489
#
# Coordination Sequence:
#
# PCOD8188722 Si02
#       7
#     8   8   8   8   8   8   8
#     4   8  13  24  47  77 102 123 154 201 253 301
#     4  10  19  32  52  76 102 136 178 217 251 293
#     4   9  17  30  50  76 103 132 170 214 257 303
#     4  10  22  38  54  75 103 133 167 209 257 307
#     4  10  21  35  51  75 106 136 167 207 256 306
#     4  10  19  33  54  76  99 131 170 209 250 301
#     4   8  14  25  44  73 103 126 155 201 252 297
#
# _framework density 18.679680999999999
#
# number of rings (size 3 to 8) (size 9 to 14) (size 15 to 20)
#    0.000    2.714    0.000    3.000    0.000    6.857 
#    0.000    2.143    0.000    4.286    0.000    2.000 
#    0.000    0.000    0.000    0.000    0.000    0.000 
#
# Total GULP energy -347084.939592 kJ/mol
# GULP energy per Si atom -12395.890700 kJ/mol
# Density = 1.863717 g / cm^3
# Si number density = 18.679681 Si / 1000 Ang^3
#
#
#
# Elastic Constant Matrix: (Units=GPa)
#
#
# Indices 1 2 3 4 5 6 
#
# 1 149.2895 39.7034 78.3444 0.0000 0.0000 0.0000
# 2 39.7034 29.1092 28.6951 0.0000 0.0000 0.0000
# 3 78.3444 28.6951 75.0918 0.0000 0.0000 0.0000
# 4 0.0000 0.0000 0.0000 25.9962 0.0000 0.0000
# 5 0.0000 0.0000 0.0000 0.0000 34.3958 0.0000
# 6 0.0000 0.0000 0.0000 0.0000 0.0000 21.7453
#
#
#
# Elastic Compliance Matrix: (Units=1/GPa)
#
#
# Indices 1 2 3 4 5 6 
#
# 1 0.016052 -0.008640 -0.013446 0.000000 0.000000 0.000000
# 2 -0.008640 0.059765 -0.013824 0.000000 0.000000 0.000000
# 3 -0.013446 -0.013824 0.032628 0.000000 0.000000 0.000000
# 4 0.000000 0.000000 0.000000 0.038467 0.000000 0.000000
# 5 0.000000 0.000000 0.000000 0.000000 0.029073 0.000000
# 6 0.000000 0.000000 0.000000 0.000000 0.000000 0.045987
#
#
# Mechanical properties :
#
#
# Convention : Reuss Voigt Hill
#
# Bulk Modulus (GPa) = 27.30334 60.77516 44.03925
# Shear Modulus (GPa) = 16.33970 23.54396 19.94183
#
# Velocity S-wave (km/s) = 2.96079 3.55407 3.27091
# Velocity P-wave (km/s) = 5.13193 7.03192 6.15568
#
# Compressibility (1/GPa) = 0.03662556
#
# Stress axis : x y z
#
# Youngs Moduli (GPa) = 62.29564 16.73208 30.64806
#
# Poissons Ratio (x) = 0.14456 0.41210
# Poissons Ratio (y) = 0.53822 0.42369
# Poissons Ratio (z) = 0.83764 0.23131
#
# Static dielectric constant tensor:
#      x y z
#    x 3.912620 0.000000 0.000000 
#    y 0.000000 3.023020 0.000000 
#    z 0.000000 0.000000 3.341360 
# 
# 
# High freq. dielectric constant tensor:
#      x y z
#    x 1.748260 0.000000 0.000000 
#    y 0.000000 1.680750 0.000000 
#    z 0.000000 0.000000 1.707480 
# 
# From -- ./inp_files/23062.got.cif
#   From: 2010.03.12/outbox.cif.g09.slc.cpg/sg44_12_cif.got.tgz:23062.got - 2010.04.14 02:36:11.
