data_PCOD8188341
_publ_section_title
;
Structure prediction by ZEFSAII (Michael W. Deem and Ramdas Pophale) SiO2 
 PCOD8188341
Probable space group: I M M 2
;
_chemical_formula_sum "Si O2"
_cell_formula_units_Z 64
_cell_length_a 20.704218
_cell_length_b 9.112062
_cell_length_c 19.519069
_cell_angle_alpha 90.000000
_cell_angle_beta 90.000000
_cell_angle_gamma 90.000000
_cell_volume 3682.430824
_symmetry_space_group_name_H-M "I M M 2"
_symmetry_group_IT_number 44
_symmetry_cell_setting 'orthorhombic'
loop_
_space_group_symop_operation_xyz
x,y,z
-x,-y,z
-x,y,z
x,-y,z
1/2+x,1/2+y,1/2+z
1/2-x,1/2-y,1/2+z
1/2-x,1/2+y,1/2+z
1/2+x,1/2-y,1/2+z
loop_
_atom_site_type_symbol
_atom_site_label
_atom_site_fract_x
_atom_site_fract_y
_atom_site_fract_z
Si Si1 0.727403 0.170200 0.899380
Si Si2 0.427441 0.667721 0.672091
Si Si3 0.191693 0.173338 0.264305
Si Si4 0.268089 0.668262 0.033842
Si Si5 0.378532 0.330219 0.406218
Si Si6 0.619550 0.828915 0.541740
Si Si7 0.929385 0.174281 0.762592
Si Si8 0.305661 0.671822 0.183538
O O1 0.690867 0.255852 0.839380
O O2 0.803359 0.198555 0.891352
O O3 0.709372 0.000000 0.894770
O O4 0.703974 0.231650 0.972900
O O5 0.500000 0.689532 0.701071
O O6 0.414614 0.500000 0.650674
O O7 0.377003 0.715000 0.730636
O O8 0.420155 0.764454 0.604514
O O9 0.248005 0.238730 0.217457
O O10 0.201897 0.000000 0.270854
O O11 0.272811 0.500000 0.009914
O O12 0.194629 0.710027 0.051833
O O13 0.309069 0.698106 0.102202
O O14 0.391784 0.500000 0.421319
O O15 0.405018 0.240253 0.470722
O O16 0.416601 0.272297 0.339952
O O17 0.606151 0.000000 0.538928
O O18 0.873692 0.232893 0.712193
O O19 0.000000 0.232638 0.739092
O O20 0.927733 0.000000 0.761269
O O21 0.294677 0.500000 0.201006
#
# Coordination Sequence:
#
# PCOD8188341 Si02
#       8
#     8   8   8   8   8   8   8   8
#     4  10  19  32  52  76 104 134 170 211 255 304
#     4  10  22  38  53  72 101 137 174 212 257 312
#     4  11  21  33  54  79 102 131 171 215 260 306
#     4   9  18  31  50  76 106 134 165 210 259 300
#     4   9  17  30  48  71 103 140 175 206 243 296
#     4  10  19  31  49  74 104 134 170 212 253 301
#     4   9  17  30  50  75 101 133 172 208 244 292
#     4  10  18  33  54  77 104 134 169 212 256 299
#
# _framework density 17.379823999999999
#
# number of rings (size 3 to 8) (size 9 to 14) (size 15 to 20)
#    0.000    2.250    2.500    1.125    0.000    2.750 
#    0.000    1.250    0.000    1.875    0.000    3.500 
#    0.000    0.000    0.000    0.000    0.000    0.000 
#
# Total GULP energy -396821.604985 kJ/mol
# GULP energy per Si atom -12400.675156 kJ/mol
# Density = 1.734027 g / cm^3
# Si number density = 17.379824 Si / 1000 Ang^3
#
#
#
# Elastic Constant Matrix: (Units=GPa)
#
#
# Indices 1 2 3 4 5 6 
#
# 1 105.0461 41.7698 65.9909 0.0000 0.0000 0.0000
# 2 41.7698 69.4764 52.5388 0.0000 0.0000 0.0000
# 3 65.9909 52.5388 118.6201 0.0000 0.0000 0.0000
# 4 0.0000 0.0000 0.0000 30.6195 0.0000 0.0000
# 5 0.0000 0.0000 0.0000 0.0000 23.6123 0.0000
# 6 0.0000 0.0000 0.0000 0.0000 0.0000 16.6546
#
#
#
# Elastic Compliance Matrix: (Units=1/GPa)
#
#
# Indices 1 2 3 4 5 6 
#
# 1 0.015401 -0.004180 -0.006717 0.000000 0.000000 0.000000
# 2 -0.004180 0.022777 -0.007763 0.000000 0.000000 0.000000
# 3 -0.006717 -0.007763 0.015605 0.000000 0.000000 0.000000
# 4 0.000000 0.000000 0.000000 0.032659 0.000000 0.000000
# 5 0.000000 0.000000 0.000000 0.000000 0.042351 0.000000
# 6 0.000000 0.000000 0.000000 0.000000 0.000000 0.060043
#
#
# Mechanical properties :
#
#
# Convention : Reuss Voigt Hill
#
# Bulk Modulus (GPa) = 60.73792 68.19351 64.46572
# Shear Modulus (GPa) = 21.58495 23.03351 22.30923
#
# Velocity S-wave (km/s) = 3.52796 3.64442 3.58666
# Velocity P-wave (km/s) = 7.18461 7.55191 7.37055
#
# Compressibility (1/GPa) = 0.01646418
#
# Stress axis : x y z
#
# Youngs Moduli (GPa) = 64.93003 43.90442 64.08192
#
# Poissons Ratio (x) = 0.18353 0.43041
# Poissons Ratio (y) = 0.27142 0.49745
# Poissons Ratio (z) = 0.43610 0.34081
#
# Static dielectric constant tensor:
#      x y z
#    x 3.201030 0.000000 0.000000 
#    y 0.000000 3.169110 0.000000 
#    z 0.000000 0.000000 3.327300 
# 
# 
# High freq. dielectric constant tensor:
#      x y z
#    x 1.648420 0.000000 0.000000 
#    y 0.000000 1.662810 0.000000 
#    z 0.000000 0.000000 1.674970 
# 
# From -- ./inp_files/20777.got.cif
#   From: 2010.03.12/outbox.cif.g09.slc.cpg/sg44_11_cif.got.tgz:20777.got - 2010.04.14 02:36:11.
