data_PCOD8188178
_publ_section_title
;
Structure prediction by ZEFSAII (Michael W. Deem and Ramdas Pophale) SiO2 
 PCOD8188178
Probable space group: I M M 2
;
_chemical_formula_sum "Si O2"
_cell_formula_units_Z 64
_cell_length_a 30.213371
_cell_length_b 8.861101
_cell_length_c 14.356809
_cell_angle_alpha 90.000000
_cell_angle_beta 90.000000
_cell_angle_gamma 90.000000
_cell_volume 3843.658485
_symmetry_space_group_name_H-M "I M M 2"
_symmetry_group_IT_number 44
_symmetry_cell_setting 'orthorhombic'
loop_
_space_group_symop_operation_xyz
x,y,z
-x,-y,z
-x,y,z
x,-y,z
1/2+x,1/2+y,1/2+z
1/2-x,1/2-y,1/2+z
1/2-x,1/2+y,1/2+z
1/2+x,1/2-y,1/2+z
loop_
_atom_site_type_symbol
_atom_site_label
_atom_site_fract_x
_atom_site_fract_y
_atom_site_fract_z
Si Si1 0.228516 0.677210 0.506910
Si Si2 0.301143 0.821643 0.205432
Si Si3 0.950219 0.823796 0.126308
Si Si4 0.326209 0.671604 0.518621
Si Si5 0.215072 0.320096 0.301446
Si Si6 0.627189 0.328318 0.325022
Si Si7 0.449479 0.825651 0.427139
Si Si8 0.868397 0.676169 0.183985
O O1 0.234126 0.500000 0.496382
O O2 0.198264 0.719992 0.595153
O O3 0.277343 0.742292 0.525635
O O4 0.209826 0.737362 0.408304
O O5 0.258331 0.751018 0.254855
O O6 0.347274 0.755722 0.242071
O O7 0.299428 0.000000 0.221621
O O8 0.916272 0.753546 0.202420
O O9 0.000000 0.786723 0.159992
O O10 0.941533 0.000000 0.118380
O O11 0.941304 0.757381 0.024337
O O12 0.329116 0.500000 0.557271
O O13 0.340296 0.677984 0.412259
O O14 0.357083 0.781122 0.577995
O O15 0.219687 0.500000 0.293280
O O16 0.170385 0.261957 0.251026
O O17 0.617121 0.500000 0.295493
O O18 0.581011 0.245811 0.346751
O O19 0.500000 0.805222 0.394060
O O20 0.437190 0.000000 0.441073
O O21 0.874427 0.500000 0.196963
#
# Coordination Sequence:
#
# PCOD8188178 Si02
#       8
#     8   8   8   8   8   8   8   8
#     4   9  18  34  50  65  94 133 169 204 245 287
#     4  11  21  32  50  73  96 129 171 211 246 287
#     4  10  20  33  49  69  98 135 167 197 243 303
#     4  10  18  30  48  67  96 136 169 197 237 292
#     4  10  20  35  50  69  98 132 168 205 251 299
#     4  11  21  33  50  71 100 138 168 199 245 300
#     4  10  20  33  50  74 102 128 162 208 247 287
#     4  11  21  30  48  74 100 130 165 210 250 289
#
# _framework density 16.650804000000001
#
# number of rings (size 3 to 8) (size 9 to 14) (size 15 to 20)
#    0.000    1.750    3.750    1.875    0.000    2.500 
#    0.000    1.250    0.000    0.000    0.000    0.875 
#    0.000    3.000    0.000    0.000    0.000    0.000 
#
# Total GULP energy -396727.747721 kJ/mol
# GULP energy per Si atom -12397.742116 kJ/mol
# Density = 1.661291 g / cm^3
# Si number density = 16.650804 Si / 1000 Ang^3
#
#
#
# Elastic Constant Matrix: (Units=GPa)
#
#
# Indices 1 2 3 4 5 6 
#
# 1 112.9620 41.1900 33.6859 0.0000 0.0000 0.0000
# 2 41.1900 63.6286 26.8888 0.0000 0.0000 0.0000
# 3 33.6859 26.8888 70.3287 0.0000 0.0000 0.0000
# 4 0.0000 0.0000 0.0000 17.9835 0.0000 0.0000
# 5 0.0000 0.0000 0.0000 0.0000 28.1341 0.0000
# 6 0.0000 0.0000 0.0000 0.0000 0.0000 29.5300
#
#
#
# Elastic Compliance Matrix: (Units=1/GPa)
#
#
# Indices 1 2 3 4 5 6 
#
# 1 0.012224 -0.006487 -0.003375 0.000000 0.000000 0.000000
# 2 -0.006487 0.022187 -0.005376 0.000000 0.000000 0.000000
# 3 -0.003375 -0.005376 0.017891 0.000000 0.000000 0.000000
# 4 0.000000 0.000000 0.000000 0.055606 0.000000 0.000000
# 5 0.000000 0.000000 0.000000 0.000000 0.035544 0.000000
# 6 0.000000 0.000000 0.000000 0.000000 0.000000 0.033864
#
#
# Mechanical properties :
#
#
# Convention : Reuss Voigt Hill
#
# Bulk Modulus (GPa) = 45.81513 50.04983 47.93248
# Shear Modulus (GPa) = 23.24841 24.80650 24.02745
#
# Velocity S-wave (km/s) = 3.74067 3.86399 3.80283
# Velocity P-wave (km/s) = 6.79940 7.07326 6.93768
#
# Compressibility (1/GPa) = 0.02182685
#
# Stress axis : x y z
#
# Youngs Moduli (GPa) = 81.80319 45.07053 55.89477
#
# Poissons Ratio (x) = 0.29239 0.18864
# Poissons Ratio (y) = 0.53068 0.30047
# Poissons Ratio (z) = 0.27608 0.24228
#
# Static dielectric constant tensor:
#      x y z
#    x 3.309230 0.000000 0.000000 
#    y 0.000000 3.145280 0.000000 
#    z 0.000000 0.000000 3.071320 
# 
# 
# High freq. dielectric constant tensor:
#      x y z
#    x 1.642880 0.000000 0.000000 
#    y 0.000000 1.642720 0.000000 
#    z 0.000000 0.000000 1.609120 
# 
# From -- ./inp_files/17112.got.cif
#   From: 2010.03.12/outbox.cif.g09.slc.cpg/sg44_9_cif.got.tgz:17112.got - 2010.04.14 02:36:11.
