data_PCOD8188739
_publ_section_title
;
Structure prediction by ZEFSAII (Michael W. Deem and Ramdas Pophale) SiO2 
 PCOD8188739
Probable space group: I M M 2
;
_chemical_formula_sum "Si O2"
_cell_formula_units_Z 56
_cell_length_a 8.616167
_cell_length_b 22.744752
_cell_length_c 14.342021
_cell_angle_alpha 90.000000
_cell_angle_beta 90.000000
_cell_angle_gamma 90.000000
_cell_volume 2810.642881
_symmetry_space_group_name_H-M "I M M 2"
_symmetry_group_IT_number 44
_symmetry_cell_setting 'orthorhombic'
loop_
_space_group_symop_operation_xyz
x,y,z
-x,-y,z
-x,y,z
x,-y,z
1/2+x,1/2+y,1/2+z
1/2-x,1/2-y,1/2+z
1/2-x,1/2+y,1/2+z
1/2+x,1/2-y,1/2+z
loop_
_atom_site_type_symbol
_atom_site_label
_atom_site_fract_x
_atom_site_fract_y
_atom_site_fract_z
Si Si1 0.821384 0.776686 0.378150
Si Si2 0.316793 0.148537 0.666693
Si Si3 0.679760 0.347100 0.361303
Si Si4 0.179070 0.220709 0.167482
Si Si5 0.317698 0.392581 0.985285
Si Si6 0.815297 0.000000 0.166440
Si Si7 0.183326 0.112335 0.057907
Si Si8 0.181927 0.500000 0.872373
O O1 0.718245 0.719083 0.394796
O O2 0.797719 0.800272 0.273486
O O3 0.767141 0.828912 0.445932
O O4 0.000000 0.759153 0.395198
O O5 0.500000 0.144214 0.652114
O O6 0.278138 0.130395 0.772982
O O7 0.248273 0.214564 0.651752
O O8 0.232114 0.105374 0.593839
O O9 0.500000 0.350224 0.334614
O O10 0.720082 0.390264 0.447709
O O11 0.258642 0.171710 0.101911
O O12 0.000000 0.226982 0.142074
O O13 0.500000 0.403701 0.974342
O O14 0.228673 0.442594 0.929726
O O15 0.746618 0.943726 0.111437
O O16 0.764702 0.000000 0.272974
O O17 0.000000 0.000000 0.162890
O O18 0.000000 0.114532 0.075499
O O19 0.000000 0.500000 0.855696
#
# Coordination Sequence:
#
# PCOD8188739 Si02
#       8
#     8   8   8   8   8   4   8   4
#     4   9  18  32  53  82 113 144 180 225 280 335
#     4  10  20  35  54  78 111 147 183 231 287 337
#     4  10  19  32  52  81 115 149 188 231 278 335
#     4   8  14  27  48  76 109 141 172 214 275 335
#     4  11  22  38  60  83 108 144 189 233 279 334
#     4  10  20  38  61  82 107 144 189 230 268 316
#     4   9  17  30  52  79 106 141 185 231 275 321
#     4  12  26  42  59  84 115 144 177 220 274 334
#
# _framework density 19.924268999999999
#
# number of rings (size 3 to 8) (size 9 to 14) (size 15 to 20)
#    0.000    2.286    0.000    4.500    0.000    4.571 
#    0.000    2.143    0.000    5.143    0.000    0.000 
#    0.000    0.000    0.000    0.000    0.000    0.000 
#
# Total GULP energy -347154.852631 kJ/mol
# GULP energy per Si atom -12398.387594 kJ/mol
# Density = 1.987892 g / cm^3
# Si number density = 19.924269 Si / 1000 Ang^3
#
#
#
# Elastic Constant Matrix: (Units=GPa)
#
#
# Indices 1 2 3 4 5 6 
#
# 1 32.6902 9.9510 10.1603 0.0000 0.0000 0.0000
# 2 9.9510 67.2161 55.4735 -0.0001 0.0000 0.0000
# 3 10.1603 55.4735 121.6916 -0.0002 0.0000 0.0000
# 4 0.0000 -0.0001 -0.0002 35.9002 0.0000 0.0000
# 5 0.0000 0.0000 0.0000 0.0000 28.0153 0.0000
# 6 0.0000 0.0000 0.0000 0.0000 0.0000 20.0609
#
#
#
# Elastic Compliance Matrix: (Units=1/GPa)
#
#
# Indices 1 2 3 4 5 6 
#
# 1 0.032085 -0.004071 -0.000823 0.000000 0.000000 0.000000
# 2 -0.004071 0.024367 -0.010768 0.000000 0.000000 0.000000
# 3 -0.000823 -0.010768 0.013195 0.000000 0.000000 0.000000
# 4 0.000000 0.000000 0.000000 0.027855 0.000000 0.000000
# 5 0.000000 0.000000 0.000000 0.000000 0.035695 0.000000
# 6 0.000000 0.000000 0.000000 0.000000 0.000000 0.049848
#
#
# Mechanical properties :
#
#
# Convention : Reuss Voigt Hill
#
# Bulk Modulus (GPa) = 26.09373 41.41860 33.75617
# Shear Modulus (GPa) = 22.01265 26.52951 24.27108
#
# Velocity S-wave (km/s) = 3.32748 3.65295 3.49401
# Velocity P-wave (km/s) = 5.28088 6.21492 5.76684
#
# Compressibility (1/GPa) = 0.03832338
#
# Stress axis : x y z
#
# Youngs Moduli (GPa) = 31.16702 41.03971 75.78775
#
# Poissons Ratio (x) = 0.16706 0.06239
# Poissons Ratio (y) = 0.12687 0.81606
# Poissons Ratio (z) = 0.02566 0.44191
#
# Static dielectric constant tensor:
#      x y z
#    x 3.285640 0.000000 0.000000 
#    y 0.000000 3.672450 0.000000 
#    z 0.000000 0.000000 3.737400 
# 
# 
# High freq. dielectric constant tensor:
#      x y z
#    x 1.748600 0.000000 0.000000 
#    y 0.000000 1.758640 0.000000 
#    z 0.000000 0.000000 1.793440 
# 
# From -- ./inp_files/16556.got.cif
#   From: 2010.03.12/outbox.cif.g09.slc.cpg/sg44_9_cif.got.tgz:16556.got - 2010.04.14 02:36:11.
