data_PCOD8188769
_publ_section_title
;
Structure prediction by ZEFSAII (Michael W. Deem and Ramdas Pophale) SiO2 
 PCOD8188769
Probable space group: I M M 2
;
_chemical_formula_sum "Si O2"
_cell_formula_units_Z 64
_cell_length_a 9.048923
_cell_length_b 24.656592
_cell_length_c 15.141138
_cell_angle_alpha 90.000000
_cell_angle_beta 90.000000
_cell_angle_gamma 90.000000
_cell_volume 3378.224127
_symmetry_space_group_name_H-M "I M M 2"
_symmetry_group_IT_number 44
_symmetry_cell_setting 'orthorhombic'
loop_
_space_group_symop_operation_xyz
x,y,z
-x,-y,z
-x,y,z
x,-y,z
1/2+x,1/2+y,1/2+z
1/2-x,1/2-y,1/2+z
1/2-x,1/2+y,1/2+z
1/2+x,1/2-y,1/2+z
loop_
_atom_site_type_symbol
_atom_site_label
_atom_site_fract_x
_atom_site_fract_y
_atom_site_fract_z
Si Si1 0.328602 0.647538 0.011840
Si Si2 0.332537 0.783588 0.224847
Si Si3 0.827038 0.110974 0.190326
Si Si4 0.825106 0.646456 0.383181
Si Si5 0.670179 0.437065 0.505083
Si Si6 0.170370 0.162106 0.706771
Si Si7 0.176004 0.060601 0.371205
Si Si8 0.670603 0.757270 0.423705
O O1 0.500000 0.659345 0.991201
O O2 0.306783 0.630506 0.114443
O O3 0.268034 0.598564 0.951357
O O4 0.239436 0.702732 0.995692
O O5 0.500000 0.795897 0.198102
O O6 0.234057 0.828517 0.177137
O O7 0.283805 0.724587 0.190613
O O8 0.309472 0.786484 0.329854
O O9 0.760307 0.082983 0.278283
O O10 0.000000 0.116276 0.201798
O O11 0.784322 0.074976 0.106076
O O12 0.776959 0.594919 0.439821
O O13 0.770882 0.636178 0.282804
O O14 0.754213 0.700064 0.425576
O O15 0.000000 0.652456 0.383929
O O16 0.500000 0.420129 0.488543
O O17 0.694763 0.500000 0.486186
O O18 0.000000 0.159922 0.739122
O O19 0.000000 0.059273 0.368616
O O20 0.238289 0.000000 0.386676
O O21 0.500000 0.746099 0.445905
#
# Coordination Sequence:
#
# PCOD8188769 Si02
#       8
#     8   8   8   8   8   8   8   8
#     4  10  19  33  56  85 115 150 191 235 280 335
#     4   9  18  32  49  74 112 151 182 222 277 331
#     4  10  19  32  54  83 113 146 188 230 273 333
#     4  11  23  39  60  83 110 147 194 243 292 342
#     4  10  22  40  60  83 113 151 194 240 293 347
#     4   9  20  37  55  80 117 152 186 233 288 343
#     4   9  17  31  53  82 115 147 182 227 273 324
#     4  10  20  35  55  81 115 151 186 230 285 342
#
# _framework density 18.944865
#
# number of rings (size 3 to 8) (size 9 to 14) (size 15 to 20)
#    0.000    2.250    1.250    2.625    1.750    4.750 
#    0.000    0.625    0.000    4.500    0.000    0.000 
#    0.000    0.000    0.000    0.000    0.000    0.000 
#
# Total GULP energy -396842.267236 kJ/mol
# GULP energy per Si atom -12401.320851 kJ/mol
# Density = 1.890175 g / cm^3
# Si number density = 18.944865 Si / 1000 Ang^3
#
#
#
# Elastic Constant Matrix: (Units=GPa)
#
#
# Indices 1 2 3 4 5 6 
#
# 1 78.9100 44.4158 50.5868 0.0000 0.0000 0.0000
# 2 44.4158 101.6231 59.3375 0.0000 0.0000 0.0000
# 3 50.5868 59.3375 110.8935 -0.0002 0.0000 0.0000
# 4 0.0000 0.0000 -0.0002 29.5758 0.0000 0.0000
# 5 0.0000 0.0000 0.0000 0.0000 20.8964 0.0000
# 6 0.0000 0.0000 0.0000 0.0000 0.0000 25.6108
#
#
#
# Elastic Compliance Matrix: (Units=1/GPa)
#
#
# Indices 1 2 3 4 5 6 
#
# 1 0.019407 -0.004818 -0.006275 0.000000 0.000000 0.000000
# 2 -0.004818 0.015508 -0.006100 0.000000 0.000000 0.000000
# 3 -0.006275 -0.006100 0.015144 0.000000 0.000000 0.000000
# 4 0.000000 0.000000 0.000000 0.033811 0.000000 0.000000
# 5 0.000000 0.000000 0.000000 0.000000 0.047855 0.000000
# 6 0.000000 0.000000 0.000000 0.000000 0.000000 0.039046
#
#
# Mechanical properties :
#
#
# Convention : Reuss Voigt Hill
#
# Bulk Modulus (GPa) = 63.80457 66.67853 65.24155
# Shear Modulus (GPa) = 23.76612 24.35570 24.06091
#
# Velocity S-wave (km/s) = 3.54572 3.58943 3.56764
# Velocity P-wave (km/s) = 7.10739 7.24232 7.17517
#
# Compressibility (1/GPa) = 0.01567286
#
# Stress axis : x y z
#
# Youngs Moduli (GPa) = 51.52658 64.48259 66.03169
#
# Poissons Ratio (x) = 0.31070 0.41435
# Poissons Ratio (y) = 0.24827 0.40280
# Poissons Ratio (z) = 0.32333 0.39335
#
# Static dielectric constant tensor:
#      x y z
#    x 3.242540 0.000000 0.000000 
#    y 0.000000 3.387230 0.000000 
#    z 0.000000 0.000000 3.537940 
# 
# 
# High freq. dielectric constant tensor:
#      x y z
#    x 1.714490 0.000000 0.000000 
#    y 0.000000 1.725810 0.000000 
#    z 0.000000 0.000000 1.739910 
# 
# From -- ./inp_files/16803.got.cif
#   From: 2010.03.12/outbox.cif.g09.slc.cpg/sg44_9_cif.got.tgz:16803.got - 2010.04.14 02:36:11.
