data_PCOD8188389
_publ_section_title
;
Structure prediction by ZEFSAII (Michael W. Deem and Ramdas Pophale) SiO2 
 PCOD8188389
Probable space group: I M M 2
;
_chemical_formula_sum "Si O2"
_cell_formula_units_Z 64
_cell_length_a 8.915275
_cell_length_b 30.672773
_cell_length_c 11.911578
_cell_angle_alpha 90.000000
_cell_angle_beta 90.000000
_cell_angle_gamma 90.000000
_cell_volume 3257.294931
_symmetry_space_group_name_H-M "I M M 2"
_symmetry_group_IT_number 44
_symmetry_cell_setting 'orthorhombic'
loop_
_space_group_symop_operation_xyz
x,y,z
-x,-y,z
-x,y,z
x,-y,z
1/2+x,1/2+y,1/2+z
1/2-x,1/2-y,1/2+z
1/2-x,1/2+y,1/2+z
1/2+x,1/2-y,1/2+z
loop_
_atom_site_type_symbol
_atom_site_label
_atom_site_fract_x
_atom_site_fract_y
_atom_site_fract_z
Si Si1 0.331008 0.328749 0.546860
Si Si2 0.328842 0.429112 0.562465
Si Si3 0.322119 0.548599 0.317528
Si Si4 0.321831 0.371605 0.169095
Si Si5 0.677680 0.871321 0.426649
Si Si6 0.825610 0.697234 0.327167
Si Si7 0.326809 0.703642 0.787673
Si Si8 0.672422 0.952040 0.283365
O O1 0.500000 0.320719 0.500752
O O2 0.312104 0.378160 0.585583
O O3 0.210682 0.318227 0.452280
O O4 0.297165 0.299370 0.654854
O O5 0.500000 0.444590 0.564940
O O6 0.257199 0.441691 0.441851
O O7 0.246368 0.453946 0.661518
O O8 0.500000 0.553013 0.322682
O O9 0.272803 0.500000 0.278780
O O10 0.260315 0.584552 0.230384
O O11 0.500000 0.371682 0.161089
O O12 0.271302 0.329300 0.237700
O O13 0.254124 0.369228 0.046541
O O14 0.500000 0.872554 0.442701
O O15 0.721240 0.828996 0.355539
O O16 0.739958 0.914880 0.364662
O O17 0.781735 0.747747 0.321441
O O18 0.000000 0.689601 0.301139
O O19 0.500000 0.692923 0.815980
O O20 0.500000 0.940923 0.263614
O O21 0.694808 0.000000 0.338915
#
# Coordination Sequence:
#
# PCOD8188389 Si02
#       8
#     8   8   8   8   8   8   8   8
#     4  10  20  38  63  89 120 156 194 242 298 349
#     4  10  18  34  61  89 117 151 193 240 292 346
#     4   9  18  34  57  86 117 150 193 243 292 344
#     4  11  23  41  62  85 118 159 199 246 301 350
#     4  11  24  41  61  86 117 157 201 247 296 349
#     4  11  24  40  61  91 122 156 199 243 294 355
#     4  10  23  42  62  88 121 157 198 245 293 349
#     4  10  22  39  58  85 122 158 192 236 295 356
#
# _framework density 19.648205000000001
#
# number of rings (size 3 to 8) (size 9 to 14) (size 15 to 20)
#    0.000    1.750    2.500    1.500    1.750    3.750 
#    0.000    0.000    0.000    1.875    0.000    0.000 
#    0.000    0.000    0.000    0.000    0.000    0.000 
#
# Total GULP energy -396863.270691 kJ/mol
# GULP energy per Si atom -12401.977209 kJ/mol
# Density = 1.960349 g / cm^3
# Si number density = 19.648205 Si / 1000 Ang^3
#
#
#
# Elastic Constant Matrix: (Units=GPa)
#
#
# Indices 1 2 3 4 5 6 
#
# 1 55.9703 39.7183 36.4708 0.0004 0.0002 0.0002
# 2 39.7183 118.0997 52.5864 -0.0004 0.0004 0.0004
# 3 36.4708 52.5864 112.6662 0.0050 0.0025 0.0004
# 4 0.0004 -0.0004 0.0050 17.3734 0.0010 0.0000
# 5 0.0002 0.0004 0.0025 0.0010 31.9134 -0.0002
# 6 0.0002 0.0004 0.0004 0.0000 -0.0002 22.0137
#
#
#
# Elastic Compliance Matrix: (Units=1/GPa)
#
#
# Indices 1 2 3 4 5 6 
#
# 1 0.025867 -0.006275 -0.005445 0.000001 0.000000 0.000000
# 2 -0.006275 0.012211 -0.003668 0.000001 0.000000 0.000000
# 3 -0.005445 -0.003668 0.012350 -0.000004 -0.000001 0.000000
# 4 0.000001 0.000001 -0.000004 0.057559 -0.000002 0.000000
# 5 0.000000 0.000000 -0.000001 -0.000002 0.031335 0.000000
# 6 0.000000 0.000000 0.000000 0.000000 0.000000 0.045426
#
#
# Mechanical properties :
#
#
# Convention : Reuss Voigt Hill
#
# Bulk Modulus (GPa) = 50.88268 60.47637 55.67952
# Shear Modulus (GPa) = 22.51480 24.79080 23.65280
#
# Velocity S-wave (km/s) = 3.38878 3.55594 3.47337
# Velocity P-wave (km/s) = 6.42377 6.90696 6.66974
#
# Compressibility (1/GPa) = 0.01965305
#
# Stress axis : x y z
#
# Youngs Moduli (GPa) = 38.65867 81.89218 80.96959
#
# Poissons Ratio (x) = 0.51389 0.44084
# Poissons Ratio (y) = 0.24259 0.29701
# Poissons Ratio (z) = 0.21048 0.30039
#
# Static dielectric constant tensor:
#      x y z
#    x 3.413360 0.000000 0.000000 
#    y 0.000000 3.810830 0.000000 
#    z 0.000000 0.000000 3.574020 
# 
# 
# High freq. dielectric constant tensor:
#      x y z
#    x 1.747600 0.000000 0.000000 
#    y 0.000000 1.781310 0.000000 
#    z 0.000000 0.000000 1.767950 
# 
# From -- ./inp_files/11562.got.cif
#   From: 2010.03.12/outbox.cif.g09.slc.cpg/sg44_6_cif.got.tgz:11562.got - 2010.04.14 02:36:11.
