data_PCOD8188853
_publ_section_title
;
Structure prediction by ZEFSAII (Michael W. Deem and Ramdas Pophale) SiO2 
 PCOD8188853
Probable space group: I M M 2
;
_chemical_formula_sum "Si O2"
_cell_formula_units_Z 48
_cell_length_a 29.722042
_cell_length_b 8.942953
_cell_length_c 9.968282
_cell_angle_alpha 90.000000
_cell_angle_beta 90.000000
_cell_angle_gamma 90.000000
_cell_volume 2649.597513
_symmetry_space_group_name_H-M "I M M 2"
_symmetry_group_IT_number 44
_symmetry_cell_setting 'orthorhombic'
loop_
_space_group_symop_operation_xyz
x,y,z
-x,-y,z
-x,y,z
x,-y,z
1/2+x,1/2+y,1/2+z
1/2-x,1/2-y,1/2+z
1/2-x,1/2+y,1/2+z
1/2+x,1/2-y,1/2+z
loop_
_atom_site_type_symbol
_atom_site_label
_atom_site_fract_x
_atom_site_fract_y
_atom_site_fract_z
Si Si1 0.450339 0.322473 0.408630
Si Si2 0.282783 0.828991 0.890418
Si Si3 0.121992 0.177442 0.697261
Si Si4 0.784442 0.325741 0.696583
Si Si5 0.885433 0.327221 0.419260
Si Si6 0.552531 0.670839 0.710628
O O1 0.500000 0.259412 0.371257
O O2 0.452053 0.500000 0.402548
O O3 0.413605 0.259116 0.305493
O O4 0.437362 0.274293 0.559500
O O5 0.255931 0.719813 0.793197
O O6 0.335313 0.799222 0.864126
O O7 0.269833 0.000000 0.858144
O O8 0.270605 0.788535 0.043877
O O9 0.170759 0.238125 0.738181
O O10 0.105867 0.232064 0.552439
O O11 0.123638 0.000000 0.698088
O O12 0.794956 0.500000 0.711521
O O13 0.892100 0.500000 0.456392
O O14 0.920607 0.279760 0.307452
O O15 0.500000 0.684919 0.743620
O O16 0.568574 0.500000 0.731544
#
# Coordination Sequence:
#
# PCOD8188853 Si02
#       6
#     8   8   8   8   8   8
#     4   8  16  32  53  77 103 131 169 215 255 298
#     4   9  20  37  53  73 102 135 171 209 253 308
#     4  10  19  33  55  79 104 136 172 211 257 308
#     4  10  21  36  54  77 105 135 170 214 259 305
#     4  10  21  36  52  75 108 139 171 214 259 305
#     4   9  18  34  55  77 102 135 175 215 257 309
#
# _framework density 18.115960999999999
#
# number of rings (size 3 to 8) (size 9 to 14) (size 15 to 20)
#    0.000    2.667    0.000    3.500    0.000    6.333 
#    0.000    8.333    0.000    3.500    0.000    0.000 
#    0.000    0.000    0.000    0.000    0.000    0.000 
#
# Total GULP energy -297619.025079 kJ/mol
# GULP energy per Si atom -12400.792712 kJ/mol
# Density = 1.807473 g / cm^3
# Si number density = 18.115961 Si / 1000 Ang^3
#
#
#
# Elastic Constant Matrix: (Units=GPa)
#
#
# Indices 1 2 3 4 5 6 
#
# 1 91.3882 39.1802 70.1601 0.0000 0.0000 0.0000
# 2 39.1802 64.9148 37.3552 0.0000 0.0000 0.0000
# 3 70.1601 37.3552 98.1648 0.0000 0.0000 0.0000
# 4 0.0000 0.0000 0.0000 24.3349 0.0000 0.0000
# 5 0.0000 0.0000 0.0000 0.0000 38.1948 0.0000
# 6 0.0000 0.0000 0.0000 0.0000 0.0000 27.7667
#
#
#
# Elastic Compliance Matrix: (Units=1/GPa)
#
#
# Indices 1 2 3 4 5 6 
#
# 1 0.026198 -0.006450 -0.016270 0.000000 0.000000 0.000000
# 2 -0.006450 0.021312 -0.003500 0.000000 0.000000 0.000000
# 3 -0.016270 -0.003500 0.023147 0.000000 0.000000 0.000000
# 4 0.000000 0.000000 0.000000 0.041093 0.000000 0.000000
# 5 0.000000 0.000000 0.000000 0.000000 0.026182 0.000000
# 6 0.000000 0.000000 0.000000 0.000000 0.000000 0.036014
#
#
# Mechanical properties :
#
#
# Convention : Reuss Voigt Hill
#
# Bulk Modulus (GPa) = 54.89196 60.87320 57.88258
# Shear Modulus (GPa) = 21.50919 25.24408 23.37664
#
# Velocity S-wave (km/s) = 3.44947 3.73697 3.59610
# Velocity P-wave (km/s) = 6.79935 7.23152 7.01876
#
# Compressibility (1/GPa) = 0.01821761
#
# Stress axis : x y z
#
# Youngs Moduli (GPa) = 38.17060 46.92236 43.20154
#
# Poissons Ratio (x) = 0.30264 0.70289
# Poissons Ratio (y) = 0.24619 0.15121
# Poissons Ratio (z) = 0.62103 0.16424
#
# Static dielectric constant tensor:
#      x y z
#    x 3.431660 0.000000 0.000000 
#    y 0.000000 3.180570 0.000000 
#    z 0.000000 0.000000 3.406540 
# 
# 
# High freq. dielectric constant tensor:
#      x y z
#    x 1.704010 0.000000 0.000000 
#    y 0.000000 1.691850 0.000000 
#    z 0.000000 0.000000 1.704480 
# 
# From -- ./inp_files/4875.got.cif
#   From: 2010.03.12/outbox.cif.g09.slc.cpg/sg44_3_cif.got.tgz:4875.got - 2010.04.14 02:36:11.
