data_PCOD8188027
_publ_section_title
;
Structure prediction by ZEFSAII (Michael W. Deem and Ramdas Pophale) SiO2 
 PCOD8188027
Probable space group: I M M 2
;
_chemical_formula_sum "Si O2"
_cell_formula_units_Z 56
_cell_length_a 9.217422
_cell_length_b 28.960046
_cell_length_c 13.560478
_cell_angle_alpha 90.000000
_cell_angle_beta 90.000000
_cell_angle_gamma 90.000000
_cell_volume 3619.792843
_symmetry_space_group_name_H-M "I M M 2"
_symmetry_group_IT_number 44
_symmetry_cell_setting 'orthorhombic'
loop_
_space_group_symop_operation_xyz
x,y,z
-x,-y,z
-x,y,z
x,-y,z
1/2+x,1/2+y,1/2+z
1/2-x,1/2-y,1/2+z
1/2-x,1/2+y,1/2+z
1/2+x,1/2-y,1/2+z
loop_
_atom_site_type_symbol
_atom_site_label
_atom_site_fract_x
_atom_site_fract_y
_atom_site_fract_z
Si Si1 0.835223 0.500000 0.033450
Si Si2 0.669597 0.590815 0.035637
Si Si3 0.667712 0.771836 0.256114
Si Si4 0.830920 0.089211 0.765903
Si Si5 0.829875 0.772356 0.059616
Si Si6 0.827568 0.817767 0.863211
Si Si7 0.163192 0.500000 0.267933
Si Si8 0.166997 0.677596 0.956304
O O1 0.751841 0.545441 0.995143
O O2 0.833386 0.500000 0.150730
O O3 0.000000 0.500000 0.993016
O O4 0.500000 0.584821 0.013643
O O5 0.699754 0.597921 0.151160
O O6 0.728717 0.635084 0.978635
O O7 0.500000 0.767332 0.228167
O O8 0.752081 0.787677 0.159281
O O9 0.731594 0.722496 0.291563
O O10 0.690334 0.809211 0.342221
O O11 0.769743 0.133020 0.826109
O O12 0.000000 0.080676 0.785491
O O13 0.745125 0.045204 0.807498
O O14 0.000000 0.776622 0.076269
O O15 0.776834 0.808061 0.975030
O O16 0.789341 0.720419 0.026341
O O17 0.000000 0.815413 0.858277
O O18 0.000000 0.500000 0.309056
O O19 0.000000 0.663610 0.975450
#
# Coordination Sequence:
#
# PCOD8188027 Si02
#       8
#     4   8   8   8   8   8   4   8
#     4   9  17  29  43  59  86 119 142 167 213 264
#     4  10  18  27  43  66  88 111 145 183 209 240
#     4   9  17  30  45  61  85 115 144 174 210 253
#     4   9  16  27  43  61  83 113 144 171 204 249
#     4   9  17  29  44  62  85 112 143 178 211 247
#     4   8  15  28  44  61  83 113 144 171 206 251
#     4   9  17  27  39  59  86 111 136 171 211 248
#     4   9  18  30  43  61  87 118 145 169 210 264
#
# _framework density 15.470497999999999
#
# number of rings (size 3 to 8) (size 9 to 14) (size 15 to 20)
#    0.000    3.000    0.000    3.429    0.000    4.571 
#    0.000    3.571    0.000    0.000    0.000    1.000 
#    0.000    3.429    0.000    0.000    0.000    0.000 
#
# Total GULP energy -347143.398664 kJ/mol
# GULP energy per Si atom -12397.978524 kJ/mol
# Density = 1.543529 g / cm^3
# Si number density = 15.470498 Si / 1000 Ang^3
#
#
#
# Elastic Constant Matrix: (Units=GPa)
#
#
# Indices 1 2 3 4 5 6 
#
# 1 70.8722 55.4791 35.5696 0.0001 -0.0001 0.0000
# 2 55.4791 123.6186 40.9664 0.0001 0.0000 0.0000
# 3 35.5696 40.9664 74.7507 0.0005 0.0001 -0.0001
# 4 0.0001 0.0001 0.0005 20.6565 0.0000 -0.0001
# 5 -0.0001 0.0000 0.0001 0.0000 23.4658 0.0001
# 6 0.0000 0.0000 -0.0001 -0.0001 0.0001 25.5897
#
#
#
# Elastic Compliance Matrix: (Units=1/GPa)
#
#
# Indices 1 2 3 4 5 6 
#
# 1 0.024303 -0.008645 -0.006827 0.000000 0.000000 0.000000
# 2 -0.008645 0.012960 -0.002989 0.000000 0.000000 0.000000
# 3 -0.006827 -0.002989 0.018264 0.000000 0.000000 0.000000
# 4 0.000000 0.000000 0.000000 0.048411 0.000000 0.000000
# 5 0.000000 0.000000 0.000000 0.000000 0.042615 0.000000
# 6 0.000000 0.000000 0.000000 0.000000 0.000000 0.039078
#
#
# Mechanical properties :
#
#
# Convention : Reuss Voigt Hill
#
# Bulk Modulus (GPa) = 53.74524 59.25240 56.49882
# Shear Modulus (GPa) = 21.85747 23.09083 22.47415
#
# Velocity S-wave (km/s) = 3.76287 3.86757 3.81558
# Velocity P-wave (km/s) = 7.32767 7.63725 7.48406
#
# Compressibility (1/GPa) = 0.01860630
#
# Stress axis : x y z
#
# Youngs Moduli (GPa) = 41.14650 77.16287 54.75153
#
# Poissons Ratio (x) = 0.66706 0.37378
# Poissons Ratio (y) = 0.35570 0.16364
# Poissons Ratio (z) = 0.28090 0.23063
#
# Static dielectric constant tensor:
#      x y z
#    x 2.858190 0.000000 0.000000 
#    y 0.000000 3.044750 0.000000 
#    z 0.000000 0.000000 2.756620 
# 
# 
# High freq. dielectric constant tensor:
#      x y z
#    x 1.586970 0.000000 0.000000 
#    y 0.000000 1.591220 0.000000 
#    z 0.000000 0.000000 1.562820 
# 
# From -- ./inp_files/17059.got.cif
#   From: 2010.03.12/outbox.cif.g09.slc.cpg/sg44_9_cif.got.tgz:17059.got - 2010.04.14 02:36:11.
