data_PCOD8188517
_publ_section_title
;
Structure prediction by ZEFSAII (Michael W. Deem and Ramdas Pophale) SiO2 
 PCOD8188517
Probable space group: I M M 2
;
_chemical_formula_sum "Si O2"
_cell_formula_units_Z 56
_cell_length_a 18.395344
_cell_length_b 8.692707
_cell_length_c 20.904593
_cell_angle_alpha 90.000000
_cell_angle_beta 90.000000
_cell_angle_gamma 90.000000
_cell_volume 3342.755958
_symmetry_space_group_name_H-M "I M M 2"
_symmetry_group_IT_number 44
_symmetry_cell_setting 'orthorhombic'
loop_
_space_group_symop_operation_xyz
x,y,z
-x,-y,z
-x,y,z
x,-y,z
1/2+x,1/2+y,1/2+z
1/2-x,1/2-y,1/2+z
1/2-x,1/2+y,1/2+z
1/2+x,1/2-y,1/2+z
loop_
_atom_site_type_symbol
_atom_site_label
_atom_site_fract_x
_atom_site_fract_y
_atom_site_fract_z
Si Si1 0.710639 0.829708 0.574150
Si Si2 0.582899 0.676969 0.509754
Si Si3 0.857394 0.316783 0.883961
Si Si4 0.417792 0.316849 0.009120
Si Si5 0.083876 0.179366 0.755015
Si Si6 0.714293 0.667940 0.937540
Si Si7 0.154660 0.681204 0.631747
O O1 0.631817 0.752467 0.565398
O O2 0.747250 0.844461 0.505692
O O3 0.761534 0.726029 0.619384
O O4 0.701426 0.000000 0.604348
O O5 0.500000 0.697792 0.531652
O O6 0.605202 0.500000 0.502965
O O7 0.592293 0.753567 0.440401
O O8 0.854585 0.500000 0.890591
O O9 0.890422 0.270179 0.817039
O O10 0.773568 0.249818 0.891164
O O11 0.500000 0.276747 0.989598
O O12 0.406154 0.500000 0.018353
O O13 0.398839 0.235180 0.075440
O O14 0.364323 0.252648 0.952002
O O15 0.131026 0.234309 0.695843
O O16 0.000000 0.217769 0.741510
O O17 0.096269 0.000000 0.766985
O O18 0.697742 0.500000 0.908740
O O19 0.147779 0.500000 0.640629
#
# Coordination Sequence:
#
# PCOD8188517 Si02
#       7
#     8   8   8   8   8   8   8
#     4   9  17  31  49  67  90 121 157 193 231 277
#     4  10  19  30  46  71 101 128 155 191 235 279
#     4  10  19  31  47  66  92 126 162 198 234 277
#     4   9  16  28  47  69  94 124 155 187 226 274
#     4  11  23  36  48  64  90 124 160 197 236 279
#     4   7  13  26  43  64  88 115 148 186 227 270
#     4  11  21  32  47  67  93 123 155 192 234 281
#
# _framework density 16.752645000000001
#
# number of rings (size 3 to 8) (size 9 to 14) (size 15 to 20)
#    0.000    2.429    0.000    5.571    0.000    6.000 
#    0.000    0.714    0.000    0.000    0.000    1.000 
#    0.000    5.714    0.000    0.000    0.000    0.000 
#
# Total GULP energy -346970.286584 kJ/mol
# GULP energy per Si atom -12391.795949 kJ/mol
# Density = 1.671451 g / cm^3
# Si number density = 16.752645 Si / 1000 Ang^3
#
#
#
# Elastic Constant Matrix: (Units=GPa)
#
#
# Indices 1 2 3 4 5 6 
#
# 1 115.8194 30.6592 28.9604 0.0000 0.0000 0.0000
# 2 30.6592 40.0392 5.2342 0.0000 0.0000 0.0000
# 3 28.9604 5.2342 36.2121 0.0000 0.0000 0.0000
# 4 0.0000 0.0000 0.0000 15.0742 0.0000 0.0000
# 5 0.0000 0.0000 0.0000 0.0000 24.8384 0.0000
# 6 0.0000 0.0000 0.0000 0.0000 0.0000 24.7005
#
#
#
# Elastic Compliance Matrix: (Units=1/GPa)
#
#
# Indices 1 2 3 4 5 6 
#
# 1 0.013366 -0.009007 -0.009387 0.000000 0.000000 0.000000
# 2 -0.009007 0.031527 0.002647 0.000000 0.000000 0.000000
# 3 -0.009387 0.002647 0.034740 0.000000 0.000000 0.000000
# 4 0.000000 0.000000 0.000000 0.066338 0.000000 0.000000
# 5 0.000000 0.000000 0.000000 0.000000 0.040260 0.000000
# 6 0.000000 0.000000 0.000000 0.000000 0.000000 0.040485
#
#
# Mechanical properties :
#
#
# Convention : Reuss Voigt Hill
#
# Bulk Modulus (GPa) = 20.77428 35.75314 28.26371
# Shear Modulus (GPa) = 18.23103 21.40376 19.81739
#
# Velocity S-wave (km/s) = 3.30244 3.57828 3.44312
# Velocity P-wave (km/s) = 5.19317 6.20163 5.71967
#
# Compressibility (1/GPa) = 0.04813645
#
# Stress axis : x y z
#
# Youngs Moduli (GPa) = 74.81785 31.71901 28.78532
#
# Poissons Ratio (x) = 0.28571 0.27021
# Poissons Ratio (y) = 0.67392 -0.07618
# Poissons Ratio (z) = 0.70233 -0.08395
#
# Static dielectric constant tensor:
#      x y z
#    x 3.569660 0.000000 0.000000 
#    y 0.000000 3.184630 0.000000 
#    z 0.000000 0.000000 2.897480 
# 
# 
# High freq. dielectric constant tensor:
#      x y z
#    x 1.656350 0.000000 0.000000 
#    y 0.000000 1.645540 0.000000 
#    z 0.000000 0.000000 1.601660 
# 
# From -- ./inp_files/23230.got.cif
#   From: 2010.03.12/outbox.cif.g09.slc.cpg/sg44_12_cif.got.tgz:23230.got - 2010.04.14 02:36:11.
