data_PCOD8188616
_publ_section_title
;
Structure prediction by ZEFSAII (Michael W. Deem and Ramdas Pophale) SiO2 
 PCOD8188616
Probable space group: I M M 2
;
_chemical_formula_sum "Si O2"
_cell_formula_units_Z 64
_cell_length_a 29.939293
_cell_length_b 8.693115
_cell_length_c 14.250280
_cell_angle_alpha 90.000000
_cell_angle_beta 90.000000
_cell_angle_gamma 90.000000
_cell_volume 3708.859343
_symmetry_space_group_name_H-M "I M M 2"
_symmetry_group_IT_number 44
_symmetry_cell_setting 'orthorhombic'
loop_
_space_group_symop_operation_xyz
x,y,z
-x,-y,z
-x,y,z
x,-y,z
1/2+x,1/2+y,1/2+z
1/2-x,1/2-y,1/2+z
1/2-x,1/2+y,1/2+z
1/2+x,1/2-y,1/2+z
loop_
_atom_site_type_symbol
_atom_site_label
_atom_site_fract_x
_atom_site_fract_y
_atom_site_fract_z
Si Si1 0.365648 0.324054 0.611790
Si Si2 0.783310 0.319880 0.588986
Si Si3 0.200200 0.320024 0.976881
Si Si4 0.725042 0.322099 0.290385
Si Si5 0.685829 0.671466 0.802176
Si Si6 0.050264 0.679727 0.422682
Si Si7 0.135050 0.175106 0.487266
Si Si8 0.449683 0.322406 0.722831
O O1 0.364977 0.500000 0.576866
O O2 0.345866 0.216398 0.530856
O O3 0.334107 0.301457 0.700710
O O4 0.415873 0.272027 0.639733
O O5 0.774497 0.500000 0.578134
O O6 0.743693 0.233989 0.534457
O O7 0.784249 0.276005 0.697850
O O8 0.831645 0.276794 0.548773
O O9 0.204908 0.500000 0.960620
O O10 0.195078 0.236414 0.876676
O O11 0.715422 0.500000 0.270321
O O12 0.776293 0.297350 0.321804
O O13 0.706836 0.500000 0.810050
O O14 0.647162 0.691548 0.878016
O O15 0.057795 0.500000 0.433951
O O16 0.084219 0.764305 0.493953
O O17 0.059031 0.722218 0.314668
O O18 0.000000 0.728749 0.451379
O O19 0.137564 0.000000 0.523094
O O20 0.500000 0.299205 0.684918
O O21 0.440228 0.500000 0.750104
#
# Coordination Sequence:
#
# PCOD8188616 Si02
#       8
#     8   8   8   8   8   8   8   8
#     4  10  19  33  51  75 105 140 179 217 260 311
#     4  12  24  38  55  77 106 139 176 220 264 314
#     4  12  24  37  53  76 105 140 180 219 261 313
#     4  12  24  38  55  75 102 140 180 222 265 309
#     4  10  19  31  50  74 106 141 176 218 259 304
#     4  10  20  32  48  74 108 142 177 218 264 314
#     4  11  21  35  54  77 105 141 182 219 260 317
#     4   9  17  31  51  74 103 139 177 218 265 315
#
# _framework density 17.255979
#
# number of rings (size 3 to 8) (size 9 to 14) (size 15 to 20)
#    0.000    1.250    3.750    4.125    0.000    1.750 
#    0.000    0.000    0.000    0.000    0.000    0.875 
#    0.000    5.000    0.000    0.000    0.000    0.000 
#
# Total GULP energy -396842.394990 kJ/mol
# GULP energy per Si atom -12401.324843 kJ/mol
# Density = 1.721670 g / cm^3
# Si number density = 17.255979 Si / 1000 Ang^3
#
#
#
# Elastic Constant Matrix: (Units=GPa)
#
#
# Indices 1 2 3 4 5 6 
#
# 1 93.7897 22.2333 15.7345 0.0000 0.0000 0.0000
# 2 22.2333 75.1604 10.3304 0.0000 0.0000 0.0000
# 3 15.7345 10.3304 52.9154 0.0000 0.0000 0.0000
# 4 0.0000 0.0000 0.0000 26.1689 0.0000 0.0000
# 5 0.0000 0.0000 0.0000 0.0000 23.9694 0.0000
# 6 0.0000 0.0000 0.0000 0.0000 0.0000 24.3853
#
#
#
# Elastic Compliance Matrix: (Units=1/GPa)
#
#
# Indices 1 2 3 4 5 6 
#
# 1 0.011892 -0.003115 -0.002928 0.000000 0.000000 0.000000
# 2 -0.003115 0.014488 -0.001902 0.000000 0.000000 0.000000
# 3 -0.002928 -0.001902 0.020140 0.000000 0.000000 0.000000
# 4 0.000000 0.000000 0.000000 0.038213 0.000000 0.000000
# 5 0.000000 0.000000 0.000000 0.000000 0.041720 0.000000
# 6 0.000000 0.000000 0.000000 0.000000 0.000000 0.041008
#
#
# Mechanical properties :
#
#
# Convention : Reuss Voigt Hill
#
# Bulk Modulus (GPa) = 32.64855 35.38466 34.01661
# Shear Modulus (GPa) = 25.83162 26.47590 26.15376
#
# Velocity S-wave (km/s) = 3.87326 3.92127 3.89734
# Velocity P-wave (km/s) = 6.24212 6.40719 6.32519
#
# Compressibility (1/GPa) = 0.03062923
#
# Stress axis : x y z
#
# Youngs Moduli (GPa) = 84.09133 69.02337 49.65241
#
# Poissons Ratio (x) = 0.21503 0.14538
# Poissons Ratio (y) = 0.26197 0.09444
# Poissons Ratio (z) = 0.24621 0.13129
#
# Static dielectric constant tensor:
#      x y z
#    x 3.349560 0.000000 0.000000 
#    y 0.000000 3.290820 0.000000 
#    z 0.000000 0.000000 3.092670 
# 
# 
# High freq. dielectric constant tensor:
#      x y z
#    x 1.658950 0.000000 0.000000 
#    y 0.000000 1.674170 0.000000 
#    z 0.000000 0.000000 1.639580 
# 
# From -- ./inp_files/19705.got.cif
#   From: 2010.03.12/outbox.cif.g09.slc.cpg/sg44_10_cif.got.tgz:19705.got - 2010.04.14 02:36:11.
