data_PCOD8188895
_publ_section_title
;
Structure prediction by ZEFSAII (Michael W. Deem and Ramdas Pophale) SiO2 
 PCOD8188895
Probable space group: I M M 2
;
_chemical_formula_sum "Si O2"
_cell_formula_units_Z 40
_cell_length_a 25.954170
_cell_length_b 8.522442
_cell_length_c 9.726199
_cell_angle_alpha 90.000000
_cell_angle_beta 90.000000
_cell_angle_gamma 90.000000
_cell_volume 2151.366245
_symmetry_space_group_name_H-M "I M M 2"
_symmetry_group_IT_number 44
_symmetry_cell_setting 'orthorhombic'
loop_
_space_group_symop_operation_xyz
x,y,z
-x,-y,z
-x,y,z
x,-y,z
1/2+x,1/2+y,1/2+z
1/2-x,1/2-y,1/2+z
1/2-x,1/2+y,1/2+z
1/2+x,1/2-y,1/2+z
loop_
_atom_site_type_symbol
_atom_site_label
_atom_site_fract_x
_atom_site_fract_y
_atom_site_fract_z
Si Si1 0.558584 0.313439 0.527720
Si Si2 0.136230 0.815337 0.805391
Si Si3 0.638661 0.183787 0.736728
Si Si4 0.329519 0.685157 0.015028
Si Si5 0.783533 0.184203 0.028641
O O1 0.500000 0.254269 0.527463
O O2 0.562551 0.500000 0.542845
O O3 0.585087 0.255330 0.385127
O O4 0.587968 0.236836 0.655415
O O5 0.140198 0.750541 0.650151
O O6 0.186575 0.762583 0.890892
O O7 0.133635 0.000000 0.797800
O O8 0.636766 0.270250 0.883367
O O9 0.691353 0.228222 0.658577
O O10 0.637508 0.000000 0.762318
O O11 0.320120 0.500000 0.022400
O O12 0.275127 0.771194 0.008657
O O13 0.789813 0.000000 0.054951
#
# Coordination Sequence:
#
# PCOD8188895 Si02
#       5
#     8   8   8   8   8
#     4   9  18  37  62  80  96 127 174 226 277 325
#     4   8  17  32  51  76 103 130 167 217 265 312
#     4  11  22  35  51  76 110 145 180 215 256 311
#     4  11  20  32  51  78 112 144 175 214 262 313
#     4  10  19  34  54  77 106 141 181 219 260 310
#
# _framework density 18.592836999999999
#
# number of rings (size 3 to 8) (size 9 to 14) (size 15 to 20)
#    0.000    2.200    0.000    5.400    0.000    2.000 
#    0.000   10.000    0.000    3.600    0.000    0.000 
#    0.000    0.000    0.000    0.000    0.000    0.000 
#
# Total GULP energy -247980.746257 kJ/mol
# GULP energy per Si atom -12399.037313 kJ/mol
# Density = 1.855052 g / cm^3
# Si number density = 18.592837 Si / 1000 Ang^3
#
#
#
# Elastic Constant Matrix: (Units=GPa)
#
#
# Indices 1 2 3 4 5 6 
#
# 1 119.1021 12.3526 59.7173 0.0000 0.0000 0.0000
# 2 12.3526 33.0796 12.4457 0.0000 0.0000 0.0000
# 3 59.7173 12.4457 163.6108 0.0000 0.0000 0.0000
# 4 0.0000 0.0000 0.0000 19.0163 0.0000 0.0000
# 5 0.0000 0.0000 0.0000 0.0000 8.4048 0.0000
# 6 0.0000 0.0000 0.0000 0.0000 0.0000 24.7539
#
#
#
# Elastic Compliance Matrix: (Units=1/GPa)
#
#
# Indices 1 2 3 4 5 6 
#
# 1 0.010481 -0.002548 -0.003632 0.000000 0.000000 0.000000
# 2 -0.002548 0.031740 -0.001485 0.000000 0.000000 0.000000
# 3 -0.003632 -0.001485 0.007551 0.000000 0.000000 0.000000
# 4 0.000000 0.000000 0.000000 0.052586 0.000000 0.000000
# 5 0.000000 0.000000 0.000000 0.000000 0.118979 0.000000
# 6 0.000000 0.000000 0.000000 0.000000 0.000000 0.040398
#
#
# Mechanical properties :
#
#
# Convention : Reuss Voigt Hill
#
# Bulk Modulus (GPa) = 29.03266 53.86929 41.45098
# Shear Modulus (GPa) = 17.32834 25.85348 21.59091
#
# Velocity S-wave (km/s) = 3.05616 3.73300 3.41141
# Velocity P-wave (km/s) = 5.30117 6.90046 6.15300
#
# Compressibility (1/GPa) = 0.03444396
#
# Stress axis : x y z
#
# Youngs Moduli (GPa) = 95.40735 31.50605 132.43953
#
# Poissons Ratio (x) = 0.08026 0.48100
# Poissons Ratio (y) = 0.24305 0.19662
# Poissons Ratio (z) = 0.34651 0.04677
#
# Static dielectric constant tensor:
#      x y z
#    x 3.393030 0.000000 0.000000 
#    y 0.000000 3.261940 0.000000 
#    z 0.000000 0.000000 3.848580 
# 
# 
# High freq. dielectric constant tensor:
#      x y z
#    x 1.704980 0.000000 0.000000 
#    y 0.000000 1.710190 0.000000 
#    z 0.000000 0.000000 1.731640 
# 
# From -- ./inp_files/4434.got.cif
#   From: 2010.03.12/outbox.cif.g09.slc.cpg/sg44_3_cif.got.tgz:4434.got - 2010.04.14 02:36:11.
