data_PCOD8188810
_publ_section_title
;
Structure prediction by ZEFSAII (Michael W. Deem and Ramdas Pophale) SiO2 
 PCOD8188810
Probable space group: I M M 2
;
_chemical_formula_sum "Si O2"
_cell_formula_units_Z 64
_cell_length_a 9.356117
_cell_length_b 32.872047
_cell_length_c 11.463924
_cell_angle_alpha 90.000000
_cell_angle_beta 90.000000
_cell_angle_gamma 90.000000
_cell_volume 3525.783910
_symmetry_space_group_name_H-M "I M M 2"
_symmetry_group_IT_number 44
_symmetry_cell_setting 'orthorhombic'
loop_
_space_group_symop_operation_xyz
x,y,z
-x,-y,z
-x,y,z
x,-y,z
1/2+x,1/2+y,1/2+z
1/2-x,1/2-y,1/2+z
1/2-x,1/2+y,1/2+z
1/2+x,1/2-y,1/2+z
loop_
_atom_site_type_symbol
_atom_site_label
_atom_site_fract_x
_atom_site_fract_y
_atom_site_fract_z
Si Si1 0.831391 0.546842 0.073520
Si Si2 0.333490 0.828680 0.299963
Si Si3 0.832953 0.849188 0.946505
Si Si4 0.167142 0.895822 0.178544
Si Si5 0.332188 0.381844 0.196746
Si Si6 0.157360 0.547574 0.810321
Si Si7 0.662336 0.217414 0.067932
Si Si8 0.664103 0.690698 0.022108
O O1 0.786603 0.500000 0.100313
O O2 0.749125 0.577151 0.160378
O O3 0.000000 0.552116 0.092630
O O4 0.789615 0.559122 0.941025
O O5 0.500000 0.837825 0.314711
O O6 0.248935 0.869988 0.276637
O O7 0.299054 0.797857 0.196206
O O8 0.272569 0.809403 0.416084
O O9 0.780295 0.868928 0.825952
O O10 0.000000 0.839538 0.941941
O O11 0.794917 0.881585 0.048144
O O12 0.757353 0.805976 0.971541
O O13 0.230603 0.940103 0.208215
O O14 0.000000 0.894162 0.202335
O O15 0.500000 0.391406 0.195621
O O16 0.293576 0.344198 0.113284
O O17 0.142783 0.500000 0.803596
O O18 0.000000 0.566864 0.787065
O O19 0.500000 0.207284 0.034062
O O20 0.689718 0.265258 0.077917
O O21 0.500000 0.685430 0.980814
#
# Coordination Sequence:
#
# PCOD8188810 Si02
#       8
#     8   8   8   8   8   8   8   8
#     4   9  19  36  56  79 109 140 173 219 269 317
#     4  10  20  34  53  75 100 134 172 209 259 314
#     4   9  20  37  55  74 103 143 181 217 263 314
#     4  10  19  33  53  76 103 135 173 216 259 308
#     4  10  21  36  55  78 106 142 180 221 266 318
#     4   9  18  33  54  80 109 138 170 214 266 319
#     4   9  20  36  53  75 103 136 174 218 265 312
#     4  10  21  35  52  77 107 134 170 222 267 309
#
# _framework density 18.151993000000001
#
# number of rings (size 3 to 8) (size 9 to 14) (size 15 to 20)
#    0.000    2.500    0.000    2.250    1.750    5.500 
#    0.000    1.875    0.000    3.750    0.000    0.000 
#    0.000    0.000    0.000    0.000    0.000    0.000 
#
# Total GULP energy -396733.939570 kJ/mol
# GULP energy per Si atom -12397.935612 kJ/mol
# Density = 1.811068 g / cm^3
# Si number density = 18.151993 Si / 1000 Ang^3
#
#
#
# Elastic Constant Matrix: (Units=GPa)
#
#
# Indices 1 2 3 4 5 6 
#
# 1 73.5284 45.5398 51.9484 -0.0014 0.0001 0.0001
# 2 45.5398 91.7647 58.2677 -0.0022 0.0000 0.0000
# 3 51.9484 58.2677 101.1193 -0.0027 -0.0001 -0.0001
# 4 -0.0014 -0.0022 -0.0027 24.4876 -0.0001 -0.0001
# 5 0.0001 0.0000 -0.0001 -0.0001 29.2604 -0.0005
# 6 0.0001 0.0000 -0.0001 -0.0001 -0.0005 33.5318
#
#
#
# Elastic Compliance Matrix: (Units=1/GPa)
#
#
# Indices 1 2 3 4 5 6 
#
# 1 0.023444 -0.006287 -0.008421 0.000000 0.000000 0.000000
# 2 -0.006287 0.018871 -0.007644 0.000001 0.000000 0.000000
# 3 -0.008421 -0.007644 0.018620 0.000001 0.000000 0.000000
# 4 0.000000 0.000001 0.000001 0.040837 0.000000 0.000000
# 5 0.000000 0.000000 0.000000 0.000000 0.034176 0.000001
# 6 0.000000 0.000000 0.000000 0.000000 0.000001 0.029822
#
#
# Mechanical properties :
#
#
# Convention : Reuss Voigt Hill
#
# Bulk Modulus (GPa) = 61.61251 64.21378 62.91314
# Shear Modulus (GPa) = 23.16040 24.83306 23.99673
#
# Velocity S-wave (km/s) = 3.57587 3.70275 3.63986
# Velocity P-wave (km/s) = 7.14600 7.33027 7.23872
#
# Compressibility (1/GPa) = 0.01623047
#
# Stress axis : x y z
#
# Youngs Moduli (GPa) = 42.65548 52.98996 53.70500
#
# Poissons Ratio (x) = 0.33316 0.45224
# Poissons Ratio (y) = 0.26819 0.41054
# Poissons Ratio (z) = 0.35920 0.40507
#
# Static dielectric constant tensor:
#      x y z
#    x 3.435400 0.000000 0.000000 
#    y 0.000000 3.410490 0.000000 
#    z 0.000000 0.000000 3.346020 
# 
# 
# High freq. dielectric constant tensor:
#      x y z
#    x 1.702740 0.000000 0.000000 
#    y 0.000000 1.706780 0.000000 
#    z 0.000000 0.000000 1.696150 
# 
# From -- ./inp_files/11515.got.cif
#   From: 2010.03.12/outbox.cif.g09.slc.cpg/sg44_6_cif.got.tgz:11515.got - 2010.04.14 02:36:11.
