data_PCOD8188423
_publ_section_title
;
Structure prediction by ZEFSAII (Michael W. Deem and Ramdas Pophale) SiO2 
 PCOD8188423
Probable space group: I M M 2
;
_chemical_formula_sum "Si O2"
_cell_formula_units_Z 64
_cell_length_a 8.779527
_cell_length_b 18.493582
_cell_length_c 26.402354
_cell_angle_alpha 90.000000
_cell_angle_beta 90.000000
_cell_angle_gamma 90.000000
_cell_volume 4286.815633
_symmetry_space_group_name_H-M "I M M 2"
_symmetry_group_IT_number 44
_symmetry_cell_setting 'orthorhombic'
loop_
_space_group_symop_operation_xyz
x,y,z
-x,-y,z
-x,y,z
x,-y,z
1/2+x,1/2+y,1/2+z
1/2-x,1/2-y,1/2+z
1/2-x,1/2+y,1/2+z
1/2+x,1/2-y,1/2+z
loop_
_atom_site_type_symbol
_atom_site_label
_atom_site_fract_x
_atom_site_fract_y
_atom_site_fract_z
Si Si1 0.820509 0.837925 0.153320
Si Si2 0.325416 0.416265 0.457405
Si Si3 0.333399 0.790211 0.305427
Si Si4 0.322377 0.083645 0.061763
Si Si5 0.682099 0.081413 0.246111
Si Si6 0.176500 0.416882 0.256789
Si Si7 0.817643 0.151580 0.853263
Si Si8 0.331238 0.293626 0.200574
O O1 0.774993 0.865072 0.097874
O O2 0.750599 0.894857 0.192771
O O3 0.759600 0.756245 0.160690
O O4 0.000000 0.837252 0.159693
O O5 0.500000 0.396785 0.470255
O O6 0.309193 0.500000 0.443534
O O7 0.220081 0.394772 0.504480
O O8 0.265267 0.372190 0.408833
O O9 0.500000 0.807602 0.327569
O O10 0.253267 0.867249 0.292154
O O11 0.252481 0.734048 0.344107
O O12 0.345322 0.749191 0.252477
O O13 0.500000 0.097329 0.070951
O O14 0.278936 0.000000 0.071728
O O15 0.500000 0.089378 0.242016
O O16 0.732508 0.000000 0.258353
O O17 0.204131 0.500000 0.242192
O O18 0.252533 0.402293 0.311198
O O19 0.246242 0.369222 0.211177
O O20 0.000000 0.397584 0.261652
O O21 0.000000 0.150577 0.847534
O O22 0.500000 0.309684 0.178842
#
# Coordination Sequence:
#
# PCOD8188423 Si02
#       8
#     8   8   8   8   8   8   8   8
#     4  11  20  29  43  61  82 107 136 171 211 251
#     4   9  17  28  41  58  79 103 136 178 217 249
#     4   7  12  23  38  56  76 101 134 169 201 235
#     4  10  20  32  44  58  79 108 140 173 210 252
#     4   9  16  26  40  58  82 112 144 173 200 237
#     4  10  19  28  40  62  90 115 141 174 208 242
#     4   9  16  27  43  59  79 111 146 175 208 252
#     4   9  17  30  45  59  79 108 141 172 203 245
#
# _framework density 14.929497
#
# number of rings (size 3 to 8) (size 9 to 14) (size 15 to 20)
#    0.000    2.750    0.000    4.500    0.000    4.500 
#    0.000    1.250    0.000    0.000    0.000    0.000 
#    0.000    1.000    0.000    7.500    0.000    1.750 
#
# Total GULP energy -396554.250972 kJ/mol
# GULP energy per Si atom -12392.320343 kJ/mol
# Density = 1.489552 g / cm^3
# Si number density = 14.929497 Si / 1000 Ang^3
#
#
#
# Elastic Constant Matrix: (Units=GPa)
#
#
# Indices 1 2 3 4 5 6 
#
# 1 57.9383 33.6772 22.3925 0.0000 0.0000 0.0000
# 2 33.6772 104.5163 49.3379 0.0000 0.0000 0.0000
# 3 22.3925 49.3379 69.8021 0.0000 0.0000 0.0000
# 4 0.0000 0.0000 0.0000 26.1435 0.0000 0.0000
# 5 0.0000 0.0000 0.0000 0.0000 19.7256 0.0000
# 6 0.0000 0.0000 0.0000 0.0000 0.0000 19.2022
#
#
#
# Elastic Compliance Matrix: (Units=1/GPa)
#
#
# Indices 1 2 3 4 5 6 
#
# 1 0.021654 -0.005550 -0.003024 0.000000 0.000000 0.000000
# 2 -0.005550 0.015781 -0.009374 0.000000 0.000000 0.000000
# 3 -0.003024 -0.009374 0.021922 0.000000 0.000000 0.000000
# 4 0.000000 0.000000 0.000000 0.038250 0.000000 0.000000
# 5 0.000000 0.000000 0.000000 0.000000 0.050696 0.000000
# 6 0.000000 0.000000 0.000000 0.000000 0.000000 0.052077
#
#
# Mechanical properties :
#
#
# Convention : Reuss Voigt Hill
#
# Bulk Modulus (GPa) = 42.62248 49.23022 45.92635
# Shear Modulus (GPa) = 20.48354 21.47085 20.97720
#
# Velocity S-wave (km/s) = 3.70809 3.79641 3.75251
# Velocity P-wave (km/s) = 6.85160 7.22936 7.04301
#
# Compressibility (1/GPa) = 0.02346180
#
# Stress axis : x y z
#
# Youngs Moduli (GPa) = 46.17996 63.36559 45.61581
#
# Poissons Ratio (x) = 0.35168 0.13793
# Poissons Ratio (y) = 0.25630 0.42761
# Poissons Ratio (z) = 0.13964 0.59401
#
# Static dielectric constant tensor:
#      x y z
#    x 2.865920 0.000000 0.000000 
#    y 0.000000 3.154280 0.000000 
#    z 0.000000 0.000000 2.722420 
# 
# 
# High freq. dielectric constant tensor:
#      x y z
#    x 1.568700 0.000000 0.000000 
#    y 0.000000 1.565660 0.000000 
#    z 0.000000 0.000000 1.536870 
# 
# From -- ./inp_files/26287.got.cif
#   From: 2010.03.12/outbox.cif.g09.slc.cpg/sg44_14_cif.got.tgz:26287.got - 2010.04.14 02:36:11.
