data_PCOD8188165
_publ_section_title
;
Structure prediction by ZEFSAII (Michael W. Deem and Ramdas Pophale) SiO2 
 PCOD8188165
Probable space group: I M M 2
;
_chemical_formula_sum "Si O2"
_cell_formula_units_Z 64
_cell_length_a 14.324746
_cell_length_b 8.894349
_cell_length_c 28.097794
_cell_angle_alpha 90.000000
_cell_angle_beta 90.000000
_cell_angle_gamma 90.000000
_cell_volume 3579.919991
_symmetry_space_group_name_H-M "I M M 2"
_symmetry_group_IT_number 44
_symmetry_cell_setting 'orthorhombic'
loop_
_space_group_symop_operation_xyz
x,y,z
-x,-y,z
-x,y,z
x,-y,z
1/2+x,1/2+y,1/2+z
1/2-x,1/2-y,1/2+z
1/2-x,1/2+y,1/2+z
1/2+x,1/2-y,1/2+z
loop_
_atom_site_type_symbol
_atom_site_label
_atom_site_fract_x
_atom_site_fract_y
_atom_site_fract_z
Si Si1 0.606526 0.323977 0.084870
Si Si2 0.107219 0.175899 0.233804
Si Si3 0.392302 0.175133 0.353217
Si Si4 0.897180 0.822539 0.126463
Si Si5 0.893178 0.826626 0.951603
Si Si6 0.781971 0.177289 0.769810
Si Si7 0.109116 0.327094 0.684004
Si Si8 0.228592 0.822101 0.041392
O O1 0.500000 0.284659 0.071876
O O2 0.621989 0.500000 0.090273
O O3 0.636566 0.246799 0.134137
O O4 0.670286 0.257312 0.042505
O O5 0.137070 0.216632 0.179666
O O6 0.174185 0.269346 0.268724
O O7 0.000000 0.222551 0.243281
O O8 0.120815 0.000000 0.243574
O O9 0.500000 0.211190 0.341173
O O10 0.368939 0.222982 0.406871
O O11 0.326835 0.270056 0.318926
O O12 0.370527 0.000000 0.346691
O O13 0.827350 0.757285 0.087052
O O14 0.000000 0.752682 0.118066
O O15 0.904386 0.000000 0.120287
O O16 0.000000 0.803534 0.968313
O O17 0.875687 0.000000 0.937833
O O18 0.825887 0.774094 0.994022
O O19 0.837240 0.247357 0.726135
O O20 0.787445 0.000000 0.766529
O O21 0.140527 0.500000 0.681991
O O22 0.000000 0.309973 0.694556
O O23 0.241708 0.000000 0.043828
#
# Coordination Sequence:
#
# PCOD8188165 Si02
#       8
#     8   8   8   8   8   8   8   8
#     4  10  21  35  49  69 101 138 174 214 258 299
#     4   9  18  33  52  73 101 139 179 214 246 287
#     4  10  21  37  56  77 102 133 169 209 254 307
#     4   8  14  26  46  73 102 131 164 199 235 281
#     4   9  18  33  53  79 109 135 161 200 253 309
#     4  12  23  33  51  77 105 136 169 210 259 309
#     4  10  20  34  52  74 102 136 174 214 255 305
#     4  10  18  29  51  78 102 133 170 205 244 296
#
# _framework density 17.877495
#
# number of rings (size 3 to 8) (size 9 to 14) (size 15 to 20)
#    0.000    2.250    0.000    4.500    0.000    7.000 
#    0.000    0.000    0.000    2.625    0.000    3.500 
#    0.000    0.000    0.000    0.000    0.000    0.000 
#
# Total GULP energy -396844.372228 kJ/mol
# GULP energy per Si atom -12401.386632 kJ/mol
# Density = 1.783680 g / cm^3
# Si number density = 17.877495 Si / 1000 Ang^3
#
#
#
# Elastic Constant Matrix: (Units=GPa)
#
#
# Indices 1 2 3 4 5 6 
#
# 1 88.6346 35.6195 59.4798 0.0000 0.0000 0.0000
# 2 35.6195 59.2315 30.9289 0.0000 0.0000 0.0000
# 3 59.4798 30.9289 80.3743 0.0000 0.0000 0.0000
# 4 0.0000 0.0000 0.0000 27.6877 0.0000 0.0000
# 5 0.0000 0.0000 0.0000 0.0000 29.0713 0.0000
# 6 0.0000 0.0000 0.0000 0.0000 0.0000 24.7811
#
#
#
# Elastic Compliance Matrix: (Units=1/GPa)
#
#
# Indices 1 2 3 4 5 6 
#
# 1 0.024276 -0.006530 -0.015452 0.000000 0.000000 0.000000
# 2 -0.006530 0.022885 -0.003974 0.000000 0.000000 0.000000
# 3 -0.015452 -0.003974 0.025406 0.000000 0.000000 0.000000
# 4 0.000000 0.000000 0.000000 0.036117 0.000000 0.000000
# 5 0.000000 0.000000 0.000000 0.000000 0.034398 0.000000
# 6 0.000000 0.000000 0.000000 0.000000 0.000000 0.040353
#
#
# Mechanical properties :
#
#
# Convention : Reuss Voigt Hill
#
# Bulk Modulus (GPa) = 48.41510 53.36632 50.89071
# Shear Modulus (GPa) = 20.64126 23.12215 21.88171
#
# Velocity S-wave (km/s) = 3.40162 3.60024 3.50234
# Velocity P-wave (km/s) = 6.52445 6.87010 6.69950
#
# Compressibility (1/GPa) = 0.02065471
#
# Stress axis : x y z
#
# Youngs Moduli (GPa) = 41.19288 43.69709 39.36028
#
# Poissons Ratio (x) = 0.28534 0.60821
# Poissons Ratio (y) = 0.26899 0.15642
# Poissons Ratio (z) = 0.63653 0.17365
#
# Static dielectric constant tensor:
#      x y z
#    x 3.503220 0.000000 0.000000 
#    y 0.000000 3.175320 0.000000 
#    z 0.000000 0.000000 3.204220 
# 
# 
# High freq. dielectric constant tensor:
#      x y z
#    x 1.697450 0.000000 0.000000 
#    y 0.000000 1.681910 0.000000 
#    z 0.000000 0.000000 1.673390 
# 
# From -- ./inp_files/25775.got.cif
#   From: 2010.03.12/outbox.cif.g09.slc.cpg/sg44_13_cif.got.tgz:25775.got - 2010.04.14 02:36:11.
