data_PCOD8188159
_publ_section_title
;
Structure prediction by ZEFSAII (Michael W. Deem and Ramdas Pophale) SiO2 
 PCOD8188159
Probable space group: I M M 2
;
_chemical_formula_sum "Si O2"
_cell_formula_units_Z 56
_cell_length_a 22.831102
_cell_length_b 9.071731
_cell_length_c 14.092228
_cell_angle_alpha 90.000000
_cell_angle_beta 90.000000
_cell_angle_gamma 90.000000
_cell_volume 2918.748664
_symmetry_space_group_name_H-M "I M M 2"
_symmetry_group_IT_number 44
_symmetry_cell_setting 'orthorhombic'
loop_
_space_group_symop_operation_xyz
x,y,z
-x,-y,z
-x,y,z
x,-y,z
1/2+x,1/2+y,1/2+z
1/2-x,1/2-y,1/2+z
1/2-x,1/2+y,1/2+z
1/2+x,1/2-y,1/2+z
loop_
_atom_site_type_symbol
_atom_site_label
_atom_site_fract_x
_atom_site_fract_y
_atom_site_fract_z
Si Si1 0.500000 0.674788 0.846320
Si Si2 0.766727 0.664993 0.618202
Si Si3 0.657045 0.828108 0.358711
Si Si4 0.731621 0.172963 0.797189
Si Si5 0.352365 0.665464 0.536858
Si Si6 0.000000 0.174159 0.560596
Si Si7 0.606796 0.167117 0.153504
Si Si8 0.618473 0.674540 0.749799
O O1 0.500000 0.500000 0.849820
O O2 0.556632 0.731494 0.789547
O O3 0.500000 0.738161 0.953526
O O4 0.762398 0.500000 0.667053
O O5 0.750456 0.794966 0.689585
O O6 0.719348 0.671734 0.534168
O O7 0.834655 0.686447 0.587828
O O8 0.719939 0.748578 0.363202
O O9 0.622661 0.767076 0.451725
O O10 0.621830 0.790523 0.262583
O O11 0.666637 0.000000 0.370014
O O12 0.667739 0.244806 0.813229
O O13 0.729066 0.000000 0.817957
O O14 0.374410 0.500000 0.517755
O O15 0.376441 0.719945 0.638867
O O16 0.057536 0.225165 0.615726
O O17 0.000000 0.000000 0.559270
O O18 0.583338 0.000000 0.148249
O O19 0.626769 0.500000 0.761099
#
# Coordination Sequence:
#
# PCOD8188159 Si02
#       8
#     4   8   8   8   8   4   8   8
#     4   9  20  39  60  79 100 134 177 217 262 317
#     4   8  16  32  52  75 105 140 173 206 254 313
#     4  10  20  34  53  77 108 145 179 213 261 319
#     4  10  18  29  49  77 107 137 174 217 257 301
#     4   9  17  30  52  82 112 140 172 212 259 314
#     4  11  23  37  56  81 102 126 173 229 268 305
#     4   9  19  37  56  73 102 144 180 211 259 317
#     4   9  18  36  57  76 107 145 176 212 263 319
#
# _framework density 19.186302999999999
#
# number of rings (size 3 to 8) (size 9 to 14) (size 15 to 20)
#    0.000    2.714    0.000    3.643    0.000    6.286 
#    0.000    5.357    0.000    0.857    0.000    0.000 
#    0.000    0.000    0.000    0.000    0.000    0.000 
#
# Total GULP energy -346958.830934 kJ/mol
# GULP energy per Si atom -12391.386819 kJ/mol
# Density = 1.914263 g / cm^3
# Si number density = 19.186303 Si / 1000 Ang^3
#
#
#
# Elastic Constant Matrix: (Units=GPa)
#
#
# Indices 1 2 3 4 5 6 
#
# 1 126.3875 41.7277 49.4599 0.0000 0.0000 0.0000
# 2 41.7277 79.5716 44.0972 0.0000 0.0000 0.0000
# 3 49.4599 44.0972 107.2193 0.0000 0.0000 0.0000
# 4 0.0000 0.0000 0.0000 25.2070 0.0000 0.0000
# 5 0.0000 0.0000 0.0000 0.0000 17.9587 0.0000
# 6 0.0000 0.0000 0.0000 0.0000 0.0000 23.6847
#
#
#
# Elastic Compliance Matrix: (Units=1/GPa)
#
#
# Indices 1 2 3 4 5 6 
#
# 1 0.010403 -0.003621 -0.003309 0.000000 0.000000 0.000000
# 2 -0.003621 0.017538 -0.005542 0.000000 0.000000 0.000000
# 3 -0.003309 -0.005542 0.013133 0.000000 0.000000 0.000000
# 4 0.000000 0.000000 0.000000 0.039671 0.000000 0.000000
# 5 0.000000 0.000000 0.000000 0.000000 0.055683 0.000000
# 6 0.000000 0.000000 0.000000 0.000000 0.000000 0.042221
#
#
# Mechanical properties :
#
#
# Convention : Reuss Voigt Hill
#
# Bulk Modulus (GPa) = 62.00731 64.86089 63.43410
# Shear Modulus (GPa) = 23.92666 25.22966 24.57816
#
# Velocity S-wave (km/s) = 3.53522 3.63020 3.58303
# Velocity P-wave (km/s) = 7.00374 7.17289 7.08882
#
# Compressibility (1/GPa) = 0.01612713
#
# Stress axis : x y z
#
# Youngs Moduli (GPa) = 96.12735 57.01954 76.14496
#
# Poissons Ratio (x) = 0.20648 0.25200
# Poissons Ratio (y) = 0.34810 0.42203
# Poissons Ratio (z) = 0.31813 0.31603
#
# Static dielectric constant tensor:
#      x y z
#    x 3.515270 0.000000 0.000000 
#    y 0.000000 3.324730 0.000000 
#    z 0.000000 0.000000 3.427020 
# 
# 
# High freq. dielectric constant tensor:
#      x y z
#    x 1.731360 0.000000 0.000000 
#    y 0.000000 1.733490 0.000000 
#    z 0.000000 0.000000 1.737270 
# 
# From -- ./inp_files/19261.got.cif
#   From: 2010.03.12/outbox.cif.g09.slc.cpg/sg44_10_cif.got.tgz:19261.got - 2010.04.14 02:36:11.
