data_PCOD8188461
_publ_section_title
;
Structure prediction by ZEFSAII (Michael W. Deem and Ramdas Pophale) SiO2 
 PCOD8188461
Probable space group: I M M 2
;
_chemical_formula_sum "Si O2"
_cell_formula_units_Z 56
_cell_length_a 8.696774
_cell_length_b 18.466906
_cell_length_c 21.053650
_cell_angle_alpha 90.000000
_cell_angle_beta 90.000000
_cell_angle_gamma 90.000000
_cell_volume 3381.268992
_symmetry_space_group_name_H-M "I M M 2"
_symmetry_group_IT_number 44
_symmetry_cell_setting 'orthorhombic'
loop_
_space_group_symop_operation_xyz
x,y,z
-x,-y,z
-x,y,z
x,-y,z
1/2+x,1/2+y,1/2+z
1/2-x,1/2-y,1/2+z
1/2-x,1/2+y,1/2+z
1/2+x,1/2-y,1/2+z
loop_
_atom_site_type_symbol
_atom_site_label
_atom_site_fract_x
_atom_site_fract_y
_atom_site_fract_z
Si Si1 0.181793 0.341419 0.974710
Si Si2 0.677308 0.919152 0.843446
Si Si3 0.179085 0.082357 0.353371
Si Si4 0.818250 0.581230 0.101344
Si Si5 0.678053 0.205298 0.289698
Si Si6 0.679803 0.346311 0.222639
Si Si7 0.678134 0.779347 0.908509
O O1 0.228471 0.390677 0.914874
O O2 0.261378 0.260967 0.972049
O O3 0.000000 0.331735 0.976472
O O4 0.244501 0.380340 0.037887
O O5 0.500000 0.916627 0.821928
O O6 0.775669 0.894392 0.783293
O O7 0.702288 0.866475 0.904945
O O8 0.726739 0.000000 0.863987
O O9 0.225380 0.130256 0.291056
O O10 0.000000 0.090918 0.367574
O O11 0.224583 0.000000 0.338483
O O12 0.748999 0.500000 0.105632
O O13 0.770262 0.627958 0.161478
O O14 0.000000 0.576927 0.098987
O O15 0.500000 0.184906 0.286901
O O16 0.721934 0.261075 0.233157
O O17 0.714539 0.246759 0.354340
O O18 0.500000 0.356247 0.211135
O O19 0.500000 0.759454 0.896857
#
# Coordination Sequence:
#
# PCOD8188461 Si02
#       7
#     8   8   8   8   8   8   8
#     4  10  19  31  46  63  87 119 152 182 214 257
#     4   9  17  29  45  65  90 119 147 176 215 263
#     4  10  19  29  44  68  93 115 143 180 220 259
#     4  10  21  34  46  62  86 119 154 181 211 256
#     4   9  17  29  44  62  86 115 145 177 216 263
#     4  10  20  31  44  65  90 116 148 184 218 252
#     4   9  16  27  44  64  86 113 145 181 219 258
#
# _framework density 16.561827999999998
#
# number of rings (size 3 to 8) (size 9 to 14) (size 15 to 20)
#    0.000    2.429    0.000    4.714    0.000    7.429 
#    0.000    0.000    0.000    0.000    0.000    1.000 
#    0.000    3.429    0.000    0.000    0.000    0.000 
#
# Total GULP energy -346957.353448 kJ/mol
# GULP energy per Si atom -12391.334052 kJ/mol
# Density = 1.652413 g / cm^3
# Si number density = 16.561828 Si / 1000 Ang^3
#
#
#
# Elastic Constant Matrix: (Units=GPa)
#
#
# Indices 1 2 3 4 5 6 
#
# 1 26.6652 28.4980 15.8456 0.0000 0.0000 0.0000
# 2 28.4980 148.3033 55.0912 0.0000 0.0000 0.0000
# 3 15.8456 55.0912 68.7393 0.0000 0.0000 0.0000
# 4 0.0000 0.0000 0.0000 26.5122 0.0000 0.0000
# 5 0.0000 0.0000 0.0000 0.0000 19.8623 0.0000
# 6 0.0000 0.0000 0.0000 0.0000 0.0000 23.4872
#
#
#
# Elastic Compliance Matrix: (Units=1/GPa)
#
#
# Indices 1 2 3 4 5 6 
#
# 1 0.048506 -0.007358 -0.005284 0.000000 0.000000 0.000000
# 2 -0.007358 0.010718 -0.006894 0.000000 0.000000 0.000000
# 3 -0.005284 -0.006894 0.021291 0.000000 0.000000 0.000000
# 4 0.000000 0.000000 0.000000 0.037719 0.000000 0.000000
# 5 0.000000 0.000000 0.000000 0.000000 0.050347 0.000000
# 6 0.000000 0.000000 0.000000 0.000000 0.000000 0.042576
#
#
# Mechanical properties :
#
#
# Convention : Reuss Voigt Hill
#
# Bulk Modulus (GPa) = 24.12982 49.17527 36.65255
# Shear Modulus (GPa) = 18.93642 23.59055 21.26349
#
# Velocity S-wave (km/s) = 3.38505 3.77821 3.58702
# Velocity P-wave (km/s) = 5.46620 6.98495 6.27172
#
# Compressibility (1/GPa) = 0.04144249
#
# Stress axis : x y z
#
# Youngs Moduli (GPa) = 20.61607 93.30439 46.96889
#
# Poissons Ratio (x) = 0.68652 0.24820
# Poissons Ratio (y) = 0.15169 0.32378
# Poissons Ratio (z) = 0.10894 0.64320
#
# Static dielectric constant tensor:
#      x y z
#    x 3.129020 0.000000 0.000000 
#    y 0.000000 3.740040 0.000000 
#    z 0.000000 0.000000 2.962060 
# 
# 
# High freq. dielectric constant tensor:
#      x y z
#    x 1.646850 0.000000 0.000000 
#    y 0.000000 1.648280 0.000000 
#    z 0.000000 0.000000 1.589970 
# 
# From -- ./inp_files/23373.got.cif
#   From: 2010.03.12/outbox.cif.g09.slc.cpg/sg44_12_cif.got.tgz:23373.got - 2010.04.14 02:36:11.
