data_PCOD8188267
_publ_section_title
;
Structure prediction by ZEFSAII (Michael W. Deem and Ramdas Pophale) SiO2 
 PCOD8188267
Probable space group: I M M 2
;
_chemical_formula_sum "Si O2"
_cell_formula_units_Z 64
_cell_length_a 9.590863
_cell_length_b 28.693400
_cell_length_c 12.666961
_cell_angle_alpha 90.000000
_cell_angle_beta 90.000000
_cell_angle_gamma 90.000000
_cell_volume 3485.877599
_symmetry_space_group_name_H-M "I M M 2"
_symmetry_group_IT_number 44
_symmetry_cell_setting 'orthorhombic'
loop_
_space_group_symop_operation_xyz
x,y,z
-x,-y,z
-x,y,z
x,-y,z
1/2+x,1/2+y,1/2+z
1/2-x,1/2-y,1/2+z
1/2-x,1/2+y,1/2+z
1/2+x,1/2-y,1/2+z
loop_
_atom_site_type_symbol
_atom_site_label
_atom_site_fract_x
_atom_site_fract_y
_atom_site_fract_z
Si Si1 0.336533 0.608063 0.822970
Si Si2 0.346112 0.178473 0.626391
Si Si3 0.335514 0.445195 0.615939
Si Si4 0.154598 0.051359 0.516472
Si Si5 0.348431 0.073705 0.696912
Si Si6 0.834263 0.700615 0.352328
Si Si7 0.164612 0.399095 0.428349
Si Si8 0.336117 0.700434 0.928534
O O1 0.500000 0.597656 0.824527
O O2 0.277909 0.584759 0.716088
O O3 0.303634 0.663529 0.833299
O O4 0.271802 0.583561 0.927593
O O5 0.500000 0.198624 0.596187
O O6 0.362484 0.125003 0.652594
O O7 0.282438 0.202473 0.731214
O O8 0.236981 0.184289 0.534128
O O9 0.500000 0.437262 0.597980
O O10 0.302623 0.500000 0.632487
O O11 0.252600 0.425415 0.516509
O O12 0.237631 0.046939 0.625885
O O13 0.000000 0.070633 0.543310
O O14 0.145516 0.000000 0.466704
O O15 0.500000 0.049223 0.687865
O O16 0.302323 0.074221 0.819163
O O17 0.783634 0.654950 0.417251
O O18 0.777536 0.748242 0.403169
O O19 0.000000 0.698726 0.348788
O O20 0.000000 0.401154 0.455147
O O21 0.500000 0.701772 0.950230
#
# Coordination Sequence:
#
# PCOD8188267 Si02
#       8
#     8   8   8   8   8   8   8   8
#     4   9  18  33  52  75 104 138 172 211 264 319
#     4   9  17  32  51  71 101 136 167 208 260 310
#     4  10  21  37  56  78 107 143 182 225 271 319
#     4  10  19  31  50  76 103 130 165 211 259 308
#     4   9  18  33  52  72  99 135 169 207 261 316
#     4   8  17  33  52  75 104 140 175 212 263 319
#     4   9  19  37  56  74 103 141 178 216 264 317
#     4  10  18  31  54  79 102 135 179 218 259 315
#
# _framework density 18.359794999999998
#
# number of rings (size 3 to 8) (size 9 to 14) (size 15 to 20)
#    0.000    2.750    1.250    1.875    0.000    4.000 
#    0.000    8.125    0.000    1.500    0.000    0.000 
#    0.000    0.000    0.000    0.000    0.000    0.000 
#
# Total GULP energy -396525.587157 kJ/mol
# GULP energy per Si atom -12391.424599 kJ/mol
# Density = 1.831801 g / cm^3
# Si number density = 18.359795 Si / 1000 Ang^3
#
#
#
# Elastic Constant Matrix: (Units=GPa)
#
#
# Indices 1 2 3 4 5 6 
#
# 1 47.0451 27.4993 44.7578 0.0000 0.0000 0.0000
# 2 27.4993 82.4806 49.1948 -0.0003 0.0001 0.0000
# 3 44.7578 49.1948 124.0840 -0.0008 0.0001 0.0000
# 4 0.0000 -0.0003 -0.0008 16.4381 0.0001 0.0001
# 5 0.0000 0.0001 0.0001 0.0001 15.1811 0.0000
# 6 0.0000 0.0000 0.0000 0.0001 0.0000 19.4968
#
#
#
# Elastic Compliance Matrix: (Units=1/GPa)
#
#
# Indices 1 2 3 4 5 6 
#
# 1 0.034025 -0.005270 -0.010184 -0.000001 0.000000 0.000000
# 2 -0.005270 0.016695 -0.004718 0.000000 0.000000 0.000000
# 3 -0.010184 -0.004718 0.013603 0.000001 0.000000 0.000000
# 4 -0.000001 0.000000 0.000001 0.060834 0.000000 0.000000
# 5 0.000000 0.000000 0.000000 0.000000 0.065872 0.000000
# 6 0.000000 0.000000 0.000000 0.000000 0.000000 0.051290
#
#
# Mechanical properties :
#
#
# Convention : Reuss Voigt Hill
#
# Bulk Modulus (GPa) = 41.70214 55.16817 48.43516
# Shear Modulus (GPa) = 17.20243 19.03372 18.11808
#
# Velocity S-wave (km/s) = 3.06430 3.22329 3.14480
# Velocity P-wave (km/s) = 5.93996 6.63071 6.29482
#
# Compressibility (1/GPa) = 0.02397959
#
# Stress axis : x y z
#
# Youngs Moduli (GPa) = 29.38986 59.89745 73.51365
#
# Poissons Ratio (x) = 0.31567 0.74864
# Poissons Ratio (y) = 0.15489 0.34684
# Poissons Ratio (z) = 0.29930 0.28260
#
# Static dielectric constant tensor:
#      x y z
#    x 3.480410 0.000000 0.000000 
#    y 0.000000 3.592240 0.000000 
#    z 0.000000 0.000000 3.597910 
# 
# 
# High freq. dielectric constant tensor:
#      x y z
#    x 1.678790 0.000000 0.000000 
#    y 0.000000 1.719400 0.000000 
#    z 0.000000 0.000000 1.709640 
# 
# From -- ./inp_files/11541.got.cif
#   From: 2010.03.12/outbox.cif.g09.slc.cpg/sg44_6_cif.got.tgz:11541.got - 2010.04.14 02:36:11.
