data_PCOD8188277
_publ_section_title
;
Structure prediction by ZEFSAII (Michael W. Deem and Ramdas Pophale) SiO2 
 PCOD8188277
Probable space group: I M M 2
;
_chemical_formula_sum "Si O2"
_cell_formula_units_Z 64
_cell_length_a 9.128151
_cell_length_b 28.571532
_cell_length_c 12.610108
_cell_angle_alpha 90.000000
_cell_angle_beta 90.000000
_cell_angle_gamma 90.000000
_cell_volume 3288.782475
_symmetry_space_group_name_H-M "I M M 2"
_symmetry_group_IT_number 44
_symmetry_cell_setting 'orthorhombic'
loop_
_space_group_symop_operation_xyz
x,y,z
-x,-y,z
-x,y,z
x,-y,z
1/2+x,1/2+y,1/2+z
1/2-x,1/2-y,1/2+z
1/2-x,1/2+y,1/2+z
1/2+x,1/2-y,1/2+z
loop_
_atom_site_type_symbol
_atom_site_label
_atom_site_fract_x
_atom_site_fract_y
_atom_site_fract_z
Si Si1 0.173012 0.619041 0.877090
Si Si2 0.163110 0.168821 0.692273
Si Si3 0.171848 0.445407 0.677463
Si Si4 0.327620 0.049581 0.548504
Si Si5 0.330328 0.083326 0.769793
Si Si6 0.663029 0.703884 0.415487
Si Si7 0.672422 0.401680 0.475331
Si Si8 0.330274 0.704784 0.961431
O O1 0.216706 0.586834 0.777249
O O2 0.249147 0.669918 0.878638
O O3 0.000000 0.627369 0.880606
O O4 0.238886 0.592383 0.981179
O O5 0.291396 0.133391 0.720905
O O6 0.160923 0.206052 0.787702
O O7 0.204781 0.192705 0.582608
O O8 0.000000 0.145181 0.686093
O O9 0.215249 0.500000 0.696927
O O10 0.257448 0.424089 0.578680
O O11 0.000000 0.441590 0.654636
O O12 0.500000 0.053043 0.530030
O O13 0.291622 0.048601 0.673528
O O14 0.269729 0.000000 0.502634
O O15 0.500000 0.081705 0.802104
O O16 0.235450 0.070666 0.873087
O O17 0.500000 0.715425 0.458572
O O18 0.712501 0.653188 0.461607
O O19 0.777536 0.742214 0.452492
O O20 0.500000 0.409456 0.479023
O O21 0.500000 0.702342 0.933355
#
# Coordination Sequence:
#
# PCOD8188277 Si02
#       8
#     8   8   8   8   8   8   8   8
#     4  10  20  37  59  83 114 153 195 241 294 350
#     4   9  19  36  54  74 109 149 182 230 291 346
#     4  10  22  40  63  89 118 158 207 254 297 353
#     4   9  17  30  52  83 113 141 179 228 279 332
#     4  10  18  31  56  85 110 143 187 233 283 342
#     4   9  20  38  57  79 109 151 198 243 295 355
#     4  10  22  40  60  83 117 156 195 243 300 355
#     4  11  22  35  56  85 116 150 194 246 300 358
#
# _framework density 19.460089
#
# number of rings (size 3 to 8) (size 9 to 14) (size 15 to 20)
#    0.000    2.250    1.250    2.250    0.000    6.750 
#    0.000    5.000    0.000    3.750    0.000    0.000 
#    0.000    0.000    0.000    0.000    0.000    0.000 
#
# Total GULP energy -396583.627309 kJ/mol
# GULP energy per Si atom -12393.238353 kJ/mol
# Density = 1.941580 g / cm^3
# Si number density = 19.460089 Si / 1000 Ang^3
#
#
#
# Elastic Constant Matrix: (Units=GPa)
#
#
# Indices 1 2 3 4 5 6 
#
# 1 56.6760 32.3646 52.5548 -0.0004 0.0002 0.0002
# 2 32.3646 80.4345 39.7067 -0.0005 0.0003 0.0004
# 3 52.5548 39.7067 97.4717 0.0002 -0.0001 -0.0002
# 4 -0.0004 -0.0005 0.0002 19.7001 -0.0001 -0.0001
# 5 0.0002 0.0003 -0.0001 -0.0001 27.8470 0.0002
# 6 0.0002 0.0004 -0.0002 -0.0001 0.0002 22.3049
#
#
#
# Elastic Compliance Matrix: (Units=1/GPa)
#
#
# Indices 1 2 3 4 5 6 
#
# 1 0.037776 -0.006440 -0.017745 0.000001 0.000000 0.000000
# 2 -0.006440 0.016660 -0.003314 0.000000 0.000000 0.000000
# 3 -0.017745 -0.003314 0.021177 -0.000001 0.000000 0.000000
# 4 0.000001 0.000000 -0.000001 0.050761 0.000000 0.000000
# 5 0.000000 0.000000 0.000000 0.000000 0.035910 0.000000
# 6 0.000000 0.000000 0.000000 0.000000 0.000000 0.044833
#
#
# Mechanical properties :
#
#
# Convention : Reuss Voigt Hill
#
# Bulk Modulus (GPa) = 48.50877 53.75939 51.13408
# Shear Modulus (GPa) = 18.58821 21.30082 19.94451
#
# Velocity S-wave (km/s) = 3.09398 3.31205 3.20487
# Velocity P-wave (km/s) = 6.14370 6.50474 6.32680
#
# Compressibility (1/GPa) = 0.02061483
#
# Stress axis : x y z
#
# Youngs Moduli (GPa) = 26.47170 60.02402 47.22109
#
# Poissons Ratio (x) = 0.38658 0.83792
# Poissons Ratio (y) = 0.17049 0.15650
# Poissons Ratio (z) = 0.46973 0.19893
#
# Static dielectric constant tensor:
#      x y z
#    x 3.431410 0.000000 0.000000 
#    y 0.000000 3.504580 0.000000 
#    z 0.000000 0.000000 3.775100 
# 
# 
# High freq. dielectric constant tensor:
#      x y z
#    x 1.744880 0.000000 0.000000 
#    y 0.000000 1.752350 0.000000 
#    z 0.000000 0.000000 1.763220 
# 
# From -- ./inp_files/11546.got.cif
#   From: 2010.03.12/outbox.cif.g09.slc.cpg/sg44_6_cif.got.tgz:11546.got - 2010.04.14 02:36:11.
