data_PCOD8188294
_publ_section_title
;
Structure prediction by ZEFSAII (Michael W. Deem and Ramdas Pophale) SiO2 
 PCOD8188294
Probable space group: I M M 2
;
_chemical_formula_sum "Si O2"
_cell_formula_units_Z 64
_cell_length_a 9.189201
_cell_length_b 21.043760
_cell_length_c 19.522189
_cell_angle_alpha 90.000000
_cell_angle_beta 90.000000
_cell_angle_gamma 90.000000
_cell_volume 3775.109944
_symmetry_space_group_name_H-M "I M M 2"
_symmetry_group_IT_number 44
_symmetry_cell_setting 'orthorhombic'
loop_
_space_group_symop_operation_xyz
x,y,z
-x,-y,z
-x,y,z
x,-y,z
1/2+x,1/2+y,1/2+z
1/2-x,1/2-y,1/2+z
1/2-x,1/2+y,1/2+z
1/2+x,1/2-y,1/2+z
loop_
_atom_site_type_symbol
_atom_site_label
_atom_site_fract_x
_atom_site_fract_y
_atom_site_fract_z
Si Si1 0.168175 0.928611 0.822790
Si Si2 0.832677 0.742939 0.695636
Si Si3 0.670313 0.930934 0.412469
Si Si4 0.669835 0.189863 0.336336
Si Si5 0.666388 0.136153 0.548430
Si Si6 0.331504 0.127755 0.701561
Si Si7 0.830468 0.734362 0.542510
Si Si8 0.172412 0.186283 0.917279
O O1 0.253224 0.921523 0.751510
O O2 0.223626 0.877922 0.878920
O O3 0.000000 0.915768 0.806614
O O4 0.193953 0.000000 0.850961
O O5 0.799565 0.691399 0.754858
O O6 0.730905 0.802101 0.711571
O O7 0.801226 0.712411 0.621186
O O8 0.000000 0.766328 0.700279
O O9 0.500000 0.934056 0.396810
O O10 0.742053 0.874517 0.366808
O O11 0.698185 0.917842 0.492720
O O12 0.740176 0.000000 0.394849
O O13 0.500000 0.187968 0.352840
O O14 0.730365 0.253060 0.373858
O O15 0.500000 0.161207 0.542966
O O16 0.695254 0.105972 0.623111
O O17 0.771673 0.194660 0.532727
O O18 0.500000 0.129120 0.720647
O O19 0.747364 0.686420 0.491867
O O20 0.000000 0.733465 0.524637
O O21 0.000000 0.187205 0.927303
#
# Coordination Sequence:
#
# PCOD8188294 Si02
#       8
#     8   8   8   8   8   8   8   8
#     4  10  21  36  52  69  92 128 170 206 245 298
#     4   9  17  31  49  70  98 129 160 195 238 287
#     4   9  16  26  44  70  94 118 154 195 228 266
#     4   9  15  27  49  70  89 121 159 194 231 272
#     4   9  17  30  46  68  99 133 163 189 229 285
#     4  10  19  29  46  72 101 129 159 197 239 286
#     4  10  19  29  47  74 100 124 156 200 243 283
#     4  10  18  32  53  71  92 124 162 202 242 287
#
# _framework density 16.953147999999999
#
# number of rings (size 3 to 8) (size 9 to 14) (size 15 to 20)
#    0.000    2.500    2.500    0.750    0.000    2.250 
#    0.000    1.250    0.000    1.125    0.000    1.750 
#    0.000    0.000    0.000    0.000    0.000    0.000 
#
# Total GULP energy -396669.022695 kJ/mol
# GULP energy per Si atom -12395.906959 kJ/mol
# Density = 1.691456 g / cm^3
# Si number density = 16.953148 Si / 1000 Ang^3
#
#
#
# Elastic Constant Matrix: (Units=GPa)
#
#
# Indices 1 2 3 4 5 6 
#
# 1 41.8549 27.2647 31.9788 0.0000 0.0000 0.0000
# 2 27.2647 121.6932 70.3162 0.0000 0.0000 0.0000
# 3 31.9788 70.3162 117.5902 0.0000 0.0000 0.0000
# 4 0.0000 0.0000 0.0000 22.7440 0.0000 0.0000
# 5 0.0000 0.0000 0.0000 0.0000 25.6958 0.0000
# 6 0.0000 0.0000 0.0000 0.0000 0.0000 13.4123
#
#
#
# Elastic Compliance Matrix: (Units=1/GPa)
#
#
# Indices 1 2 3 4 5 6 
#
# 1 0.030935 -0.003162 -0.006522 0.000000 0.000000 0.000000
# 2 -0.003162 0.012879 -0.006841 0.000000 0.000000 0.000000
# 3 -0.006522 -0.006841 0.014369 0.000000 0.000000 0.000000
# 4 0.000000 0.000000 0.000000 0.043968 0.000000 0.000000
# 5 0.000000 0.000000 0.000000 0.000000 0.038917 0.000000
# 6 0.000000 0.000000 0.000000 0.000000 0.000000 0.074558
#
#
# Mechanical properties :
#
#
# Convention : Reuss Voigt Hill
#
# Bulk Modulus (GPa) = 39.79052 60.02864 49.90958
# Shear Modulus (GPa) = 19.45124 22.47569 20.96346
#
# Velocity S-wave (km/s) = 3.39093 3.64504 3.52028
# Velocity P-wave (km/s) = 6.23322 7.29387 6.78430
#
# Compressibility (1/GPa) = 0.02513162
#
# Stress axis : x y z
#
# Youngs Moduli (GPa) = 32.32586 77.64639 69.59622
#
# Poissons Ratio (x) = 0.24555 0.45389
# Poissons Ratio (y) = 0.10223 0.47612
# Poissons Ratio (z) = 0.21082 0.53120
#
# Static dielectric constant tensor:
#      x y z
#    x 2.985750 0.000000 0.000000 
#    y 0.000000 3.132970 0.000000 
#    z 0.000000 0.000000 3.378210 
# 
# 
# High freq. dielectric constant tensor:
#      x y z
#    x 1.629090 0.000000 0.000000 
#    y 0.000000 1.627180 0.000000 
#    z 0.000000 0.000000 1.660520 
# 
# From -- ./inp_files/23410.got.cif
#   From: 2010.03.12/outbox.cif.g09.slc.cpg/sg44_12_cif.got.tgz:23410.got - 2010.04.14 02:36:11.
