data_PCOD8188752
_publ_section_title
;
Structure prediction by ZEFSAII (Michael W. Deem and Ramdas Pophale) SiO2 
 PCOD8188752
Probable space group: I M M 2
;
_chemical_formula_sum "Si O2"
_cell_formula_units_Z 64
_cell_length_a 28.194693
_cell_length_b 9.006147
_cell_length_c 12.812325
_cell_angle_alpha 90.000000
_cell_angle_beta 90.000000
_cell_angle_gamma 90.000000
_cell_volume 3253.376670
_symmetry_space_group_name_H-M "I M M 2"
_symmetry_group_IT_number 44
_symmetry_cell_setting 'orthorhombic'
loop_
_space_group_symop_operation_xyz
x,y,z
-x,-y,z
-x,y,z
x,-y,z
1/2+x,1/2+y,1/2+z
1/2-x,1/2-y,1/2+z
1/2-x,1/2+y,1/2+z
1/2+x,1/2-y,1/2+z
loop_
_atom_site_type_symbol
_atom_site_label
_atom_site_fract_x
_atom_site_fract_y
_atom_site_fract_z
Si Si1 0.794794 0.674473 0.857760
Si Si2 0.316682 0.666999 0.148298
Si Si3 0.554526 0.176834 0.662017
Si Si4 0.447779 0.835262 0.272856
Si Si5 0.610638 0.825195 0.462125
Si Si6 0.100533 0.674140 0.376640
Si Si7 0.705560 0.174777 0.945967
Si Si8 0.423722 0.664415 0.075906
O O1 0.783313 0.500000 0.852798
O O2 0.816224 0.727726 0.748419
O O3 0.833088 0.708310 0.950418
O O4 0.747326 0.768305 0.872256
O O5 0.297375 0.500000 0.171477
O O6 0.369520 0.659747 0.108021
O O7 0.286492 0.742170 0.055956
O O8 0.500000 0.234827 0.654843
O O9 0.586822 0.241442 0.566916
O O10 0.580038 0.234594 0.767149
O O11 0.554822 0.000000 0.660126
O O12 0.500000 0.845870 0.322447
O O13 0.414899 0.756355 0.359797
O O14 0.452357 0.743488 0.167055
O O15 0.428024 0.000000 0.245883
O O16 0.600876 0.000000 0.461215
O O17 0.092701 0.500000 0.386383
O O18 0.156132 0.715087 0.388571
O O19 0.069688 0.748899 0.467634
O O20 0.709638 0.000000 0.965053
O O21 0.444415 0.500000 0.060728
#
# Coordination Sequence:
#
# PCOD8188752 Si02
#       8
#     8   8   8   8   8   8   8   8
#     4  11  21  34  56  84 115 150 190 236 290 350
#     4  10  20  36  56  77 106 145 187 234 288 344
#     4   9  17  32  56  84 112 144 186 235 287 341
#     4  10  19  32  53  80 109 142 182 227 278 339
#     4   9  18  32  52  81 114 146 182 231 285 338
#     4   9  19  35  56  81 112 148 187 233 283 338
#     4  10  21  36  54  80 114 152 193 238 289 345
#     4  10  20  34  54  78 107 143 181 229 286 340
#
# _framework density 19.671868
#
# number of rings (size 3 to 8) (size 9 to 14) (size 15 to 20)
#    0.000    2.250    1.250    1.875    0.000    4.750 
#    0.000    3.750    0.000    2.250    0.000    0.000 
#    0.000    0.000    0.000    0.000    0.000    0.000 
#
# Total GULP energy -396702.274039 kJ/mol
# GULP energy per Si atom -12396.946064 kJ/mol
# Density = 1.962709 g / cm^3
# Si number density = 19.671868 Si / 1000 Ang^3
#
#
#
# Elastic Constant Matrix: (Units=GPa)
#
#
# Indices 1 2 3 4 5 6 
#
# 1 78.4018 27.8190 45.1971 0.0000 0.0000 0.0000
# 2 27.8190 55.1681 27.9042 0.0000 0.0000 0.0000
# 3 45.1971 27.9042 137.7529 0.0000 0.0000 0.0000
# 4 0.0000 0.0000 0.0000 20.0394 0.0000 0.0000
# 5 0.0000 0.0000 0.0000 0.0000 24.6437 0.0000
# 6 0.0000 0.0000 0.0000 0.0000 0.0000 18.4947
#
#
#
# Elastic Compliance Matrix: (Units=1/GPa)
#
#
# Indices 1 2 3 4 5 6 
#
# 1 0.017687 -0.006667 -0.004453 0.000000 0.000000 0.000000
# 2 -0.006667 0.022708 -0.002413 0.000000 0.000000 0.000000
# 3 -0.004453 -0.002413 0.009209 0.000000 0.000000 0.000000
# 4 0.000000 0.000000 0.000000 0.049902 0.000000 0.000000
# 5 0.000000 0.000000 0.000000 0.000000 0.040578 0.000000
# 6 0.000000 0.000000 0.000000 0.000000 0.000000 0.054069
#
#
# Mechanical properties :
#
#
# Convention : Reuss Voigt Hill
#
# Bulk Modulus (GPa) = 44.36446 52.57370 48.46908
# Shear Modulus (GPa) = 21.85964 23.99574 22.92769
#
# Velocity S-wave (km/s) = 3.33710 3.49635 3.41766
# Velocity P-wave (km/s) = 6.11960 6.56374 6.34556
#
# Compressibility (1/GPa) = 0.02254056
#
# Stress axis : x y z
#
# Youngs Moduli (GPa) = 56.53778 44.03639 108.58868
#
# Poissons Ratio (x) = 0.29358 0.48352
# Poissons Ratio (y) = 0.37692 0.26198
# Poissons Ratio (z) = 0.25175 0.10624
#
# Static dielectric constant tensor:
#      x y z
#    x 3.544970 0.000000 0.000000 
#    y 0.000000 3.447960 0.000000 
#    z 0.000000 0.000000 3.716920 
# 
# 
# High freq. dielectric constant tensor:
#      x y z
#    x 1.766300 0.000000 0.000000 
#    y 0.000000 1.739220 0.000000 
#    z 0.000000 0.000000 1.768510 
# 
# From -- ./inp_files/11443.got.cif
#   From: 2010.03.12/outbox.cif.g09.slc.cpg/sg44_6_cif.got.tgz:11443.got - 2010.04.14 02:36:11.
