data_PCOD8188968
_publ_section_title
;
Structure prediction by ZEFSAII (Michael W. Deem and Ramdas Pophale) SiO2 
 PCOD8188968
Probable space group: I M M 2
;
_chemical_formula_sum "Si O2"
_cell_formula_units_Z 48
_cell_length_a 34.678498
_cell_length_b 14.384379
_cell_length_c 4.967311
_cell_angle_alpha 90.000000
_cell_angle_beta 90.000000
_cell_angle_gamma 90.000000
_cell_volume 2477.837082
_symmetry_space_group_name_H-M "I M M 2"
_symmetry_group_IT_number 44
_symmetry_cell_setting 'orthorhombic'
loop_
_space_group_symop_operation_xyz
x,y,z
-x,-y,z
-x,y,z
x,-y,z
1/2+x,1/2+y,1/2+z
1/2-x,1/2-y,1/2+z
1/2-x,1/2+y,1/2+z
1/2+x,1/2-y,1/2+z
loop_
_atom_site_type_symbol
_atom_site_label
_atom_site_fract_x
_atom_site_fract_y
_atom_site_fract_z
Si Si1 0.270547 0.288903 0.491340
Si Si2 0.044833 0.696325 0.539019
Si Si3 0.297366 0.500000 0.459487
Si Si4 0.854632 0.266314 0.117643
Si Si5 0.649191 0.500000 0.959453
Si Si6 0.920592 0.605475 0.031571
Si Si7 0.612247 0.318001 0.120601
O O1 0.238082 0.250813 0.694649
O O2 0.273188 0.402893 0.496157
O O3 0.309048 0.235509 0.583672
O O4 0.053963 0.666467 0.235371
O O5 0.066994 0.792426 0.610537
O O6 0.000000 0.715065 0.575764
O O7 0.060056 0.616120 0.739200
O O8 0.332889 0.500000 0.664046
O O9 0.314507 0.500000 0.160216
O O10 0.875789 0.361357 0.022689
O O11 0.864091 0.253899 0.432220
O O12 0.872038 0.185044 0.925794
O O13 0.619665 0.417040 0.995004
O O14 0.921628 0.500000 0.124419
#
# Coordination Sequence:
#
# PCOD8188968 Si02
#       7
#     8   8   4   8   4   8   8
#     4  12  24  41  62  88 124 152 190 247 301 351
#     4  10  21  35  54  82 117 147 185 237 290 336
#     4  12  24  40  64  90 115 154 204 240 283 358
#     4  10  20  39  56  81 112 146 187 234 280 336
#     4  12  18  36  65  86 108 146 204 240 264 344
#     4  10  21  36  57  80 110 152 195 230 277 344
#     4  10  19  34  59  83 108 146 185 233 282 326
#
# _framework density 19.371732000000002
#
# number of rings (size 3 to 8) (size 9 to 14) (size 15 to 20)
#    0.000    1.333    3.333    3.000    0.000    2.000 
#    3.000    0.417    0.000    0.000    0.000    8.167 
#    0.000    0.000    0.000    0.000    0.000    0.000 
#
# Total GULP energy -297491.610810 kJ/mol
# GULP energy per Si atom -12395.483784 kJ/mol
# Density = 1.932764 g / cm^3
# Si number density = 19.371732 Si / 1000 Ang^3
#
#
#
# Elastic Constant Matrix: (Units=GPa)
#
#
# Indices 1 2 3 4 5 6 
#
# 1 106.8739 34.4685 7.7940 0.0032 -0.0008 -0.0012
# 2 34.4685 96.1748 8.8049 -0.0033 -0.0076 0.0005
# 3 7.7940 8.8049 73.6404 0.0195 -0.0100 -0.0029
# 4 0.0032 -0.0033 0.0195 22.1103 -0.0019 0.0015
# 5 -0.0008 -0.0076 -0.0100 -0.0019 27.7553 0.0017
# 6 -0.0012 0.0005 -0.0029 0.0015 0.0017 16.1170
#
#
#
# Elastic Compliance Matrix: (Units=1/GPa)
#
#
# Indices 1 2 3 4 5 6 
#
# 1 0.010613 -0.003742 -0.000676 -0.000001 -0.000001 0.000001
# 2 -0.003742 0.011832 -0.001019 0.000003 0.000003 -0.000001
# 3 -0.000676 -0.001019 0.013773 -0.000012 0.000005 0.000002
# 4 -0.000001 0.000003 -0.000012 0.045228 0.000003 -0.000004
# 5 -0.000001 0.000003 0.000005 0.000003 0.036029 -0.000004
# 6 0.000001 -0.000001 0.000002 -0.000004 -0.000004 0.062046
#
#
# Mechanical properties :
#
#
# Convention : Reuss Voigt Hill
#
# Bulk Modulus (GPa) = 39.45526 42.09155 40.77340
# Shear Modulus (GPa) = 25.14560 28.23796 26.69178
#
# Velocity S-wave (km/s) = 3.60676 3.82211 3.71600
# Velocity P-wave (km/s) = 6.14464 6.42289 6.28531
#
# Compressibility (1/GPa) = 0.02534517
#
# Stress axis : x y z
#
# Youngs Moduli (GPa) = 94.22520 84.51657 72.60670
#
# Poissons Ratio (x) = 0.31624 0.04907
# Poissons Ratio (y) = 0.35256 0.07396
# Poissons Ratio (z) = 0.06368 0.08610
#
# Static dielectric constant tensor:
#      x y z
#    x 3.460690 0.000000 0.000010 
#    y 0.000000 3.514380 -0.000040 
#    z 0.000010 -0.000040 3.747840 
# 
# 
# High freq. dielectric constant tensor:
#      x y z
#    x 1.741170 0.000000 0.000000 
#    y 0.000000 1.736110 0.000000 
#    z 0.000000 0.000000 1.779780 
# 
# From -- ./inp_files/3282.got.cif
#   From: 2010.03.12/outbox.cif.g09.slc.cpg/sg44_2_cif.got.tgz:3282.got - 2010.04.14 02:36:11.
