data_PCOD8188657
_publ_section_title
;
Structure prediction by ZEFSAII (Michael W. Deem and Ramdas Pophale) SiO2 
 PCOD8188657
Probable space group: I M M 2
;
_chemical_formula_sum "Si O2"
_cell_formula_units_Z 56
_cell_length_a 22.641853
_cell_length_b 8.994868
_cell_length_c 14.233500
_cell_angle_alpha 90.000000
_cell_angle_beta 90.000000
_cell_angle_gamma 90.000000
_cell_volume 2898.801428
_symmetry_space_group_name_H-M "I M M 2"
_symmetry_group_IT_number 44
_symmetry_cell_setting 'orthorhombic'
loop_
_space_group_symop_operation_xyz
x,y,z
-x,-y,z
-x,y,z
x,-y,z
1/2+x,1/2+y,1/2+z
1/2-x,1/2-y,1/2+z
1/2-x,1/2+y,1/2+z
1/2+x,1/2-y,1/2+z
loop_
_atom_site_type_symbol
_atom_site_label
_atom_site_fract_x
_atom_site_fract_y
_atom_site_fract_z
Si Si1 0.000000 0.675228 0.372610
Si Si2 0.500000 0.176823 0.084947
Si Si3 0.345243 0.326795 0.373229
Si Si4 0.886752 0.676019 0.698941
Si Si5 0.217998 0.829216 0.593210
Si Si6 0.775703 0.830340 0.377867
Si Si7 0.161765 0.829318 0.084272
Si Si8 0.606090 0.669762 0.772555
O O1 0.942492 0.725020 0.316630
O O2 0.000000 0.500000 0.377252
O O3 0.000000 0.740763 0.478608
O O4 0.442243 0.236483 0.139178
O O5 0.500000 0.000000 0.082811
O O6 0.350535 0.500000 0.352068
O O7 0.390289 0.240723 0.304695
O O8 0.278181 0.277011 0.352257
O O9 0.362504 0.287495 0.480813
O O10 0.887384 0.500000 0.704164
O O11 0.826565 0.729647 0.651929
O O12 0.202701 0.807543 0.484110
O O13 0.284187 0.775342 0.613267
O O14 0.211907 0.000000 0.624679
O O15 0.830019 0.786415 0.312208
O O16 0.755021 0.000000 0.360825
O O17 0.109117 0.807111 0.159664
O O18 0.184250 0.000000 0.084890
O O19 0.590046 0.500000 0.797979
#
# Coordination Sequence:
#
# PCOD8188657 Si02
#       8
#     4   4   8   8   8   8   8   8
#     4  11  23  39  58  81 106 132 171 221 268 313
#     4   9  22  41  58  77 102 136 177 219 264 319
#     4  10  20  34  53  81 112 140 176 221 266 312
#     4  11  21  36  56  75 102 143 185 222 267 318
#     4  10  19  31  51  83 116 141 173 219 267 315
#     4   9  18  32  53  82 113 144 176 213 262 320
#     4   9  19  35  55  79 110 146 178 212 260 318
#     4  10  20  36  56  77 105 143 181 213 256 315
#
# _framework density 19.318328999999999
#
# number of rings (size 3 to 8) (size 9 to 14) (size 15 to 20)
#    0.000    2.143    0.000    3.214    0.000    3.429 
#    0.000    4.286    0.000    2.571    0.000    0.000 
#    0.000    0.000    0.000    0.000    0.000    0.000 
#
# Total GULP energy -347261.221415 kJ/mol
# GULP energy per Si atom -12402.186479 kJ/mol
# Density = 1.927436 g / cm^3
# Si number density = 19.318329 Si / 1000 Ang^3
#
#
#
# Elastic Constant Matrix: (Units=GPa)
#
#
# Indices 1 2 3 4 5 6 
#
# 1 67.0400 37.7321 69.9306 0.0000 0.0000 0.0000
# 2 37.7321 76.0571 46.3926 0.0000 0.0000 0.0000
# 3 69.9306 46.3926 141.4278 0.0000 0.0000 0.0000
# 4 0.0000 0.0000 0.0000 31.6237 0.0000 0.0000
# 5 0.0000 0.0000 0.0000 0.0000 29.8793 0.0000
# 6 0.0000 0.0000 0.0000 0.0000 0.0000 27.7927
#
#
#
# Elastic Compliance Matrix: (Units=1/GPa)
#
#
# Indices 1 2 3 4 5 6 
#
# 1 0.034644 -0.008423 -0.014367 0.000000 0.000000 0.000000
# 2 -0.008423 0.018485 -0.001899 0.000000 0.000000 0.000000
# 3 -0.014367 -0.001899 0.014797 0.000000 0.000000 0.000000
# 4 0.000000 0.000000 0.000000 0.031622 0.000000 0.000000
# 5 0.000000 0.000000 0.000000 0.000000 0.033468 0.000000
# 6 0.000000 0.000000 0.000000 0.000000 0.000000 0.035981
#
#
# Mechanical properties :
#
#
# Convention : Reuss Voigt Hill
#
# Bulk Modulus (GPa) = 53.91309 65.84839 59.88074
# Shear Modulus (GPa) = 22.26606 26.55713 24.41159
#
# Velocity S-wave (km/s) = 3.39866 3.71173 3.55864
# Velocity P-wave (km/s) = 6.58555 7.24771 6.92455
#
# Compressibility (1/GPa) = 0.01854837
#
# Stress axis : x y z
#
# Youngs Moduli (GPa) = 28.86525 54.09796 67.57954
#
# Poissons Ratio (x) = 0.45569 0.97090
# Poissons Ratio (y) = 0.24315 0.12830
# Poissons Ratio (z) = 0.41470 0.10271
#
# Static dielectric constant tensor:
#      x y z
#    x 3.363240 0.000000 0.000000 
#    y 0.000000 3.467070 0.000000 
#    z 0.000000 0.000000 3.934730 
# 
# 
# High freq. dielectric constant tensor:
#      x y z
#    x 1.723620 0.000000 0.000000 
#    y 0.000000 1.747270 0.000000 
#    z 0.000000 0.000000 1.773450 
# 
# From -- ./inp_files/19219.got.cif
#   From: 2010.03.12/outbox.cif.g09.slc.cpg/sg44_10_cif.got.tgz:19219.got - 2010.04.14 02:36:11.
