data_PCOD8188236
_publ_section_title
;
Structure prediction by ZEFSAII (Michael W. Deem and Ramdas Pophale) SiO2 
 PCOD8188236
Probable space group: I M M 2
;
_chemical_formula_sum "Si O2"
_cell_formula_units_Z 64
_cell_length_a 8.665732
_cell_length_b 23.570435
_cell_length_c 19.003483
_cell_angle_alpha 90.000000
_cell_angle_beta 90.000000
_cell_angle_gamma 90.000000
_cell_volume 3881.557804
_symmetry_space_group_name_H-M "I M M 2"
_symmetry_group_IT_number 44
_symmetry_cell_setting 'orthorhombic'
loop_
_space_group_symop_operation_xyz
x,y,z
-x,-y,z
-x,y,z
x,-y,z
1/2+x,1/2+y,1/2+z
1/2-x,1/2-y,1/2+z
1/2-x,1/2+y,1/2+z
1/2+x,1/2-y,1/2+z
loop_
_atom_site_type_symbol
_atom_site_label
_atom_site_fract_x
_atom_site_fract_y
_atom_site_fract_z
Si Si1 0.681996 0.666088 0.723690
Si Si2 0.679501 0.256262 0.495554
Si Si3 0.679055 0.766644 0.340023
Si Si4 0.683435 0.437041 0.632514
Si Si5 0.180461 0.232707 0.637262
Si Si6 0.180728 0.333863 0.255341
Si Si7 0.820134 0.435764 0.350062
Si Si8 0.817523 0.115138 0.988559
O O1 0.500000 0.668517 0.736021
O O2 0.768376 0.677311 0.797577
O O3 0.736368 0.604882 0.695004
O O4 0.726708 0.713179 0.666215
O O5 0.500000 0.256204 0.516085
O O6 0.709396 0.223197 0.422521
O O7 0.774034 0.223567 0.555982
O O8 0.743015 0.320291 0.486778
O O9 0.500000 0.753487 0.325425
O O10 0.777005 0.713233 0.313300
O O11 0.500000 0.437491 0.627851
O O12 0.748055 0.500000 0.648343
O O13 0.750227 0.415373 0.557964
O O14 0.228138 0.177349 0.682555
O O15 0.000000 0.243733 0.645056
O O16 0.230486 0.395153 0.285637
O O17 0.000000 0.330776 0.239424
O O18 0.777629 0.500000 0.328643
O O19 0.733608 0.419613 0.420958
O O20 0.000000 0.428213 0.365279
O O21 0.000000 0.115560 0.989872
#
# Coordination Sequence:
#
# PCOD8188236 Si02
#       8
#     8   8   8   8   8   8   8   8
#     4  10  18  31  48  67  94 125 158 196 235 279
#     4  10  19  32  49  70  96 126 157 192 237 285
#     4  10  19  31  48  69  95 122 155 198 237 280
#     4   9  17  29  46  67  91 124 163 196 225 265
#     4  11  21  31  48  70  95 122 156 199 240 285
#     4  10  19  32  49  67  93 128 161 195 237 282
#     4  10  21  34  47  68  98 130 164 200 237 278
#     4  10  18  31  48  67  95 129 167 198 226 273
#
# _framework density 16.488225
#
# number of rings (size 3 to 8) (size 9 to 14) (size 15 to 20)
#    0.000    2.000    2.500    4.125    0.000    2.750 
#    0.000    0.000    0.000    2.250    0.000    0.875 
#    0.000    1.000    0.000    0.000    0.000    0.000 
#
# Total GULP energy -396782.734039 kJ/mol
# GULP energy per Si atom -12399.460439 kJ/mol
# Density = 1.645070 g / cm^3
# Si number density = 16.488225 Si / 1000 Ang^3
#
#
#
# Elastic Constant Matrix: (Units=GPa)
#
#
# Indices 1 2 3 4 5 6 
#
# 1 31.6249 17.9006 26.6044 0.0000 0.0000 0.0000
# 2 17.9006 101.8242 64.9498 0.0000 0.0000 0.0000
# 3 26.6044 64.9498 121.9810 0.0000 0.0000 0.0000
# 4 0.0000 0.0000 0.0000 26.5268 0.0000 0.0000
# 5 0.0000 0.0000 0.0000 0.0000 27.6952 0.0000
# 6 0.0000 0.0000 0.0000 0.0000 0.0000 14.2895
#
#
#
# Elastic Compliance Matrix: (Units=1/GPa)
#
#
# Indices 1 2 3 4 5 6 
#
# 1 0.039040 -0.002168 -0.007360 0.000000 0.000000 0.000000
# 2 -0.002168 0.014992 -0.007510 0.000000 0.000000 0.000000
# 3 -0.007360 -0.007510 0.013802 0.000000 0.000000 0.000000
# 4 0.000000 0.000000 0.000000 0.037698 0.000000 0.000000
# 5 0.000000 0.000000 0.000000 0.000000 0.036107 0.000000
# 6 0.000000 0.000000 0.000000 0.000000 0.000000 0.069981
#
#
# Mechanical properties :
#
#
# Convention : Reuss Voigt Hill
#
# Bulk Modulus (GPa) = 29.62329 52.70441 41.16385
# Shear Modulus (GPa) = 19.45908 23.43398 21.44653
#
# Velocity S-wave (km/s) = 3.43910 3.77404 3.61046
# Velocity P-wave (km/s) = 5.81165 7.14321 6.51156
#
# Compressibility (1/GPa) = 0.03375723
#
# Stress axis : x y z
#
# Youngs Moduli (GPa) = 25.61496 66.70093 72.45368
#
# Poissons Ratio (x) = 0.14464 0.53326
# Poissons Ratio (y) = 0.05554 0.54411
# Poissons Ratio (z) = 0.18853 0.50091
#
# Static dielectric constant tensor:
#      x y z
#    x 3.013480 0.000000 0.000000 
#    y 0.000000 3.167510 0.000000 
#    z 0.000000 0.000000 3.208280 
# 
# 
# High freq. dielectric constant tensor:
#      x y z
#    x 1.630700 0.000000 0.000000 
#    y 0.000000 1.608030 0.000000 
#    z 0.000000 0.000000 1.631290 
# 
# From -- ./inp_files/20839.got.cif
#   From: 2010.03.12/outbox.cif.g09.slc.cpg/sg44_11_cif.got.tgz:20839.got - 2010.04.14 02:36:11.
