data_PCOD8188384
_publ_section_title
;
Structure prediction by ZEFSAII (Michael W. Deem and Ramdas Pophale) SiO2 
 PCOD8188384
Probable space group: I M M 2
;
_chemical_formula_sum "Si O2"
_cell_formula_units_Z 48
_cell_length_a 8.933309
_cell_length_b 18.149727
_cell_length_c 14.941114
_cell_angle_alpha 90.000000
_cell_angle_beta 90.000000
_cell_angle_gamma 90.000000
_cell_volume 2422.509187
_symmetry_space_group_name_H-M "I M M 2"
_symmetry_group_IT_number 44
_symmetry_cell_setting 'orthorhombic'
loop_
_space_group_symop_operation_xyz
x,y,z
-x,-y,z
-x,y,z
x,-y,z
1/2+x,1/2+y,1/2+z
1/2-x,1/2-y,1/2+z
1/2-x,1/2+y,1/2+z
1/2+x,1/2-y,1/2+z
loop_
_atom_site_type_symbol
_atom_site_label
_atom_site_fract_x
_atom_site_fract_y
_atom_site_fract_z
Si Si1 0.168982 0.392985 0.423090
Si Si2 0.678595 0.000000 0.577740
Si Si3 0.325458 0.000000 0.774207
Si Si4 0.168064 0.764154 0.351849
Si Si5 0.676678 0.349692 0.023764
Si Si6 0.176285 0.727589 0.667415
Si Si7 0.173188 0.081897 0.101004
O O1 0.222064 0.427388 0.328898
O O2 0.173981 0.305932 0.416542
O O3 0.281912 0.421189 0.497506
O O4 0.000000 0.419694 0.446328
O O5 0.750534 0.000000 0.677437
O O6 0.738320 0.073534 0.531801
O O7 0.500000 0.000000 0.573424
O O8 0.500000 0.000000 0.755006
O O9 0.214398 0.828046 0.420967
O O10 0.277970 0.752902 0.268613
O O11 0.000000 0.776300 0.314180
O O12 0.500000 0.360421 0.037419
O O13 0.736706 0.288928 0.096533
O O14 0.235059 0.645221 0.650434
O O15 0.000000 0.724383 0.659407
O O16 0.000000 0.102125 0.109270
O O17 0.204127 0.000000 0.142287
#
# Coordination Sequence:
#
# PCOD8188384 Si02
#       7
#     8   4   4   8   8   8   8
#     4  10  18  34  60  86 118 157 197 239 297 364
#     4  11  23  39  61  90 121 158 207 253 296 352
#     4   9  18  31  55  88 119 152 191 243 298 354
#     4  10  21  39  62  89 121 160 202 246 304 363
#     4  10  22  42  64  87 123 164 199 246 308 363
#     4  11  23  41  65  92 120 158 206 251 301 363
#     4  11  23  38  58  88 124 159 198 246 301 355
#
# _framework density 19.814166
#
# number of rings (size 3 to 8) (size 9 to 14) (size 15 to 20)
#    0.000    1.667    2.500    2.250    0.000    5.000 
#    1.500    1.667    0.000    0.000    0.000    0.000 
#    0.000    0.000    0.000    0.000    0.000    0.000 
#
# Total GULP energy -297515.970546 kJ/mol
# GULP energy per Si atom -12396.498773 kJ/mol
# Density = 1.976907 g / cm^3
# Si number density = 19.814166 Si / 1000 Ang^3
#
#
#
# Elastic Constant Matrix: (Units=GPa)
#
#
# Indices 1 2 3 4 5 6 
#
# 1 62.4772 41.7347 26.7741 0.0000 0.0000 0.0000
# 2 41.7347 126.9019 32.4822 0.0000 0.0000 0.0000
# 3 26.7741 32.4822 73.5067 0.0000 0.0000 0.0000
# 4 0.0000 0.0000 0.0000 19.9365 0.0000 0.0000
# 5 0.0000 0.0000 0.0000 0.0000 33.7842 0.0000
# 6 0.0000 0.0000 0.0000 0.0000 0.0000 28.4103
#
#
#
# Elastic Compliance Matrix: (Units=1/GPa)
#
#
# Indices 1 2 3 4 5 6 
#
# 1 0.022331 -0.005933 -0.005512 0.000000 0.000000 0.000000
# 2 -0.005933 0.010462 -0.002462 0.000000 0.000000 0.000000
# 3 -0.005512 -0.002462 0.016700 0.000000 0.000000 0.000000
# 4 0.000000 0.000000 0.000000 0.050159 0.000000 0.000000
# 5 0.000000 0.000000 0.000000 0.000000 0.029600 0.000000
# 6 0.000000 0.000000 0.000000 0.000000 0.000000 0.035198
#
#
# Mechanical properties :
#
#
# Convention : Reuss Voigt Hill
#
# Bulk Modulus (GPa) = 46.12884 51.65196 48.89040
# Shear Modulus (GPa) = 25.06383 27.21920 26.14151
#
# Velocity S-wave (km/s) = 3.56047 3.71040 3.63621
# Velocity P-wave (km/s) = 6.34301 6.66940 6.50825
#
# Compressibility (1/GPa) = 0.02167841
#
# Stress axis : x y z
#
# Youngs Moduli (GPa) = 44.77983 95.58832 59.88110
#
# Poissons Ratio (x) = 0.56716 0.33007
# Poissons Ratio (y) = 0.26569 0.14741
# Poissons Ratio (z) = 0.24683 0.23531
#
# Static dielectric constant tensor:
#      x y z
#    x 3.464040 0.000000 0.000000 
#    y 0.000000 3.791890 0.000000 
#    z 0.000000 0.000000 3.577860 
# 
# 
# High freq. dielectric constant tensor:
#      x y z
#    x 1.756550 0.000000 0.000000 
#    y 0.000000 1.786200 0.000000 
#    z 0.000000 0.000000 1.767750 
# 
# From -- ./inp_files/16145.got.cif
#   From: 2010.03.12/outbox.cif.g09.slc.cpg/sg44_9_cif.got.tgz:16145.got - 2010.04.14 02:36:11.
