data_PCOD8188219
_publ_section_title
;
Structure prediction by ZEFSAII (Michael W. Deem and Ramdas Pophale) SiO2 
 PCOD8188219
Probable space group: I M M 2
;
_chemical_formula_sum "Si O2"
_cell_formula_units_Z 34
_cell_length_a 7.914060
_cell_length_b 7.818868
_cell_length_c 27.184270
_cell_angle_alpha 90.000000
_cell_angle_beta 90.000000
_cell_angle_gamma 90.000000
_cell_volume 1682.135185
_symmetry_space_group_name_H-M "I M M 2"
_symmetry_group_IT_number 44
_symmetry_cell_setting 'orthorhombic'
loop_
_space_group_symop_operation_xyz
x,y,z
-x,-y,z
-x,y,z
x,-y,z
1/2+x,1/2+y,1/2+z
1/2-x,1/2-y,1/2+z
1/2-x,1/2+y,1/2+z
1/2+x,1/2-y,1/2+z
loop_
_atom_site_type_symbol
_atom_site_label
_atom_site_fract_x
_atom_site_fract_y
_atom_site_fract_z
Si Si1 0.000000 0.500000 0.050140
Si Si2 0.681263 0.302453 0.196543
Si Si3 0.194055 0.201565 0.299479
Si Si4 0.500000 0.809524 0.644064
Si Si5 0.199510 0.309897 0.404647
Si Si6 0.702643 0.500000 0.973827
O O1 0.000000 0.671238 0.084681
O O2 0.177093 0.500000 0.021254
O O3 0.500000 0.217704 0.182576
O O4 0.672549 0.500000 0.182184
O O5 0.705693 0.283688 0.254721
O O6 0.831990 0.213462 0.164701
O O7 0.273697 0.270808 0.350547
O O8 0.000000 0.257943 0.294487
O O9 0.214282 0.000000 0.298467
O O10 0.500000 0.000000 0.668398
O O11 0.257359 0.500000 0.421809
O O12 0.000000 0.296412 0.400463
O O13 0.258638 0.168352 0.443691
O O14 0.500000 0.500000 0.986883
#
# Coordination Sequence:
#
# PCOD8188219 Si02
#       6
#     2   8   8   4   8   4
#     4  10  22  38  64  90 110 156 206 262 320 336
#     4  10  19  32  53  80 111 147 192 240 288 353
#     4  10  18  30  51  80 119 163 199 235 292 357
#     4   8  18  36  55  80 111 140 197 251 294 348
#     4   9  17  32  56  84 120 164 198 240 298 363
#     4  10  20  38  60  88 122 152 206 256 300 359
#
# _framework density 20.212406000000001
#
# number of rings (size 3 to 8) (size 9 to 14) (size 15 to 20)
#    0.353    2.118    2.353    0.706    0.000    2.353 
#    2.118    0.588    0.000    2.824    0.000    3.294 
#    0.000    0.000    0.000    0.000    0.000    0.000 
#
# Total GULP energy -210627.859015 kJ/mol
# GULP energy per Si atom -12389.874060 kJ/mol
# Density = 2.016640 g / cm^3
# Si number density = 20.212406 Si / 1000 Ang^3
#
#
#
# Elastic Constant Matrix: (Units=GPa)
#
#
# Indices 1 2 3 4 5 6 
#
# 1 137.1844 21.9207 68.8881 0.0000 0.0000 0.0000
# 2 21.9207 68.8981 29.3512 0.0000 0.0000 0.0000
# 3 68.8881 29.3512 139.1979 0.0000 0.0000 0.0000
# 4 0.0000 0.0000 0.0000 9.6586 0.0000 0.0000
# 5 0.0000 0.0000 0.0000 0.0000 8.5460 0.0000
# 6 0.0000 0.0000 0.0000 0.0000 0.0000 5.7848
#
#
#
# Elastic Compliance Matrix: (Units=1/GPa)
#
#
# Indices 1 2 3 4 5 6 
#
# 1 0.009783 -0.001154 -0.004598 0.000000 0.000000 0.000000
# 2 -0.001154 0.016083 -0.002820 0.000000 0.000000 0.000000
# 3 -0.004598 -0.002820 0.010054 0.000000 0.000000 0.000000
# 4 0.000000 0.000000 0.000000 0.103535 0.000000 0.000000
# 5 0.000000 0.000000 0.000000 0.000000 0.117014 0.000000
# 6 0.000000 0.000000 0.000000 0.000000 0.000000 0.172866
#
#
# Mechanical properties :
#
#
# Convention : Reuss Voigt Hill
#
# Bulk Modulus (GPa) = 53.26053 65.06670 59.16362
# Shear Modulus (GPa) = 11.04394 19.80592 15.42493
#
# Velocity S-wave (km/s) = 2.34004 3.13371 2.76550
# Velocity P-wave (km/s) = 5.80592 6.73460 6.28743
#
# Compressibility (1/GPa) = 0.01877563
#
# Stress axis : x y z
#
# Youngs Moduli (GPa) = 102.22013 62.17867 99.45990
#
# Poissons Ratio (x) = 0.07173 0.45734
# Poissons Ratio (y) = 0.11793 0.28050
# Poissons Ratio (z) = 0.47003 0.17536
#
# Static dielectric constant tensor:
#      x y z
#    x 3.925220 0.000000 0.000000 
#    y 0.000000 3.518340 0.000000 
#    z 0.000000 0.000000 3.490530 
# 
# 
# High freq. dielectric constant tensor:
#      x y z
#    x 1.784910 0.000000 0.000000 
#    y 0.000000 1.766470 0.000000 
#    z 0.000000 0.000000 1.765880 
# 
# From -- ./inp_files/25906.got.cif
#   From: 2010.03.12/outbox.cif.g09.slc.cpg/sg44_13_cif.got.tgz:25906.got - 2010.04.14 02:36:11.
