data_PCOD8188103
_publ_section_title
;
Structure prediction by ZEFSAII (Michael W. Deem and Ramdas Pophale) SiO2 
 PCOD8188103
Probable space group: I M M 2
;
_chemical_formula_sum "Si O2"
_cell_formula_units_Z 64
_cell_length_a 9.026824
_cell_length_b 14.498681
_cell_length_c 28.076933
_cell_angle_alpha 90.000000
_cell_angle_beta 90.000000
_cell_angle_gamma 90.000000
_cell_volume 3674.625929
_symmetry_space_group_name_H-M "I M M 2"
_symmetry_group_IT_number 44
_symmetry_cell_setting 'orthorhombic'
loop_
_space_group_symop_operation_xyz
x,y,z
-x,-y,z
-x,y,z
x,-y,z
1/2+x,1/2+y,1/2+z
1/2-x,1/2-y,1/2+z
1/2-x,1/2+y,1/2+z
1/2+x,1/2-y,1/2+z
loop_
_atom_site_type_symbol
_atom_site_label
_atom_site_fract_x
_atom_site_fract_y
_atom_site_fract_z
Si Si1 0.670104 0.397391 0.900210
Si Si2 0.173105 0.105067 0.755581
Si Si3 0.676107 0.897548 0.033698
Si Si4 0.672549 0.107449 0.140447
Si Si5 0.672125 0.215069 0.946035
Si Si6 0.171005 0.105332 0.865090
Si Si7 0.170539 0.606700 0.802720
Si Si8 0.824688 0.779243 0.221529
O O1 0.500000 0.388707 0.882924
O O2 0.702480 0.500000 0.920124
O O3 0.703211 0.324911 0.942699
O O4 0.775619 0.374605 0.856090
O O5 0.208986 0.128456 0.810496
O O6 0.265391 0.174238 0.722293
O O7 0.000000 0.118499 0.745395
O O8 0.220282 0.000000 0.743817
O O9 0.500000 0.898361 0.033240
O O10 0.742940 0.826388 0.994586
O O11 0.735386 0.000000 0.021121
O O12 0.726123 0.869255 0.086758
O O13 0.500000 0.130839 0.148144
O O14 0.769993 0.171122 0.174037
O O15 0.700875 0.000000 0.151949
O O16 0.500000 0.192514 0.947137
O O17 0.733303 0.169614 0.898510
O O18 0.000000 0.124593 0.875493
O O19 0.211464 0.000000 0.876356
O O20 0.190398 0.500000 0.788846
O O21 0.266623 0.666743 0.767269
O O22 0.000000 0.637535 0.798852
O O23 0.000000 0.778336 0.222133
#
# Coordination Sequence:
#
# PCOD8188103 Si02
#       8
#     8   8   8   8   8   8   8   8
#     4   9  18  31  45  66  99 132 160 196 241 282
#     4   9  19  36  54  70  94 131 171 205 233 270
#     4   8  15  29  49  72  95 119 153 198 241 281
#     4   9  18  34  54  72  93 125 162 198 239 290
#     4  10  18  28  47  72  95 125 162 196 235 282
#     4   9  18  31  46  68  98 127 154 189 233 277
#     4  10  20  33  49  69  95 130 170 205 237 282
#     4  12  23  32  48  74 101 127 156 197 249 297
#
# _framework density 17.416737999999999
#
# number of rings (size 3 to 8) (size 9 to 14) (size 15 to 20)
#    0.000    2.500    0.000    4.500    0.000    6.500 
#    0.000    1.875    0.000    1.500    0.000    3.500 
#    0.000    0.000    0.000    0.000    0.000    0.000 
#
# Total GULP energy -396736.309958 kJ/mol
# GULP energy per Si atom -12398.009686 kJ/mol
# Density = 1.737710 g / cm^3
# Si number density = 17.416738 Si / 1000 Ang^3
#
#
#
# Elastic Constant Matrix: (Units=GPa)
#
#
# Indices 1 2 3 4 5 6 
#
# 1 72.2773 54.0740 43.8024 0.0000 0.0000 0.0000
# 2 54.0740 119.8671 80.2257 0.0000 0.0000 0.0000
# 3 43.8024 80.2257 93.3983 0.0000 0.0000 0.0000
# 4 0.0000 0.0000 0.0000 29.7883 0.0000 0.0000
# 5 0.0000 0.0000 0.0000 0.0000 19.5582 0.0000
# 6 0.0000 0.0000 0.0000 0.0000 0.0000 21.6576
#
#
#
# Elastic Compliance Matrix: (Units=1/GPa)
#
#
# Indices 1 2 3 4 5 6 
#
# 1 0.021540 -0.006953 -0.004129 0.000000 0.000000 0.000000
# 2 -0.006953 0.021869 -0.015524 0.000000 0.000000 0.000000
# 3 -0.004129 -0.015524 0.025978 0.000000 0.000000 0.000000
# 4 0.000000 0.000000 0.000000 0.033570 0.000000 0.000000
# 5 0.000000 0.000000 0.000000 0.000000 0.051129 0.000000
# 6 0.000000 0.000000 0.000000 0.000000 0.000000 0.046173
#
#
# Mechanical properties :
#
#
# Convention : Reuss Voigt Hill
#
# Bulk Modulus (GPa) = 61.82695 71.30521 66.56608
# Shear Modulus (GPa) = 19.31508 21.36354 20.33931
#
# Velocity S-wave (km/s) = 3.33377 3.50610 3.42102
# Velocity P-wave (km/s) = 7.09890 7.57759 7.34214
#
# Compressibility (1/GPa) = 0.01617418
#
# Stress axis : x y z
#
# Youngs Moduli (GPa) = 46.42460 45.72605 38.49429
#
# Poissons Ratio (x) = 0.31795 0.15895
# Poissons Ratio (y) = 0.32281 0.59758
# Poissons Ratio (z) = 0.19170 0.70985
#
# Static dielectric constant tensor:
#      x y z
#    x 3.071800 0.000000 0.000000 
#    y 0.000000 3.489940 0.000000 
#    z 0.000000 0.000000 3.320320 
# 
# 
# High freq. dielectric constant tensor:
#      x y z
#    x 1.656960 0.000000 0.000000 
#    y 0.000000 1.679540 0.000000 
#    z 0.000000 0.000000 1.653340 
# 
# From -- ./inp_files/25090.got.cif
#   From: 2010.03.12/outbox.cif.g09.slc.cpg/sg44_13_cif.got.tgz:25090.got - 2010.04.14 02:36:11.
