data_PCOD8188723
_publ_section_title
;
Structure prediction by ZEFSAII (Michael W. Deem and Ramdas Pophale) SiO2 
 PCOD8188723
Probable space group: I M M 2
;
_chemical_formula_sum "Si O2"
_cell_formula_units_Z 56
_cell_length_a 14.400616
_cell_length_b 9.087955
_cell_length_c 22.724564
_cell_angle_alpha 90.000000
_cell_angle_beta 90.000000
_cell_angle_gamma 90.000000
_cell_volume 2974.012553
_symmetry_space_group_name_H-M "I M M 2"
_symmetry_group_IT_number 44
_symmetry_cell_setting 'orthorhombic'
loop_
_space_group_symop_operation_xyz
x,y,z
-x,-y,z
-x,y,z
x,-y,z
1/2+x,1/2+y,1/2+z
1/2-x,1/2-y,1/2+z
1/2-x,1/2+y,1/2+z
1/2+x,1/2-y,1/2+z
loop_
_atom_site_type_symbol
_atom_site_label
_atom_site_fract_x
_atom_site_fract_y
_atom_site_fract_z
Si Si1 0.605422 0.827659 0.195910
Si Si2 0.221553 0.675049 0.237335
Si Si3 0.102850 0.674254 0.129416
Si Si4 0.601546 0.174720 0.498326
Si Si5 0.706052 0.326468 0.957973
Si Si6 0.392719 0.833184 0.061517
Si Si7 0.608597 0.673468 0.840029
O O1 0.500000 0.789977 0.214535
O O2 0.673644 0.737026 0.238725
O O3 0.622334 0.779730 0.128407
O O4 0.624448 0.000000 0.203844
O O5 0.222845 0.500000 0.242331
O O6 0.176135 0.734863 0.176679
O O7 0.161213 0.738602 0.289983
O O8 0.107770 0.500000 0.129209
O O9 0.124407 0.735284 0.064016
O O10 0.000000 0.726283 0.148735
O O11 0.500000 0.234642 0.477045
O O12 0.685042 0.223686 0.454899
O O13 0.596347 0.000000 0.501527
O O14 0.697689 0.500000 0.960304
O O15 0.650849 0.267043 0.901544
O O16 0.664154 0.270056 0.018575
O O17 0.500000 0.821135 0.044400
O O18 0.357946 0.000000 0.054065
O O19 0.500000 0.712354 0.838527
O O20 0.625762 0.500000 0.832118
#
# Coordination Sequence:
#
# PCOD8188723 Si02
#       7
#     8   8   8   8   8   8   8
#     4   9  19  36  55  76 106 141 172 206 257 322
#     4  11  21  33  53  78 102 132 174 223 267 306
#     4   8  14  25  43  71 104 130 154 195 255 313
#     4   8  14  26  46  73 102 127 155 199 253 305
#     4  10  19  32  52  76 102 136 180 224 259 296
#     4   9  18  32  51  77 108 139 169 206 258 316
#     4  10  22  38  52  70 102 141 177 216 265 320
#
# _framework density 18.829778999999998
#
# number of rings (size 3 to 8) (size 9 to 14) (size 15 to 20)
#    0.000    2.714    0.000    3.857    0.000    4.286 
#    0.000    2.143    0.000    3.000    0.000    4.000 
#    0.000    0.000    0.000    0.000    0.000    0.000 
#
# Total GULP energy -347053.304975 kJ/mol
# GULP energy per Si atom -12394.760892 kJ/mol
# Density = 1.878692 g / cm^3
# Si number density = 18.829779 Si / 1000 Ang^3
#
#
#
# Elastic Constant Matrix: (Units=GPa)
#
#
# Indices 1 2 3 4 5 6 
#
# 1 154.1908 45.5347 76.3633 0.0000 0.0000 0.0000
# 2 45.5347 36.2067 33.9583 0.0000 0.0000 0.0000
# 3 76.3633 33.9583 75.8229 0.0000 0.0000 0.0000
# 4 0.0000 0.0000 0.0000 25.3788 0.0000 0.0000
# 5 0.0000 0.0000 0.0000 0.0000 35.7076 0.0000
# 6 0.0000 0.0000 0.0000 0.0000 0.0000 22.1115
#
#
#
# Elastic Compliance Matrix: (Units=1/GPa)
#
#
# Indices 1 2 3 4 5 6 
#
# 1 0.014052 -0.007585 -0.010755 0.000000 0.000000 0.000000
# 2 -0.007585 0.051718 -0.015523 0.000000 0.000000 0.000000
# 3 -0.010755 -0.015523 0.030973 0.000000 0.000000 0.000000
# 4 0.000000 0.000000 0.000000 0.039403 0.000000 0.000000
# 5 0.000000 0.000000 0.000000 0.000000 0.028005 0.000000
# 6 0.000000 0.000000 0.000000 0.000000 0.000000 0.045225
#
#
# Mechanical properties :
#
#
# Convention : Reuss Voigt Hill
#
# Bulk Modulus (GPa) = 34.46440 64.21477 49.33959
# Shear Modulus (GPa) = 17.43531 23.99719 20.71625
#
# Velocity S-wave (km/s) = 3.04623 3.57379 3.32050
# Velocity P-wave (km/s) = 5.54216 7.15584 6.40006
#
# Compressibility (1/GPa) = 0.02901545
#
# Stress axis : x y z
#
# Youngs Moduli (GPa) = 71.16514 19.33572 32.28655
#
# Poissons Ratio (x) = 0.14666 0.34724
# Poissons Ratio (y) = 0.53978 0.50120
# Poissons Ratio (z) = 0.76538 0.30016
#
# Static dielectric constant tensor:
#      x y z
#    x 3.854590 0.000000 0.000000 
#    y 0.000000 3.062470 0.000000 
#    z 0.000000 0.000000 3.444670 
# 
# 
# High freq. dielectric constant tensor:
#      x y z
#    x 1.750040 0.000000 0.000000 
#    y 0.000000 1.694670 0.000000 
#    z 0.000000 0.000000 1.714570 
# 
# From -- ./inp_files/23029.got.cif
#   From: 2010.03.12/outbox.cif.g09.slc.cpg/sg44_12_cif.got.tgz:23029.got - 2010.04.14 02:36:11.
