data_PCOD8188749
_publ_section_title
;
Structure prediction by ZEFSAII (Michael W. Deem and Ramdas Pophale) SiO2 
 PCOD8188749
Probable space group: I M M 2
;
_chemical_formula_sum "Si O2"
_cell_formula_units_Z 48
_cell_length_a 9.552930
_cell_length_b 7.841729
_cell_length_c 34.022780
_cell_angle_alpha 90.000000
_cell_angle_beta 90.000000
_cell_angle_gamma 90.000000
_cell_volume 2548.697083
_symmetry_space_group_name_H-M "I M M 2"
_symmetry_group_IT_number 44
_symmetry_cell_setting 'orthorhombic'
loop_
_space_group_symop_operation_xyz
x,y,z
-x,-y,z
-x,y,z
x,-y,z
1/2+x,1/2+y,1/2+z
1/2-x,1/2-y,1/2+z
1/2-x,1/2+y,1/2+z
1/2+x,1/2-y,1/2+z
loop_
_atom_site_type_symbol
_atom_site_label
_atom_site_fract_x
_atom_site_fract_y
_atom_site_fract_z
Si Si1 0.835060 0.500000 0.887130
Si Si2 0.662235 0.196466 0.024367
Si Si3 0.162267 0.000000 0.466083
Si Si4 0.660754 0.306442 0.763139
Si Si5 0.340813 0.197245 0.680634
Si Si6 0.340035 0.309819 0.332546
Si Si7 0.343467 0.299676 0.597753
O O1 0.756078 0.500000 0.927873
O O2 0.787686 0.669716 0.863733
O O3 0.000000 0.500000 0.895346
O O4 0.500000 0.209413 0.035664
O O5 0.748282 0.263419 0.061921
O O6 0.700764 0.000000 0.012591
O O7 0.699183 0.326413 0.989418
O O8 0.000000 0.000000 0.454010
O O9 0.500000 0.241334 0.763449
O O10 0.671717 0.500000 0.777334
O O11 0.723956 0.290549 0.718867
O O12 0.749418 0.193531 0.792994
O O13 0.500000 0.260495 0.676125
O O14 0.269326 0.243682 0.638908
O O15 0.327688 0.000000 0.689504
O O16 0.500000 0.269993 0.320897
O O17 0.325316 0.500000 0.350893
O O18 0.500000 0.219579 0.593470
O O19 0.353336 0.500000 0.596711
#
# Coordination Sequence:
#
# PCOD8188749 Si02
#       7
#     4   8   4   8   8   8   8
#     4  10  22  40  58  82 112 140 174 222 274 326
#     4   9  19  36  55  76 106 141 173 213 268 320
#     4  10  22  38  58  82 108 138 176 220 266 324
#     4  10  19  32  53  79 108 144 186 228 271 320
#     4   9  17  28  44  71 106 141 178 223 269 310
#     4  10  21  38  59  81 109 145 180 219 272 328
#     4   9  17  30  49  73 101 136 180 223 263 311
#
# _framework density 18.833151000000001
#
# number of rings (size 3 to 8) (size 9 to 14) (size 15 to 20)
#    0.000    2.500    0.833    1.000    1.167    5.000 
#    0.000    0.833    0.000    3.000    0.000    0.000 
#    0.000    0.000    0.000    0.000    0.000    0.000 
#
# Total GULP energy -297512.104719 kJ/mol
# GULP energy per Si atom -12396.337697 kJ/mol
# Density = 1.879029 g / cm^3
# Si number density = 18.833151 Si / 1000 Ang^3
#
#
#
# Elastic Constant Matrix: (Units=GPa)
#
#
# Indices 1 2 3 4 5 6 
#
# 1 52.7772 30.3172 60.7229 0.0000 0.0000 0.0000
# 2 30.3172 94.8817 60.4045 0.0000 0.0000 0.0000
# 3 60.7229 60.4045 155.5192 0.0000 0.0000 0.0000
# 4 0.0000 0.0000 0.0000 25.9662 0.0000 0.0000
# 5 0.0000 0.0000 0.0000 0.0000 29.5076 0.0000
# 6 0.0000 0.0000 0.0000 0.0000 0.0000 18.2243
#
#
#
# Elastic Compliance Matrix: (Units=1/GPa)
#
#
# Indices 1 2 3 4 5 6 
#
# 1 0.035170 -0.003315 -0.012445 0.000000 0.000000 0.000000
# 2 -0.003315 0.014314 -0.004265 0.000000 0.000000 0.000000
# 3 -0.012445 -0.004265 0.012946 0.000000 0.000000 0.000000
# 4 0.000000 0.000000 0.000000 0.038512 0.000000 0.000000
# 5 0.000000 0.000000 0.000000 0.000000 0.033890 0.000000
# 6 0.000000 0.000000 0.000000 0.000000 0.000000 0.054872
#
#
# Mechanical properties :
#
#
# Convention : Reuss Voigt Hill
#
# Bulk Modulus (GPa) = 44.68302 67.34083 56.01193
# Shear Modulus (GPa) = 21.07808 24.85517 22.96662
#
# Velocity S-wave (km/s) = 3.34908 3.63679 3.49589
# Velocity P-wave (km/s) = 6.22353 7.31226 6.78975
#
# Compressibility (1/GPa) = 0.02237987
#
# Stress axis : x y z
#
# Youngs Moduli (GPa) = 28.43321 69.86111 77.24523
#
# Poissons Ratio (x) = 0.23160 0.96129
# Poissons Ratio (y) = 0.09426 0.32947
# Poissons Ratio (z) = 0.35384 0.29798
#
# Static dielectric constant tensor:
#      x y z
#    x 3.398240 0.000000 0.000000 
#    y 0.000000 3.569290 0.000000 
#    z 0.000000 0.000000 3.427180 
# 
# 
# High freq. dielectric constant tensor:
#      x y z
#    x 1.699250 0.000000 0.000000 
#    y 0.000000 1.743150 0.000000 
#    z 0.000000 0.000000 1.729360 
# 
# From -- ./inp_files/26908.got.cif
#   From: 2010.03.12/outbox.cif.g09.slc.cpg/sg44_14_cif.got.tgz:26908.got - 2010.04.14 02:36:11.
