data_PCOD8188737
_publ_section_title
;
Structure prediction by ZEFSAII (Michael W. Deem and Ramdas Pophale) SiO2 
 PCOD8188737
Probable space group: I M M 2
;
_chemical_formula_sum "Si O2"
_cell_formula_units_Z 56
_cell_length_a 9.351807
_cell_length_b 20.057227
_cell_length_c 15.516657
_cell_angle_alpha 90.000000
_cell_angle_beta 90.000000
_cell_angle_gamma 90.000000
_cell_volume 2910.479771
_symmetry_space_group_name_H-M "I M M 2"
_symmetry_group_IT_number 44
_symmetry_cell_setting 'orthorhombic'
loop_
_space_group_symop_operation_xyz
x,y,z
-x,-y,z
-x,y,z
x,-y,z
1/2+x,1/2+y,1/2+z
1/2-x,1/2-y,1/2+z
1/2-x,1/2+y,1/2+z
1/2+x,1/2-y,1/2+z
loop_
_atom_site_type_symbol
_atom_site_label
_atom_site_fract_x
_atom_site_fract_y
_atom_site_fract_z
Si Si1 0.168722 0.286954 0.831220
Si Si2 0.661387 0.078939 0.762664
Si Si3 0.153842 0.073092 0.912577
Si Si4 0.660144 0.391256 0.595151
Si Si5 0.169078 0.425656 0.760877
Si Si6 0.663950 0.243830 0.524368
Si Si7 0.329740 0.688052 0.178941
O O1 0.222803 0.364314 0.821097
O O2 0.226792 0.240907 0.752034
O O3 0.000000 0.285376 0.824721
O O4 0.218153 0.260428 0.924933
O O5 0.500000 0.105360 0.752958
O O6 0.718040 0.104094 0.856751
O O7 0.766313 0.114737 0.695864
O O8 0.666620 0.000000 0.747611
O O9 0.000000 0.112958 0.902733
O O10 0.129904 0.000000 0.873436
O O11 0.193553 0.063791 0.012204
O O12 0.500000 0.403200 0.631561
O O13 0.773386 0.411564 0.665888
O O14 0.678477 0.317819 0.558545
O O15 0.219420 0.500000 0.793108
O O16 0.000000 0.424623 0.754142
O O17 0.500000 0.217800 0.531640
O O18 0.770253 0.202449 0.584061
O O19 0.500000 0.685439 0.176315
#
# Coordination Sequence:
#
# PCOD8188737 Si02
#       7
#     8   8   8   8   8   8   8
#     4   9  19  37  58  81 113 152 194 237 287 344
#     4  10  21  36  54  79 111 145 183 231 284 337
#     4   9  17  30  49  75 108 146 184 219 267 333
#     4  10  19  32  52  79 111 147 186 232 289 345
#     4  10  20  35  56  81 112 151 195 243 292 345
#     4  10  20  35  56  81 110 146 190 240 287 340
#     4  11  21  37  60  83 112 149 187 234 287 341
#
# _framework density 19.240812999999999
#
# number of rings (size 3 to 8) (size 9 to 14) (size 15 to 20)
#    0.000    2.143    1.429    2.143    0.000    4.571 
#    0.000    5.714    0.000    2.571    0.000    0.000 
#    0.000    0.000    0.000    0.000    0.000    0.000 
#
# Total GULP energy -346868.150809 kJ/mol
# GULP energy per Si atom -12388.148243 kJ/mol
# Density = 1.919702 g / cm^3
# Si number density = 19.240813 Si / 1000 Ang^3
#
#
#
# Elastic Constant Matrix: (Units=GPa)
#
#
# Indices 1 2 3 4 5 6 
#
# 1 65.9113 27.8101 30.2088 0.0000 0.0000 0.0000
# 2 27.8101 67.8019 14.9579 0.0000 0.0000 0.0000
# 3 30.2088 14.9579 80.2509 0.0000 0.0000 0.0000
# 4 0.0000 0.0000 0.0000 32.4421 0.0000 0.0000
# 5 0.0000 0.0000 0.0000 0.0000 32.8666 0.0000
# 6 0.0000 0.0000 0.0000 0.0000 0.0000 18.8747
#
#
#
# Elastic Compliance Matrix: (Units=1/GPa)
#
#
# Indices 1 2 3 4 5 6 
#
# 1 0.021289 -0.007263 -0.006660 0.000000 0.000000 0.000000
# 2 -0.007263 0.017859 -0.000595 0.000000 0.000000 0.000000
# 3 -0.006660 -0.000595 0.015079 0.000000 0.000000 0.000000
# 4 0.000000 0.000000 0.000000 0.030824 0.000000 0.000000
# 5 0.000000 0.000000 0.000000 0.000000 0.030426 0.000000
# 6 0.000000 0.000000 0.000000 0.000000 0.000000 0.052981
#
#
# Mechanical properties :
#
#
# Convention : Reuss Voigt Hill
#
# Bulk Modulus (GPa) = 39.69598 39.99088 39.84343
# Shear Modulus (GPa) = 24.28483 26.23583 25.26033
#
# Velocity S-wave (km/s) = 3.55653 3.69664 3.62726
# Velocity P-wave (km/s) = 6.12708 6.24897 6.18833
#
# Compressibility (1/GPa) = 0.02519147
#
# Stress axis : x y z
#
# Youngs Moduli (GPa) = 46.97327 55.99418 66.31823
#
# Poissons Ratio (x) = 0.40667 0.44168
# Poissons Ratio (y) = 0.34115 0.03945
# Poissons Ratio (z) = 0.31284 0.03331
#
# Static dielectric constant tensor:
#      x y z
#    x 3.489150 0.000000 0.000000 
#    y 0.000000 3.729710 0.000000 
#    z 0.000000 0.000000 3.622630 
# 
# 
# High freq. dielectric constant tensor:
#      x y z
#    x 1.731070 0.000000 0.000000 
#    y 0.000000 1.754200 0.000000 
#    z 0.000000 0.000000 1.732760 
# 
# From -- ./inp_files/16451.got.cif
#   From: 2010.03.12/outbox.cif.g09.slc.cpg/sg44_9_cif.got.tgz:16451.got - 2010.04.14 02:36:11.
