data_PCOD8188323
_publ_section_title
;
Structure prediction by ZEFSAII (Michael W. Deem and Ramdas Pophale) SiO2 
 PCOD8188323
Probable space group: I M M 2
;
_chemical_formula_sum "Si O2"
_cell_formula_units_Z 64
_cell_length_a 9.053420
_cell_length_b 19.558295
_cell_length_c 20.517335
_cell_angle_alpha 90.000000
_cell_angle_beta 90.000000
_cell_angle_gamma 90.000000
_cell_volume 3632.993411
_symmetry_space_group_name_H-M "I M M 2"
_symmetry_group_IT_number 44
_symmetry_cell_setting 'orthorhombic'
loop_
_space_group_symop_operation_xyz
x,y,z
-x,-y,z
-x,y,z
x,-y,z
1/2+x,1/2+y,1/2+z
1/2-x,1/2-y,1/2+z
1/2-x,1/2+y,1/2+z
1/2+x,1/2-y,1/2+z
loop_
_atom_site_type_symbol
_atom_site_label
_atom_site_fract_x
_atom_site_fract_y
_atom_site_fract_z
Si Si1 0.172350 0.924456 0.523830
Si Si2 0.671420 0.077701 0.904939
Si Si3 0.170474 0.575798 0.157204
Si Si4 0.327374 0.787849 0.723774
Si Si5 0.174750 0.794849 0.854195
Si Si6 0.829293 0.214849 0.467893
Si Si7 0.327733 0.784967 0.105803
Si Si8 0.174862 0.574059 0.552074
O O1 0.244005 0.904540 0.592085
O O2 0.210527 0.866200 0.470713
O O3 0.000000 0.923970 0.537844
O O4 0.224590 0.000000 0.499391
O O5 0.500000 0.099173 0.899306
O O6 0.766954 0.127720 0.860217
O O7 0.693469 0.000000 0.880641
O O8 0.731467 0.086305 0.978553
O O9 0.215372 0.500000 0.182755
O O10 0.206137 0.631554 0.212437
O O11 0.000000 0.578269 0.138032
O O12 0.500000 0.773825 0.733853
O O13 0.239928 0.763383 0.787620
O O14 0.272662 0.745315 0.662056
O O15 0.000000 0.794290 0.850728
O O16 0.226336 0.748569 0.914213
O O17 0.795628 0.247189 0.538079
O O18 0.000000 0.227113 0.448841
O O19 0.500000 0.778822 0.124624
O O20 0.276108 0.864256 0.098775
O O21 0.233399 0.500000 0.578120
O O22 0.000000 0.571920 0.547178
#
# Coordination Sequence:
#
# PCOD8188323 Si02
#       8
#     8   8   8   8   8   8   8   8
#     4   9  17  30  52  81 109 137 170 212 263 317
#     4   9  17  33  56  79 107 145 183 214 258 321
#     4   9  18  32  50  74 104 138 175 212 251 305
#     4  11  23  37  53  74 106 144 183 221 268 321
#     4  12  25  37  52  76 109 144 185 229 271 314
#     4  10  19  34  56  80 108 141 177 217 268 325
#     4  10  18  32  56  82 107 136 175 220 266 316
#     4   8  14  27  51  80 106 135 172 211 253 310
#
# _framework density 17.616326999999998
#
# number of rings (size 3 to 8) (size 9 to 14) (size 15 to 20)
#    0.000    2.250    2.500    2.250    0.000    2.250 
#    0.000    1.250    0.000    1.125    0.000    0.000 
#    0.000    0.000    0.000    0.000    0.000    0.000 
#
# Total GULP energy -396690.791005 kJ/mol
# GULP energy per Si atom -12396.587219 kJ/mol
# Density = 1.757623 g / cm^3
# Si number density = 17.616327 Si / 1000 Ang^3
#
#
#
# Elastic Constant Matrix: (Units=GPa)
#
#
# Indices 1 2 3 4 5 6 
#
# 1 81.9616 44.5054 51.3633 0.0000 0.0000 0.0000
# 2 44.5054 104.3599 47.3096 0.0000 0.0000 0.0000
# 3 51.3633 47.3096 88.7149 0.0000 0.0000 0.0000
# 4 0.0000 0.0000 0.0000 17.4465 0.0000 0.0000
# 5 0.0000 0.0000 0.0000 0.0000 27.9516 0.0000
# 6 0.0000 0.0000 0.0000 0.0000 0.0000 22.2061
#
#
#
# Elastic Compliance Matrix: (Units=1/GPa)
#
#
# Indices 1 2 3 4 5 6 
#
# 1 0.020609 -0.004457 -0.009555 0.000000 0.000000 0.000000
# 2 -0.004457 0.013601 -0.004673 0.000000 0.000000 0.000000
# 3 -0.009555 -0.004673 0.019296 0.000000 0.000000 0.000000
# 4 0.000000 0.000000 0.000000 0.057318 0.000000 0.000000
# 5 0.000000 0.000000 0.000000 0.000000 0.035776 0.000000
# 6 0.000000 0.000000 0.000000 0.000000 0.000000 0.045033
#
#
# Mechanical properties :
#
#
# Convention : Reuss Voigt Hill
#
# Bulk Modulus (GPa) = 61.97185 62.37701 62.17443
# Shear Modulus (GPa) = 21.33267 22.31136 21.82202
#
# Velocity S-wave (km/s) = 3.48366 3.56268 3.52339
# Velocity P-wave (km/s) = 7.17190 7.23941 7.20574
#
# Compressibility (1/GPa) = 0.01613636
#
# Stress axis : x y z
#
# Youngs Moduli (GPa) = 48.52214 73.52204 51.82435
#
# Poissons Ratio (x) = 0.32772 0.49518
# Poissons Ratio (y) = 0.21628 0.24215
# Poissons Ratio (z) = 0.46363 0.34354
#
# Static dielectric constant tensor:
#      x y z
#    x 3.083270 0.000000 0.000000 
#    y 0.000000 3.903370 0.000000 
#    z 0.000000 0.000000 3.032520 
# 
# 
# High freq. dielectric constant tensor:
#      x y z
#    x 1.664000 0.000000 0.000000 
#    y 0.000000 1.692290 0.000000 
#    z 0.000000 0.000000 1.653850 
# 
# From -- ./inp_files/20726.got.cif
#   From: 2010.03.12/outbox.cif.g09.slc.cpg/sg44_11_cif.got.tgz:20726.got - 2010.04.14 02:36:11.
