data_PCOD8188481
_publ_section_title
;
Structure prediction by ZEFSAII (Michael W. Deem and Ramdas Pophale) SiO2 
 PCOD8188481
Probable space group: I M M 2
;
_chemical_formula_sum "Si O2"
_cell_formula_units_Z 64
_cell_length_a 13.685592
_cell_length_b 9.054918
_cell_length_c 34.091294
_cell_angle_alpha 90.000000
_cell_angle_beta 90.000000
_cell_angle_gamma 90.000000
_cell_volume 4224.658381
_symmetry_space_group_name_H-M "I M M 2"
_symmetry_group_IT_number 44
_symmetry_cell_setting 'orthorhombic'
loop_
_space_group_symop_operation_xyz
x,y,z
-x,-y,z
-x,y,z
x,-y,z
1/2+x,1/2+y,1/2+z
1/2-x,1/2-y,1/2+z
1/2-x,1/2+y,1/2+z
1/2+x,1/2-y,1/2+z
loop_
_atom_site_type_symbol
_atom_site_label
_atom_site_fract_x
_atom_site_fract_y
_atom_site_fract_z
Si Si1 0.888275 0.827441 0.069180
Si Si2 0.884082 0.164695 0.757621
Si Si3 0.116210 0.664267 0.832127
Si Si4 0.207174 0.830939 0.988272
Si Si5 0.609320 0.175110 0.418534
Si Si6 0.712117 0.675270 0.107011
Si Si7 0.614242 0.827428 0.179387
Si Si8 0.610142 0.830409 0.037251
O O1 0.821157 0.733988 0.098534
O O2 0.000000 0.785708 0.077756
O O3 0.867097 0.000000 0.076154
O O4 0.863031 0.785978 0.024325
O O5 0.840798 0.230485 0.798173
O O6 0.852309 0.269267 0.721865
O O7 0.000000 0.158906 0.760389
O O8 0.841623 0.000000 0.751541
O O9 0.159446 0.500000 0.825866
O O10 0.144939 0.726603 0.875228
O O11 0.000000 0.655900 0.829468
O O12 0.184482 0.733523 0.950593
O O13 0.190286 0.000000 0.976600
O O14 0.319367 0.799631 0.000408
O O15 0.500000 0.235998 0.427235
O O16 0.608037 0.000000 0.419785
O O17 0.713198 0.500000 0.108803
O O18 0.677290 0.738577 0.148191
O O19 0.637121 0.727122 0.073588
O O20 0.500000 0.796212 0.171895
O O21 0.638011 0.000000 0.176588
O O22 0.500000 0.796592 0.023697
O O23 0.622745 0.000000 0.051337
#
# Coordination Sequence:
#
# PCOD8188481 Si02
#       8
#     8   8   8   8   8   8   8   8
#     4   9  18  33  49  62  81 112 146 176 208 251
#     4   9  16  25  38  58  82 106 135 172 210 244
#     4   8  14  25  38  52  75 109 143 167 193 239
#     4   9  17  28  43  63  82 103 137 177 212 245
#     4   9  17  27  39  57  83 114 143 170 202 243
#     4  11  21  30  43  65  89 109 136 177 217 251
#     4  10  19  30  44  60  82 115 148 174 204 247
#     4   9  18  33  48  59  78 111 146 177 212 256
#
# _framework density 15.149153999999999
#
# number of rings (size 3 to 8) (size 9 to 14) (size 15 to 20)
#    0.000    2.750    0.000    4.125    0.000    7.500 
#    0.000    1.250    0.000    0.000    0.000    0.000 
#    0.000    1.000    0.000    6.500    0.000    4.500 
#
# Total GULP energy -396732.140391 kJ/mol
# GULP energy per Si atom -12397.879387 kJ/mol
# Density = 1.511467 g / cm^3
# Si number density = 15.149154 Si / 1000 Ang^3
#
#
#
# Elastic Constant Matrix: (Units=GPa)
#
#
# Indices 1 2 3 4 5 6 
#
# 1 78.1268 37.1794 46.9859 0.0000 0.0000 0.0000
# 2 37.1794 86.6058 58.1338 0.0000 0.0000 0.0000
# 3 46.9859 58.1338 121.2193 0.0000 0.0000 0.0000
# 4 0.0000 0.0000 0.0000 29.2886 0.0000 0.0000
# 5 0.0000 0.0000 0.0000 0.0000 16.6002 0.0000
# 6 0.0000 0.0000 0.0000 0.0000 0.0000 15.8278
#
#
#
# Elastic Compliance Matrix: (Units=1/GPa)
#
#
# Indices 1 2 3 4 5 6 
#
# 1 0.017774 -0.004433 -0.004764 0.000000 0.000000 0.000000
# 2 -0.004433 0.018134 -0.006978 0.000000 0.000000 0.000000
# 3 -0.004764 -0.006978 0.013443 0.000000 0.000000 0.000000
# 4 0.000000 0.000000 0.000000 0.034143 0.000000 0.000000
# 5 0.000000 0.000000 0.000000 0.000000 0.060240 0.000000
# 6 0.000000 0.000000 0.000000 0.000000 0.000000 0.063180
#
#
# Mechanical properties :
#
#
# Convention : Reuss Voigt Hill
#
# Bulk Modulus (GPa) = 58.81997 63.39443 61.10720
# Shear Modulus (GPa) = 20.41404 21.92019 21.16711
#
# Velocity S-wave (km/s) = 3.67486 3.80802 3.74203
# Velocity P-wave (km/s) = 7.54438 7.82767 7.68733
#
# Compressibility (1/GPa) = 0.01700103
#
# Stress axis : x y z
#
# Youngs Moduli (GPa) = 56.26188 55.14601 74.39074
#
# Poissons Ratio (x) = 0.24445 0.35436
# Poissons Ratio (y) = 0.24940 0.51912
# Poissons Ratio (z) = 0.26801 0.38482
#
# Static dielectric constant tensor:
#      x y z
#    x 2.711890 0.000000 0.000000 
#    y 0.000000 2.969130 0.000000 
#    z 0.000000 0.000000 2.980130 
# 
# 
# High freq. dielectric constant tensor:
#      x y z
#    x 1.536240 0.000000 0.000000 
#    y 0.000000 1.585160 0.000000 
#    z 0.000000 0.000000 1.578930 
# 
# From -- ./inp_files/27508.got.cif
#   From: 2010.03.12/outbox.cif.g09.slc.cpg/sg44_14_cif.got.tgz:27508.got - 2010.04.14 02:36:11.
