data_PCOD8188163
_publ_section_title
;
Structure prediction by ZEFSAII (Michael W. Deem and Ramdas Pophale) SiO2 
 PCOD8188163
Probable space group: I M M 2
;
_chemical_formula_sum "Si O2"
_cell_formula_units_Z 48
_cell_length_a 9.476129
_cell_length_b 18.315834
_cell_length_c 15.087199
_cell_angle_alpha 90.000000
_cell_angle_beta 90.000000
_cell_angle_gamma 90.000000
_cell_volume 2618.582624
_symmetry_space_group_name_H-M "I M M 2"
_symmetry_group_IT_number 44
_symmetry_cell_setting 'orthorhombic'
loop_
_space_group_symop_operation_xyz
x,y,z
-x,-y,z
-x,y,z
x,-y,z
1/2+x,1/2+y,1/2+z
1/2-x,1/2-y,1/2+z
1/2-x,1/2+y,1/2+z
1/2+x,1/2-y,1/2+z
loop_
_atom_site_type_symbol
_atom_site_label
_atom_site_fract_x
_atom_site_fract_y
_atom_site_fract_z
Si Si1 0.334762 0.500000 0.741560
Si Si2 0.332985 0.229571 0.848729
Si Si3 0.337593 0.231361 0.648812
Si Si4 0.839741 0.107175 0.094907
Si Si5 0.332861 0.500000 0.934972
Si Si6 0.667867 0.342604 0.000184
Si Si7 0.662650 0.079413 0.928368
O O1 0.500000 0.500000 0.759420
O O2 0.290738 0.572745 0.688331
O O3 0.261263 0.500000 0.837446
O O4 0.500000 0.234956 0.848578
O O5 0.278199 0.242922 0.748683
O O6 0.277323 0.289949 0.919532
O O7 0.278837 0.147646 0.871992
O O8 0.500000 0.203658 0.651048
O O9 0.324456 0.306714 0.597082
O O10 0.241288 0.175873 0.593577
O O11 0.000000 0.083395 0.074714
O O12 0.742479 0.073711 0.020360
O O13 0.500000 0.500000 0.928565
O O14 0.284004 0.574090 0.983176
O O15 0.500000 0.334597 0.011057
O O16 0.500000 0.094022 0.950269
O O17 0.681954 0.000000 0.879771
#
# Coordination Sequence:
#
# PCOD8188163 Si02
#       7
#     4   8   8   8   4   8   8
#     4   9  16  28  49  78 103 128 164 211 261 306
#     4   9  18  34  54  75 102 137 173 209 253 307
#     4  10  20  34  53  78 104 135 174 212 253 304
#     4  10  18  29  50  77 104 128 161 209 259 303
#     4   9  18  32  53  78 101 130 172 213 251 302
#     4  10  19  35  57  77 102 135 172 214 256 302
#     4  10  19  32  51  74 102 134 169 205 246 301
#
# _framework density 18.330528000000001
#
# number of rings (size 3 to 8) (size 9 to 14) (size 15 to 20)
#    0.000    2.333    2.500    1.000    0.000    4.000 
#    1.500    2.083    0.000    4.000    0.000    0.000 
#    0.000    0.000    0.000    0.000    0.000    0.000 
#
# Total GULP energy -297423.715320 kJ/mol
# GULP energy per Si atom -12392.654805 kJ/mol
# Density = 1.828881 g / cm^3
# Si number density = 18.330528 Si / 1000 Ang^3
#
#
#
# Elastic Constant Matrix: (Units=GPa)
#
#
# Indices 1 2 3 4 5 6 
#
# 1 29.9034 23.7384 23.3307 0.0000 0.0000 0.0000
# 2 23.7384 132.0529 41.1432 0.0001 0.0000 0.0000
# 3 23.3307 41.1432 96.1520 0.0003 0.0000 0.0000
# 4 0.0000 0.0001 0.0003 7.9231 0.0000 0.0000
# 5 0.0000 0.0000 0.0000 0.0000 25.5266 0.0000
# 6 0.0000 0.0000 0.0000 0.0000 0.0000 14.4992
#
#
#
# Elastic Compliance Matrix: (Units=1/GPa)
#
#
# Indices 1 2 3 4 5 6 
#
# 1 0.044269 -0.005321 -0.008465 0.000000 0.000000 0.000000
# 2 -0.005321 0.009377 -0.002721 0.000000 0.000000 0.000000
# 3 -0.008465 -0.002721 0.013619 0.000000 0.000000 0.000000
# 4 0.000000 0.000000 0.000000 0.126213 0.000000 0.000000
# 5 0.000000 0.000000 0.000000 0.000000 0.039175 0.000000
# 6 0.000000 0.000000 0.000000 0.000000 0.000000 0.068969
#
#
# Mechanical properties :
#
#
# Convention : Reuss Voigt Hill
#
# Bulk Modulus (GPa) = 29.19635 48.28143 38.73889
# Shear Modulus (GPa) = 14.44868 20.91619 17.68243
#
# Velocity S-wave (km/s) = 2.81059 3.38162 3.10924
# Velocity P-wave (km/s) = 5.14731 6.45319 5.83689
#
# Compressibility (1/GPa) = 0.03425086
#
# Stress axis : x y z
#
# Youngs Moduli (GPa) = 22.58916 106.64306 73.42879
#
# Poissons Ratio (x) = 0.56741 0.62157
# Poissons Ratio (y) = 0.12019 0.19983
# Poissons Ratio (z) = 0.19122 0.29022
#
# Static dielectric constant tensor:
#      x y z
#    x 2.992820 0.000000 0.000000 
#    y 0.000000 3.966850 0.000000 
#    z 0.000000 0.000000 3.426810 
# 
# 
# High freq. dielectric constant tensor:
#      x y z
#    x 1.664300 0.000000 0.000000 
#    y 0.000000 1.727420 0.000000 
#    z 0.000000 0.000000 1.703740 
# 
# From -- ./inp_files/16207.got.cif
#   From: 2010.03.12/outbox.cif.g09.slc.cpg/sg44_9_cif.got.tgz:16207.got - 2010.04.14 02:36:11.
