data_PCOD8188028
_publ_section_title
;
Structure prediction by ZEFSAII (Michael W. Deem and Ramdas Pophale) SiO2 
 PCOD8188028
Probable space group: I M M 2
;
_chemical_formula_sum "Si O2"
_cell_formula_units_Z 56
_cell_length_a 8.846626
_cell_length_b 29.409068
_cell_length_c 13.856889
_cell_angle_alpha 90.000000
_cell_angle_beta 90.000000
_cell_angle_gamma 90.000000
_cell_volume 3605.161023
_symmetry_space_group_name_H-M "I M M 2"
_symmetry_group_IT_number 44
_symmetry_cell_setting 'orthorhombic'
loop_
_space_group_symop_operation_xyz
x,y,z
-x,-y,z
-x,y,z
x,-y,z
1/2+x,1/2+y,1/2+z
1/2-x,1/2-y,1/2+z
1/2-x,1/2+y,1/2+z
1/2+x,1/2-y,1/2+z
loop_
_atom_site_type_symbol
_atom_site_label
_atom_site_fract_x
_atom_site_fract_y
_atom_site_fract_z
Si Si1 0.177199 0.407902 0.537540
Si Si2 0.821068 0.183226 0.714908
Si Si3 0.667647 0.500000 0.548701
Si Si4 0.823922 0.683533 0.641683
Si Si5 0.681028 0.596741 0.332317
Si Si6 0.820727 0.268711 0.044539
Si Si7 0.165371 0.000000 0.819570
Si Si8 0.322817 0.230559 0.330589
O O1 0.244978 0.454426 0.581474
O O2 0.214852 0.368010 0.613477
O O3 0.249242 0.392802 0.436287
O O4 0.000000 0.414786 0.522414
O O5 0.768183 0.134739 0.756352
O O6 0.746575 0.191338 0.610966
O O7 0.760940 0.221851 0.788023
O O8 0.000000 0.185644 0.702618
O O9 0.500000 0.500000 0.595075
O O10 0.654530 0.500000 0.434503
O O11 0.730503 0.718568 0.576552
O O12 0.781357 0.690384 0.754966
O O13 0.000000 0.694855 0.625240
O O14 0.500000 0.594648 0.345059
O O15 0.744739 0.547896 0.291259
O O16 0.000000 0.271122 0.049236
O O17 0.755286 0.278302 0.936794
O O18 0.000000 0.000000 0.771768
O O19 0.500000 0.235399 0.343385
#
# Coordination Sequence:
#
# PCOD8188028 Si02
#       8
#     8   8   4   8   8   8   4   8
#     4  10  18  27  43  66  89 111 141 181 213 241
#     4   9  17  29  43  59  83 114 142 168 209 261
#     4   9  17  29  43  59  86 119 144 168 207 260
#     4   9  18  31  44  60  85 114 140 169 211 257
#     4   9  16  27  43  61  86 118 144 168 207 260
#     4  10  18  28  44  63  82 107 143 181 209 243
#     4   7  12  23  39  59  78 103 140 168 189 234
#     4   8  15  28  42  56  79 111 140 166 204 254
#
# _framework density 15.533286
#
# number of rings (size 3 to 8) (size 9 to 14) (size 15 to 20)
#    0.000    3.000    0.000    3.643    0.000    2.857 
#    0.000    7.143    0.000    0.000    0.000    1.000 
#    0.000    3.429    0.000    0.000    0.000    0.000 
#
# Total GULP energy -346968.342448 kJ/mol
# GULP energy per Si atom -12391.726516 kJ/mol
# Density = 1.549793 g / cm^3
# Si number density = 15.533286 Si / 1000 Ang^3
#
#
#
# Elastic Constant Matrix: (Units=GPa)
#
#
# Indices 1 2 3 4 5 6 
#
# 1 43.7499 33.0903 27.2196 0.0005 0.0000 0.0000
# 2 33.0903 142.2667 67.3506 0.0002 0.0000 0.0001
# 3 27.2196 67.3506 115.3869 0.0021 0.0004 0.0002
# 4 0.0005 0.0002 0.0021 23.9863 0.0002 0.0001
# 5 0.0000 0.0000 0.0004 0.0002 18.3965 0.0001
# 6 0.0000 0.0001 0.0002 0.0001 0.0001 20.4917
#
#
#
# Elastic Compliance Matrix: (Units=1/GPa)
#
#
# Indices 1 2 3 4 5 6 
#
# 1 0.029024 -0.004849 -0.004016 0.000000 0.000000 0.000000
# 2 -0.004849 0.010523 -0.004998 0.000000 0.000000 0.000000
# 3 -0.004016 -0.004998 0.012531 -0.000001 0.000000 0.000000
# 4 0.000000 0.000000 -0.000001 0.041690 0.000000 0.000000
# 5 0.000000 0.000000 0.000000 0.000000 0.054358 0.000000
# 6 0.000000 0.000000 0.000000 0.000000 0.000000 0.048800
#
#
# Mechanical properties :
#
#
# Convention : Reuss Voigt Hill
#
# Bulk Modulus (GPa) = 41.06677 61.85826 51.46251
# Shear Modulus (GPa) = 21.48025 24.15777 22.81901
#
# Velocity S-wave (km/s) = 3.72271 3.94791 3.83696
# Velocity P-wave (km/s) = 6.70622 7.79043 7.26857
#
# Compressibility (1/GPa) = 0.02435059
#
# Stress axis : x y z
#
# Youngs Moduli (GPa) = 34.45460 95.02706 79.79944
#
# Poissons Ratio (x) = 0.46083 0.32048
# Poissons Ratio (y) = 0.16709 0.39887
# Poissons Ratio (z) = 0.13837 0.47498
#
# Static dielectric constant tensor:
#      x y z
#    x 2.854500 0.000000 0.000000 
#    y 0.000000 3.228070 0.000000 
#    z 0.000000 0.000000 2.961650 
# 
# 
# High freq. dielectric constant tensor:
#      x y z
#    x 1.584440 0.000000 0.000000 
#    y 0.000000 1.596900 0.000000 
#    z 0.000000 0.000000 1.567060 
# 
# From -- ./inp_files/17052.got.cif
#   From: 2010.03.12/outbox.cif.g09.slc.cpg/sg44_9_cif.got.tgz:17052.got - 2010.04.14 02:36:11.
