data_PCOD8188926
_publ_section_title
;
Structure prediction by ZEFSAII (Michael W. Deem and Ramdas Pophale) SiO2 
 PCOD8188926
Probable space group: I M M 2
;
_chemical_formula_sum "Si O2"
_cell_formula_units_Z 40
_cell_length_a 25.454662
_cell_length_b 8.641329
_cell_length_c 9.623818
_cell_angle_alpha 90.000000
_cell_angle_beta 90.000000
_cell_angle_gamma 90.000000
_cell_volume 2116.875303
_symmetry_space_group_name_H-M "I M M 2"
_symmetry_group_IT_number 44
_symmetry_cell_setting 'orthorhombic'
loop_
_space_group_symop_operation_xyz
x,y,z
-x,-y,z
-x,y,z
x,-y,z
1/2+x,1/2+y,1/2+z
1/2-x,1/2-y,1/2+z
1/2-x,1/2+y,1/2+z
1/2+x,1/2-y,1/2+z
loop_
_atom_site_type_symbol
_atom_site_label
_atom_site_fract_x
_atom_site_fract_y
_atom_site_fract_z
Si Si1 0.700456 0.180292 0.810770
Si Si2 0.410100 0.317779 0.806371
Si Si3 0.408767 0.681620 0.119543
Si Si4 0.708316 0.681062 0.101772
Si Si5 0.500000 0.684482 0.314355
Si Si6 0.500000 0.181317 0.620429
O O1 0.649667 0.278202 0.765419
O O2 0.748229 0.228875 0.712201
O O3 0.687067 0.000000 0.798589
O O4 0.719427 0.220345 0.964853
O O5 0.419413 0.500000 0.792464
O O6 0.448268 0.231306 0.702003
O O7 0.420935 0.257359 0.963475
O O8 0.416979 0.500000 0.115680
O O9 0.349223 0.724689 0.162719
O O10 0.449003 0.751324 0.232378
O O11 0.709875 0.500000 0.063044
O O12 0.500000 0.500000 0.318446
O O13 0.500000 0.743701 0.469662
O O14 0.500000 0.000000 0.601380
#
# Coordination Sequence:
#
# PCOD8188926 Si02
#       6
#     8   8   8   8   4   4
#     4  10  20  34  54  82 112 143 183 229 273 319
#     4  10  20  38  61  81 104 141 184 223 271 328
#     4   8  16  33  57  80 102 136 184 226 259 313
#     4   9  19  35  53  77 111 147 183 223 269 323
#     4  10  19  34  56  80 106 140 181 222 268 320
#     4  12  25  38  52  80 116 142 173 220 270 322
#
# _framework density 18.895775
#
# number of rings (size 3 to 8) (size 9 to 14) (size 15 to 20)
#    0.000    2.400    0.000    3.900    0.000    4.800 
#    0.000    8.000    0.000    0.000    0.000    0.000 
#    0.000    0.000    0.000    0.000    0.000    0.000 
#
# Total GULP energy -247988.091402 kJ/mol
# GULP energy per Si atom -12399.404570 kJ/mol
# Density = 1.885277 g / cm^3
# Si number density = 18.895775 Si / 1000 Ang^3
#
#
#
# Elastic Constant Matrix: (Units=GPa)
#
#
# Indices 1 2 3 4 5 6 
#
# 1 136.4325 13.0961 88.5702 0.0000 0.0000 0.0000
# 2 13.0961 22.8800 12.7930 0.0000 0.0000 0.0000
# 3 88.5702 12.7930 121.0258 0.0000 0.0000 0.0000
# 4 0.0000 0.0000 0.0000 24.5864 0.0000 0.0000
# 5 0.0000 0.0000 0.0000 0.0000 40.3785 0.0000
# 6 0.0000 0.0000 0.0000 0.0000 0.0000 22.0703
#
#
#
# Elastic Compliance Matrix: (Units=1/GPa)
#
#
# Indices 1 2 3 4 5 6 
#
# 1 0.014091 -0.002444 -0.010054 0.000000 0.000000 0.000000
# 2 -0.002444 0.046876 -0.003166 0.000000 0.000000 0.000000
# 3 -0.010054 -0.003166 0.015955 0.000000 0.000000 0.000000
# 4 0.000000 0.000000 0.000000 0.040673 0.000000 0.000000
# 5 0.000000 0.000000 0.000000 0.000000 0.024766 0.000000
# 6 0.000000 0.000000 0.000000 0.000000 0.000000 0.045310
#
#
# Mechanical properties :
#
#
# Convention : Reuss Voigt Hill
#
# Bulk Modulus (GPa) = 21.93306 56.58410 39.25858
# Shear Modulus (GPa) = 21.34957 28.46563 24.90760
#
# Velocity S-wave (km/s) = 3.36499 3.88552 3.63458
# Velocity P-wave (km/s) = 5.17011 7.08096 6.19960
#
# Compressibility (1/GPa) = 0.04559327
#
# Stress axis : x y z
#
# Youngs Moduli (GPa) = 70.96667 21.33303 62.67565
#
# Poissons Ratio (x) = 0.05214 0.63014
# Poissons Ratio (y) = 0.17344 0.19845
# Poissons Ratio (z) = 0.71349 0.06755
#
# Static dielectric constant tensor:
#      x y z
#    x 3.732740 0.000000 0.000000 
#    y 0.000000 3.279020 0.000000 
#    z 0.000000 0.000000 3.509260 
# 
# 
# High freq. dielectric constant tensor:
#      x y z
#    x 1.748490 0.000000 0.000000 
#    y 0.000000 1.716250 0.000000 
#    z 0.000000 0.000000 1.730800 
# 
# From -- ./inp_files/4682.got.cif
#   From: 2010.03.12/outbox.cif.g09.slc.cpg/sg44_3_cif.got.tgz:4682.got - 2010.04.14 02:36:11.
