data_PCOD8188793
_publ_section_title
;
Structure prediction by ZEFSAII (Michael W. Deem and Ramdas Pophale) SiO2 
 PCOD8188793
Probable space group: I M M 2
;
_chemical_formula_sum "Si O2"
_cell_formula_units_Z 64
_cell_length_a 18.852505
_cell_length_b 21.167181
_cell_length_c 9.300452
_cell_angle_alpha 90.000000
_cell_angle_beta 90.000000
_cell_angle_gamma 90.000000
_cell_volume 3711.386159
_symmetry_space_group_name_H-M "I M M 2"
_symmetry_group_IT_number 44
_symmetry_cell_setting 'orthorhombic'
loop_
_space_group_symop_operation_xyz
x,y,z
-x,-y,z
-x,y,z
x,-y,z
1/2+x,1/2+y,1/2+z
1/2-x,1/2-y,1/2+z
1/2-x,1/2+y,1/2+z
1/2+x,1/2-y,1/2+z
loop_
_atom_site_type_symbol
_atom_site_label
_atom_site_fract_x
_atom_site_fract_y
_atom_site_fract_z
Si Si1 0.078975 0.882081 0.185590
Si Si2 0.839587 0.865623 0.638948
Si Si3 0.706627 0.813949 0.283014
Si Si4 0.290777 0.216461 0.609461
Si Si5 0.078703 0.071692 0.880670
Si Si6 0.420212 0.239775 0.778382
Si Si7 0.297854 0.570705 0.853149
Si Si8 0.417917 0.763162 0.109438
O O1 0.092835 0.813951 0.255366
O O2 0.139780 0.929894 0.235875
O O3 0.000000 0.906163 0.229268
O O4 0.084829 0.879570 0.013004
O O5 0.761067 0.838444 0.665011
O O6 0.860839 0.912158 0.766338
O O7 0.838323 0.905460 0.494243
O O8 0.896646 0.809330 0.633845
O O9 0.706738 0.778068 0.436738
O O10 0.763539 0.782531 0.175602
O O11 0.730531 0.886252 0.307627
O O12 0.628843 0.809698 0.210111
O O13 0.368398 0.200968 0.672952
O O14 0.000000 0.078157 0.811378
O O15 0.090826 0.000000 0.934634
O O16 0.500000 0.220868 0.736342
O O17 0.403665 0.220915 0.942582
O O18 0.268093 0.500000 0.873046
O O19 0.500000 0.772569 0.150935
#
# Coordination Sequence:
#
# PCOD8188793 Si02
#       8
#     8   8   8   8   8   8   8   8
#     4  10  20  33  48  69 102 136 172 213 252 305
#     4  10  20  33  51  73 104 136 174 215 259 310
#     4  10  21  34  52  76 105 134 175 219 267 320
#     4  10  19  33  50  75 101 135 168 215 270 313
#     4  10  21  34  46  69 105 143 181 214 248 297
#     4  10  19  33  52  75 103 131 164 207 264 323
#     4  11  21  35  53  73 103 143 184 216 251 312
#     4  10  20  34  53  77 105 132 167 220 275 324
#
# _framework density 17.244230999999999
#
# number of rings (size 3 to 8) (size 9 to 14) (size 15 to 20)
#    0.000    1.875    2.500    2.625    3.500    2.750 
#    0.000    0.000    0.000    0.375    0.000    0.000 
#    0.000    6.500    0.000    0.000    0.000    0.000 
#
# Total GULP energy -396733.918758 kJ/mol
# GULP energy per Si atom -12397.934961 kJ/mol
# Density = 1.720498 g / cm^3
# Si number density = 17.244231 Si / 1000 Ang^3
#
#
#
# Elastic Constant Matrix: (Units=GPa)
#
#
# Indices 1 2 3 4 5 6 
#
# 1 120.2083 39.6296 59.6895 0.0000 0.0000 0.0000
# 2 39.6296 69.4585 39.8117 0.0000 0.0000 0.0000
# 3 59.6895 39.8117 93.3807 0.0000 0.0000 0.0000
# 4 0.0000 0.0000 0.0000 18.5794 0.0000 0.0000
# 5 0.0000 0.0000 0.0000 0.0000 34.5001 0.0000
# 6 0.0000 0.0000 0.0000 0.0000 0.0000 19.5497
#
#
#
# Elastic Compliance Matrix: (Units=1/GPa)
#
#
# Indices 1 2 3 4 5 6 
#
# 1 0.012784 -0.003454 -0.006699 0.000000 0.000000 0.000000
# 2 -0.003454 0.019986 -0.006313 0.000000 0.000000 0.000000
# 3 -0.006699 -0.006313 0.017682 0.000000 0.000000 0.000000
# 4 0.000000 0.000000 0.000000 0.053823 0.000000 0.000000
# 5 0.000000 0.000000 0.000000 0.000000 0.028985 0.000000
# 6 0.000000 0.000000 0.000000 0.000000 0.000000 0.051152
#
#
# Mechanical properties :
#
#
# Convention : Reuss Voigt Hill
#
# Bulk Modulus (GPa) = 57.07646 62.36767 59.72207
# Shear Modulus (GPa) = 22.40290 24.12028 23.26159
#
# Velocity S-wave (km/s) = 3.60829 3.74404 3.67679
# Velocity P-wave (km/s) = 7.10847 7.41190 7.26177
#
# Compressibility (1/GPa) = 0.01752036
#
# Stress axis : x y z
#
# Youngs Moduli (GPa) = 78.22254 50.03419 56.55383
#
# Poissons Ratio (x) = 0.17283 0.37885
# Poissons Ratio (y) = 0.27020 0.35702
# Poissons Ratio (z) = 0.52401 0.31586
#
# Static dielectric constant tensor:
#      x y z
#    x 3.313970 0.000000 0.000000 
#    y 0.000000 2.900470 0.000000 
#    z 0.000000 0.000000 3.294740 
# 
# 
# High freq. dielectric constant tensor:
#      x y z
#    x 1.666640 0.000000 0.000000 
#    y 0.000000 1.625660 0.000000 
#    z 0.000000 0.000000 1.675630 
# 
# From -- ./inp_files/8472.got.cif
#   From: 2010.03.12/outbox.cif.g09.slc.cpg/sg44_5_cif.got.tgz:8472.got - 2010.04.14 02:36:11.
