data_PCOD8188841
_publ_section_title
;
Structure prediction by ZEFSAII (Michael W. Deem and Ramdas Pophale) SiO2 
 PCOD8188841
Probable space group: I M M 2
;
_chemical_formula_sum "Si O2"
_cell_formula_units_Z 64
_cell_length_a 15.460178
_cell_length_b 8.923275
_cell_length_c 24.053593
_cell_angle_alpha 90.000000
_cell_angle_beta 90.000000
_cell_angle_gamma 90.000000
_cell_volume 3318.323521
_symmetry_space_group_name_H-M "I M M 2"
_symmetry_group_IT_number 44
_symmetry_cell_setting 'orthorhombic'
loop_
_space_group_symop_operation_xyz
x,y,z
-x,-y,z
-x,y,z
x,-y,z
1/2+x,1/2+y,1/2+z
1/2-x,1/2-y,1/2+z
1/2-x,1/2+y,1/2+z
1/2+x,1/2-y,1/2+z
loop_
_atom_site_type_symbol
_atom_site_label
_atom_site_fract_x
_atom_site_fract_y
_atom_site_fract_z
Si Si1 0.598600 0.326979 0.351880
Si Si2 0.846935 0.823697 0.467041
Si Si3 0.743005 0.178892 0.277724
Si Si4 0.903807 0.326952 0.576184
Si Si5 0.751168 0.677813 0.652621
Si Si6 0.903438 0.827968 0.075796
Si Si7 0.095468 0.178092 0.347819
Si Si8 0.351983 0.823415 0.465150
O O1 0.500000 0.308697 0.331232
O O2 0.625997 0.500000 0.354698
O O3 0.659324 0.242090 0.308456
O O4 0.605762 0.257384 0.412884
O O5 0.899544 0.753192 0.517232
O O6 0.886161 0.760935 0.409673
O O7 0.747456 0.775612 0.470252
O O8 0.858228 0.000000 0.470950
O O9 0.745362 0.241917 0.214965
O O10 0.830889 0.239268 0.306491
O O11 0.737677 0.000000 0.280312
O O12 0.882567 0.500000 0.566031
O O13 0.834313 0.258880 0.619323
O O14 0.000000 0.304092 0.601069
O O15 0.753336 0.500000 0.655911
O O16 0.663881 0.732715 0.621867
O O17 0.000000 0.814592 0.101012
O O18 0.881566 0.000000 0.060261
O O19 0.899880 0.728608 0.020649
O O20 0.000000 0.232861 0.328506
O O21 0.099646 0.000000 0.348505
O O22 0.363328 0.000000 0.457115
#
# Coordination Sequence:
#
# PCOD8188841 Si02
#       8
#     8   8   8   8   8   8   8   8
#     4  11  24  40  58  82 113 148 183 227 287 343
#     4  10  19  33  54  80 109 141 176 217 273 330
#     4  10  20  37  59  83 109 145 192 234 274 322
#     4  10  20  34  53  78 107 142 182 221 268 324
#     4   9  19  35  55  79 110 145 184 230 270 314
#     4  10  20  35  56  83 115 150 184 221 275 335
#     4   9  17  31  53  81 111 138 171 221 275 325
#     4  11  21  35  58  86 112 143 186 229 274 333
#
# _framework density 19.286847000000002
#
# number of rings (size 3 to 8) (size 9 to 14) (size 15 to 20)
#    0.000    2.000    2.500    1.500    0.000    5.000 
#    0.000    5.000    0.000    0.375    0.000    0.000 
#    0.000    0.000    0.000    0.000    0.000    0.000 
#
# Total GULP energy -396823.862601 kJ/mol
# GULP energy per Si atom -12400.745706 kJ/mol
# Density = 1.924295 g / cm^3
# Si number density = 19.286847 Si / 1000 Ang^3
#
#
#
# Elastic Constant Matrix: (Units=GPa)
#
#
# Indices 1 2 3 4 5 6 
#
# 1 149.7496 28.9317 71.1221 0.0000 0.0000 0.0000
# 2 28.9317 34.3145 22.7162 0.0000 0.0000 0.0000
# 3 71.1221 22.7162 157.0334 0.0000 0.0000 0.0000
# 4 0.0000 0.0000 0.0000 23.4176 0.0000 0.0000
# 5 0.0000 0.0000 0.0000 0.0000 15.0536 0.0000
# 6 0.0000 0.0000 0.0000 0.0000 0.0000 21.0965
#
#
#
# Elastic Compliance Matrix: (Units=1/GPa)
#
#
# Indices 1 2 3 4 5 6 
#
# 1 0.009404 -0.005650 -0.003442 0.000000 0.000000 0.000000
# 2 -0.005650 0.035624 -0.002594 0.000000 0.000000 0.000000
# 3 -0.003442 -0.002594 0.008302 0.000000 0.000000 0.000000
# 4 0.000000 0.000000 0.000000 0.042703 0.000000 0.000000
# 5 0.000000 0.000000 0.000000 0.000000 0.066429 0.000000
# 6 0.000000 0.000000 0.000000 0.000000 0.000000 0.047401
#
#
# Mechanical properties :
#
#
# Convention : Reuss Voigt Hill
#
# Bulk Modulus (GPa) = 33.38104 65.18196 49.28150
# Shear Modulus (GPa) = 20.55735 26.46871 23.51303
#
# Velocity S-wave (km/s) = 3.26831 3.70857 3.49538
# Velocity P-wave (km/s) = 5.62030 7.22547 6.47284
#
# Compressibility (1/GPa) = 0.02995712
#
# Stress axis : x y z
#
# Youngs Moduli (GPa) = 106.33591 28.07127 120.45018
#
# Poissons Ratio (x) = 0.15862 0.41457
# Poissons Ratio (y) = 0.60085 0.31246
# Poissons Ratio (z) = 0.36599 0.07282
#
# Static dielectric constant tensor:
#      x y z
#    x 3.795140 0.000000 0.000000 
#    y 0.000000 3.205670 0.000000 
#    z 0.000000 0.000000 3.601590 
# 
# 
# High freq. dielectric constant tensor:
#      x y z
#    x 1.769960 0.000000 0.000000 
#    y 0.000000 1.716110 0.000000 
#    z 0.000000 0.000000 1.746380 
# 
# From -- ./inp_files/25107.got.cif
#   From: 2010.03.12/outbox.cif.g09.slc.cpg/sg44_13_cif.got.tgz:25107.got - 2010.04.14 02:36:11.
