data_PCOD8188366
_publ_section_title
;
Structure prediction by ZEFSAII (Michael W. Deem and Ramdas Pophale) SiO2 
 PCOD8188366
Probable space group: I M M 2
;
_chemical_formula_sum "Si O2"
_cell_formula_units_Z 48
_cell_length_a 9.049216
_cell_length_b 10.351818
_cell_length_c 28.374071
_cell_angle_alpha 90.000000
_cell_angle_beta 90.000000
_cell_angle_gamma 90.000000
_cell_volume 2657.964852
_symmetry_space_group_name_H-M "I M M 2"
_symmetry_group_IT_number 44
_symmetry_cell_setting 'orthorhombic'
loop_
_space_group_symop_operation_xyz
x,y,z
-x,-y,z
-x,y,z
x,-y,z
1/2+x,1/2+y,1/2+z
1/2-x,1/2-y,1/2+z
1/2-x,1/2+y,1/2+z
1/2+x,1/2-y,1/2+z
loop_
_atom_site_type_symbol
_atom_site_label
_atom_site_fract_x
_atom_site_fract_y
_atom_site_fract_z
Si Si1 0.175760 0.239987 0.474870
Si Si2 0.671899 0.853829 0.667138
Si Si3 0.828344 0.849125 0.574545
Si Si4 0.324283 0.500000 0.912267
Si Si5 0.674038 0.254097 0.767176
Si Si6 0.323602 0.000000 0.927806
Si Si7 0.175332 0.500000 0.321479
Si Si8 0.175963 0.500000 0.811200
O O1 0.235955 0.221268 0.528016
O O2 0.229123 0.125122 0.441034
O O3 0.237866 0.374334 0.454656
O O4 0.000000 0.238208 0.476197
O O5 0.500000 0.855378 0.656490
O O6 0.750434 0.793608 0.621235
O O7 0.708205 0.765877 0.712051
O O8 0.728125 0.000000 0.676871
O O9 0.000000 0.820643 0.580242
O O10 0.795233 0.000000 0.568405
O O11 0.500000 0.500000 0.903464
O O12 0.241395 0.500000 0.863163
O O13 0.500000 0.278051 0.776256
O O14 0.731450 0.128352 0.795288
O O15 0.767996 0.375025 0.783649
O O16 0.500000 0.000000 0.927211
O O17 0.262595 0.000000 0.874584
O O18 0.000000 0.500000 0.320369
O O19 0.000000 0.500000 0.813171
#
# Coordination Sequence:
#
# PCOD8188366 Si02
#       8
#     8   8   8   4   8   4   4   4
#     4   9  16  28  48  75 102 130 171 215 253 299
#     4   9  17  31  53  81 106 128 167 219 264 308
#     4   9  16  28  47  72 102 134 171 209 250 304
#     4  10  18  34  57  74  94 135 185 224 257 302
#     4  10  19  36  59  80 104 137 177 222 266 315
#     4   9  16  24  41  73 104 123 151 209 266 297
#     4   9  16  30  56  85 101 123 176 227 262 305
#     4  12  26  38  49  76 115 145 176 218 271 332
#
# _framework density 18.058928999999999
#
# number of rings (size 3 to 8) (size 9 to 14) (size 15 to 20)
#    0.000    2.500    1.667    1.750    0.000    3.333 
#    0.000    2.083    0.000    1.000    0.000    1.167 
#    0.000    0.000    0.000    0.000    0.000    0.000 
#
# Total GULP energy -297572.858188 kJ/mol
# GULP energy per Si atom -12398.869091 kJ/mol
# Density = 1.801783 g / cm^3
# Si number density = 18.058929 Si / 1000 Ang^3
#
#
#
# Elastic Constant Matrix: (Units=GPa)
#
#
# Indices 1 2 3 4 5 6 
#
# 1 40.4158 37.9746 51.0541 0.0000 0.0000 0.0000
# 2 37.9746 136.9368 83.9248 0.0000 0.0000 0.0000
# 3 51.0541 83.9248 186.8333 0.0000 0.0000 0.0000
# 4 0.0000 0.0000 0.0000 90.7398 0.0000 0.0000
# 5 0.0000 0.0000 0.0000 0.0000 27.9541 0.0000
# 6 0.0000 0.0000 0.0000 0.0000 0.0000 11.3663
#
#
#
# Elastic Compliance Matrix: (Units=1/GPa)
#
#
# Indices 1 2 3 4 5 6 
#
# 1 0.041348 -0.006267 -0.008484 0.000000 0.000000 0.000000
# 2 -0.006267 0.011027 -0.003241 0.000000 0.000000 0.000000
# 3 -0.008484 -0.003241 0.009126 0.000000 0.000000 0.000000
# 4 0.000000 0.000000 0.000000 0.011021 0.000000 0.000000
# 5 0.000000 0.000000 0.000000 0.000000 0.035773 0.000000
# 6 0.000000 0.000000 0.000000 0.000000 0.000000 0.087980
#
#
# Mechanical properties :
#
#
# Convention : Reuss Voigt Hill
#
# Bulk Modulus (GPa) = 39.18739 78.89919 59.04329
# Shear Modulus (GPa) = 20.76732 38.76085 29.76409
#
# Velocity S-wave (km/s) = 3.39481 4.63790 4.06416
# Velocity P-wave (km/s) = 6.09205 8.51263 7.40196
#
# Compressibility (1/GPa) = 0.02551841
#
# Stress axis : x y z
#
# Youngs Moduli (GPa) = 24.18496 90.68932 109.57373
#
# Poissons Ratio (x) = 0.56835 0.92958
# Poissons Ratio (y) = 0.15157 0.35509
# Poissons Ratio (z) = 0.20518 0.29389
#
# Static dielectric constant tensor:
#      x y z
#    x 2.910800 0.000000 0.000000 
#    y 0.000000 3.379730 0.000000 
#    z 0.000000 0.000000 3.626110 
# 
# 
# High freq. dielectric constant tensor:
#      x y z
#    x 1.651280 0.000000 0.000000 
#    y 0.000000 1.690140 0.000000 
#    z 0.000000 0.000000 1.719550 
# 
# From -- ./inp_files/27021.got.cif
#   From: 2010.03.12/outbox.cif.g09.slc.cpg/sg44_14_cif.got.tgz:27021.got - 2010.04.14 02:36:11.
