data_PCOD8188865
_publ_section_title
;
Structure prediction by ZEFSAII (Michael W. Deem and Ramdas Pophale) SiO2 
 PCOD8188865
Probable space group: I M M 2
;
_chemical_formula_sum "Si O2"
_cell_formula_units_Z 64
_cell_length_a 15.659262
_cell_length_b 8.922573
_cell_length_c 23.128668
_cell_angle_alpha 90.000000
_cell_angle_beta 90.000000
_cell_angle_gamma 90.000000
_cell_volume 3231.558501
_symmetry_space_group_name_H-M "I M M 2"
_symmetry_group_IT_number 44
_symmetry_cell_setting 'orthorhombic'
loop_
_space_group_symop_operation_xyz
x,y,z
-x,-y,z
-x,y,z
x,-y,z
1/2+x,1/2+y,1/2+z
1/2-x,1/2-y,1/2+z
1/2-x,1/2+y,1/2+z
1/2+x,1/2-y,1/2+z
loop_
_atom_site_type_symbol
_atom_site_label
_atom_site_fract_x
_atom_site_fract_y
_atom_site_fract_z
Si Si1 0.402701 0.824712 0.808540
Si Si2 0.763491 0.823099 0.224985
Si Si3 0.249969 0.326016 0.596829
Si Si4 0.651093 0.322694 0.925493
Si Si5 0.096944 0.336437 0.886754
Si Si6 0.094999 0.829807 0.550502
Si Si7 0.686167 0.322228 0.476105
Si Si8 0.900499 0.177122 0.772131
O O1 0.500000 0.798328 0.786166
O O2 0.334584 0.751716 0.765111
O O3 0.395941 0.750646 0.871346
O O4 0.382002 0.000000 0.813199
O O5 0.792192 0.788820 0.158578
O O6 0.667566 0.756554 0.229839
O O7 0.760266 0.000000 0.237732
O O8 0.240176 0.500000 0.587872
O O9 0.154590 0.263295 0.592879
O O10 0.305259 0.264172 0.542354
O O11 0.657360 0.500000 0.915471
O O12 0.743694 0.249143 0.933022
O O13 0.598683 0.280820 0.983365
O O14 0.143935 0.500000 0.887590
O O15 0.101536 0.248583 0.948192
O O16 0.130983 0.230984 0.835275
O O17 0.000000 0.368326 0.873578
O O18 0.000000 0.806623 0.574037
O O19 0.125559 0.000000 0.555298
O O20 0.686776 0.500000 0.471935
O O21 0.000000 0.220623 0.758166
O O22 0.889038 0.000000 0.767811
#
# Coordination Sequence:
#
# PCOD8188865 Si02
#       8
#     8   8   8   8   8   8   8   8
#     4  11  24  40  58  82 111 144 185 232 281 332
#     4  11  23  40  60  80 108 147 190 234 277 324
#     4   9  21  38  54  75 102 138 182 222 263 315
#     4  10  19  33  55  82 112 143 175 214 264 323
#     4  10  20  34  53  79 109 138 172 216 267 324
#     4   9  18  32  52  80 111 141 173 211 258 314
#     4  10  19  34  55  78 107 140 176 218 266 321
#     4  10  21  37  58  85 116 149 184 223 272 330
#
# _framework density 19.804684999999999
#
# number of rings (size 3 to 8) (size 9 to 14) (size 15 to 20)
#    0.000    2.000    0.000    3.375    0.000    5.750 
#    0.000    3.125    0.000    3.750    0.000    0.000 
#    0.000    0.000    0.000    0.000    0.000    0.000 
#
# Total GULP energy -396591.780618 kJ/mol
# GULP energy per Si atom -12393.493144 kJ/mol
# Density = 1.975961 g / cm^3
# Si number density = 19.804685 Si / 1000 Ang^3
#
#
#
# Elastic Constant Matrix: (Units=GPa)
#
#
# Indices 1 2 3 4 5 6 
#
# 1 57.6954 29.9989 27.1973 0.0000 0.0000 0.0000
# 2 29.9989 87.6564 42.9169 0.0000 0.0000 0.0000
# 3 27.1973 42.9169 83.5523 0.0000 0.0000 0.0000
# 4 0.0000 0.0000 0.0000 28.8273 0.0000 0.0000
# 5 0.0000 0.0000 0.0000 0.0000 10.7809 0.0000
# 6 0.0000 0.0000 0.0000 0.0000 0.0000 29.1287
#
#
#
# Elastic Compliance Matrix: (Units=1/GPa)
#
#
# Indices 1 2 3 4 5 6 
#
# 1 0.022259 -0.005438 -0.004452 0.000000 0.000000 0.000000
# 2 -0.005438 0.016570 -0.006741 0.000000 0.000000 0.000000
# 3 -0.004452 -0.006741 0.016880 0.000000 0.000000 0.000000
# 4 0.000000 0.000000 0.000000 0.034689 0.000000 0.000000
# 5 0.000000 0.000000 0.000000 0.000000 0.092756 0.000000
# 6 0.000000 0.000000 0.000000 0.000000 0.000000 0.034330
#
#
# Mechanical properties :
#
#
# Convention : Reuss Voigt Hill
#
# Bulk Modulus (GPa) = 44.55050 47.68116 46.11583
# Shear Modulus (GPa) = 19.36267 22.33345 20.84806
#
# Velocity S-wave (km/s) = 3.13018 3.36175 3.24803
# Velocity P-wave (km/s) = 5.96723 6.26070 6.11573
#
# Compressibility (1/GPa) = 0.02244644
#
# Stress axis : x y z
#
# Youngs Moduli (GPa) = 44.92646 60.35164 59.24048
#
# Poissons Ratio (x) = 0.32818 0.26376
# Poissons Ratio (y) = 0.24430 0.39934
# Poissons Ratio (z) = 0.20003 0.40683
#
# Static dielectric constant tensor:
#      x y z
#    x 3.816560 0.000000 0.000000 
#    y 0.000000 3.750130 0.000000 
#    z 0.000000 0.000000 3.747920 
# 
# 
# High freq. dielectric constant tensor:
#      x y z
#    x 1.759250 0.000000 0.000000 
#    y 0.000000 1.782560 0.000000 
#    z 0.000000 0.000000 1.770460 
# 
# From -- ./inp_files/25790.got.cif
#   From: 2010.03.12/outbox.cif.g09.slc.cpg/sg44_13_cif.got.tgz:25790.got - 2010.04.14 02:36:11.
