data_PCOD8188134
_publ_section_title
;
Structure prediction by ZEFSAII (Michael W. Deem and Ramdas Pophale) SiO2 
 PCOD8188134
Probable space group: I M M 2
;
_chemical_formula_sum "Si O2"
_cell_formula_units_Z 64
_cell_length_a 30.387703
_cell_length_b 8.842902
_cell_length_c 14.441424
_cell_angle_alpha 90.000000
_cell_angle_beta 90.000000
_cell_angle_gamma 90.000000
_cell_volume 3880.634177
_symmetry_space_group_name_H-M "I M M 2"
_symmetry_group_IT_number 44
_symmetry_cell_setting 'orthorhombic'
loop_
_space_group_symop_operation_xyz
x,y,z
-x,-y,z
-x,y,z
x,-y,z
1/2+x,1/2+y,1/2+z
1/2-x,1/2-y,1/2+z
1/2-x,1/2+y,1/2+z
1/2+x,1/2-y,1/2+z
loop_
_atom_site_type_symbol
_atom_site_label
_atom_site_fract_x
_atom_site_fract_y
_atom_site_fract_z
Si Si1 0.817083 0.831185 0.853030
Si Si2 0.134302 0.831348 0.042277
Si Si3 0.714652 0.679962 0.654638
Si Si4 0.370300 0.322322 0.172234
Si Si5 0.771835 0.823589 0.363864
Si Si6 0.050154 0.675647 0.760096
Si Si7 0.950950 0.179311 0.958511
Si Si8 0.801082 0.320965 0.545992
O O1 0.842314 0.777583 0.762162
O O2 0.779544 0.710608 0.875108
O O3 0.796837 0.000000 0.840180
O O4 0.850813 0.832225 0.936491
O O5 0.170606 0.747753 0.106818
O O6 0.130315 0.000000 0.082492
O O7 0.084686 0.761315 0.035780
O O8 0.714869 0.500000 0.642273
O O9 0.713542 0.729189 0.761392
O O10 0.758520 0.741706 0.603089
O O11 0.374230 0.500000 0.157319
O O12 0.419046 0.253980 0.183257
O O13 0.345974 0.249129 0.084852
O O14 0.798859 0.729354 0.439240
O O15 0.780402 0.000000 0.379379
O O16 0.061681 0.500000 0.765255
O O17 0.058851 0.744834 0.860617
O O18 0.000000 0.703953 0.728748
O O19 0.000000 0.220952 0.993816
O O20 0.945402 0.000000 0.944396
O O21 0.803657 0.500000 0.552241
#
# Coordination Sequence:
#
# PCOD8188134 Si02
#       8
#     8   8   8   8   8   8   8   8
#     4  10  18  29  47  69  96 130 162 197 243 291
#     4   9  15  28  46  67  93 128 164 194 240 296
#     4   9  18  30  47  67  92 126 164 199 242 291
#     4  11  21  33  50  74 100 131 168 206 246 292
#     4  11  21  33  47  69  95 126 167 209 243 285
#     4  10  20  32  47  70 101 134 165 199 244 297
#     4   9  16  27  46  71  97 126 163 206 248 292
#     4  11  21  35  51  70  96 130 165 203 249 297
#
# _framework density 16.492151
#
# number of rings (size 3 to 8) (size 9 to 14) (size 15 to 20)
#    0.000    2.000    3.750    1.500    0.000    1.250 
#    0.000    0.000    0.000    0.000    0.000    0.875 
#    0.000    3.000    0.000    0.000    0.000    0.000 
#
# Total GULP energy -396653.105768 kJ/mol
# GULP energy per Si atom -12395.409555 kJ/mol
# Density = 1.645461 g / cm^3
# Si number density = 16.492151 Si / 1000 Ang^3
#
#
#
# Elastic Constant Matrix: (Units=GPa)
#
#
# Indices 1 2 3 4 5 6 
#
# 1 119.0220 31.9944 40.0899 0.0000 0.0000 0.0000
# 2 31.9944 50.8528 20.6258 0.0000 0.0000 0.0000
# 3 40.0899 20.6258 73.5253 0.0000 0.0000 0.0000
# 4 0.0000 0.0000 0.0000 19.2475 0.0000 0.0000
# 5 0.0000 0.0000 0.0000 0.0000 25.4564 0.0000
# 6 0.0000 0.0000 0.0000 0.0000 0.0000 21.1572
#
#
#
# Elastic Compliance Matrix: (Units=1/GPa)
#
#
# Indices 1 2 3 4 5 6 
#
# 1 0.011414 -0.005255 -0.004749 0.000000 0.000000 0.000000
# 2 -0.005255 0.024609 -0.004038 0.000000 0.000000 0.000000
# 3 -0.004749 -0.004038 0.017323 0.000000 0.000000 0.000000
# 4 0.000000 0.000000 0.000000 0.051955 0.000000 0.000000
# 5 0.000000 0.000000 0.000000 0.000000 0.039283 0.000000
# 6 0.000000 0.000000 0.000000 0.000000 0.000000 0.047265
#
#
# Mechanical properties :
#
#
# Convention : Reuss Voigt Hill
#
# Bulk Modulus (GPa) = 39.58670 47.64669 43.61669
# Shear Modulus (GPa) = 21.89583 23.21824 22.55704
#
# Velocity S-wave (km/s) = 3.64765 3.75618 3.70231
# Velocity P-wave (km/s) = 6.46498 6.91123 6.69183
#
# Compressibility (1/GPa) = 0.02526101
#
# Stress axis : x y z
#
# Youngs Moduli (GPa) = 87.61083 40.63621 57.72609
#
# Poissons Ratio (x) = 0.21354 0.27417
# Poissons Ratio (y) = 0.46039 0.23310
# Poissons Ratio (z) = 0.41610 0.16409
#
# Static dielectric constant tensor:
#      x y z
#    x 3.315160 0.000000 0.000000 
#    y 0.000000 3.004520 0.000000 
#    z 0.000000 0.000000 3.004800 
# 
# 
# High freq. dielectric constant tensor:
#      x y z
#    x 1.633820 0.000000 0.000000 
#    y 0.000000 1.620490 0.000000 
#    z 0.000000 0.000000 1.607570 
# 
# From -- ./inp_files/17103.got.cif
#   From: 2010.03.12/outbox.cif.g09.slc.cpg/sg44_9_cif.got.tgz:17103.got - 2010.04.14 02:36:11.
