data_PCOD8188329
_publ_section_title
;
Structure prediction by ZEFSAII (Michael W. Deem and Ramdas Pophale) SiO2 
 PCOD8188329
Probable space group: I M M 2
;
_chemical_formula_sum "Si O2"
_cell_formula_units_Z 48
_cell_length_a 16.264872
_cell_length_b 7.615181
_cell_length_c 19.882404
_cell_angle_alpha 90.000000
_cell_angle_beta 90.000000
_cell_angle_gamma 90.000000
_cell_volume 2462.633450
_symmetry_space_group_name_H-M "I M M 2"
_symmetry_group_IT_number 44
_symmetry_cell_setting 'orthorhombic'
loop_
_space_group_symop_operation_xyz
x,y,z
-x,-y,z
-x,y,z
x,-y,z
1/2+x,1/2+y,1/2+z
1/2-x,1/2-y,1/2+z
1/2-x,1/2+y,1/2+z
1/2+x,1/2-y,1/2+z
loop_
_atom_site_type_symbol
_atom_site_label
_atom_site_fract_x
_atom_site_fract_y
_atom_site_fract_z
Si Si1 0.500000 0.295469 0.106270
Si Si2 0.500000 0.198366 0.257427
Si Si3 0.591770 0.000000 0.846965
Si Si4 0.092485 0.500000 0.187894
Si Si5 0.676240 0.704133 0.057292
Si Si6 0.286804 0.302371 0.675020
Si Si7 0.297748 0.296428 0.905488
Si Si8 0.826171 0.704969 0.794477
O O1 0.500000 0.500000 0.123474
O O2 0.500000 0.195389 0.176830
O O3 0.419863 0.242661 0.062892
O O4 0.416978 0.292097 0.286267
O O5 0.500000 0.000000 0.284205
O O6 0.633017 0.821886 0.872297
O O7 0.500000 0.000000 0.875699
O O8 0.592358 0.000000 0.767497
O O9 0.136582 0.324602 0.160371
O O10 0.000000 0.500000 0.159074
O O11 0.688364 0.500000 0.073377
O O12 0.728322 0.814164 0.110283
O O13 0.710306 0.752011 0.983611
O O14 0.318665 0.500000 0.690652
O O15 0.235928 0.220432 0.737912
O O16 0.323477 0.500000 0.895734
O O17 0.210531 0.257222 0.868609
O O18 0.834796 0.500000 0.779098
#
# Coordination Sequence:
#
# PCOD8188329 Si02
#       8
#     4   4   4   4   8   8   8   8
#     4  10  20  32  50  86 122 157 190 229 294 361
#     4  10  18  32  56  86 116 147 190 241 286 353
#     4  11  24  38  58  90 114 153 203 246 295 360
#     4  11  24  42  64  86 116 151 203 260 305 356
#     4  10  21  36  57  85 124 163 197 240 299 365
#     4  11  21  37  62  88 117 154 197 248 304 363
#     4  10  22  40  58  81 121 164 196 241 295 357
#     4   9  18  34  57  83 113 154 195 235 292 349
#
# _framework density 19.491327999999999
#
# number of rings (size 3 to 8) (size 9 to 14) (size 15 to 20)
#    0.000    1.833    4.167    0.000    2.333    0.667 
#    1.500    1.667    1.833    0.000    0.000    0.000 
#    0.000    0.000    0.000    0.000    0.000    0.000 
#
# Total GULP energy -297582.112726 kJ/mol
# GULP energy per Si atom -12399.254697 kJ/mol
# Density = 1.944696 g / cm^3
# Si number density = 19.491328 Si / 1000 Ang^3
#
#
#
# Elastic Constant Matrix: (Units=GPa)
#
#
# Indices 1 2 3 4 5 6 
#
# 1 152.5227 42.1874 54.4068 0.0000 0.0000 0.0000
# 2 42.1874 70.3021 12.4531 0.0000 0.0000 0.0000
# 3 54.4068 12.4531 112.9894 0.0000 0.0000 0.0000
# 4 0.0000 0.0000 0.0000 21.1367 0.0000 0.0000
# 5 0.0000 0.0000 0.0000 0.0000 31.3479 0.0000
# 6 0.0000 0.0000 0.0000 0.0000 0.0000 16.7117
#
#
#
# Elastic Compliance Matrix: (Units=1/GPa)
#
#
# Indices 1 2 3 4 5 6 
#
# 1 0.009318 -0.004892 -0.003947 0.000000 0.000000 0.000000
# 2 -0.004892 0.017076 0.000474 0.000000 0.000000 0.000000
# 3 -0.003947 0.000474 0.010699 0.000000 0.000000 0.000000
# 4 0.000000 0.000000 0.000000 0.047311 0.000000 0.000000
# 5 0.000000 0.000000 0.000000 0.000000 0.031900 0.000000
# 6 0.000000 0.000000 0.000000 0.000000 0.000000 0.059838
#
#
# Mechanical properties :
#
#
# Convention : Reuss Voigt Hill
#
# Bulk Modulus (GPa) = 49.11397 61.54542 55.32970
# Shear Modulus (GPa) = 25.04240 28.95705 26.99972
#
# Velocity S-wave (km/s) = 3.58830 3.85858 3.72589
# Velocity P-wave (km/s) = 6.51309 7.17606 6.85260
#
# Compressibility (1/GPa) = 0.02036080
#
# Stress axis : x y z
#
# Youngs Moduli (GPa) = 107.32291 58.56116 93.46694
#
# Poissons Ratio (x) = 0.28649 0.36896
# Poissons Ratio (y) = 0.52504 -0.04427
# Poissons Ratio (z) = 0.42365 -0.02774
#
# Static dielectric constant tensor:
#      x y z
#    x 3.784130 0.000000 0.000000 
#    y 0.000000 3.437390 0.000000 
#    z 0.000000 0.000000 3.455610 
# 
# 
# High freq. dielectric constant tensor:
#      x y z
#    x 1.751590 0.000000 0.000000 
#    y 0.000000 1.755660 0.000000 
#    z 0.000000 0.000000 1.745280 
# 
# From -- ./inp_files/21758.got.cif
#   From: 2010.03.12/outbox.cif.g09.slc.cpg/sg44_11_cif.got.tgz:21758.got - 2010.04.14 02:36:11.
