data_PCOD8188635
_publ_section_title
;
Structure prediction by ZEFSAII (Michael W. Deem and Ramdas Pophale) SiO2 
 PCOD8188635
Probable space group: I M M 2
;
_chemical_formula_sum "Si O2"
_cell_formula_units_Z 40
_cell_length_a 8.504400
_cell_length_b 12.687966
_cell_length_c 20.729584
_cell_angle_alpha 90.000000
_cell_angle_beta 90.000000
_cell_angle_gamma 90.000000
_cell_volume 2236.795456
_symmetry_space_group_name_H-M "I M M 2"
_symmetry_group_IT_number 44
_symmetry_cell_setting 'orthorhombic'
loop_
_space_group_symop_operation_xyz
x,y,z
-x,-y,z
-x,y,z
x,-y,z
1/2+x,1/2+y,1/2+z
1/2-x,1/2-y,1/2+z
1/2-x,1/2+y,1/2+z
1/2+x,1/2-y,1/2+z
loop_
_atom_site_type_symbol
_atom_site_label
_atom_site_fract_x
_atom_site_fract_y
_atom_site_fract_z
Si Si1 0.819002 0.882657 0.948050
Si Si2 0.313856 0.386337 0.041499
Si Si3 0.683792 0.833303 0.084397
Si Si4 0.317578 0.000000 0.315805
Si Si5 0.685909 0.680509 0.901356
Si Si6 0.680864 0.500000 0.677714
O O1 0.760030 0.797818 0.895031
O O2 0.000000 0.861401 0.966142
O O3 0.797413 0.000000 0.918779
O O4 0.715130 0.874626 0.012550
O O5 0.500000 0.388773 0.037944
O O6 0.249016 0.500000 0.066497
O O7 0.263315 0.290222 0.088190
O O8 0.252162 0.367778 0.968853
O O9 0.500000 0.848746 0.099810
O O10 0.785502 0.895923 0.136087
O O11 0.241358 0.106032 0.343800
O O12 0.291344 0.000000 0.239622
O O13 0.500000 0.000000 0.331962
O O14 0.500000 0.690354 0.898728
O O15 0.500000 0.500000 0.699116
#
# Coordination Sequence:
#
# PCOD8188635 Si02
#       6
#     8   8   8   4   8   4
#     4  10  19  31  50  78 112 143 174 219 270 317
#     4   8  14  27  50  78 106 134 164 206 256 313
#     4  10  19  31  51  77 105 138 178 219 266 321
#     4  12  24  38  56  78 106 138 179 226 269 324
#     4  10  19  33  53  77 107 141 179 216 263 322
#     4  12  24  38  54  72 104 144 181 224 267 318
#
# _framework density 17.882726000000002
#
# number of rings (size 3 to 8) (size 9 to 14) (size 15 to 20)
#    0.000    2.000    2.000    4.800    0.000    1.200 
#    0.000    0.000    0.000    1.200    0.000    2.800 
#    0.000    0.000    0.000    0.000    0.000    0.000 
#
# Total GULP energy -247928.807274 kJ/mol
# GULP energy per Si atom -12396.440364 kJ/mol
# Density = 1.784202 g / cm^3
# Si number density = 17.882726 Si / 1000 Ang^3
#
#
#
# Elastic Constant Matrix: (Units=GPa)
#
#
# Indices 1 2 3 4 5 6 
#
# 1 65.5288 33.3666 3.6523 0.0000 0.0000 0.0000
# 2 33.3666 176.4060 43.6989 0.0000 0.0000 0.0000
# 3 3.6523 43.6989 57.6346 0.0000 0.0000 0.0000
# 4 0.0000 0.0000 0.0000 10.9306 0.0000 0.0000
# 5 0.0000 0.0000 0.0000 0.0000 23.3349 0.0000
# 6 0.0000 0.0000 0.0000 0.0000 0.0000 23.7420
#
#
#
# Elastic Compliance Matrix: (Units=1/GPa)
#
#
# Indices 1 2 3 4 5 6 
#
# 1 0.017018 -0.003634 0.001677 0.000000 0.000000 0.000000
# 2 -0.003634 0.007756 -0.005650 0.000000 0.000000 0.000000
# 3 0.001677 -0.005650 0.021528 0.000000 0.000000 0.000000
# 4 0.000000 0.000000 0.000000 0.091486 0.000000 0.000000
# 5 0.000000 0.000000 0.000000 0.000000 0.042854 0.000000
# 6 0.000000 0.000000 0.000000 0.000000 0.000000 0.042119
#
#
# Mechanical properties :
#
#
# Convention : Reuss Voigt Hill
#
# Bulk Modulus (GPa) = 32.16770 51.22279 41.69524
# Shear Modulus (GPa) = 20.13382 26.19163 23.16273
#
# Velocity S-wave (km/s) = 3.35905 3.83120 3.60287
# Velocity P-wave (km/s) = 5.75078 6.94815 6.37763
#
# Compressibility (1/GPa) = 0.03108708
#
# Stress axis : x y z
#
# Youngs Moduli (GPa) = 58.76300 128.93571 46.45023
#
# Poissons Ratio (x) = 0.46859 -0.07790
# Poissons Ratio (y) = 0.21356 0.26245
# Poissons Ratio (z) = -0.09855 0.72851
#
# Static dielectric constant tensor:
#      x y z
#    x 3.229710 0.000000 0.000000 
#    y 0.000000 3.983590 0.000000 
#    z 0.000000 0.000000 2.875490 
# 
# 
# High freq. dielectric constant tensor:
#      x y z
#    x 1.692150 0.000000 0.000000 
#    y 0.000000 1.714230 0.000000 
#    z 0.000000 0.000000 1.635620 
# 
# From -- ./inp_files/22767.got.cif
#   From: 2010.03.12/outbox.cif.g09.slc.cpg/sg44_12_cif.got.tgz:22767.got - 2010.04.14 02:36:11.
