data_PCOD8188570
_publ_section_title
;
Structure prediction by ZEFSAII (Michael W. Deem and Ramdas Pophale) SiO2 
 PCOD8188570
Probable space group: I M M 2
;
_chemical_formula_sum "Si O2"
_cell_formula_units_Z 64
_cell_length_a 8.980751
_cell_length_b 23.097678
_cell_length_c 18.938060
_cell_angle_alpha 90.000000
_cell_angle_beta 90.000000
_cell_angle_gamma 90.000000
_cell_volume 3928.406909
_symmetry_space_group_name_H-M "I M M 2"
_symmetry_group_IT_number 44
_symmetry_cell_setting 'orthorhombic'
loop_
_space_group_symop_operation_xyz
x,y,z
-x,-y,z
-x,y,z
x,-y,z
1/2+x,1/2+y,1/2+z
1/2-x,1/2-y,1/2+z
1/2-x,1/2+y,1/2+z
1/2+x,1/2-y,1/2+z
loop_
_atom_site_type_symbol
_atom_site_label
_atom_site_fract_x
_atom_site_fract_y
_atom_site_fract_z
Si Si1 0.829442 0.840950 0.438420
Si Si2 0.176258 0.165524 0.987961
Si Si3 0.673509 0.776162 0.864621
Si Si4 0.673031 0.731328 0.071017
Si Si5 0.173402 0.373352 0.713963
Si Si6 0.827542 0.433224 0.567100
Si Si7 0.175771 0.564588 0.856002
Si Si8 0.174066 0.249467 0.208254
O O1 0.777591 0.788024 0.388730
O O2 0.802983 0.823464 0.519902
O O3 0.733252 0.897290 0.421365
O O4 0.000000 0.856210 0.423502
O O5 0.247522 0.211712 0.041227
O O6 0.227621 0.101903 0.011426
O O7 0.000000 0.170740 0.991008
O O8 0.231803 0.176696 0.907860
O O9 0.500000 0.785434 0.882660
O O10 0.707801 0.782340 0.781708
O O11 0.500000 0.746931 0.078998
O O12 0.742482 0.715000 0.146709
O O13 0.205616 0.413126 0.646618
O O14 0.229379 0.408697 0.781969
O O15 0.269099 0.315764 0.709243
O O16 0.000000 0.356647 0.719872
O O17 0.781955 0.500000 0.560464
O O18 0.000000 0.423508 0.548180
O O19 0.241733 0.500000 0.863036
O O20 0.000000 0.562808 0.859395
O O21 0.000000 0.248353 0.192358
#
# Coordination Sequence:
#
# PCOD8188570 Si02
#       8
#     8   8   8   8   8   8   8   8
#     4   9  18  33  49  67  93 128 165 201 242 288
#     4  11  21  32  49  73  98 127 167 209 246 287
#     4   9  19  34  50  69  99 129 159 201 250 299
#     4  10  20  34  50  69  98 131 162 201 251 300
#     4  10  19  31  47  68  99 136 170 201 236 284
#     4  10  20  34  51  69  96 138 176 203 242 293
#     4  10  20  32  47  70  99 131 169 207 240 281
#     4  11  20  31  50  76 101 128 163 203 247 294
#
# _framework density 16.291591
#
# number of rings (size 3 to 8) (size 9 to 14) (size 15 to 20)
#    0.000    2.000    2.500    3.000    0.000    5.500 
#    0.000    0.000    0.000    2.250    0.000    0.875 
#    0.000    5.000    0.000    0.000    0.000    0.000 
#
# Total GULP energy -396864.419398 kJ/mol
# GULP energy per Si atom -12402.013106 kJ/mol
# Density = 1.625451 g / cm^3
# Si number density = 16.291591 Si / 1000 Ang^3
#
#
#
# Elastic Constant Matrix: (Units=GPa)
#
#
# Indices 1 2 3 4 5 6 
#
# 1 79.9400 37.0309 55.7009 0.0000 0.0000 0.0000
# 2 37.0309 77.7338 52.3055 0.0000 0.0000 0.0000
# 3 55.7009 52.3055 118.3836 0.0000 0.0000 0.0000
# 4 0.0000 0.0000 0.0000 20.9866 0.0000 0.0000
# 5 0.0000 0.0000 0.0000 0.0000 27.8535 0.0000
# 6 0.0000 0.0000 0.0000 0.0000 0.0000 24.1414
#
#
#
# Elastic Compliance Matrix: (Units=1/GPa)
#
#
# Indices 1 2 3 4 5 6 
#
# 1 0.019643 -0.004467 -0.007269 0.000000 0.000000 0.000000
# 2 -0.004467 0.019323 -0.006436 0.000000 0.000000 0.000000
# 3 -0.007269 -0.006436 0.014711 0.000000 0.000000 0.000000
# 4 0.000000 0.000000 0.000000 0.047649 0.000000 0.000000
# 5 0.000000 0.000000 0.000000 0.000000 0.035902 0.000000
# 6 0.000000 0.000000 0.000000 0.000000 0.000000 0.041423
#
#
# Mechanical properties :
#
#
# Convention : Reuss Voigt Hill
#
# Bulk Modulus (GPa) = 57.68948 62.90356 60.29652
# Shear Modulus (GPa) = 22.64783 23.33098 22.98940
#
# Velocity S-wave (km/s) = 3.73252 3.78840 3.76056
# Velocity P-wave (km/s) = 7.35276 7.60466 7.47977
#
# Compressibility (1/GPa) = 0.01733418
#
# Stress axis : x y z
#
# Youngs Moduli (GPa) = 50.90787 51.75248 67.97744
#
# Poissons Ratio (x) = 0.23116 0.49412
# Poissons Ratio (y) = 0.22739 0.43749
# Poissons Ratio (z) = 0.37005 0.33307
#
# Static dielectric constant tensor:
#      x y z
#    x 3.054040 0.000000 0.000000 
#    y 0.000000 2.917390 0.000000 
#    z 0.000000 0.000000 3.296540 
# 
# 
# High freq. dielectric constant tensor:
#      x y z
#    x 1.629490 0.000000 0.000000 
#    y 0.000000 1.596470 0.000000 
#    z 0.000000 0.000000 1.627040 
# 
# From -- ./inp_files/20871.got.cif
#   From: 2010.03.12/outbox.cif.g09.slc.cpg/sg44_11_cif.got.tgz:20871.got - 2010.04.14 02:36:11.
