data_PCOD8188252
_publ_section_title
;
Structure prediction by ZEFSAII (Michael W. Deem and Ramdas Pophale) SiO2 
 PCOD8188252
Probable space group: I M M 2
;
_chemical_formula_sum "Si O2"
_cell_formula_units_Z 64
_cell_length_a 33.126621
_cell_length_b 9.338620
_cell_length_c 11.651674
_cell_angle_alpha 90.000000
_cell_angle_beta 90.000000
_cell_angle_gamma 90.000000
_cell_volume 3604.526044
_symmetry_space_group_name_H-M "I M M 2"
_symmetry_group_IT_number 44
_symmetry_cell_setting 'orthorhombic'
loop_
_space_group_symop_operation_xyz
x,y,z
-x,-y,z
-x,y,z
x,-y,z
1/2+x,1/2+y,1/2+z
1/2-x,1/2-y,1/2+z
1/2-x,1/2+y,1/2+z
1/2+x,1/2-y,1/2+z
loop_
_atom_site_type_symbol
_atom_site_label
_atom_site_fract_x
_atom_site_fract_y
_atom_site_fract_z
Si Si1 0.327102 0.331036 0.670840
Si Si2 0.121911 0.667885 0.747138
Si Si3 0.453743 0.339821 0.919184
Si Si4 0.388684 0.163241 0.808186
Si Si5 0.954450 0.167996 0.682920
Si Si6 0.184111 0.336280 0.943460
Si Si7 0.726780 0.336824 0.882722
Si Si8 0.331274 0.162596 0.024936
O O1 0.334200 0.500000 0.663777
O O2 0.368531 0.253751 0.706516
O O3 0.314140 0.272509 0.548161
O O4 0.292242 0.288376 0.761525
O O5 0.113706 0.500000 0.731097
O O6 0.078739 0.746552 0.756618
O O7 0.146497 0.701758 0.862447
O O8 0.148079 0.726275 0.639438
O O9 0.500000 0.339959 0.882448
O O10 0.435606 0.500000 0.905468
O O11 0.432157 0.230196 0.833851
O O12 0.448869 0.288994 0.050270
O O13 0.393655 0.000000 0.767328
O O14 0.363205 0.175862 0.923583
O O15 0.000000 0.209489 0.722866
O O16 0.947502 0.000000 0.700620
O O17 0.180939 0.500000 0.987722
O O18 0.225346 0.314478 0.872100
O O19 0.715088 0.500000 0.907709
O O20 0.708855 0.248820 0.990273
O O21 0.317622 0.000000 0.046987
#
# Coordination Sequence:
#
# PCOD8188252 Si02
#       8
#     8   8   8   8   8   8   8   8
#     4  10  21  37  56  76 101 137 180 217 262 318
#     4  10  20  34  53  78 109 143 177 220 268 318
#     4   9  17  29  47  75 110 142 171 209 260 316
#     4  10  18  31  52  76 104 137 173 215 260 309
#     4   9  18  32  51  77 111 145 177 219 267 318
#     4  10  22  38  54  75 106 139 176 223 270 314
#     4   9  20  36  54  75 101 136 173 217 266 312
#     4   9  18  31  50  76 104 135 172 212 257 310
#
# _framework density 17.755454
#
# number of rings (size 3 to 8) (size 9 to 14) (size 15 to 20)
#    0.000    2.500    1.250    1.500    1.750    3.000 
#    0.000    1.250    0.000    0.750    0.000    3.500 
#    0.000    0.000    0.000    0.000    0.000    0.000 
#
# Total GULP energy -396821.493210 kJ/mol
# GULP energy per Si atom -12400.671663 kJ/mol
# Density = 1.771504 g / cm^3
# Si number density = 17.755454 Si / 1000 Ang^3
#
#
#
# Elastic Constant Matrix: (Units=GPa)
#
#
# Indices 1 2 3 4 5 6 
#
# 1 115.3125 54.3012 40.6361 0.0000 0.0000 0.0000
# 2 54.3012 83.8624 41.8181 0.0000 0.0000 0.0000
# 3 40.6361 41.8181 74.3034 0.0000 0.0000 0.0000
# 4 0.0000 0.0000 0.0000 25.6388 0.0000 0.0000
# 5 0.0000 0.0000 0.0000 0.0000 25.0873 0.0000
# 6 0.0000 0.0000 0.0000 0.0000 0.0000 33.8073
#
#
#
# Elastic Compliance Matrix: (Units=1/GPa)
#
#
# Indices 1 2 3 4 5 6 
#
# 1 0.013036 -0.006792 -0.003307 0.000000 0.000000 0.000000
# 2 -0.006792 0.020115 -0.007606 0.000000 0.000000 0.000000
# 3 -0.003307 -0.007606 0.019548 0.000000 0.000000 0.000000
# 4 0.000000 0.000000 0.000000 0.039003 0.000000 0.000000
# 5 0.000000 0.000000 0.000000 0.000000 0.039861 0.000000
# 6 0.000000 0.000000 0.000000 0.000000 0.000000 0.029579
#
#
# Mechanical properties :
#
#
# Convention : Reuss Voigt Hill
#
# Bulk Modulus (GPa) = 57.84168 60.77658 59.30913
# Shear Modulus (GPa) = 24.71406 26.02155 25.36781
#
# Velocity S-wave (km/s) = 3.73488 3.83241 3.78396
# Velocity P-wave (km/s) = 7.15868 7.34079 7.25031
#
# Compressibility (1/GPa) = 0.01728857
#
# Stress axis : x y z
#
# Youngs Moduli (GPa) = 76.71287 49.71448 51.15719
#
# Poissons Ratio (x) = 0.33765 0.16916
# Poissons Ratio (y) = 0.52101 0.38912
# Poissons Ratio (z) = 0.25367 0.37814
#
# Static dielectric constant tensor:
#      x y z
#    x 3.261420 0.000000 0.000000 
#    y 0.000000 3.292960 0.000000 
#    z 0.000000 0.000000 3.042000 
# 
# 
# High freq. dielectric constant tensor:
#      x y z
#    x 1.686140 0.000000 0.000000 
#    y 0.000000 1.687020 0.000000 
#    z 0.000000 0.000000 1.659330 
# 
# From -- ./inp_files/15039.got.cif
#   From: 2010.03.12/outbox.cif.g09.slc.cpg/sg44_8_cif.got.tgz:15039.got - 2010.04.14 02:36:11.
