data_PCOD8188819
_publ_section_title
;
Structure prediction by ZEFSAII (Michael W. Deem and Ramdas Pophale) SiO2 
 PCOD8188819
Probable space group: I M M 2
;
_chemical_formula_sum "Si O2"
_cell_formula_units_Z 48
_cell_length_a 16.539071
_cell_length_b 8.647946
_cell_length_c 18.654234
_cell_angle_alpha 90.000000
_cell_angle_beta 90.000000
_cell_angle_gamma 90.000000
_cell_volume 2668.096302
_symmetry_space_group_name_H-M "I M M 2"
_symmetry_group_IT_number 44
_symmetry_cell_setting 'orthorhombic'
loop_
_space_group_symop_operation_xyz
x,y,z
-x,-y,z
-x,y,z
x,-y,z
1/2+x,1/2+y,1/2+z
1/2-x,1/2-y,1/2+z
1/2-x,1/2+y,1/2+z
1/2+x,1/2-y,1/2+z
loop_
_atom_site_type_symbol
_atom_site_label
_atom_site_fract_x
_atom_site_fract_y
_atom_site_fract_z
Si Si1 0.910737 0.317349 0.101230
Si Si2 0.500000 0.681960 0.960766
Si Si3 0.833718 0.681904 0.644770
Si Si4 0.160000 0.681509 0.393777
Si Si5 0.000000 0.183599 0.624994
Si Si6 0.740094 0.817020 0.513824
Si Si7 0.696603 0.818161 0.732468
O O1 0.917833 0.500000 0.096936
O O2 0.876053 0.269874 0.179004
O O3 0.000000 0.242545 0.090675
O O4 0.849171 0.260287 0.039018
O O5 0.500000 0.500000 0.957391
O O6 0.421167 0.741649 0.921119
O O7 0.500000 0.738986 0.042463
O O8 0.833505 0.500000 0.630704
O O9 0.922589 0.743097 0.664169
O O10 0.805494 0.769215 0.573067
O O11 0.776724 0.724363 0.711487
O O12 0.150993 0.500000 0.401644
O O13 0.237923 0.737999 0.438623
O O14 0.171988 0.731641 0.311834
O O15 0.000000 0.000000 0.633542
O O16 0.743818 0.000000 0.504817
O O17 0.715253 0.000000 0.725939
#
# Coordination Sequence:
#
# PCOD8188819 Si02
#       7
#     8   4   8   8   4   8   8
#     4   8  15  30  54  78  99 129 175 220 259 312
#     4  11  23  35  53  81 114 147 176 217 276 328
#     4  11  21  34  55  81 108 140 182 226 268 319
#     4  11  22  35  55  81 110 144 183 221 265 323
#     4  11  21  35  57  81 110 143 178 223 274 326
#     4  10  19  33  53  77 107 143 180 219 272 323
#     4   9  20  36  55  78 108 143 177 217 272 326
#
# _framework density 17.990355999999998
#
# number of rings (size 3 to 8) (size 9 to 14) (size 15 to 20)
#    0.000    2.000    1.667    4.000    1.167    2.000 
#    0.000    0.000    1.833    9.000    0.000    0.000 
#    0.000    0.000    0.000    0.000    0.000    0.000 
#
# Total GULP energy -297618.103659 kJ/mol
# GULP energy per Si atom -12400.754319 kJ/mol
# Density = 1.794941 g / cm^3
# Si number density = 17.990356 Si / 1000 Ang^3
#
#
#
# Elastic Constant Matrix: (Units=GPa)
#
#
# Indices 1 2 3 4 5 6 
#
# 1 153.2874 17.8961 54.3170 0.0000 0.0000 0.0000
# 2 17.8961 36.4722 22.1573 0.0000 0.0000 0.0000
# 3 54.3170 22.1573 95.2632 0.0000 0.0000 0.0000
# 4 0.0000 0.0000 0.0000 27.2962 0.0000 0.0000
# 5 0.0000 0.0000 0.0000 0.0000 22.6261 0.0000
# 6 0.0000 0.0000 0.0000 0.0000 0.0000 22.2025
#
#
#
# Elastic Compliance Matrix: (Units=1/GPa)
#
#
# Indices 1 2 3 4 5 6 
#
# 1 0.008235 -0.001384 -0.004374 0.000000 0.000000 0.000000
# 2 -0.001384 0.032162 -0.006692 0.000000 0.000000 0.000000
# 3 -0.004374 -0.006692 0.014547 0.000000 0.000000 0.000000
# 4 0.000000 0.000000 0.000000 0.036635 0.000000 0.000000
# 5 0.000000 0.000000 0.000000 0.000000 0.044197 0.000000
# 6 0.000000 0.000000 0.000000 0.000000 0.000000 0.045040
#
#
# Mechanical properties :
#
#
# Convention : Reuss Voigt Hill
#
# Bulk Modulus (GPa) = 33.28142 52.64040 42.96091
# Shear Modulus (GPa) = 23.17707 27.13511 25.15609
#
# Velocity S-wave (km/s) = 3.59319 3.88792 3.74345
# Velocity P-wave (km/s) = 5.97950 7.03409 6.52812
#
# Compressibility (1/GPa) = 0.03004679
#
# Stress axis : x y z
#
# Youngs Moduli (GPa) = 121.43282 31.09216 68.74086
#
# Poissons Ratio (x) = 0.04302 0.30064
# Poissons Ratio (y) = 0.16803 0.45999
# Poissons Ratio (z) = 0.53110 0.20806
#
# Static dielectric constant tensor:
#      x y z
#    x 3.659940 0.000000 0.000000 
#    y 0.000000 3.221010 0.000000 
#    z 0.000000 0.000000 3.318510 
# 
# 
# High freq. dielectric constant tensor:
#      x y z
#    x 1.703920 0.000000 0.000000 
#    y 0.000000 1.690930 0.000000 
#    z 0.000000 0.000000 1.679340 
# 
# From -- ./inp_files/21734.got.cif
#   From: 2010.03.12/outbox.cif.g09.slc.cpg/sg44_11_cif.got.tgz:21734.got - 2010.04.14 02:36:11.
