data_PCOD8188254
_publ_section_title
;
Structure prediction by ZEFSAII (Michael W. Deem and Ramdas Pophale) SiO2 
 PCOD8188254
Probable space group: I M M 2
;
_chemical_formula_sum "Si O2"
_cell_formula_units_Z 56
_cell_length_a 9.036656
_cell_length_b 16.860873
_cell_length_c 18.585190
_cell_angle_alpha 90.000000
_cell_angle_beta 90.000000
_cell_angle_gamma 90.000000
_cell_volume 2831.749371
_symmetry_space_group_name_H-M "I M M 2"
_symmetry_group_IT_number 44
_symmetry_cell_setting 'orthorhombic'
loop_
_space_group_symop_operation_xyz
x,y,z
-x,-y,z
-x,y,z
x,-y,z
1/2+x,1/2+y,1/2+z
1/2-x,1/2-y,1/2+z
1/2-x,1/2+y,1/2+z
1/2+x,1/2-y,1/2+z
loop_
_atom_site_type_symbol
_atom_site_label
_atom_site_fract_x
_atom_site_fract_y
_atom_site_fract_z
Si Si1 0.673473 0.410910 0.185280
Si Si2 0.175520 0.913336 0.940994
Si Si3 0.175566 0.856416 0.094286
Si Si4 0.324197 0.301698 0.314739
Si Si5 0.324377 0.669732 0.899689
Si Si6 0.326984 0.297997 0.061164
Si Si7 0.174918 0.000000 0.350874
Si Si8 0.676372 0.500000 0.690826
O O1 0.500000 0.417887 0.199902
O O2 0.742484 0.500000 0.194035
O O3 0.735144 0.346137 0.242905
O O4 0.706092 0.379548 0.104533
O O5 0.232778 0.855385 0.880063
O O6 0.000000 0.915915 0.942611
O O7 0.239821 0.000000 0.923808
O O8 0.235683 0.885287 0.017465
O O9 0.246988 0.770618 0.107062
O O10 0.000000 0.847814 0.096775
O O11 0.233898 0.919984 0.152238
O O12 0.500000 0.289100 0.312474
O O13 0.247631 0.217424 0.332531
O O14 0.500000 0.678049 0.893367
O O15 0.272732 0.578408 0.892708
O O16 0.267576 0.696732 0.978937
O O17 0.500000 0.279890 0.060980
O O18 0.242335 0.000000 0.270667
O O19 0.000000 0.000000 0.343495
O O20 0.500000 0.500000 0.687391
#
# Coordination Sequence:
#
# PCOD8188254 Si02
#       8
#     8   8   8   8   8   8   4   4
#     4   9  19  35  56  81 106 137 177 219 261 309
#     4   9  15  26  47  74 101 130 168 210 252 301
#     4  10  18  31  52  78 105 136 173 215 260 308
#     4  10  19  33  55  81 107 133 171 222 269 311
#     4  10  21  36  55  78 105 141 180 217 258 309
#     4  10  21  35  53  78 109 140 174 216 264 315
#     4   9  20  36  53  75 102 140 185 220 251 299
#     4   9  18  32  53  79 104 134 179 222 255 305
#
# _framework density 19.775759999999998
#
# number of rings (size 3 to 8) (size 9 to 14) (size 15 to 20)
#    0.000    2.429    2.143    0.429    3.000    1.714 
#    0.000    0.714    0.000    4.714    0.000    0.000 
#    0.000    0.000    0.000    0.000    0.000    0.000 
#
# Total GULP energy -347035.719101 kJ/mol
# GULP energy per Si atom -12394.132825 kJ/mol
# Density = 1.973075 g / cm^3
# Si number density = 19.775760 Si / 1000 Ang^3
#
#
#
# Elastic Constant Matrix: (Units=GPa)
#
#
# Indices 1 2 3 4 5 6 
#
# 1 20.0021 26.0004 16.4851 0.0000 0.0000 0.0000
# 2 26.0004 153.7015 46.8577 0.0000 0.0000 0.0000
# 3 16.4851 46.8577 101.7650 0.0000 0.0000 0.0000
# 4 0.0000 0.0000 0.0000 34.0967 0.0000 0.0000
# 5 0.0000 0.0000 0.0000 0.0000 16.3123 0.0000
# 6 0.0000 0.0000 0.0000 0.0000 0.0000 24.6455
#
#
#
# Elastic Compliance Matrix: (Units=1/GPa)
#
#
# Indices 1 2 3 4 5 6 
#
# 1 0.067721 -0.009436 -0.006625 0.000000 0.000000 0.000000
# 2 -0.009436 0.008883 -0.002562 0.000000 0.000000 0.000000
# 3 -0.006625 -0.002562 0.012079 0.000000 0.000000 0.000000
# 4 0.000000 0.000000 0.000000 0.029328 0.000000 0.000000
# 5 0.000000 0.000000 0.000000 0.000000 0.061303 0.000000
# 6 0.000000 0.000000 0.000000 0.000000 0.000000 0.040575
#
#
# Mechanical properties :
#
#
# Convention : Reuss Voigt Hill
#
# Bulk Modulus (GPa) = 19.44121 50.46166 34.95143
# Shear Modulus (GPa) = 18.22938 27.41926 22.82432
#
# Velocity S-wave (km/s) = 3.03942 3.72762 3.40097
# Velocity P-wave (km/s) = 4.70846 6.64073 5.75625
#
# Compressibility (1/GPa) = 0.05143714
#
# Stress axis : x y z
#
# Youngs Moduli (GPa) = 14.76653 112.57087 82.78550
#
# Poissons Ratio (x) = 1.06221 0.54849
# Poissons Ratio (y) = 0.13934 0.21208
# Poissons Ratio (z) = 0.09784 0.28838
#
# Static dielectric constant tensor:
#      x y z
#    x 2.974470 0.000000 0.000000 
#    y 0.000000 3.853280 0.000000 
#    z 0.000000 0.000000 3.762850 
# 
# 
# High freq. dielectric constant tensor:
#      x y z
#    x 1.705670 0.000000 0.000000 
#    y 0.000000 1.786720 0.000000 
#    z 0.000000 0.000000 1.778730 
# 
# From -- ./inp_files/23134.got.cif
#   From: 2010.03.12/outbox.cif.g09.slc.cpg/sg44_12_cif.got.tgz:23134.got - 2010.04.14 02:36:11.
