data_PCOD8188531
_publ_section_title
;
Structure prediction by ZEFSAII (Michael W. Deem and Ramdas Pophale) SiO2 
 PCOD8188531
Probable space group: I M M 2
;
_chemical_formula_sum "Si O2"
_cell_formula_units_Z 48
_cell_length_a 9.171399
_cell_length_b 31.550187
_cell_length_c 9.109321
_cell_angle_alpha 90.000000
_cell_angle_beta 90.000000
_cell_angle_gamma 90.000000
_cell_volume 2635.867235
_symmetry_space_group_name_H-M "I M M 2"
_symmetry_group_IT_number 44
_symmetry_cell_setting 'orthorhombic'
loop_
_space_group_symop_operation_xyz
x,y,z
-x,-y,z
-x,y,z
x,-y,z
1/2+x,1/2+y,1/2+z
1/2-x,1/2-y,1/2+z
1/2-x,1/2+y,1/2+z
1/2+x,1/2-y,1/2+z
loop_
_atom_site_type_symbol
_atom_site_label
_atom_site_fract_x
_atom_site_fract_y
_atom_site_fract_z
Si Si1 0.328129 0.212922 0.155320
Si Si2 0.174643 0.365053 0.457522
Si Si3 0.331775 0.708702 0.960744
Si Si4 0.836950 0.546503 0.135049
Si Si5 0.837054 0.544643 0.483941
Si Si6 0.169160 0.872298 0.653550
O O1 0.500000 0.211873 0.176140
O O2 0.258290 0.212126 0.313580
O O3 0.273604 0.172397 0.063051
O O4 0.276651 0.255222 0.072409
O O5 0.231784 0.409930 0.530859
O O6 0.245618 0.358029 0.298962
O O7 0.000000 0.366261 0.436603
O O8 0.500000 0.716285 0.922137
O O9 0.304747 0.663093 0.031370
O O10 0.784181 0.500000 0.077798
O O11 0.840674 0.546072 0.309391
O O12 0.728454 0.583704 0.083505
O O13 0.000000 0.555741 0.074999
O O14 0.756852 0.500000 0.533545
O O15 0.000000 0.542271 0.547352
O O16 0.000000 0.877625 0.693425
#
# Coordination Sequence:
#
# PCOD8188531 Si02
#       6
#     8   8   8   8   8   8
#     4  10  21  36  54  74  95 126 170 210 246 297
#     4   9  17  30  49  73  98 126 165 208 246 289
#     4  10  22  37  51  72 101 129 161 205 254 299
#     4   8  14  26  45  69  97 129 165 204 242 280
#     4   7  10  19  38  64  92 119 147 186 236 279
#     4  10  19  30  47  73 103 133 164 199 246 301
#
# _framework density 18.210325999999998
#
# number of rings (size 3 to 8) (size 9 to 14) (size 15 to 20)
#    0.000    3.000    0.000    3.500    0.000    3.000 
#    0.000    0.000    0.000    1.000    0.000    2.333 
#    0.000    0.000    0.000    0.000    0.000    0.000 
#
# Total GULP energy -297324.866294 kJ/mol
# GULP energy per Si atom -12388.536096 kJ/mol
# Density = 1.816888 g / cm^3
# Si number density = 18.210326 Si / 1000 Ang^3
#
#
#
# Elastic Constant Matrix: (Units=GPa)
#
#
# Indices 1 2 3 4 5 6 
#
# 1 50.8684 47.2875 36.6627 0.0010 -0.0001 0.0005
# 2 47.2875 165.7694 48.5852 0.0049 0.0000 0.0008
# 3 36.6627 48.5852 75.4902 0.0097 0.0003 0.0016
# 4 0.0010 0.0049 0.0097 18.9718 0.0001 0.0003
# 5 -0.0001 0.0000 0.0003 0.0001 25.1346 0.0012
# 6 0.0005 0.0008 0.0016 0.0003 0.0012 25.4531
#
#
#
# Elastic Compliance Matrix: (Units=1/GPa)
#
#
# Indices 1 2 3 4 5 6 
#
# 1 0.034615 -0.006097 -0.012887 0.000006 0.000000 0.000000
# 2 -0.006097 0.008509 -0.002515 -0.000001 0.000000 0.000000
# 3 -0.012887 -0.002515 0.021124 -0.000009 0.000000 -0.000001
# 4 0.000006 -0.000001 -0.000009 0.052710 0.000000 -0.000001
# 5 0.000000 0.000000 0.000000 0.000000 0.039786 -0.000002
# 6 0.000000 0.000000 -0.000001 -0.000001 -0.000002 0.039288
#
#
# Mechanical properties :
#
#
# Convention : Reuss Voigt Hill
#
# Bulk Modulus (GPa) = 47.06044 61.91098 54.48571
# Shear Modulus (GPa) = 20.31590 24.55140 22.43365
#
# Velocity S-wave (km/s) = 3.34372 3.67579 3.51368
# Velocity P-wave (km/s) = 6.38797 7.21711 6.81516
#
# Compressibility (1/GPa) = 0.02124927
#
# Stress axis : x y z
#
# Youngs Moduli (GPa) = 28.88961 117.52376 47.33917
#
# Poissons Ratio (x) = 0.71656 0.61005
# Poissons Ratio (y) = 0.17614 0.11906
# Poissons Ratio (z) = 0.37230 0.29559
#
# Static dielectric constant tensor:
#      x y z
#    x 3.163660 0.000000 0.000000 
#    y 0.000000 4.274730 0.000000 
#    z 0.000000 0.000000 2.880580 
# 
# 
# High freq. dielectric constant tensor:
#      x y z
#    x 1.677270 0.000000 0.000000 
#    y 0.000000 1.740430 0.000000 
#    z 0.000000 0.000000 1.659780 
# 
# From -- ./inp_files/4888.got.cif
#   From: 2010.03.12/outbox.cif.g09.slc.cpg/sg44_3_cif.got.tgz:4888.got - 2010.04.14 02:36:11.
