data_PCOD8188047
_publ_section_title
;
Structure prediction by ZEFSAII (Michael W. Deem and Ramdas Pophale) SiO2 
 PCOD8188047
Probable space group: I M M 2
;
_chemical_formula_sum "Si O2"
_cell_formula_units_Z 56
_cell_length_a 7.793626
_cell_length_b 32.269143
_cell_length_c 13.813954
_cell_angle_alpha 90.000000
_cell_angle_beta 90.000000
_cell_angle_gamma 90.000000
_cell_volume 3474.121462
_symmetry_space_group_name_H-M "I M M 2"
_symmetry_group_IT_number 44
_symmetry_cell_setting 'orthorhombic'
loop_
_space_group_symop_operation_xyz
x,y,z
-x,-y,z
-x,y,z
x,-y,z
1/2+x,1/2+y,1/2+z
1/2-x,1/2-y,1/2+z
1/2-x,1/2+y,1/2+z
1/2+x,1/2-y,1/2+z
loop_
_atom_site_type_symbol
_atom_site_label
_atom_site_fract_x
_atom_site_fract_y
_atom_site_fract_z
Si Si1 0.801514 0.395149 0.139530
Si Si2 0.796321 0.769493 0.130640
Si Si3 0.304665 0.316834 0.812391
Si Si4 0.202334 0.689366 0.238365
Si Si5 0.197529 0.235913 0.916517
Si Si6 0.309579 0.103415 0.414744
Si Si7 0.500000 0.546369 0.909984
Si Si8 0.500000 0.454091 0.139446
O O1 0.740462 0.354973 0.198561
O O2 0.674689 0.431621 0.174278
O O3 0.000000 0.407208 0.161125
O O4 0.773523 0.385514 0.026478
O O5 0.731685 0.805054 0.205318
O O6 0.726895 0.724793 0.166116
O O7 0.000000 0.769619 0.135253
O O8 0.729335 0.777505 0.021914
O O9 0.500000 0.332314 0.807993
O O10 0.299194 0.275863 0.878795
O O11 0.193172 0.353977 0.855127
O O12 0.279839 0.696783 0.345202
O O13 0.000000 0.692036 0.245949
O O14 0.000000 0.248790 0.925935
O O15 0.500000 0.083940 0.403238
O O16 0.170729 0.070548 0.374855
O O17 0.500000 0.500000 0.864875
O O18 0.500000 0.543132 0.024576
O O19 0.500000 0.500000 0.185124
#
# Coordination Sequence:
#
# PCOD8188047 Si02
#       8
#     8   8   8   8   8   8   4   4
#     4   9  18  30  46  65  93 123 149 184 227 268
#     4   8  16  29  42  57  86 120 151 188 231 263
#     4  10  18  30  44  60  86 122 155 189 227 267
#     4   9  17  30  43  59  85 120 152 186 226 266
#     4  10  18  28  42  62  85 117 156 194 227 265
#     4  10  18  30  47  68  90 121 155 185 220 269
#     4   9  18  32  46  68  95 121 149 187 230 270
#     4   9  18  30  46  68  93 117 155 191 220 272
#
# _framework density 16.119183
#
# number of rings (size 3 to 8) (size 9 to 14) (size 15 to 20)
#    0.000    2.714    0.714    2.571    1.000    2.857 
#    0.000   10.000    0.000    0.000    0.000    0.000 
#    0.000    2.286    0.000    3.143    0.000    0.286 
#
# Total GULP energy -347083.034069 kJ/mol
# GULP energy per Si atom -12395.822645 kJ/mol
# Density = 1.608249 g / cm^3
# Si number density = 16.119183 Si / 1000 Ang^3
#
#
#
# Elastic Constant Matrix: (Units=GPa)
#
#
# Indices 1 2 3 4 5 6 
#
# 1 70.8461 43.9814 20.6776 0.0000 0.0000 0.0000
# 2 43.9814 113.5127 44.8869 -0.0001 0.0000 0.0000
# 3 20.6776 44.8869 97.4095 -0.0002 -0.0001 -0.0001
# 4 0.0000 -0.0001 -0.0002 16.3098 0.0000 0.0000
# 5 0.0000 0.0000 -0.0001 0.0000 16.2119 0.0000
# 6 0.0000 0.0000 -0.0001 0.0000 0.0000 21.9511
#
#
#
# Elastic Compliance Matrix: (Units=1/GPa)
#
#
# Indices 1 2 3 4 5 6 
#
# 1 0.018633 -0.006915 -0.000769 0.000000 0.000000 0.000000
# 2 -0.006915 0.013339 -0.004679 0.000000 0.000000 0.000000
# 3 -0.000769 -0.004679 0.012585 0.000000 0.000000 0.000000
# 4 0.000000 0.000000 0.000000 0.061313 0.000000 0.000000
# 5 0.000000 0.000000 0.000000 0.000000 0.061683 0.000000
# 6 0.000000 0.000000 0.000000 0.000000 0.000000 0.045556
#
#
# Mechanical properties :
#
#
# Convention : Reuss Voigt Hill
#
# Bulk Modulus (GPa) = 50.42542 55.65112 53.03827
# Shear Modulus (GPa) = 20.45453 22.37604 21.41528
#
# Velocity S-wave (km/s) = 3.56610 3.72985 3.64889
# Velocity P-wave (km/s) = 6.95032 7.29032 7.12235
#
# Compressibility (1/GPa) = 0.01983127
#
# Stress axis : x y z
#
# Youngs Moduli (GPa) = 53.66963 74.96707 79.45897
#
# Poissons Ratio (x) = 0.51843 0.06107
# Poissons Ratio (y) = 0.37115 0.37177
# Poissons Ratio (z) = 0.04125 0.35076
#
# Static dielectric constant tensor:
#      x y z
#    x 3.062780 0.000000 0.000000 
#    y 0.000000 3.015060 0.000000 
#    z 0.000000 0.000000 3.068030 
# 
# 
# High freq. dielectric constant tensor:
#      x y z
#    x 1.627310 0.000000 0.000000 
#    y 0.000000 1.592920 0.000000 
#    z 0.000000 0.000000 1.590580 
# 
# From -- ./inp_files/17040.got.cif
#   From: 2010.03.12/outbox.cif.g09.slc.cpg/sg44_9_cif.got.tgz:17040.got - 2010.04.14 02:36:11.
