data_PCOD8188702
_publ_section_title
;
Structure prediction by ZEFSAII (Michael W. Deem and Ramdas Pophale) SiO2 
 PCOD8188702
Probable space group: I M M 2
;
_chemical_formula_sum "Si O2"
_cell_formula_units_Z 56
_cell_length_a 9.129913
_cell_length_b 23.996212
_cell_length_c 13.598274
_cell_angle_alpha 90.000000
_cell_angle_beta 90.000000
_cell_angle_gamma 90.000000
_cell_volume 2979.155121
_symmetry_space_group_name_H-M "I M M 2"
_symmetry_group_IT_number 44
_symmetry_cell_setting 'orthorhombic'
loop_
_space_group_symop_operation_xyz
x,y,z
-x,-y,z
-x,y,z
x,-y,z
1/2+x,1/2+y,1/2+z
1/2-x,1/2-y,1/2+z
1/2-x,1/2+y,1/2+z
1/2+x,1/2-y,1/2+z
loop_
_atom_site_type_symbol
_atom_site_label
_atom_site_fract_x
_atom_site_fract_y
_atom_site_fract_z
Si Si1 0.168188 0.064362 0.831850
Si Si2 0.330112 0.660208 0.790285
Si Si3 0.171291 0.437364 0.694977
Si Si4 0.172091 0.172360 0.511371
Si Si5 0.672804 0.274716 0.597732
Si Si6 0.328552 0.873424 0.999332
Si Si7 0.173258 0.939309 0.609488
O O1 0.273878 0.101727 0.897440
O O2 0.222323 0.074182 0.720628
O O3 0.000000 0.083225 0.846491
O O4 0.186101 0.000000 0.861522
O O5 0.500000 0.645489 0.783256
O O6 0.247127 0.602125 0.774552
O O7 0.289983 0.684305 0.897401
O O8 0.285746 0.705846 0.708413
O O9 0.231953 0.500000 0.707167
O O10 0.208762 0.417203 0.585133
O O11 0.000000 0.434903 0.714921
O O12 0.260850 0.213818 0.581356
O O13 0.226199 0.109733 0.537283
O O14 0.000000 0.179689 0.532755
O O15 0.500000 0.273481 0.581130
O O16 0.744773 0.315890 0.518708
O O17 0.500000 0.860296 0.992464
O O18 0.000000 0.943786 0.608372
O O19 0.237685 0.000000 0.576379
#
# Coordination Sequence:
#
# PCOD8188702 Si02
#       7
#     8   8   8   8   8   8   8
#     4   9  17  30  49  75 107 141 176 213 254 301
#     4   9  20  36  53  76 104 132 168 214 255 298
#     4   9  18  32  50  74 105 139 173 209 252 304
#     4  10  20  36  58  80 101 131 171 210 252 301
#     4  10  21  37  53  73 104 136 168 209 259 309
#     4  10  19  32  51  75 104 138 177 217 256 300
#     4   8  16  32  53  77 105 136 171 209 248 299
#
# _framework density 18.797274999999999
#
# number of rings (size 3 to 8) (size 9 to 14) (size 15 to 20)
#    0.000    2.714    0.000    2.143    0.000    4.571 
#    0.000    5.000    0.000    1.286    0.000    0.000 
#    0.000    0.000    0.000    0.000    0.000    0.000 
#
# Total GULP energy -347193.743878 kJ/mol
# GULP energy per Si atom -12399.776567 kJ/mol
# Density = 1.875449 g / cm^3
# Si number density = 18.797275 Si / 1000 Ang^3
#
#
#
# Elastic Constant Matrix: (Units=GPa)
#
#
# Indices 1 2 3 4 5 6 
#
# 1 54.5603 45.1279 32.6535 -0.0001 0.0000 0.0000
# 2 45.1279 132.9810 59.9540 0.0000 0.0000 0.0000
# 3 32.6535 59.9540 93.7832 -0.0002 0.0001 0.0000
# 4 -0.0001 0.0000 -0.0002 24.4990 0.0000 0.0000
# 5 0.0000 0.0000 0.0001 0.0000 22.2662 0.0000
# 6 0.0000 0.0000 0.0000 0.0000 0.0000 32.0289
#
#
#
# Elastic Compliance Matrix: (Units=1/GPa)
#
#
# Indices 1 2 3 4 5 6 
#
# 1 0.027044 -0.006930 -0.004986 0.000000 0.000000 0.000000
# 2 -0.006930 0.012340 -0.005476 0.000000 0.000000 0.000000
# 3 -0.004986 -0.005476 0.015900 0.000000 0.000000 0.000000
# 4 0.000000 0.000000 0.000000 0.040818 0.000000 0.000000
# 5 0.000000 0.000000 0.000000 0.000000 0.044911 0.000000
# 6 0.000000 0.000000 0.000000 0.000000 0.000000 0.031222
#
#
# Mechanical properties :
#
#
# Convention : Reuss Voigt Hill
#
# Bulk Modulus (GPa) = 48.78000 61.86616 55.32308
# Shear Modulus (GPa) = 23.38053 25.33142 24.35598
#
# Velocity S-wave (km/s) = 3.53062 3.67496 3.60351
# Velocity P-wave (km/s) = 6.52895 7.14079 6.84172
#
# Compressibility (1/GPa) = 0.02050021
#
# Stress axis : x y z
#
# Youngs Moduli (GPa) = 36.97663 81.03453 62.89344
#
# Poissons Ratio (x) = 0.56153 0.31360
# Poissons Ratio (y) = 0.25623 0.34442
# Poissons Ratio (z) = 0.18438 0.44377
#
# Static dielectric constant tensor:
#      x y z
#    x 3.227420 0.000000 0.000000 
#    y 0.000000 3.665190 0.000000 
#    z 0.000000 0.000000 3.439830 
# 
# 
# High freq. dielectric constant tensor:
#      x y z
#    x 1.711560 0.000000 0.000000 
#    y 0.000000 1.732110 0.000000 
#    z 0.000000 0.000000 1.725950 
# 
# From -- ./inp_files/16494.got.cif
#   From: 2010.03.12/outbox.cif.g09.slc.cpg/sg44_9_cif.got.tgz:16494.got - 2010.04.14 02:36:11.
