data_PCOD8188480
_publ_section_title
;
Structure prediction by ZEFSAII (Michael W. Deem and Ramdas Pophale) SiO2 
 PCOD8188480
Probable space group: I M M 2
;
_chemical_formula_sum "Si O2"
_cell_formula_units_Z 64
_cell_length_a 8.764347
_cell_length_b 34.695740
_cell_length_c 13.634217
_cell_angle_alpha 90.000000
_cell_angle_beta 90.000000
_cell_angle_gamma 90.000000
_cell_volume 4145.967759
_symmetry_space_group_name_H-M "I M M 2"
_symmetry_group_IT_number 44
_symmetry_cell_setting 'orthorhombic'
loop_
_space_group_symop_operation_xyz
x,y,z
-x,-y,z
-x,y,z
x,-y,z
1/2+x,1/2+y,1/2+z
1/2-x,1/2-y,1/2+z
1/2-x,1/2+y,1/2+z
1/2+x,1/2-y,1/2+z
loop_
_atom_site_type_symbol
_atom_site_label
_atom_site_fract_x
_atom_site_fract_y
_atom_site_fract_z
Si Si1 0.181458 0.270227 0.903560
Si Si2 0.819540 0.193914 0.216520
Si Si3 0.826612 0.541004 0.421152
Si Si4 0.321459 0.306008 0.301927
Si Si5 0.676847 0.457712 0.624399
Si Si6 0.181332 0.235269 0.609622
Si Si7 0.326949 0.876742 0.898562
Si Si8 0.677486 0.879913 0.128217
O O1 0.253589 0.299297 0.825029
O O2 0.235901 0.226739 0.877497
O O3 0.000000 0.274733 0.900794
O O4 0.245698 0.280400 0.009955
O O5 0.744487 0.222653 0.137403
O O6 0.778045 0.150644 0.186796
O O7 0.000000 0.199835 0.215951
O O8 0.812273 0.500000 0.361963
O O9 0.707080 0.539843 0.508739
O O10 0.796514 0.579600 0.357024
O O11 0.000000 0.545094 0.464207
O O12 0.500000 0.305530 0.302492
O O13 0.265707 0.295257 0.192583
O O14 0.270434 0.348094 0.333381
O O15 0.500000 0.448477 0.642066
O O16 0.718935 0.500000 0.670674
O O17 0.776377 0.422525 0.668294
O O18 0.000000 0.238295 0.599623
O O19 0.500000 0.863752 0.884374
O O20 0.282151 0.875920 0.013064
O O21 0.500000 0.872748 0.148873
#
# Coordination Sequence:
#
# PCOD8188480 Si02
#       8
#     8   8   8   8   8   8   8   8
#     4  10  20  34  49  65  85 113 147 181 220 262
#     4  11  21  32  47  67  89 115 146 182 222 260
#     4   8  14  25  38  53  78 112 145 175 211 255
#     4   9  19  31  43  61  86 112 139 174 213 254
#     4   9  16  25  38  58  83 111 144 179 214 256
#     4  10  20  34  48  64  87 115 147 181 218 262
#     4   9  17  26  40  61  83 111 146 180 212 248
#     4  10  19  30  43  61  87 118 150 184 218 257
#
# _framework density 15.436685000000001
#
# number of rings (size 3 to 8) (size 9 to 14) (size 15 to 20)
#    0.000    2.500    0.000    4.875    0.000    8.250 
#    0.000    0.000    0.000    0.000    0.000    0.000 
#    0.000    1.000    0.000    6.500    0.000    4.750 
#
# Total GULP energy -396553.376276 kJ/mol
# GULP energy per Si atom -12392.293009 kJ/mol
# Density = 1.540155 g / cm^3
# Si number density = 15.436685 Si / 1000 Ang^3
#
#
#
# Elastic Constant Matrix: (Units=GPa)
#
#
# Indices 1 2 3 4 5 6 
#
# 1 47.2469 15.9175 20.7999 -0.0007 -0.0001 0.0000
# 2 15.9175 108.9819 33.6672 -0.0003 0.0000 0.0000
# 3 20.7999 33.6672 67.8298 -0.0002 0.0001 0.0000
# 4 -0.0007 -0.0003 -0.0002 15.1420 0.0001 0.0000
# 5 -0.0001 0.0000 0.0001 0.0001 21.9663 0.0000
# 6 0.0000 0.0000 0.0000 0.0000 0.0000 26.8207
#
#
#
# Elastic Compliance Matrix: (Units=1/GPa)
#
#
# Indices 1 2 3 4 5 6 
#
# 1 0.024673 -0.001496 -0.006824 0.000001 0.000000 0.000000
# 2 -0.001496 0.010928 -0.004966 0.000000 0.000000 0.000000
# 3 -0.006824 -0.004966 0.019300 0.000000 0.000000 0.000000
# 4 0.000001 0.000000 0.000000 0.066041 0.000000 0.000000
# 5 0.000000 0.000000 0.000000 0.000000 0.045524 0.000000
# 6 0.000000 0.000000 0.000000 0.000000 0.000000 0.037285
#
#
# Mechanical properties :
#
#
# Convention : Reuss Voigt Hill
#
# Bulk Modulus (GPa) = 35.29620 40.53641 37.91631
# Shear Modulus (GPa) = 20.85369 23.03073 21.94221
#
# Velocity S-wave (km/s) = 3.67947 3.86676 3.77428
# Velocity P-wave (km/s) = 6.40048 6.80093 6.60374
#
# Compressibility (1/GPa) = 0.02833166
#
# Stress axis : x y z
#
# Youngs Moduli (GPa) = 40.52957 91.50569 51.81376
#
# Poissons Ratio (x) = 0.13687 0.35356
# Poissons Ratio (y) = 0.06062 0.25728
# Poissons Ratio (z) = 0.27656 0.45438
#
# Static dielectric constant tensor:
#      x y z
#    x 2.982280 0.000000 0.000000 
#    y 0.000000 3.264370 0.000000 
#    z 0.000000 0.000000 2.677930 
# 
# 
# High freq. dielectric constant tensor:
#      x y z
#    x 1.603760 0.000000 0.000000 
#    y 0.000000 1.599630 0.000000 
#    z 0.000000 0.000000 1.539000 
# 
# From -- ./inp_files/17171.got.cif
#   From: 2010.03.12/outbox.cif.g09.slc.cpg/sg44_9_cif.got.tgz:17171.got - 2010.04.14 02:36:11.
