data_PCOD8188797
_publ_section_title
;
Structure prediction by ZEFSAII (Michael W. Deem and Ramdas Pophale) SiO2 
 PCOD8188797
Probable space group: I M M 2
;
_chemical_formula_sum "Si O2"
_cell_formula_units_Z 56
_cell_length_a 8.853703
_cell_length_b 16.337803
_cell_length_c 22.721731
_cell_angle_alpha 90.000000
_cell_angle_beta 90.000000
_cell_angle_gamma 90.000000
_cell_volume 3286.699649
_symmetry_space_group_name_H-M "I M M 2"
_symmetry_group_IT_number 44
_symmetry_cell_setting 'orthorhombic'
loop_
_space_group_symop_operation_xyz
x,y,z
-x,-y,z
-x,y,z
x,-y,z
1/2+x,1/2+y,1/2+z
1/2-x,1/2-y,1/2+z
1/2-x,1/2+y,1/2+z
1/2+x,1/2-y,1/2+z
loop_
_atom_site_type_symbol
_atom_site_label
_atom_site_fract_x
_atom_site_fract_y
_atom_site_fract_z
Si Si1 0.170928 0.000000 0.867620
Si Si2 0.821257 0.330187 0.377666
Si Si3 0.824824 0.356216 0.161883
Si Si4 0.326702 0.736347 0.762151
Si Si5 0.828202 0.000000 0.728511
Si Si6 0.176756 0.095803 0.544510
Si Si7 0.678336 0.820073 0.433316
Si Si8 0.177711 0.590624 0.815066
O O1 0.253551 0.080810 0.891395
O O2 0.174028 0.000000 0.797840
O O3 0.000000 0.000000 0.891321
O O4 0.767773 0.298901 0.312896
O O5 0.758903 0.267854 0.427138
O O6 0.000000 0.336348 0.382509
O O7 0.803431 0.270842 0.196425
O O8 0.762268 0.422414 0.206586
O O9 0.728965 0.355450 0.102373
O O10 0.000000 0.373596 0.147616
O O11 0.500000 0.718121 0.775695
O O12 0.239081 0.650544 0.764545
O O13 0.000000 0.000000 0.703597
O O14 0.268409 0.133119 0.490947
O O15 0.000000 0.109350 0.534334
O O16 0.216466 0.000000 0.552104
O O17 0.500000 0.806112 0.435922
O O18 0.727747 0.876749 0.378821
O O19 0.246433 0.500000 0.806297
O O20 0.000000 0.587828 0.809722
#
# Coordination Sequence:
#
# PCOD8188797 Si02
#       8
#     4   8   8   8   4   8   8   8
#     4  11  21  31  49  77 107 139 173 208 253 306
#     4  10  19  33  51  74 104 136 171 212 257 304
#     4  11  21  34  51  73 103 138 174 208 249 302
#     4   9  19  32  48  73 102 133 168 206 252 302
#     4  11  21  31  47  73 107 139 171 208 247 296
#     4  11  23  36  51  75 104 136 174 212 253 302
#     4  10  20  35  53  74 102 136 173 212 255 304
#     4   9  18  32  51  75 101 131 168 207 250 300
#
# _framework density 17.038368999999999
#
# number of rings (size 3 to 8) (size 9 to 14) (size 15 to 20)
#    0.000    1.857    2.143    2.571    0.000    4.571 
#    0.000    0.000    0.000    0.000    1.857    0.000 
#    0.000    0.000    0.000    0.000    0.000    0.000 
#
# Total GULP energy -347235.299310 kJ/mol
# GULP energy per Si atom -12401.260690 kJ/mol
# Density = 1.699959 g / cm^3
# Si number density = 17.038369 Si / 1000 Ang^3
#
#
#
# Elastic Constant Matrix: (Units=GPa)
#
#
# Indices 1 2 3 4 5 6 
#
# 1 62.9111 46.9581 22.6333 0.0000 0.0000 0.0000
# 2 46.9581 130.0288 34.7176 0.0000 0.0000 0.0000
# 3 22.6333 34.7176 63.2249 0.0000 0.0000 0.0000
# 4 0.0000 0.0000 0.0000 4.4829 0.0000 0.0000
# 5 0.0000 0.0000 0.0000 0.0000 27.8365 0.0000
# 6 0.0000 0.0000 0.0000 0.0000 0.0000 11.6188
#
#
#
# Elastic Compliance Matrix: (Units=1/GPa)
#
#
# Indices 1 2 3 4 5 6 
#
# 1 0.022694 -0.007062 -0.004246 0.000000 0.000000 0.000000
# 2 -0.007062 0.011209 -0.003627 0.000000 0.000000 0.000000
# 3 -0.004246 -0.003627 0.019328 0.000000 0.000000 0.000000
# 4 0.000000 0.000000 0.000000 0.223071 0.000000 0.000000
# 5 0.000000 0.000000 0.000000 0.000000 0.035924 0.000000
# 6 0.000000 0.000000 0.000000 0.000000 0.000000 0.086067
#
#
# Mechanical properties :
#
#
# Convention : Reuss Voigt Hill
#
# Bulk Modulus (GPa) = 42.80608 51.64254 47.22431
# Shear Modulus (GPa) = 11.46913 18.91137 15.19025
#
# Velocity S-wave (km/s) = 2.59730 3.33517 2.98909
# Velocity P-wave (km/s) = 5.84573 6.72358 6.29996
#
# Compressibility (1/GPa) = 0.02336117
#
# Stress axis : x y z
#
# Youngs Moduli (GPa) = 44.06389 89.21100 51.73747
#
# Poissons Ratio (x) = 0.63001 0.21969
# Poissons Ratio (y) = 0.31118 0.18766
# Poissons Ratio (z) = 0.18711 0.32358
#
# Static dielectric constant tensor:
#      x y z
#    x 3.283490 0.000000 0.000000 
#    y 0.000000 3.270380 0.000000 
#    z 0.000000 0.000000 2.989920 
# 
# 
# High freq. dielectric constant tensor:
#      x y z
#    x 1.670160 0.000000 0.000000 
#    y 0.000000 1.654080 0.000000 
#    z 0.000000 0.000000 1.630430 
# 
# From -- ./inp_files/23116.got.cif
#   From: 2010.03.12/outbox.cif.g09.slc.cpg/sg44_12_cif.got.tgz:23116.got - 2010.04.14 02:36:11.
