data_PCOD8188519
_publ_section_title
;
Structure prediction by ZEFSAII (Michael W. Deem and Ramdas Pophale) SiO2 
 PCOD8188519
Probable space group: I M M 2
;
_chemical_formula_sum "Si O2"
_cell_formula_units_Z 64
_cell_length_a 9.013342
_cell_length_b 22.365016
_cell_length_c 15.520021
_cell_angle_alpha 90.000000
_cell_angle_beta 90.000000
_cell_angle_gamma 90.000000
_cell_volume 3128.580744
_symmetry_space_group_name_H-M "I M M 2"
_symmetry_group_IT_number 44
_symmetry_cell_setting 'orthorhombic'
loop_
_space_group_symop_operation_xyz
x,y,z
-x,-y,z
-x,y,z
x,-y,z
1/2+x,1/2+y,1/2+z
1/2-x,1/2-y,1/2+z
1/2-x,1/2+y,1/2+z
1/2+x,1/2-y,1/2+z
loop_
_atom_site_type_symbol
_atom_site_label
_atom_site_fract_x
_atom_site_fract_y
_atom_site_fract_z
Si Si1 0.836331 0.069944 0.526940
Si Si2 0.826980 0.185930 0.106856
Si Si3 0.834894 0.429045 0.864398
Si Si4 0.677333 0.181691 0.932629
Si Si5 0.168663 0.401176 0.197557
Si Si6 0.829756 0.066903 0.193440
Si Si7 0.832933 0.268386 0.255922
Si Si8 0.671907 0.432908 0.365542
O O1 0.764129 0.098659 0.441126
O O2 0.726104 0.082161 0.604327
O O3 0.000000 0.098430 0.542097
O O4 0.854099 0.000000 0.513059
O O5 0.804672 0.114336 0.116714
O O6 0.759346 0.219080 0.192180
O O7 0.000000 0.202467 0.094894
O O8 0.738857 0.207958 0.022236
O O9 0.839826 0.500000 0.872521
O O10 0.765518 0.410342 0.773702
O O11 0.000000 0.402038 0.870324
O O12 0.500000 0.179726 0.932658
O O13 0.737279 0.222529 0.852064
O O14 0.734988 0.113808 0.922125
O O15 0.176477 0.330324 0.205708
O O16 0.271626 0.433363 0.267394
O O17 0.000000 0.424031 0.208574
O O18 0.000000 0.066842 0.223494
O O19 0.782953 0.000000 0.162505
O O20 0.000000 0.247075 0.271114
O O21 0.500000 0.413848 0.367392
O O22 0.691911 0.500000 0.403264
#
# Coordination Sequence:
#
# PCOD8188519 Si02
#       8
#     8   8   8   8   8   8   8   8
#     4  10  19  30  46  71 105 144 187 231 277 336
#     4  10  20  38  62  83 110 150 189 229 282 342
#     4   9  17  30  48  70 101 140 178 221 273 324
#     4  10  21  38  59  84 115 148 188 240 288 334
#     4  10  19  32  51  75 107 144 186 237 287 335
#     4   9  18  33  54  80 109 141 178 221 273 336
#     4   8  18  38  58  76 107 148 186 229 282 333
#     4  10  20  34  54  81 113 149 189 229 276 341
#
# _framework density 20.456561000000001
#
# number of rings (size 3 to 8) (size 9 to 14) (size 15 to 20)
#    0.000    2.500    0.000    3.000    0.000    5.750 
#    2.250    5.000    0.000    0.000    0.000    0.000 
#    0.000    0.000    0.000    0.000    0.000    0.000 
#
# Total GULP energy -396639.215924 kJ/mol
# GULP energy per Si atom -12394.975498 kJ/mol
# Density = 2.041000 g / cm^3
# Si number density = 20.456561 Si / 1000 Ang^3
#
#
#
# Elastic Constant Matrix: (Units=GPa)
#
#
# Indices 1 2 3 4 5 6 
#
# 1 90.9711 22.1925 43.2290 0.0000 0.0000 0.0000
# 2 22.1925 63.3287 40.1774 -0.0001 0.0000 0.0000
# 3 43.2290 40.1774 129.1895 -0.0004 0.0001 0.0000
# 4 0.0000 -0.0001 -0.0004 23.9869 0.0000 0.0000
# 5 0.0000 0.0000 0.0001 0.0000 36.1408 0.0000
# 6 0.0000 0.0000 0.0000 0.0000 0.0000 16.7099
#
#
#
# Elastic Compliance Matrix: (Units=1/GPa)
#
#
# Indices 1 2 3 4 5 6 
#
# 1 0.013333 -0.002295 -0.003748 0.000000 0.000000 0.000000
# 2 -0.002295 0.020067 -0.005473 0.000000 0.000000 0.000000
# 3 -0.003748 -0.005473 0.010697 0.000000 0.000000 0.000000
# 4 0.000000 0.000000 0.000000 0.041689 0.000000 0.000000
# 5 0.000000 0.000000 0.000000 0.000000 0.027670 0.000000
# 6 0.000000 0.000000 0.000000 0.000000 0.000000 0.059845
#
#
# Mechanical properties :
#
#
# Convention : Reuss Voigt Hill
#
# Bulk Modulus (GPa) = 47.46989 54.96522 51.21755
# Shear Modulus (GPa) = 24.58773 27.22689 25.90731
#
# Velocity S-wave (km/s) = 3.47067 3.65219 3.56259
# Velocity P-wave (km/s) = 6.27028 6.68672 6.48184
#
# Compressibility (1/GPa) = 0.02106599
#
# Stress axis : x y z
#
# Youngs Moduli (GPa) = 75.00033 49.83330 93.48655
#
# Poissons Ratio (x) = 0.11435 0.35038
# Poissons Ratio (y) = 0.17210 0.51164
# Poissons Ratio (z) = 0.28109 0.27273
#
# Static dielectric constant tensor:
#      x y z
#    x 3.766870 0.000000 0.000000 
#    y 0.000000 3.574450 0.000000 
#    z 0.000000 0.000000 3.719880 
# 
# 
# High freq. dielectric constant tensor:
#      x y z
#    x 1.790100 0.000000 0.000000 
#    y 0.000000 1.776360 0.000000 
#    z 0.000000 0.000000 1.801130 
# 
# From -- ./inp_files/16871.got.cif
#   From: 2010.03.12/outbox.cif.g09.slc.cpg/sg44_9_cif.got.tgz:16871.got - 2010.04.14 02:36:11.
