data_PCOD8188937
_publ_section_title
;
Structure prediction by ZEFSAII (Michael W. Deem and Ramdas Pophale) SiO2 
 PCOD8188937
Probable space group: I M M 2
;
_chemical_formula_sum "Si O2"
_cell_formula_units_Z 64
_cell_length_a 8.808932
_cell_length_b 27.181395
_cell_length_c 13.125390
_cell_angle_alpha 90.000000
_cell_angle_beta 90.000000
_cell_angle_gamma 90.000000
_cell_volume 3142.731047
_symmetry_space_group_name_H-M "I M M 2"
_symmetry_group_IT_number 44
_symmetry_cell_setting 'orthorhombic'
loop_
_space_group_symop_operation_xyz
x,y,z
-x,-y,z
-x,y,z
x,-y,z
1/2+x,1/2+y,1/2+z
1/2-x,1/2-y,1/2+z
1/2-x,1/2+y,1/2+z
1/2+x,1/2-y,1/2+z
loop_
_atom_site_type_symbol
_atom_site_label
_atom_site_fract_x
_atom_site_fract_y
_atom_site_fract_z
Si Si1 0.175908 0.442245 0.171610
Si Si2 0.820206 0.117285 0.853838
Si Si3 0.167305 0.293255 0.937869
Si Si4 0.826744 0.942908 0.247827
Si Si5 0.180480 0.617690 0.567077
Si Si6 0.820686 0.595276 0.949557
Si Si7 0.668367 0.718829 0.271955
Si Si8 0.177667 0.272392 0.586083
O O1 0.203734 0.500000 0.178513
O O2 0.273945 0.417116 0.259755
O O3 0.000000 0.428500 0.187528
O O4 0.231183 0.424124 0.060227
O O5 0.755277 0.172807 0.831052
O O6 0.000000 0.115426 0.869552
O O7 0.745373 0.098278 0.959024
O O8 0.286244 0.254366 0.981681
O O9 0.000000 0.291883 0.990607
O O10 0.231714 0.348191 0.938678
O O11 0.154561 0.272017 0.825062
O O12 0.732317 0.915254 0.161220
O O13 0.760512 0.934861 0.360648
O O14 0.000000 0.924431 0.245524
O O15 0.815431 0.000000 0.221652
O O16 0.245679 0.672706 0.586464
O O17 0.000000 0.616452 0.560396
O O18 0.000000 0.589121 0.934469
O O19 0.500000 0.698623 0.246570
O O20 0.754494 0.734950 0.168589
O O21 0.000000 0.276247 0.606232
#
# Coordination Sequence:
#
# PCOD8188937 Si02
#       8
#     8   8   8   8   8   8   8   8
#     4  10  22  40  61  87 120 158 203 255 309 364
#     4  11  22  38  61  87 122 163 205 253 305 361
#     4  10  19  34  56  84 118 154 190 230 285 348
#     4  11  25  43  64  91 122 158 205 262 319 374
#     4  11  23  40  63  89 123 163 207 256 306 369
#     4  10  21  39  65  94 125 161 202 251 307 372
#     4   9  18  33  53  79 116 154 185 228 286 342
#     4  10  20  35  56  84 117 155 198 240 285 348
#
# _framework density 20.364453000000001
#
# number of rings (size 3 to 8) (size 9 to 14) (size 15 to 20)
#    0.000    1.750    1.250    3.000    0.000    5.750 
#    0.000    1.250    0.000    0.000    0.000    0.000 
#    0.000    0.000    0.000    0.000    0.000    0.000 
#
# Total GULP energy -396620.286052 kJ/mol
# GULP energy per Si atom -12394.383939 kJ/mol
# Density = 2.031810 g / cm^3
# Si number density = 20.364453 Si / 1000 Ang^3
#
#
#
# Elastic Constant Matrix: (Units=GPa)
#
#
# Indices 1 2 3 4 5 6 
#
# 1 61.8308 28.3347 40.6898 0.0000 0.0000 0.0000
# 2 28.3347 93.9384 33.2780 0.0002 0.0000 0.0000
# 3 40.6898 33.2780 120.1239 0.0003 -0.0001 0.0000
# 4 0.0000 0.0002 0.0003 36.8539 0.0000 0.0000
# 5 0.0000 0.0000 -0.0001 0.0000 31.2386 0.0000
# 6 0.0000 0.0000 0.0000 0.0000 0.0000 25.3980
#
#
#
# Elastic Compliance Matrix: (Units=1/GPa)
#
#
# Indices 1 2 3 4 5 6 
#
# 1 0.022416 -0.004515 -0.006342 0.000000 0.000000 0.000000
# 2 -0.004515 0.012713 -0.001993 0.000000 0.000000 0.000000
# 3 -0.006342 -0.001993 0.011025 0.000000 0.000000 0.000000
# 4 0.000000 0.000000 0.000000 0.027134 0.000000 0.000000
# 5 0.000000 0.000000 0.000000 0.000000 0.032012 0.000000
# 6 0.000000 0.000000 0.000000 0.000000 0.000000 0.039373
#
#
# Mechanical properties :
#
#
# Convention : Reuss Voigt Hill
#
# Bulk Modulus (GPa) = 48.88812 53.38867 51.13839
# Shear Modulus (GPa) = 28.21830 30.27080 29.24455
#
# Velocity S-wave (km/s) = 3.72649 3.85964 3.79365
# Velocity P-wave (km/s) = 6.52490 6.79234 6.65996
#
# Compressibility (1/GPa) = 0.02045487
#
# Stress axis : x y z
#
# Youngs Moduli (GPa) = 44.61149 78.66024 90.70219
#
# Poissons Ratio (x) = 0.35511 0.57526
# Poissons Ratio (y) = 0.20140 0.18074
# Poissons Ratio (z) = 0.28294 0.15674
#
# Static dielectric constant tensor:
#      x y z
#    x 3.519410 0.000000 0.000000 
#    y 0.000000 3.827040 0.000000 
#    z 0.000000 0.000000 3.752340 
# 
# 
# High freq. dielectric constant tensor:
#      x y z
#    x 1.775120 0.000000 0.000000 
#    y 0.000000 1.802780 0.000000 
#    z 0.000000 0.000000 1.807870 
# 
# From -- ./inp_files/11506.got.cif
#   From: 2010.03.12/outbox.cif.g09.slc.cpg/sg44_6_cif.got.tgz:11506.got - 2010.04.14 02:36:11.
