data_PCOD8188541
_publ_section_title
;
Structure prediction by ZEFSAII (Michael W. Deem and Ramdas Pophale) SiO2 
 PCOD8188541
Probable space group: I M M 2
;
_chemical_formula_sum "Si O2"
_cell_formula_units_Z 64
_cell_length_a 23.215415
_cell_length_b 8.931761
_cell_length_c 18.950379
_cell_angle_alpha 90.000000
_cell_angle_beta 90.000000
_cell_angle_gamma 90.000000
_cell_volume 3929.447088
_symmetry_space_group_name_H-M "I M M 2"
_symmetry_group_IT_number 44
_symmetry_cell_setting 'orthorhombic'
loop_
_space_group_symop_operation_xyz
x,y,z
-x,-y,z
-x,y,z
x,-y,z
1/2+x,1/2+y,1/2+z
1/2-x,1/2-y,1/2+z
1/2-x,1/2+y,1/2+z
1/2+x,1/2-y,1/2+z
loop_
_atom_site_type_symbol
_atom_site_label
_atom_site_fract_x
_atom_site_fract_y
_atom_site_fract_z
Si Si1 0.379767 0.825264 0.679240
Si Si2 0.672077 0.827128 0.454315
Si Si3 0.659414 0.825013 0.897607
Si Si4 0.063299 0.676707 0.034922
Si Si5 0.933986 0.823291 0.314647
Si Si6 0.737461 0.173450 0.317014
Si Si7 0.726852 0.825959 0.034544
Si Si8 0.755199 0.173825 0.675299
O O1 0.411542 0.766065 0.609198
O O2 0.404242 0.730560 0.743292
O O3 0.312462 0.792693 0.669753
O O4 0.391380 0.000000 0.693490
O O5 0.606368 0.778487 0.471102
O O6 0.684673 0.803164 0.371607
O O7 0.713113 0.725904 0.501556
O O8 0.682787 0.000000 0.476661
O O9 0.597722 0.750849 0.881917
O O10 0.705861 0.756145 0.844387
O O11 0.657034 0.000000 0.880994
O O12 0.675789 0.792624 0.978783
O O13 0.057741 0.500000 0.038846
O O14 0.000000 0.748143 0.021414
O O15 0.000000 0.770574 0.315978
O O16 0.928342 0.000000 0.320379
O O17 0.717901 0.243133 0.242959
O O18 0.752815 0.000000 0.307717
O O19 0.713063 0.736813 0.105946
O O20 0.731467 0.000000 0.052354
O O21 0.769073 0.000000 0.682080
#
# Coordination Sequence:
#
# PCOD8188541 Si02
#       8
#     8   8   8   8   8   8   8   8
#     4  10  19  31  47  67  96 132 168 201 230 275
#     4   9  17  31  47  68  95 124 159 199 240 281
#     4  10  20  34  50  70  94 125 163 202 242 290
#     4   9  16  28  47  68  91 123 162 196 227 269
#     4  11  23  35  48  69  98 132 168 204 242 285
#     4  10  19  30  48  69  95 126 157 199 246 287
#     4  10  20  32  49  71  96 124 158 199 245 291
#     4  11  20  31  49  72  98 127 161 196 237 293
#
# _framework density 16.287279000000002
#
# number of rings (size 3 to 8) (size 9 to 14) (size 15 to 20)
#    0.000    2.000    2.500    2.250    0.000    4.000 
#    0.000    0.000    0.000    0.375    0.000    0.875 
#    0.000    5.000    0.000    0.000    0.000    0.000 
#
# Total GULP energy -396819.154989 kJ/mol
# GULP energy per Si atom -12400.598593 kJ/mol
# Density = 1.625021 g / cm^3
# Si number density = 16.287279 Si / 1000 Ang^3
#
#
#
# Elastic Constant Matrix: (Units=GPa)
#
#
# Indices 1 2 3 4 5 6 
#
# 1 68.5111 29.3878 40.7024 0.0000 0.0000 0.0000
# 2 29.3878 70.0827 44.6277 0.0000 0.0000 0.0000
# 3 40.7024 44.6277 109.8780 0.0000 0.0000 0.0000
# 4 0.0000 0.0000 0.0000 27.7024 0.0000 0.0000
# 5 0.0000 0.0000 0.0000 0.0000 21.0807 0.0000
# 6 0.0000 0.0000 0.0000 0.0000 0.0000 16.9831
#
#
#
# Elastic Compliance Matrix: (Units=1/GPa)
#
#
# Indices 1 2 3 4 5 6 
#
# 1 0.019900 -0.004924 -0.005372 0.000000 0.000000 0.000000
# 2 -0.004924 0.020465 -0.006488 0.000000 0.000000 0.000000
# 3 -0.005372 -0.006488 0.013726 0.000000 0.000000 0.000000
# 4 0.000000 0.000000 0.000000 0.036098 0.000000 0.000000
# 5 0.000000 0.000000 0.000000 0.000000 0.047437 0.000000
# 6 0.000000 0.000000 0.000000 0.000000 0.000000 0.058882
#
#
# Mechanical properties :
#
#
# Convention : Reuss Voigt Hill
#
# Bulk Modulus (GPa) = 48.72456 53.10083 50.91269
# Shear Modulus (GPa) = 21.10455 22.07016 21.58735
#
# Velocity S-wave (km/s) = 3.60358 3.68510 3.64457
# Velocity P-wave (km/s) = 6.87714 7.12601 7.00268
#
# Compressibility (1/GPa) = 0.02052353
#
# Stress axis : x y z
#
# Youngs Moduli (GPa) = 50.25240 48.86368 72.85459
#
# Poissons Ratio (x) = 0.24060 0.39134
# Poissons Ratio (y) = 0.24744 0.47268
# Poissons Ratio (z) = 0.26993 0.31703
#
# Static dielectric constant tensor:
#      x y z
#    x 3.134100 0.000000 0.000000 
#    y 0.000000 3.067430 0.000000 
#    z 0.000000 0.000000 3.202210 
# 
# 
# High freq. dielectric constant tensor:
#      x y z
#    x 1.598330 0.000000 0.000000 
#    y 0.000000 1.628310 0.000000 
#    z 0.000000 0.000000 1.625980 
# 
# From -- ./inp_files/20867.got.cif
#   From: 2010.03.12/outbox.cif.g09.slc.cpg/sg44_11_cif.got.tgz:20867.got - 2010.04.14 02:36:11.
