data_PCOD8188076
_publ_section_title
;
Structure prediction by ZEFSAII (Michael W. Deem and Ramdas Pophale) SiO2 
 PCOD8188076
Probable space group: I M M 2
;
_chemical_formula_sum "Si O2"
_cell_formula_units_Z 64
_cell_length_a 8.982414
_cell_length_b 28.093511
_cell_length_c 14.620556
_cell_angle_alpha 90.000000
_cell_angle_beta 90.000000
_cell_angle_gamma 90.000000
_cell_volume 3689.461435
_symmetry_space_group_name_H-M "I M M 2"
_symmetry_group_IT_number 44
_symmetry_cell_setting 'orthorhombic'
loop_
_space_group_symop_operation_xyz
x,y,z
-x,-y,z
-x,y,z
x,-y,z
1/2+x,1/2+y,1/2+z
1/2-x,1/2-y,1/2+z
1/2-x,1/2+y,1/2+z
1/2+x,1/2-y,1/2+z
loop_
_atom_site_type_symbol
_atom_site_label
_atom_site_fract_x
_atom_site_fract_y
_atom_site_fract_z
Si Si1 0.325815 0.767949 0.818640
Si Si2 0.331717 0.668874 0.578372
Si Si3 0.170922 0.364390 0.945409
Si Si4 0.825421 0.858358 0.876301
Si Si5 0.823464 0.553632 0.070290
Si Si6 0.676254 0.177132 0.255221
Si Si7 0.327148 0.446512 0.258800
Si Si8 0.332750 0.763368 0.491735
O O1 0.500000 0.768716 0.796267
O O2 0.258792 0.821145 0.809640
O O3 0.244676 0.730243 0.752566
O O4 0.295183 0.751465 0.921787
O O5 0.500000 0.652119 0.597002
O O6 0.273894 0.646776 0.482305
O O7 0.230935 0.650644 0.662744
O O8 0.322089 0.727053 0.576370
O O9 0.236775 0.351661 0.844765
O O10 0.191284 0.319179 0.014955
O O11 0.000000 0.376942 0.930256
O O12 0.244947 0.410540 0.993426
O O13 0.785401 0.911264 0.841842
O O14 0.000000 0.847201 0.870035
O O15 0.774032 0.500000 0.044399
O O16 0.761533 0.568565 0.168633
O O17 0.000000 0.558352 0.075690
O O18 0.500000 0.180534 0.256064
O O19 0.500000 0.442782 0.234186
O O20 0.284162 0.500000 0.289994
O O21 0.500000 0.758239 0.447209
#
# Coordination Sequence:
#
# PCOD8188076 Si02
#       8
#     8   8   8   8   8   8   8   8
#     4  10  18  28  44  66  91 119 155 194 228 268
#     4   9  17  29  45  66  92 123 158 193 229 272
#     4   8  15  29  47  65  88 122 157 186 225 277
#     4   9  18  33  50  68  95 128 156 187 232 281
#     4   9  17  30  49  72  95 119 151 192 236 281
#     4  10  19  31  46  64  92 129 164 197 233 273
#     4   9  18  33  52  73  95 119 149 186 231 282
#     4   8  15  29  45  61  88 122 152 185 228 275
#
# _framework density 17.346706000000001
#
# number of rings (size 3 to 8) (size 9 to 14) (size 15 to 20)
#    0.000    3.000    0.000    3.000    0.000    3.500 
#    0.000    4.375    0.000    0.750    0.000    0.000 
#    0.000    0.000    0.000    0.000    0.000    0.250 
#
# Total GULP energy -396440.071001 kJ/mol
# GULP energy per Si atom -12388.752219 kJ/mol
# Density = 1.730722 g / cm^3
# Si number density = 17.346706 Si / 1000 Ang^3
#
#
#
# Elastic Constant Matrix: (Units=GPa)
#
#
# Indices 1 2 3 4 5 6 
#
# 1 49.8729 25.2118 28.8480 0.0000 0.0000 0.0000
# 2 25.2118 114.4424 65.3220 0.0001 0.0000 0.0000
# 3 28.8480 65.3220 104.5529 0.0005 0.0000 -0.0001
# 4 0.0000 0.0001 0.0005 24.9692 0.0000 0.0000
# 5 0.0000 0.0000 0.0000 0.0000 25.7408 0.0000
# 6 0.0000 0.0000 -0.0001 0.0000 0.0000 15.5704
#
#
#
# Elastic Compliance Matrix: (Units=1/GPa)
#
#
# Indices 1 2 3 4 5 6 
#
# 1 0.024265 -0.002369 -0.005215 0.000000 0.000000 0.000000
# 2 -0.002369 0.013813 -0.007976 0.000000 0.000000 0.000000
# 3 -0.005215 -0.007976 0.015987 0.000000 0.000000 0.000000
# 4 0.000000 0.000000 0.000000 0.040049 0.000000 0.000000
# 5 0.000000 0.000000 0.000000 0.000000 0.038849 0.000000
# 6 0.000000 0.000000 0.000000 0.000000 0.000000 0.064224
#
#
# Mechanical properties :
#
#
# Convention : Reuss Voigt Hill
#
# Bulk Modulus (GPa) = 43.58417 56.40352 49.99385
# Shear Modulus (GPa) = 21.19046 23.22184 22.20615
#
# Velocity S-wave (km/s) = 3.49891 3.66278 3.58178
# Velocity P-wave (km/s) = 6.44228 7.10450 6.78148
#
# Compressibility (1/GPa) = 0.02294411
#
# Stress axis : x y z
#
# Youngs Moduli (GPa) = 41.21142 72.39809 62.55191
#
# Poissons Ratio (x) = 0.17151 0.32622
# Poissons Ratio (y) = 0.09763 0.49892
# Poissons Ratio (z) = 0.21492 0.57745
#
# Static dielectric constant tensor:
#      x y z
#    x 3.039370 0.000000 0.000000 
#    y 0.000000 3.397270 0.000000 
#    z 0.000000 0.000000 3.181000 
# 
# 
# High freq. dielectric constant tensor:
#      x y z
#    x 1.652680 0.000000 0.000000 
#    y 0.000000 1.654500 0.000000 
#    z 0.000000 0.000000 1.654760 
# 
# From -- ./inp_files/17151.got.cif
#   From: 2010.03.12/outbox.cif.g09.slc.cpg/sg44_9_cif.got.tgz:17151.got - 2010.04.14 02:36:11.
