data_PCOD8188755
_publ_section_title
;
Structure prediction by ZEFSAII (Michael W. Deem and Ramdas Pophale) SiO2 
 PCOD8188755
Probable space group: I M M 2
;
_chemical_formula_sum "Si O2"
_cell_formula_units_Z 40
_cell_length_a 7.752787
_cell_length_b 8.953700
_cell_length_c 28.946763
_cell_angle_alpha 90.000000
_cell_angle_beta 90.000000
_cell_angle_gamma 90.000000
_cell_volume 2009.372233
_symmetry_space_group_name_H-M "I M M 2"
_symmetry_group_IT_number 44
_symmetry_cell_setting 'orthorhombic'
loop_
_space_group_symop_operation_xyz
x,y,z
-x,-y,z
-x,y,z
x,-y,z
1/2+x,1/2+y,1/2+z
1/2-x,1/2-y,1/2+z
1/2-x,1/2+y,1/2+z
1/2+x,1/2-y,1/2+z
loop_
_atom_site_type_symbol
_atom_site_label
_atom_site_fract_x
_atom_site_fract_y
_atom_site_fract_z
Si Si1 0.305652 0.327998 0.702750
Si Si2 0.500000 0.322733 0.148472
Si Si3 0.703303 0.670700 0.880704
Si Si4 0.692045 0.177475 0.481127
Si Si5 0.500000 0.322032 0.043627
Si Si6 0.196963 0.831666 0.790294
O O1 0.500000 0.308777 0.683233
O O2 0.248484 0.500000 0.702541
O O3 0.305736 0.269995 0.755382
O O4 0.174450 0.234874 0.671735
O O5 0.500000 0.500000 0.151787
O O6 0.500000 0.264170 0.095936
O O7 0.500000 0.683769 0.876263
O O8 0.764984 0.500000 0.874944
O O9 0.763076 0.736322 0.929980
O O10 0.792694 0.769220 0.841819
O O11 0.500000 0.230795 0.495375
O O12 0.829584 0.241530 0.517927
O O13 0.705282 0.000000 0.480548
O O14 0.500000 0.500000 0.042205
O O15 0.000000 0.829536 0.773364
O O16 0.270152 0.000000 0.789400
#
# Coordination Sequence:
#
# PCOD8188755 Si02
#       6
#     8   4   8   8   4   8
#     4  11  24  42  64  88 117 157 205 253 299 360
#     4  11  23  39  63  93 125 159 197 253 318 367
#     4  10  19  32  53  82 116 153 196 242 287 345
#     4   9  16  29  51  79 114 153 191 237 288 339
#     4   9  18  33  53  83 119 151 193 243 294 357
#     4  11  23  37  55  83 119 156 195 244 302 360
#
# _framework density 19.906717
#
# number of rings (size 3 to 8) (size 9 to 14) (size 15 to 20)
#    0.000    1.800    2.000    2.700    0.000    7.200 
#    0.000    2.000    0.000    2.400    0.000    2.800 
#    0.000    0.000    0.000    0.000    0.000    0.000 
#
# Total GULP energy -248038.911386 kJ/mol
# GULP energy per Si atom -12401.945569 kJ/mol
# Density = 1.986141 g / cm^3
# Si number density = 19.906717 Si / 1000 Ang^3
#
#
#
# Elastic Constant Matrix: (Units=GPa)
#
#
# Indices 1 2 3 4 5 6 
#
# 1 117.1205 35.4070 56.5493 0.0000 0.0000 0.0000
# 2 35.4070 81.4854 42.1179 0.0000 0.0000 0.0000
# 3 56.5493 42.1179 145.1110 0.0000 0.0000 0.0000
# 4 0.0000 0.0000 0.0000 21.2747 0.0000 0.0000
# 5 0.0000 0.0000 0.0000 0.0000 28.2081 0.0000
# 6 0.0000 0.0000 0.0000 0.0000 0.0000 17.3782
#
#
#
# Elastic Compliance Matrix: (Units=1/GPa)
#
#
# Indices 1 2 3 4 5 6 
#
# 1 0.011127 -0.003051 -0.003450 0.000000 0.000000 0.000000
# 2 -0.003051 0.015275 -0.003244 0.000000 0.000000 0.000000
# 3 -0.003450 -0.003244 0.009178 0.000000 0.000000 0.000000
# 4 0.000000 0.000000 0.000000 0.047004 0.000000 0.000000
# 5 0.000000 0.000000 0.000000 0.000000 0.035451 0.000000
# 6 0.000000 0.000000 0.000000 0.000000 0.000000 0.057543
#
#
# Mechanical properties :
#
#
# Convention : Reuss Voigt Hill
#
# Bulk Modulus (GPa) = 62.16229 67.98503 65.07366
# Shear Modulus (GPa) = 24.94609 27.34837 26.14723
#
# Velocity S-wave (km/s) = 3.54383 3.71054 3.62814
# Velocity P-wave (km/s) = 6.93105 7.25144 7.09306
#
# Compressibility (1/GPa) = 0.01608692
#
# Stress axis : x y z
#
# Youngs Moduli (GPa) = 89.87465 65.46670 108.96155
#
# Poissons Ratio (x) = 0.19976 0.37596
# Poissons Ratio (y) = 0.27424 0.35352
# Poissons Ratio (z) = 0.31010 0.21240
#
# Static dielectric constant tensor:
#      x y z
#    x 3.733630 0.000000 0.000000 
#    y 0.000000 3.324290 0.000000 
#    z 0.000000 0.000000 3.701580 
# 
# 
# High freq. dielectric constant tensor:
#      x y z
#    x 1.791840 0.000000 0.000000 
#    y 0.000000 1.742650 0.000000 
#    z 0.000000 0.000000 1.776120 
# 
# From -- ./inp_files/25947.got.cif
#   From: 2010.03.12/outbox.cif.g09.slc.cpg/sg44_13_cif.got.tgz:25947.got - 2010.04.14 02:36:11.
