data_PCOD8188440
_publ_section_title
;
Structure prediction by ZEFSAII (Michael W. Deem and Ramdas Pophale) SiO2 
 PCOD8188440
Probable space group: I M M 2
;
_chemical_formula_sum "Si O2"
_cell_formula_units_Z 64
_cell_length_a 26.339001
_cell_length_b 8.947287
_cell_length_c 18.075930
_cell_angle_alpha 90.000000
_cell_angle_beta 90.000000
_cell_angle_gamma 90.000000
_cell_volume 4259.820684
_symmetry_space_group_name_H-M "I M M 2"
_symmetry_group_IT_number 44
_symmetry_cell_setting 'orthorhombic'
loop_
_space_group_symop_operation_xyz
x,y,z
-x,-y,z
-x,y,z
x,-y,z
1/2+x,1/2+y,1/2+z
1/2-x,1/2-y,1/2+z
1/2-x,1/2+y,1/2+z
1/2+x,1/2-y,1/2+z
loop_
_atom_site_type_symbol
_atom_site_label
_atom_site_fract_x
_atom_site_fract_y
_atom_site_fract_z
Si Si1 0.197751 0.167492 0.737450
Si Si2 0.758229 0.326556 0.960008
Si Si3 0.557091 0.827757 0.604997
Si Si4 0.643752 0.825133 0.363203
Si Si5 0.296251 0.165660 0.838928
Si Si6 0.243026 0.823380 0.116206
Si Si7 0.348188 0.826141 0.697513
Si Si8 0.558868 0.326437 0.453593
O O1 0.154101 0.251265 0.783528
O O2 0.248301 0.164326 0.785330
O O3 0.209733 0.253876 0.661408
O O4 0.179208 0.000000 0.718888
O O5 0.754125 0.500000 0.980635
O O6 0.811653 0.287628 0.921407
O O7 0.711978 0.283683 0.904698
O O8 0.752575 0.226703 0.031902
O O9 0.500000 0.788991 0.631012
O O10 0.594204 0.791404 0.673296
O O11 0.573548 0.729283 0.535206
O O12 0.561731 0.000000 0.580432
O O13 0.591005 0.761311 0.392887
O O14 0.638742 0.000000 0.350675
O O15 0.343117 0.213092 0.785189
O O16 0.304820 0.000000 0.872752
O O17 0.188970 0.771682 0.147469
O O18 0.246724 0.000000 0.121711
O O19 0.333889 0.000000 0.684627
O O20 0.500000 0.294036 0.437053
O O21 0.572270 0.500000 0.448574
#
# Coordination Sequence:
#
# PCOD8188440 Si02
#       8
#     8   8   8   8   8   8   8   8
#     4   9  17  30  45  60  82 109 136 169 208 248
#     4  10  19  29  41  59  83 109 138 171 206 246
#     4   9  17  29  44  61  82 110 144 180 215 250
#     4  10  19  30  45  63  83 110 144 177 210 250
#     4   8  15  27  41  57  78 105 135 167 203 243
#     4  11  20  28  41  61  84 110 141 172 203 245
#     4   9  17  29  43  59  82 111 141 173 210 249
#     4  10  20  31  42  59  84 113 145 180 215 248
#
# _framework density 15.024106
#
# number of rings (size 3 to 8) (size 9 to 14) (size 15 to 20)
#    0.000    2.500    0.000    4.125    0.000    8.750 
#    0.000    0.000    0.000    0.000    0.000    0.000 
#    0.000    1.000    0.000    5.000    0.000    3.375 
#
# Total GULP energy -396761.115038 kJ/mol
# GULP energy per Si atom -12398.784845 kJ/mol
# Density = 1.498991 g / cm^3
# Si number density = 15.024106 Si / 1000 Ang^3
#
#
#
# Elastic Constant Matrix: (Units=GPa)
#
#
# Indices 1 2 3 4 5 6 
#
# 1 65.9028 35.2404 41.1496 0.0000 0.0000 0.0000
# 2 35.2404 94.6654 48.8958 0.0000 0.0000 0.0000
# 3 41.1496 48.8958 76.5012 0.0000 0.0000 0.0000
# 4 0.0000 0.0000 0.0000 27.2870 0.0000 0.0000
# 5 0.0000 0.0000 0.0000 0.0000 27.6440 0.0000
# 6 0.0000 0.0000 0.0000 0.0000 0.0000 18.6135
#
#
#
# Elastic Compliance Matrix: (Units=1/GPa)
#
#
# Indices 1 2 3 4 5 6 
#
# 1 0.023525 -0.003316 -0.010534 0.000000 0.000000 0.000000
# 2 -0.003316 0.016237 -0.008594 0.000000 0.000000 0.000000
# 3 -0.010534 -0.008594 0.024231 0.000000 0.000000 0.000000
# 4 0.000000 0.000000 0.000000 0.036648 0.000000 0.000000
# 5 0.000000 0.000000 0.000000 0.000000 0.036174 0.000000
# 6 0.000000 0.000000 0.000000 0.000000 0.000000 0.053725
#
#
# Mechanical properties :
#
#
# Convention : Reuss Voigt Hill
#
# Bulk Modulus (GPa) = 52.34657 54.18233 53.26445
# Shear Modulus (GPa) = 20.67860 22.16114 21.41987
#
# Velocity S-wave (km/s) = 3.71396 3.84479 3.77994
# Velocity P-wave (km/s) = 7.30128 7.47340 7.38784
#
# Compressibility (1/GPa) = 0.01910345
#
# Stress axis : x y z
#
# Youngs Moduli (GPa) = 42.50836 61.58779 41.26968
#
# Poissons Ratio (x) = 0.20425 0.43474
# Poissons Ratio (y) = 0.14097 0.35467
# Poissons Ratio (z) = 0.44779 0.52929
#
# Static dielectric constant tensor:
#      x y z
#    x 2.816070 0.000000 0.000000 
#    y 0.000000 3.013220 0.000000 
#    z 0.000000 0.000000 2.924290 
# 
# 
# High freq. dielectric constant tensor:
#      x y z
#    x 1.541560 0.000000 0.000000 
#    y 0.000000 1.588220 0.000000 
#    z 0.000000 0.000000 1.561900 
# 
# From -- ./inp_files/19692.got.cif
#   From: 2010.03.12/outbox.cif.g09.slc.cpg/sg44_10_cif.got.tgz:19692.got - 2010.04.14 02:36:11.
