data_PCOD8188996
_publ_section_title
;
Structure prediction by ZEFSAII (Michael W. Deem and Ramdas Pophale) SiO2 
 PCOD8188996
Probable space group: I M M 2
;
_chemical_formula_sum "Si O2"
_cell_formula_units_Z 56
_cell_length_a 19.334224
_cell_length_b 13.305539
_cell_length_c 12.182827
_cell_angle_alpha 90.000000
_cell_angle_beta 90.000000
_cell_angle_gamma 90.000000
_cell_volume 3134.059919
_symmetry_space_group_name_H-M "I M M 2"
_symmetry_group_IT_number 44
_symmetry_cell_setting 'orthorhombic'
loop_
_space_group_symop_operation_xyz
x,y,z
-x,-y,z
-x,y,z
x,-y,z
1/2+x,1/2+y,1/2+z
1/2-x,1/2-y,1/2+z
1/2-x,1/2+y,1/2+z
1/2+x,1/2-y,1/2+z
loop_
_atom_site_type_symbol
_atom_site_label
_atom_site_fract_x
_atom_site_fract_y
_atom_site_fract_z
Si Si1 0.920644 0.114416 0.470100
Si Si2 0.116793 0.886144 0.226563
Si Si3 0.205894 0.382815 0.020504
Si Si4 0.331001 0.297464 0.147187
Si Si5 0.077508 0.252581 0.033679
Si Si6 0.421125 0.386064 0.331855
Si Si7 0.225027 0.614261 0.768588
O O1 0.911330 0.145951 0.344861
O O2 0.879236 0.197274 0.539893
O O3 0.000000 0.118304 0.505569
O O4 0.891377 0.000000 0.488479
O O5 0.079451 0.814124 0.142000
O O6 0.199121 0.874925 0.218270
O O7 0.094305 0.000000 0.200765
O O8 0.209153 0.500000 0.040378
O O9 0.254741 0.332131 0.111680
O O10 0.127970 0.347156 0.042330
O O11 0.228663 0.354574 0.896650
O O12 0.366488 0.371514 0.234463
O O13 0.326535 0.185818 0.199355
O O14 0.000000 0.294123 0.017652
O O15 0.100884 0.184773 0.931532
O O16 0.500000 0.363055 0.292523
O O17 0.415314 0.500000 0.373498
O O18 0.197249 0.500000 0.757155
#
# Coordination Sequence:
#
# PCOD8188996 Si02
#       7
#     8   8   8   8   8   8   8
#     4  10  20  33  55  87 116 143 178 226 281 333
#     4  10  19  35  57  82 112 146 184 227 277 333
#     4  11  22  38  57  80 109 147 189 228 269 328
#     4  12  20  35  61  82 111 143 181 224 286 332
#     4  11  22  36  55  80 112 153 189 226 274 325
#     4  10  21  35  53  84 119 145 177 229 286 333
#     4  10  21  37  57  81 112 144 183 230 273 325
#
# _framework density 17.868196999999999
#
# number of rings (size 3 to 8) (size 9 to 14) (size 15 to 20)
#    0.000    1.429    4.286    2.571    0.000    2.857 
#    0.000    0.000    0.000    2.571    0.000    0.000 
#    0.000    0.000    0.000    0.000    0.000    0.000 
#
# Total GULP energy -347225.149613 kJ/mol
# GULP energy per Si atom -12400.898200 kJ/mol
# Density = 1.782753 g / cm^3
# Si number density = 17.868197 Si / 1000 Ang^3
#
#
#
# Elastic Constant Matrix: (Units=GPa)
#
#
# Indices 1 2 3 4 5 6 
#
# 1 82.9186 30.6963 29.2576 0.0000 0.0000 0.0000
# 2 30.6963 70.8817 35.2519 0.0000 0.0000 0.0000
# 3 29.2576 35.2519 87.7532 0.0000 0.0000 0.0000
# 4 0.0000 0.0000 0.0000 30.9860 0.0000 0.0000
# 5 0.0000 0.0000 0.0000 0.0000 23.4977 0.0000
# 6 0.0000 0.0000 0.0000 0.0000 0.0000 17.7539
#
#
#
# Elastic Compliance Matrix: (Units=1/GPa)
#
#
# Indices 1 2 3 4 5 6 
#
# 1 0.014962 -0.004997 -0.002981 0.000000 0.000000 0.000000
# 2 -0.004997 0.019299 -0.006087 0.000000 0.000000 0.000000
# 3 -0.002981 -0.006087 0.014835 0.000000 0.000000 0.000000
# 4 0.000000 0.000000 0.000000 0.032273 0.000000 0.000000
# 5 0.000000 0.000000 0.000000 0.000000 0.042557 0.000000
# 6 0.000000 0.000000 0.000000 0.000000 0.000000 0.056326
#
#
# Mechanical properties :
#
#
# Convention : Reuss Voigt Hill
#
# Bulk Modulus (GPa) = 47.69585 47.99613 47.84599
# Shear Modulus (GPa) = 23.21594 24.20402 23.70998
#
# Velocity S-wave (km/s) = 3.60847 3.68446 3.64667
# Velocity P-wave (km/s) = 6.64173 6.70969 6.67579
#
# Compressibility (1/GPa) = 0.02096618
#
# Stress axis : x y z
#
# Youngs Moduli (GPa) = 66.83747 51.81583 67.40967
#
# Poissons Ratio (x) = 0.25891 0.20095
# Poissons Ratio (y) = 0.33397 0.41031
# Poissons Ratio (z) = 0.19925 0.31539
#
# Static dielectric constant tensor:
#      x y z
#    x 3.357550 0.000000 0.000000 
#    y 0.000000 3.171450 0.000000 
#    z 0.000000 0.000000 3.366510 
# 
# 
# High freq. dielectric constant tensor:
#      x y z
#    x 1.695960 0.000000 0.000000 
#    y 0.000000 1.669560 0.000000 
#    z 0.000000 0.000000 1.698720 
# 
# From -- ./inp_files/12429.got.cif
#   From: 2010.03.12/outbox.cif.g09.slc.cpg/sg44_7_cif.got.tgz:12429.got - 2010.04.14 02:36:11.
