data_PCOD8188782
_publ_section_title
;
Structure prediction by ZEFSAII (Michael W. Deem and Ramdas Pophale) SiO2 
 PCOD8188782
Probable space group: I M M 2
;
_chemical_formula_sum "Si O2"
_cell_formula_units_Z 48
_cell_length_a 8.816011
_cell_length_b 18.386660
_cell_length_c 15.003306
_cell_angle_alpha 90.000000
_cell_angle_beta 90.000000
_cell_angle_gamma 90.000000
_cell_volume 2431.990845
_symmetry_space_group_name_H-M "I M M 2"
_symmetry_group_IT_number 44
_symmetry_cell_setting 'orthorhombic'
loop_
_space_group_symop_operation_xyz
x,y,z
-x,-y,z
-x,y,z
x,-y,z
1/2+x,1/2+y,1/2+z
1/2-x,1/2-y,1/2+z
1/2-x,1/2+y,1/2+z
1/2+x,1/2-y,1/2+z
loop_
_atom_site_type_symbol
_atom_site_label
_atom_site_fract_x
_atom_site_fract_y
_atom_site_fract_z
Si Si1 0.670387 0.107070 0.306090
Si Si2 0.326058 0.269502 0.256012
Si Si3 0.322391 0.500000 0.469043
Si Si4 0.179588 0.349435 0.413248
Si Si5 0.322358 0.577899 0.981705
Si Si6 0.826978 0.500000 0.652988
Si Si7 0.180793 0.228344 0.554084
O O1 0.500000 0.085631 0.335240
O O2 0.690303 0.192641 0.303054
O O3 0.786563 0.075389 0.377089
O O4 0.704255 0.072379 0.210037
O O5 0.500000 0.296742 0.254613
O O6 0.226217 0.324767 0.313902
O O7 0.263423 0.260945 0.155355
O O8 0.500000 0.500000 0.449934
O O9 0.250507 0.428284 0.426535
O O10 0.291986 0.500000 0.573922
O O11 0.241240 0.292572 0.488821
O O12 0.000000 0.355645 0.419370
O O13 0.500000 0.583461 0.994737
O O14 0.265866 0.500000 0.023341
O O15 0.248673 0.649780 0.025581
O O16 0.000000 0.500000 0.615907
O O17 0.000000 0.228381 0.548213
#
# Coordination Sequence:
#
# PCOD8188782 Si02
#       7
#     8   8   4   8   8   4   8
#     4  10  19  32  55  83 117 154 190 236 295 356
#     4  10  20  36  58  86 116 152 201 249 294 349
#     4  12  26  42  60  87 118 151 196 253 304 350
#     4  11  22  41  65  86 118 161 201 245 297 357
#     4  10  19  33  55  83 116 152 196 242 288 347
#     4  10  20  36  58  87 120 159 196 235 296 364
#     4   9  19  37  60  85 117 159 200 241 294 354
#
# _framework density 19.736915
#
# number of rings (size 3 to 8) (size 9 to 14) (size 15 to 20)
#    0.000    1.833    2.500    2.250    0.000    3.333 
#    1.500    4.167    0.000    0.000    0.000    0.000 
#    0.000    0.000    0.000    0.000    0.000    0.000 
#
# Total GULP energy -297503.441013 kJ/mol
# GULP energy per Si atom -12395.976709 kJ/mol
# Density = 1.969199 g / cm^3
# Si number density = 19.736915 Si / 1000 Ang^3
#
#
#
# Elastic Constant Matrix: (Units=GPa)
#
#
# Indices 1 2 3 4 5 6 
#
# 1 44.9554 37.6336 21.3698 0.0000 0.0000 0.0000
# 2 37.6336 152.1163 45.1659 -0.0001 0.0000 0.0000
# 3 21.3698 45.1659 93.8657 -0.0002 0.0000 0.0000
# 4 0.0000 -0.0001 -0.0002 26.5261 0.0000 0.0000
# 5 0.0000 0.0000 0.0000 0.0000 29.3538 0.0000
# 6 0.0000 0.0000 0.0000 0.0000 0.0000 22.7071
#
#
#
# Elastic Compliance Matrix: (Units=1/GPa)
#
#
# Indices 1 2 3 4 5 6 
#
# 1 0.029110 -0.006106 -0.003689 0.000000 0.000000 0.000000
# 2 -0.006106 0.008951 -0.002917 0.000000 0.000000 0.000000
# 3 -0.003689 -0.002917 0.012897 0.000000 0.000000 0.000000
# 4 0.000000 0.000000 0.000000 0.037699 0.000000 0.000000
# 5 0.000000 0.000000 0.000000 0.000000 0.034067 0.000000
# 6 0.000000 0.000000 0.000000 0.000000 0.000000 0.044039
#
#
# Mechanical properties :
#
#
# Convention : Reuss Voigt Hill
#
# Bulk Modulus (GPa) = 39.16484 55.47512 47.31998
# Shear Modulus (GPa) = 24.91316 28.16861 26.54088
#
# Velocity S-wave (km/s) = 3.55669 3.78193 3.67104
# Velocity P-wave (km/s) = 6.06244 6.87306 6.48044
#
# Compressibility (1/GPa) = 0.02553311
#
# Stress axis : x y z
#
# Youngs Moduli (GPa) = 34.35277 111.72382 77.53881
#
# Poissons Ratio (x) = 0.68223 0.28604
# Poissons Ratio (y) = 0.20977 0.22615
# Poissons Ratio (z) = 0.12673 0.32586
#
# Static dielectric constant tensor:
#      x y z
#    x 3.335170 0.000000 0.000000 
#    y 0.000000 4.157150 0.000000 
#    z 0.000000 0.000000 3.531830 
# 
# 
# High freq. dielectric constant tensor:
#      x y z
#    x 1.738360 0.000000 0.000000 
#    y 0.000000 1.789810 0.000000 
#    z 0.000000 0.000000 1.760050 
# 
# From -- ./inp_files/16121.got.cif
#   From: 2010.03.12/outbox.cif.g09.slc.cpg/sg44_9_cif.got.tgz:16121.got - 2010.04.14 02:36:11.
