data_PCOD8188626
_publ_section_title
;
Structure prediction by ZEFSAII (Michael W. Deem and Ramdas Pophale) SiO2 
 PCOD8188626
Probable space group: I M M 2
;
_chemical_formula_sum "Si O2"
_cell_formula_units_Z 64
_cell_length_a 27.065422
_cell_length_b 8.954894
_cell_length_c 14.597671
_cell_angle_alpha 90.000000
_cell_angle_beta 90.000000
_cell_angle_gamma 90.000000
_cell_volume 3538.008107
_symmetry_space_group_name_H-M "I M M 2"
_symmetry_group_IT_number 44
_symmetry_cell_setting 'orthorhombic'
loop_
_space_group_symop_operation_xyz
x,y,z
-x,-y,z
-x,y,z
x,-y,z
1/2+x,1/2+y,1/2+z
1/2-x,1/2-y,1/2+z
1/2-x,1/2+y,1/2+z
1/2+x,1/2-y,1/2+z
loop_
_atom_site_type_symbol
_atom_site_label
_atom_site_fract_x
_atom_site_fract_y
_atom_site_fract_z
Si Si1 0.364808 0.825124 0.453610
Si Si2 0.557227 0.326167 0.572915
Si Si3 0.168017 0.672666 0.563118
Si Si4 0.229317 0.335015 0.313618
Si Si5 0.177970 0.672462 0.761487
Si Si6 0.557794 0.173322 0.761337
Si Si7 0.273368 0.336438 0.513495
Si Si8 0.135425 0.176929 0.383083
O O1 0.413090 0.737235 0.486194
O O2 0.354674 0.774668 0.348358
O O3 0.318307 0.780888 0.518459
O O4 0.374421 0.000000 0.462504
O O5 0.500000 0.295537 0.552308
O O6 0.568410 0.500000 0.586164
O O7 0.574598 0.241513 0.664385
O O8 0.162911 0.500000 0.531668
O O9 0.147163 0.697330 0.666605
O O10 0.226174 0.716504 0.572190
O O11 0.139791 0.773501 0.489368
O O12 0.216206 0.500000 0.275333
O O13 0.270067 0.257720 0.249960
O O14 0.253478 0.348309 0.411739
O O15 0.179641 0.237510 0.319406
O O16 0.191604 0.500000 0.775757
O O17 0.500000 0.198715 0.777042
O O18 0.584511 0.258406 0.844085
O O19 0.572266 0.000000 0.762510
O O20 0.292531 0.500000 0.545861
O O21 0.135071 0.000000 0.379042
#
# Coordination Sequence:
#
# PCOD8188626 Si02
#       8
#     8   8   8   8   8   8   8   8
#     4  10  19  31  50  75 103 135 170 210 254 303
#     4  10  21  37  56  77 101 129 162 204 256 311
#     4   9  18  33  51  72 103 141 178 213 249 291
#     4   9  17  30  47  68  98 134 171 209 247 291
#     4   9  18  32  50  74 105 140 177 216 255 296
#     4  10  21  38  59  80 101 126 160 205 256 309
#     4   8  15  28  45  65  93 131 170 208 247 287
#     4  11  21  33  52  77 106 137 170 209 252 303
#
# _framework density 18.089274
#
# number of rings (size 3 to 8) (size 9 to 14) (size 15 to 20)
#    0.000    2.500    0.000    3.375    0.000    6.500 
#    0.000    3.750    0.000    0.750    0.000    1.750 
#    0.000    0.000    0.000    0.000    0.000    0.000 
#
# Total GULP energy -396678.759833 kJ/mol
# GULP energy per Si atom -12396.211245 kJ/mol
# Density = 1.804810 g / cm^3
# Si number density = 18.089274 Si / 1000 Ang^3
#
#
#
# Elastic Constant Matrix: (Units=GPa)
#
#
# Indices 1 2 3 4 5 6 
#
# 1 73.4042 51.1052 46.9548 0.0000 0.0000 0.0000
# 2 51.1052 120.0625 53.0044 0.0000 0.0000 0.0000
# 3 46.9548 53.0044 97.7454 0.0000 0.0000 0.0000
# 4 0.0000 0.0000 0.0000 23.8734 0.0000 0.0000
# 5 0.0000 0.0000 0.0000 0.0000 24.6894 0.0000
# 6 0.0000 0.0000 0.0000 0.0000 0.0000 29.3660
#
#
#
# Elastic Compliance Matrix: (Units=1/GPa)
#
#
# Indices 1 2 3 4 5 6 
#
# 1 0.022911 -0.006433 -0.007517 0.000000 0.000000 0.000000
# 2 -0.006433 0.012757 -0.003827 0.000000 0.000000 0.000000
# 3 -0.007517 -0.003827 0.015917 0.000000 0.000000 0.000000
# 4 0.000000 0.000000 0.000000 0.041888 0.000000 0.000000
# 5 0.000000 0.000000 0.000000 0.000000 0.040503 0.000000
# 6 0.000000 0.000000 0.000000 0.000000 0.000000 0.034053
#
#
# Mechanical properties :
#
#
# Convention : Reuss Voigt Hill
#
# Bulk Modulus (GPa) = 62.38615 65.92677 64.15646
# Shear Modulus (GPa) = 23.93172 24.92896 24.43034
#
# Velocity S-wave (km/s) = 3.64122 3.71631 3.67896
# Velocity P-wave (km/s) = 7.22778 7.41208 7.32051
#
# Compressibility (1/GPa) = 0.01602920
#
# Stress axis : x y z
#
# Youngs Moduli (GPa) = 43.64750 78.38788 62.82520
#
# Poissons Ratio (x) = 0.50430 0.47227
# Poissons Ratio (y) = 0.28080 0.24045
# Poissons Ratio (z) = 0.32811 0.30001
#
# Static dielectric constant tensor:
#      x y z
#    x 3.228210 0.000000 0.000000 
#    y 0.000000 3.502300 0.000000 
#    z 0.000000 0.000000 3.406370 
# 
# 
# High freq. dielectric constant tensor:
#      x y z
#    x 1.673580 0.000000 0.000000 
#    y 0.000000 1.708990 0.000000 
#    z 0.000000 0.000000 1.694740 
# 
# From -- ./inp_files/19506.got.cif
#   From: 2010.03.12/outbox.cif.g09.slc.cpg/sg44_10_cif.got.tgz:19506.got - 2010.04.14 02:36:11.
