data_PCOD8188455
_publ_section_title
;
Structure prediction by ZEFSAII (Michael W. Deem and Ramdas Pophale) SiO2 
 PCOD8188455
Probable space group: I M M 2
;
_chemical_formula_sum "Si O2"
_cell_formula_units_Z 56
_cell_length_a 13.696656
_cell_length_b 9.177009
_cell_length_c 29.082045
_cell_angle_alpha 90.000000
_cell_angle_beta 90.000000
_cell_angle_gamma 90.000000
_cell_volume 3655.448318
_symmetry_space_group_name_H-M "I M M 2"
_symmetry_group_IT_number 44
_symmetry_cell_setting 'orthorhombic'
loop_
_space_group_symop_operation_xyz
x,y,z
-x,-y,z
-x,y,z
x,-y,z
1/2+x,1/2+y,1/2+z
1/2-x,1/2-y,1/2+z
1/2-x,1/2+y,1/2+z
1/2+x,1/2-y,1/2+z
loop_
_atom_site_type_symbol
_atom_site_label
_atom_site_fract_x
_atom_site_fract_y
_atom_site_fract_z
Si Si1 0.116131 0.835602 0.651840
Si Si2 0.385680 0.830189 0.241441
Si Si3 0.388674 0.171766 0.427601
Si Si4 0.610141 0.669178 0.887511
Si Si5 0.704565 0.830048 0.334033
Si Si6 0.786078 0.328246 0.468274
Si Si7 0.887937 0.669116 0.562709
O O1 0.155499 0.753047 0.696894
O O2 0.155228 0.757779 0.605870
O O3 0.000000 0.829017 0.651882
O O4 0.155594 0.000000 0.652606
O O5 0.500000 0.802325 0.249162
O O6 0.329299 0.761432 0.285619
O O7 0.363410 0.000000 0.234060
O O8 0.500000 0.211709 0.438595
O O9 0.361685 0.227073 0.376293
O O10 0.320630 0.256376 0.463662
O O11 0.368542 0.000000 0.432116
O O12 0.500000 0.705854 0.872108
O O13 0.622325 0.500000 0.901207
O O14 0.681924 0.706398 0.844813
O O15 0.637862 0.763729 0.931668
O O16 0.685277 0.000000 0.329031
O O17 0.779079 0.500000 0.460336
O O18 0.824418 0.288744 0.518654
O O19 0.879233 0.500000 0.575043
O O20 0.000000 0.711600 0.552449
#
# Coordination Sequence:
#
# PCOD8188455 Si02
#       7
#     8   8   8   8   8   8   8
#     4   9  17  27  39  58  83 107 132 167 210 252
#     4   9  15  24  40  59  80 108 138 167 203 249
#     4   9  17  30  46  63  86 115 146 178 208 243
#     4   9  17  29  44  62  86 115 146 179 211 246
#     4   8  14  25  42  63  83 108 144 176 202 239
#     4  10  19  29  43  64  88 113 142 176 213 252
#     4   9  17  29  43  59  82 112 142 170 204 249
#
# _framework density 15.319599
#
# number of rings (size 3 to 8) (size 9 to 14) (size 15 to 20)
#    0.000    3.000    0.000    2.571    0.000    5.714 
#    0.000    4.286    0.000    3.429    0.000    1.000 
#    0.000    5.714    0.000    0.000    0.000    0.000 
#
# Total GULP energy -347116.790873 kJ/mol
# GULP energy per Si atom -12397.028245 kJ/mol
# Density = 1.528473 g / cm^3
# Si number density = 15.319599 Si / 1000 Ang^3
#
#
#
# Elastic Constant Matrix: (Units=GPa)
#
#
# Indices 1 2 3 4 5 6 
#
# 1 93.3945 37.3561 57.7438 0.0000 0.0000 0.0000
# 2 37.3561 62.2772 58.9422 0.0000 0.0000 0.0000
# 3 57.7438 58.9422 140.0681 0.0000 0.0000 0.0000
# 4 0.0000 0.0000 0.0000 23.7261 0.0000 0.0000
# 5 0.0000 0.0000 0.0000 0.0000 22.5305 0.0000
# 6 0.0000 0.0000 0.0000 0.0000 0.0000 16.7960
#
#
#
# Elastic Compliance Matrix: (Units=1/GPa)
#
#
# Indices 1 2 3 4 5 6 
#
# 1 0.015375 -0.005357 -0.004084 0.000000 0.000000 0.000000
# 2 -0.005357 0.028552 -0.009806 0.000000 0.000000 0.000000
# 3 -0.004084 -0.009806 0.012950 0.000000 0.000000 0.000000
# 4 0.000000 0.000000 0.000000 0.042148 0.000000 0.000000
# 5 0.000000 0.000000 0.000000 0.000000 0.044384 0.000000
# 6 0.000000 0.000000 0.000000 0.000000 0.000000 0.059538
#
#
# Mechanical properties :
#
#
# Convention : Reuss Voigt Hill
#
# Bulk Modulus (GPa) = 54.40285 67.09155 60.74720
# Shear Modulus (GPa) = 20.19637 22.05705 21.12671
#
# Velocity S-wave (km/s) = 3.63483 3.79858 3.71760
# Velocity P-wave (km/s) = 7.29417 7.94535 7.62671
#
# Compressibility (1/GPa) = 0.01838139
#
# Stress axis : x y z
#
# Youngs Moduli (GPa) = 65.03994 35.02390 77.22152
#
# Poissons Ratio (x) = 0.18763 0.31539
# Poissons Ratio (y) = 0.34843 0.75727
# Poissons Ratio (z) = 0.26563 0.34346
#
# Static dielectric constant tensor:
#      x y z
#    x 2.841540 0.000000 0.000000 
#    y 0.000000 2.863620 0.000000 
#    z 0.000000 0.000000 3.023110 
# 
# 
# High freq. dielectric constant tensor:
#      x y z
#    x 1.559650 0.000000 0.000000 
#    y 0.000000 1.578040 0.000000 
#    z 0.000000 0.000000 1.583610 
# 
# From -- ./inp_files/27205.got.cif
#   From: 2010.03.12/outbox.cif.g09.slc.cpg/sg44_14_cif.got.tgz:27205.got - 2010.04.14 02:36:11.
