data_PCOD8188093
_publ_section_title
;
Structure prediction by ZEFSAII (Michael W. Deem and Ramdas Pophale) SiO2 
 PCOD8188093
Probable space group: I M M 2
;
_chemical_formula_sum "Si O2"
_cell_formula_units_Z 64
_cell_length_a 14.559223
_cell_length_b 9.411004
_cell_length_c 27.971024
_cell_angle_alpha 90.000000
_cell_angle_beta 90.000000
_cell_angle_gamma 90.000000
_cell_volume 3832.503163
_symmetry_space_group_name_H-M "I M M 2"
_symmetry_group_IT_number 44
_symmetry_cell_setting 'orthorhombic'
loop_
_space_group_symop_operation_xyz
x,y,z
-x,-y,z
-x,y,z
x,-y,z
1/2+x,1/2+y,1/2+z
1/2-x,1/2-y,1/2+z
1/2-x,1/2+y,1/2+z
1/2+x,1/2-y,1/2+z
loop_
_atom_site_type_symbol
_atom_site_label
_atom_site_fract_x
_atom_site_fract_y
_atom_site_fract_z
Si Si1 0.209570 0.168024 0.836540
Si Si2 0.893774 0.164744 0.930128
Si Si3 0.395235 0.834365 0.146813
Si Si4 0.606408 0.161934 0.256608
Si Si5 0.899969 0.668218 0.301889
Si Si6 0.101841 0.331384 0.195367
Si Si7 0.394798 0.834385 0.523484
Si Si8 0.769394 0.668256 0.112303
O O1 0.164569 0.223711 0.885404
O O2 0.163244 0.235257 0.790368
O O3 0.317585 0.212648 0.837355
O O4 0.196356 0.000000 0.831641
O O5 0.000000 0.191591 0.918005
O O6 0.873239 0.000000 0.939656
O O7 0.862706 0.250360 0.976630
O O8 0.500000 0.797660 0.132998
O O9 0.376721 0.792259 0.201865
O O10 0.329507 0.744015 0.111956
O O11 0.375897 0.000000 0.138846
O O12 0.500000 0.178163 0.269678
O O13 0.638250 0.000000 0.264769
O O14 0.906416 0.500000 0.298527
O O15 0.877148 0.726366 0.248651
O O16 0.000000 0.727181 0.319383
O O17 0.106862 0.500000 0.193775
O O18 0.175615 0.270567 0.158130
O O19 0.000000 0.281714 0.179674
O O20 0.500000 0.796104 0.537378
O O21 0.327385 0.787622 0.565823
O O22 0.385746 0.000000 0.512192
O O23 0.754764 0.500000 0.114417
#
# Coordination Sequence:
#
# PCOD8188093 Si02
#       8
#     8   8   8   8   8   8   8   8
#     4  10  18  28  46  70  92 117 154 197 233 264
#     4   9  18  31  45  64  91 119 148 187 234 278
#     4   9  19  34  47  62  91 128 158 184 220 268
#     4   9  18  31  45  64  93 126 155 183 221 272
#     4   8  14  24  39  62  91 119 145 176 217 262
#     4   8  13  22  38  63  94 120 140 170 217 269
#     4   9  18  32  49  70  95 120 147 182 226 277
#     4  10  18  28  47  72  91 112 149 192 228 263
#
# _framework density 16.699268
#
# number of rings (size 3 to 8) (size 9 to 14) (size 15 to 20)
#    0.000    3.000    0.000    3.000    0.000    5.000 
#    0.000    2.500    0.000    2.250    0.000    7.000 
#    0.000    0.000    0.000    0.000    0.000    0.000 
#
# Total GULP energy -396662.525735 kJ/mol
# GULP energy per Si atom -12395.703929 kJ/mol
# Density = 1.666126 g / cm^3
# Si number density = 16.699268 Si / 1000 Ang^3
#
#
#
# Elastic Constant Matrix: (Units=GPa)
#
#
# Indices 1 2 3 4 5 6 
#
# 1 119.4537 37.0968 74.3607 0.0000 0.0000 0.0000
# 2 37.0968 32.0917 34.3486 0.0000 0.0000 0.0000
# 3 74.3607 34.3486 94.5724 0.0000 0.0000 0.0000
# 4 0.0000 0.0000 0.0000 25.6433 0.0000 0.0000
# 5 0.0000 0.0000 0.0000 0.0000 29.5986 0.0000
# 6 0.0000 0.0000 0.0000 0.0000 0.0000 18.5962
#
#
#
# Elastic Compliance Matrix: (Units=1/GPa)
#
#
# Indices 1 2 3 4 5 6 
#
# 1 0.017922 -0.009218 -0.010744 0.000000 0.000000 0.000000
# 2 -0.009218 0.055719 -0.012989 0.000000 0.000000 0.000000
# 3 -0.010744 -0.012989 0.023739 0.000000 0.000000 0.000000
# 4 0.000000 0.000000 0.000000 0.038997 0.000000 0.000000
# 5 0.000000 0.000000 0.000000 0.000000 0.033785 0.000000
# 6 0.000000 0.000000 0.000000 0.000000 0.000000 0.053774
#
#
# Mechanical properties :
#
#
# Convention : Reuss Voigt Hill
#
# Bulk Modulus (GPa) = 31.76783 59.74775 45.75779
# Shear Modulus (GPa) = 16.64824 21.45508 19.05166
#
# Velocity S-wave (km/s) = 3.16087 3.58829 3.38134
# Velocity P-wave (km/s) = 5.69089 7.28176 6.53492
#
# Compressibility (1/GPa) = 0.03147838
#
# Stress axis : x y z
#
# Youngs Moduli (GPa) = 55.79617 17.94726 42.12389
#
# Poissons Ratio (x) = 0.16544 0.45259
# Poissons Ratio (y) = 0.51432 0.54715
# Poissons Ratio (z) = 0.59948 0.23312
#
# Static dielectric constant tensor:
#      x y z
#    x 3.363620 0.000000 0.000000 
#    y 0.000000 2.816140 0.000000 
#    z 0.000000 0.000000 3.068160 
# 
# 
# High freq. dielectric constant tensor:
#      x y z
#    x 1.647990 0.000000 0.000000 
#    y 0.000000 1.613640 0.000000 
#    z 0.000000 0.000000 1.625350 
# 
# From -- ./inp_files/25182.got.cif
#   From: 2010.03.12/outbox.cif.g09.slc.cpg/sg44_13_cif.got.tgz:25182.got - 2010.04.14 02:36:11.
