data_PCOD8188548
_publ_section_title
;
Structure prediction by ZEFSAII (Michael W. Deem and Ramdas Pophale) SiO2 
 PCOD8188548
Probable space group: I M M 2
;
_chemical_formula_sum "Si O2"
_cell_formula_units_Z 64
_cell_length_a 28.603381
_cell_length_b 9.126581
_cell_length_c 14.155249
_cell_angle_alpha 90.000000
_cell_angle_beta 90.000000
_cell_angle_gamma 90.000000
_cell_volume 3695.242948
_symmetry_space_group_name_H-M "I M M 2"
_symmetry_group_IT_number 44
_symmetry_cell_setting 'orthorhombic'
loop_
_space_group_symop_operation_xyz
x,y,z
-x,-y,z
-x,y,z
x,-y,z
1/2+x,1/2+y,1/2+z
1/2-x,1/2-y,1/2+z
1/2-x,1/2+y,1/2+z
1/2+x,1/2-y,1/2+z
loop_
_atom_site_type_symbol
_atom_site_label
_atom_site_fract_x
_atom_site_fract_y
_atom_site_fract_z
Si Si1 0.623662 0.674622 0.107080
Si Si2 0.804295 0.329092 0.476894
Si Si3 0.124430 0.666838 0.315369
Si Si4 0.199261 0.173987 0.968559
Si Si5 0.553949 0.170903 0.975957
Si Si6 0.625998 0.326971 0.619762
Si Si7 0.947988 0.174353 0.970212
Si Si8 0.374512 0.674074 0.320787
O O1 0.623849 0.500000 0.100611
O O2 0.624621 0.733428 0.214424
O O3 0.669552 0.737381 0.057003
O O4 0.576390 0.735180 0.060005
O O5 0.805586 0.500000 0.505515
O O6 0.828899 0.305559 0.376089
O O7 0.751930 0.264846 0.469465
O O8 0.121183 0.500000 0.281614
O O9 0.079190 0.709855 0.377484
O O10 0.126239 0.766496 0.224366
O O11 0.171763 0.231947 0.875658
O O12 0.200657 0.000000 0.965111
O O13 0.171999 0.226623 0.062727
O O14 0.500000 0.213878 0.966395
O O15 0.561427 0.000000 0.999530
O O16 0.626050 0.500000 0.626878
O O17 0.579822 0.273012 0.563629
O O18 0.920650 0.229351 0.876674
O O19 0.000000 0.243042 0.971104
O O20 0.950528 0.000000 0.969351
O O21 0.373982 0.500000 0.320628
#
# Coordination Sequence:
#
# PCOD8188548 Si02
#       8
#     8   8   8   8   8   8   8   8
#     4  10  19  30  48  75 100 118 146 195 244 275
#     4   9  18  33  50  65  88 127 165 190 223 279
#     4   9  18  31  47  67  90 119 154 189 227 273
#     4   8  15  30  49  67  90 123 161 194 226 275
#     4   9  19  36  53  67  90 128 165 189 219 274
#     4   9  17  29  47  70  93 118 151 192 234 272
#     4   8  14  26  44  66  92 120 149 181 222 277
#     4   8  15  27  44  68  95 121 151 190 233 275
#
# _framework density 17.319565999999998
#
# number of rings (size 3 to 8) (size 9 to 14) (size 15 to 20)
#    0.000    3.250    0.000    2.625    0.000    4.250 
#    0.000    3.125    0.000    7.500    0.000    0.000 
#    0.000    0.000    0.000    0.000    0.000    0.000 
#
# Total GULP energy -396660.887064 kJ/mol
# GULP energy per Si atom -12395.652721 kJ/mol
# Density = 1.728015 g / cm^3
# Si number density = 17.319566 Si / 1000 Ang^3
#
#
#
# Elastic Constant Matrix: (Units=GPa)
#
#
# Indices 1 2 3 4 5 6 
#
# 1 176.7661 29.3497 77.3771 0.0000 0.0000 0.0000
# 2 29.3497 31.8121 37.7995 0.0000 0.0000 0.0000
# 3 77.3771 37.7995 149.8406 0.0000 0.0000 0.0000
# 4 0.0000 0.0000 0.0000 15.1766 0.0000 0.0000
# 5 0.0000 0.0000 0.0000 0.0000 13.3610 0.0000
# 6 0.0000 0.0000 0.0000 0.0000 0.0000 17.7656
#
#
#
# Elastic Compliance Matrix: (Units=1/GPa)
#
#
# Indices 1 2 3 4 5 6 
#
# 1 0.007549 -0.003331 -0.003058 0.000000 0.000000 0.000000
# 2 -0.003331 0.046360 -0.009975 0.000000 0.000000 0.000000
# 3 -0.003058 -0.009975 0.010769 0.000000 0.000000 0.000000
# 4 0.000000 0.000000 0.000000 0.065891 0.000000 0.000000
# 5 0.000000 0.000000 0.000000 0.000000 0.074845 0.000000
# 6 0.000000 0.000000 0.000000 0.000000 0.000000 0.056289
#
#
# Mechanical properties :
#
#
# Convention : Reuss Voigt Hill
#
# Bulk Modulus (GPa) = 31.29852 71.94127 51.61989
# Shear Modulus (GPa) = 16.38913 23.52013 19.95463
#
# Velocity S-wave (km/s) = 3.07950 3.68912 3.39801
# Velocity P-wave (km/s) = 5.54571 7.73135 6.72788
#
# Compressibility (1/GPa) = 0.03195039
#
# Stress axis : x y z
#
# Youngs Moduli (GPa) = 132.47102 21.57026 92.85802
#
# Poissons Ratio (x) = 0.07185 0.28395
# Poissons Ratio (y) = 0.44128 0.92624
# Poissons Ratio (z) = 0.40508 0.21516
#
# Static dielectric constant tensor:
#      x y z
#    x 3.601910 0.000000 0.000000 
#    y 0.000000 2.823990 0.000000 
#    z 0.000000 0.000000 3.297600 
# 
# 
# High freq. dielectric constant tensor:
#      x y z
#    x 1.678120 0.000000 0.000000 
#    y 0.000000 1.628740 0.000000 
#    z 0.000000 0.000000 1.670790 
# 
# From -- ./inp_files/19683.got.cif
#   From: 2010.03.12/outbox.cif.g09.slc.cpg/sg44_10_cif.got.tgz:19683.got - 2010.04.14 02:36:11.
