data_PCOD8188552
_publ_section_title
;
Structure prediction by ZEFSAII (Michael W. Deem and Ramdas Pophale) SiO2 
 PCOD8188552
Probable space group: I M M 2
;
_chemical_formula_sum "Si O2"
_cell_formula_units_Z 64
_cell_length_a 24.526838
_cell_length_b 9.261034
_cell_length_c 15.349609
_cell_angle_alpha 90.000000
_cell_angle_beta 90.000000
_cell_angle_gamma 90.000000
_cell_volume 3486.569754
_symmetry_space_group_name_H-M "I M M 2"
_symmetry_group_IT_number 44
_symmetry_cell_setting 'orthorhombic'
loop_
_space_group_symop_operation_xyz
x,y,z
-x,-y,z
-x,y,z
x,-y,z
1/2+x,1/2+y,1/2+z
1/2-x,1/2-y,1/2+z
1/2-x,1/2+y,1/2+z
1/2+x,1/2-y,1/2+z
loop_
_atom_site_type_symbol
_atom_site_label
_atom_site_fract_x
_atom_site_fract_y
_atom_site_fract_z
Si Si1 0.217382 0.667562 0.696420
Si Si2 0.237504 0.833824 0.526944
Si Si3 0.436752 0.334964 0.421353
Si Si4 0.061470 0.827742 0.562498
Si Si5 0.116698 0.168098 0.740708
Si Si6 0.860641 0.168696 0.412558
Si Si7 0.841863 0.831330 0.223546
Si Si8 0.360424 0.831198 0.550390
O O1 0.203267 0.500000 0.692419
O O2 0.212030 0.733589 0.600595
O O3 0.172940 0.745865 0.757268
O O4 0.277430 0.696273 0.733407
O O5 0.202089 0.802008 0.440892
O O6 0.300784 0.797042 0.510192
O O7 0.230911 0.000000 0.557048
O O8 0.500000 0.304921 0.436042
O O9 0.421423 0.500000 0.443713
O O10 0.422909 0.300131 0.321388
O O11 0.404584 0.230390 0.485052
O O12 0.087157 0.773907 0.653442
O O13 0.096372 0.763372 0.481192
O O14 0.000000 0.768255 0.554314
O O15 0.061917 0.000000 0.561451
O O16 0.130844 0.000000 0.732525
O O17 0.868663 0.226529 0.313888
O O18 0.871618 0.000000 0.409948
O O19 0.867531 0.741783 0.144698
O O20 0.853710 0.000000 0.206784
O O21 0.370369 0.000000 0.562153
#
# Coordination Sequence:
#
# PCOD8188552 Si02
#       8
#     8   8   8   8   8   8   8   8
#     4  10  19  30  48  76 110 144 179 215 262 319
#     4   9  17  32  53  76 105 142 181 218 266 323
#     4  10  22  39  58  80 107 142 186 231 275 326
#     4   9  16  28  51  80 105 132 173 220 260 306
#     4  10  19  33  53  78 109 141 174 217 271 325
#     4   9  16  29  51  77 105 140 179 221 264 310
#     4   9  19  34  53  76 110 147 179 220 268 322
#     4  10  21  36  57  80 107 141 181 229 279 328
#
# _framework density 18.356151000000001
#
# number of rings (size 3 to 8) (size 9 to 14) (size 15 to 20)
#    0.000    2.500    1.250    1.125    1.750    3.250 
#    0.000    1.250    0.000    3.375    0.000    0.000 
#    0.000    0.000    0.000    0.000    0.000    0.000 
#
# Total GULP energy -396735.041013 kJ/mol
# GULP energy per Si atom -12397.970032 kJ/mol
# Density = 1.831437 g / cm^3
# Si number density = 18.356151 Si / 1000 Ang^3
#
#
#
# Elastic Constant Matrix: (Units=GPa)
#
#
# Indices 1 2 3 4 5 6 
#
# 1 91.9268 36.3286 59.5755 0.0000 0.0000 0.0000
# 2 36.3286 55.2760 41.9901 0.0000 0.0000 0.0000
# 3 59.5755 41.9901 135.6371 0.0000 0.0000 0.0000
# 4 0.0000 0.0000 0.0000 18.6150 0.0000 0.0000
# 5 0.0000 0.0000 0.0000 0.0000 29.6109 0.0000
# 6 0.0000 0.0000 0.0000 0.0000 0.0000 23.3172
#
#
#
# Elastic Compliance Matrix: (Units=1/GPa)
#
#
# Indices 1 2 3 4 5 6 
#
# 1 0.017184 -0.007270 -0.005297 0.000000 0.000000 0.000000
# 2 -0.007270 0.026729 -0.005082 0.000000 0.000000 0.000000
# 3 -0.005297 -0.005082 0.011272 0.000000 0.000000 0.000000
# 4 0.000000 0.000000 0.000000 0.053720 0.000000 0.000000
# 5 0.000000 0.000000 0.000000 0.000000 0.033771 0.000000
# 6 0.000000 0.000000 0.000000 0.000000 0.000000 0.042887
#
#
# Mechanical properties :
#
#
# Convention : Reuss Voigt Hill
#
# Bulk Modulus (GPa) = 50.28036 62.06980 56.17508
# Shear Modulus (GPa) = 21.97892 23.97167 22.97529
#
# Velocity S-wave (km/s) = 3.46404 3.61767 3.54169
# Velocity P-wave (km/s) = 6.59170 7.16503 6.88433
#
# Compressibility (1/GPa) = 0.01988848
#
# Stress axis : x y z
#
# Youngs Moduli (GPa) = 58.19311 37.41229 88.71205
#
# Poissons Ratio (x) = 0.27198 0.46992
# Poissons Ratio (y) = 0.42306 0.45080
# Poissons Ratio (z) = 0.30826 0.19011
#
# Static dielectric constant tensor:
#      x y z
#    x 3.452480 0.000000 0.000000 
#    y 0.000000 3.160670 0.000000 
#    z 0.000000 0.000000 3.498760 
# 
# 
# High freq. dielectric constant tensor:
#      x y z
#    x 1.706840 0.000000 0.000000 
#    y 0.000000 1.680890 0.000000 
#    z 0.000000 0.000000 1.713290 
# 
# From -- ./inp_files/19498.got.cif
#   From: 2010.03.12/outbox.cif.g09.slc.cpg/sg44_10_cif.got.tgz:19498.got - 2010.04.14 02:36:11.
