data_PCOD8188160
_publ_section_title
;
Structure prediction by ZEFSAII (Michael W. Deem and Ramdas Pophale) SiO2 
 PCOD8188160
Probable space group: I M M 2
;
_chemical_formula_sum "Si O2"
_cell_formula_units_Z 64
_cell_length_a 14.247410
_cell_length_b 9.090527
_cell_length_c 28.284673
_cell_angle_alpha 90.000000
_cell_angle_beta 90.000000
_cell_angle_gamma 90.000000
_cell_volume 3663.330869
_symmetry_space_group_name_H-M "I M M 2"
_symmetry_group_IT_number 44
_symmetry_cell_setting 'orthorhombic'
loop_
_space_group_symop_operation_xyz
x,y,z
-x,-y,z
-x,y,z
x,-y,z
1/2+x,1/2+y,1/2+z
1/2-x,1/2-y,1/2+z
1/2-x,1/2+y,1/2+z
1/2+x,1/2-y,1/2+z
loop_
_atom_site_type_symbol
_atom_site_label
_atom_site_fract_x
_atom_site_fract_y
_atom_site_fract_z
Si Si1 0.891747 0.327547 0.340470
Si Si2 0.396427 0.326339 0.110454
Si Si3 0.607796 0.327479 0.481052
Si Si4 0.772178 0.673468 0.795507
Si Si5 0.230061 0.826502 0.526218
Si Si6 0.108118 0.831415 0.436137
Si Si7 0.892085 0.330484 0.885754
Si Si8 0.108846 0.170993 0.717543
O O1 0.872812 0.500000 0.339415
O O2 0.829597 0.249362 0.300143
O O3 0.861822 0.267100 0.391772
O O4 0.000000 0.289274 0.329795
O O5 0.500000 0.259302 0.100213
O O6 0.403493 0.500000 0.104001
O O7 0.321044 0.263956 0.073134
O O8 0.365167 0.288001 0.163630
O O9 0.500000 0.285903 0.491254
O O10 0.624285 0.500000 0.480649
O O11 0.669798 0.253926 0.522186
O O12 0.640293 0.264131 0.430527
O O13 0.759258 0.500000 0.791522
O O14 0.833077 0.720576 0.840786
O O15 0.824242 0.729691 0.749109
O O16 0.167207 0.782428 0.481348
O O17 0.246877 0.000000 0.529351
O O18 0.000000 0.807762 0.449639
O O19 0.128682 0.000000 0.422154
O O20 0.873478 0.500000 0.898564
O O21 0.000000 0.301068 0.873010
O O22 0.000000 0.208012 0.727740
O O23 0.128460 0.000000 0.727840
#
# Coordination Sequence:
#
# PCOD8188160 Si02
#       8
#     8   8   8   8   8   8   8   8
#     4  10  21  35  49  67  95 131 168 205 242 282
#     4   8  15  30  52  77 102 126 155 192 233 280
#     4  10  21  34  46  64  94 130 164 200 241 281
#     4  11  21  32  50  74  99 128 162 201 244 290
#     4  10  18  29  50  75  96 124 162 199 234 277
#     4   9  17  29  46  71 102 131 158 191 235 286
#     4   9  18  32  48  68  96 128 161 196 234 280
#     4   9  18  33  53  76 102 130 158 192 237 288
#
# _framework density 17.470438999999999
#
# number of rings (size 3 to 8) (size 9 to 14) (size 15 to 20)
#    0.000    2.500    0.000    3.375    0.000    8.250 
#    0.000    1.875    0.000    2.625    0.000    1.750 
#    0.000    0.000    0.000    0.000    0.000    0.000 
#
# Total GULP energy -396844.459730 kJ/mol
# GULP energy per Si atom -12401.389367 kJ/mol
# Density = 1.743068 g / cm^3
# Si number density = 17.470439 Si / 1000 Ang^3
#
#
#
# Elastic Constant Matrix: (Units=GPa)
#
#
# Indices 1 2 3 4 5 6 
#
# 1 96.7533 48.4170 75.5683 0.0000 0.0000 0.0000
# 2 48.4170 64.2963 50.9745 0.0000 0.0000 0.0000
# 3 75.5683 50.9745 111.6892 0.0000 0.0000 0.0000
# 4 0.0000 0.0000 0.0000 23.2360 0.0000 0.0000
# 5 0.0000 0.0000 0.0000 0.0000 30.5861 0.0000
# 6 0.0000 0.0000 0.0000 0.0000 0.0000 25.6071
#
#
#
# Elastic Compliance Matrix: (Units=1/GPa)
#
#
# Indices 1 2 3 4 5 6 
#
# 1 0.024452 -0.008300 -0.012756 0.000000 0.000000 0.000000
# 2 -0.008300 0.027189 -0.006793 0.000000 0.000000 0.000000
# 3 -0.012756 -0.006793 0.020684 0.000000 0.000000 0.000000
# 4 0.000000 0.000000 0.000000 0.043037 0.000000 0.000000
# 5 0.000000 0.000000 0.000000 0.000000 0.032695 0.000000
# 6 0.000000 0.000000 0.000000 0.000000 0.000000 0.039052
#
#
# Mechanical properties :
#
#
# Convention : Reuss Voigt Hill
#
# Bulk Modulus (GPa) = 60.14338 69.18426 64.66382
# Shear Modulus (GPa) = 20.13301 22.40446 21.26873
#
# Velocity S-wave (km/s) = 3.39839 3.58498 3.49293
# Velocity P-wave (km/s) = 7.06394 7.53809 7.30486
#
# Compressibility (1/GPa) = 0.01662693
#
# Stress axis : x y z
#
# Youngs Moduli (GPa) = 40.89654 36.77992 48.34575
#
# Poissons Ratio (x) = 0.30527 0.61670
# Poissons Ratio (y) = 0.33944 0.32842
# Poissons Ratio (z) = 0.52167 0.24985
#
# Static dielectric constant tensor:
#      x y z
#    x 3.408490 0.000000 0.000000 
#    y 0.000000 3.082630 0.000000 
#    z 0.000000 0.000000 3.204730 
# 
# 
# High freq. dielectric constant tensor:
#      x y z
#    x 1.680230 0.000000 0.000000 
#    y 0.000000 1.662170 0.000000 
#    z 0.000000 0.000000 1.656870 
# 
# From -- ./inp_files/27524.got.cif
#   From: 2010.03.12/outbox.cif.g09.slc.cpg/sg44_14_cif.got.tgz:27524.got - 2010.04.14 02:36:11.
