data_PCOD8188636
_publ_section_title
;
Structure prediction by ZEFSAII (Michael W. Deem and Ramdas Pophale) SiO2 
 PCOD8188636
Probable space group: I M M 2
;
_chemical_formula_sum "Si O2"
_cell_formula_units_Z 48
_cell_length_a 7.620372
_cell_length_b 8.942259
_cell_length_c 34.548778
_cell_angle_alpha 90.000000
_cell_angle_beta 90.000000
_cell_angle_gamma 90.000000
_cell_volume 2354.269129
_symmetry_space_group_name_H-M "I M M 2"
_symmetry_group_IT_number 44
_symmetry_cell_setting 'orthorhombic'
loop_
_space_group_symop_operation_xyz
x,y,z
-x,-y,z
-x,y,z
x,-y,z
1/2+x,1/2+y,1/2+z
1/2-x,1/2-y,1/2+z
1/2-x,1/2+y,1/2+z
1/2+x,1/2-y,1/2+z
loop_
_atom_site_type_symbol
_atom_site_label
_atom_site_fract_x
_atom_site_fract_y
_atom_site_fract_z
Si Si1 0.295415 0.673460 0.138770
Si Si2 0.000000 0.678555 0.857148
Si Si3 0.805140 0.170578 0.215111
Si Si4 0.207857 0.832545 0.485962
Si Si5 0.500000 0.177202 0.269679
Si Si6 0.790828 0.668575 0.561594
Si Si7 0.704164 0.824039 0.907327
O O1 0.500000 0.706858 0.144254
O O2 0.255069 0.500000 0.133779
O O3 0.196544 0.733928 0.176154
O O4 0.220844 0.754953 0.100706
O O5 0.000000 0.738902 0.813146
O O6 0.177566 0.741532 0.875804
O O7 0.000000 0.500000 0.860226
O O8 0.671712 0.236517 0.246974
O O9 0.000000 0.179962 0.233038
O O10 0.753882 0.000000 0.204729
O O11 0.285843 0.757095 0.524634
O O12 0.264754 0.734327 0.449260
O O13 0.000000 0.838626 0.489061
O O14 0.284761 0.000000 0.481725
O O15 0.500000 0.000000 0.271531
O O16 0.719589 0.500000 0.560057
O O17 0.000000 0.672343 0.560706
O O18 0.500000 0.785577 0.899222
O O19 0.738567 0.000000 0.905655
#
# Coordination Sequence:
#
# PCOD8188636 Si02
#       7
#     8   4   8   8   4   8   8
#     4  10  19  31  50  78 112 151 193 237 287 340
#     4  11  23  39  63  93 121 153 195 249 305 359
#     4  10  20  36  60  85 110 146 189 233 286 348
#     4   9  16  28  49  79 114 151 195 244 291 343
#     4   9  20  39  61  87 117 147 187 239 293 351
#     4   9  16  26  45  75 110 151 196 240 285 339
#     4  10  21  38  60  86 119 160 201 242 293 357
#
# _framework density 20.388493
#
# number of rings (size 3 to 8) (size 9 to 14) (size 15 to 20)
#    0.000    2.333    0.833    2.250    0.000    6.667 
#    0.000    3.333    1.833    0.000    0.000    0.000 
#    0.000    0.000    0.000    0.000    0.000    0.000 
#
# Total GULP energy -297623.851856 kJ/mol
# GULP energy per Si atom -12400.993827 kJ/mol
# Density = 2.034209 g / cm^3
# Si number density = 20.388493 Si / 1000 Ang^3
#
#
#
# Elastic Constant Matrix: (Units=GPa)
#
#
# Indices 1 2 3 4 5 6 
#
# 1 83.5214 37.0918 58.4721 0.0000 0.0000 0.0000
# 2 37.0918 117.2031 61.8510 0.0000 0.0000 0.0000
# 3 58.4721 61.8510 181.8982 0.0000 0.0000 0.0000
# 4 0.0000 0.0000 0.0000 31.7341 0.0000 0.0000
# 5 0.0000 0.0000 0.0000 0.0000 3.1771 0.0000
# 6 0.0000 0.0000 0.0000 0.0000 0.0000 18.3988
#
#
#
# Elastic Compliance Matrix: (Units=1/GPa)
#
#
# Indices 1 2 3 4 5 6 
#
# 1 0.016222 -0.002903 -0.004228 0.000000 0.000000 0.000000
# 2 -0.002903 0.010917 -0.002779 0.000000 0.000000 0.000000
# 3 -0.004228 -0.002779 0.007802 0.000000 0.000000 0.000000
# 4 0.000000 0.000000 0.000000 0.031512 0.000000 0.000000
# 5 0.000000 0.000000 0.000000 0.000000 0.314756 0.000000
# 6 0.000000 0.000000 0.000000 0.000000 0.000000 0.054351
#
#
# Mechanical properties :
#
#
# Convention : Reuss Voigt Hill
#
# Bulk Modulus (GPa) = 66.12967 77.49473 71.81220
# Shear Modulus (GPa) = 10.85965 25.67586 18.26776
#
# Velocity S-wave (km/s) = 2.31040 3.55256 2.99655
# Velocity P-wave (km/s) = 6.29464 7.41074 6.87537
#
# Compressibility (1/GPa) = 0.01512181
#
# Stress axis : x y z
#
# Youngs Moduli (GPa) = 61.64568 91.59615 128.17984
#
# Poissons Ratio (x) = 0.26588 0.54188
# Poissons Ratio (y) = 0.17894 0.35623
# Poissons Ratio (z) = 0.26061 0.25456
#
# Static dielectric constant tensor:
#      x y z
#    x 3.500840 0.000000 0.000000 
#    y 0.000000 3.695330 0.000000 
#    z 0.000000 0.000000 3.785770 
# 
# 
# High freq. dielectric constant tensor:
#      x y z
#    x 1.782140 0.000000 0.000000 
#    y 0.000000 1.795410 0.000000 
#    z 0.000000 0.000000 1.795780 
# 
# From -- ./inp_files/26933.got.cif
#   From: 2010.03.12/outbox.cif.g09.slc.cpg/sg44_14_cif.got.tgz:26933.got - 2010.04.14 02:36:11.
