data_PCOD8188164
_publ_section_title
;
Structure prediction by ZEFSAII (Michael W. Deem and Ramdas Pophale) SiO2 
 PCOD8188164
Probable space group: I M M 2
;
_chemical_formula_sum "Si O2"
_cell_formula_units_Z 56
_cell_length_a 22.919698
_cell_length_b 8.698583
_cell_length_c 14.460110
_cell_angle_alpha 90.000000
_cell_angle_beta 90.000000
_cell_angle_gamma 90.000000
_cell_volume 2882.896158
_symmetry_space_group_name_H-M "I M M 2"
_symmetry_group_IT_number 44
_symmetry_cell_setting 'orthorhombic'
loop_
_space_group_symop_operation_xyz
x,y,z
-x,-y,z
-x,y,z
x,-y,z
1/2+x,1/2+y,1/2+z
1/2-x,1/2-y,1/2+z
1/2-x,1/2+y,1/2+z
1/2+x,1/2-y,1/2+z
loop_
_atom_site_type_symbol
_atom_site_label
_atom_site_fract_x
_atom_site_fract_y
_atom_site_fract_z
Si Si1 0.000000 0.816324 0.375000
Si Si2 0.500000 0.318312 0.085376
Si Si3 0.346484 0.318008 0.371138
Si Si4 0.892737 0.321159 0.693947
Si Si5 0.215116 0.677161 0.567462
Si Si6 0.777373 0.820260 0.376940
Si Si7 0.152909 0.820714 0.075744
Si Si8 0.611070 0.683187 0.765050
O O1 0.000000 0.754319 0.480155
O O2 0.943880 0.749287 0.320820
O O3 0.000000 0.000000 0.374657
O O4 0.500000 0.500000 0.084548
O O5 0.557366 0.262382 0.137010
O O6 0.353343 0.500000 0.365287
O O7 0.390756 0.241233 0.298692
O O8 0.279908 0.274122 0.348961
O O9 0.361964 0.252197 0.474183
O O10 0.907319 0.500000 0.695832
O O11 0.830394 0.284506 0.648028
O O12 0.209794 0.500000 0.535187
O O13 0.201898 0.787020 0.481212
O O14 0.280025 0.711567 0.604510
O O15 0.829401 0.761819 0.312236
O O16 0.764127 0.000000 0.363782
O O17 0.112016 0.755027 0.158384
O O18 0.141933 0.000000 0.067810
O O19 0.607986 0.500000 0.766453
#
# Coordination Sequence:
#
# PCOD8188164 Si02
#       8
#     4   4   8   8   8   8   8   8
#     4   9  18  31  50  77 106 136 173 219 264 311
#     4  11  23  39  56  79 110 138 173 223 274 325
#     4  10  20  34  52  77 109 141 175 222 275 323
#     4  11  22  37  57  79 105 143 186 225 272 327
#     4   9  18  32  50  74 106 140 175 220 274 328
#     4  10  18  29  50  79 109 142 179 219 267 325
#     4   8  15  29  48  71 102 138 172 211 262 316
#     4   9  16  28  47  72 103 138 176 218 263 311
#
# _framework density 19.424910000000001
#
# number of rings (size 3 to 8) (size 9 to 14) (size 15 to 20)
#    0.000    2.429    0.000    4.071    0.000    4.571 
#    0.000    0.714    0.000    5.143    0.000    0.000 
#    0.000    0.000    0.000    0.000    0.000    0.000 
#
# Total GULP energy -347103.457579 kJ/mol
# GULP energy per Si atom -12396.552056 kJ/mol
# Density = 1.938070 g / cm^3
# Si number density = 19.424910 Si / 1000 Ang^3
#
#
#
# Elastic Constant Matrix: (Units=GPa)
#
#
# Indices 1 2 3 4 5 6 
#
# 1 87.8599 19.3762 88.6261 0.0000 0.0000 0.0000
# 2 19.3762 40.1481 26.4341 0.0000 0.0000 0.0000
# 3 88.6261 26.4341 166.0776 0.0000 0.0000 0.0000
# 4 0.0000 0.0000 0.0000 22.7276 0.0000 0.0000
# 5 0.0000 0.0000 0.0000 0.0000 31.8019 0.0000
# 6 0.0000 0.0000 0.0000 0.0000 0.0000 24.5405
#
#
#
# Elastic Compliance Matrix: (Units=1/GPa)
#
#
# Indices 1 2 3 4 5 6 
#
# 1 0.025130 -0.003685 -0.012824 0.000000 0.000000 0.000000
# 2 -0.003685 0.028364 -0.002548 0.000000 0.000000 0.000000
# 3 -0.012824 -0.002548 0.013270 0.000000 0.000000 0.000000
# 4 0.000000 0.000000 0.000000 0.043999 0.000000 0.000000
# 5 0.000000 0.000000 0.000000 0.000000 0.031445 0.000000
# 6 0.000000 0.000000 0.000000 0.000000 0.000000 0.040749
#
#
# Mechanical properties :
#
#
# Convention : Reuss Voigt Hill
#
# Bulk Modulus (GPa) = 34.90360 62.55093 48.72726
# Shear Modulus (GPa) = 21.68050 26.45729 24.06890
#
# Velocity S-wave (km/s) = 3.34446 3.69457 3.52387
# Velocity P-wave (km/s) = 5.73771 7.10430 6.45726
#
# Compressibility (1/GPa) = 0.02865034
#
# Stress axis : x y z
#
# Youngs Moduli (GPa) = 39.79255 35.25608 75.35573
#
# Poissons Ratio (x) = 0.12991 0.96637
# Poissons Ratio (y) = 0.14663 0.19203
# Poissons Ratio (z) = 0.51031 0.08984
#
# Static dielectric constant tensor:
#      x y z
#    x 3.522760 0.000000 0.000000 
#    y 0.000000 3.235960 0.000000 
#    z 0.000000 0.000000 3.980910 
# 
# 
# High freq. dielectric constant tensor:
#      x y z
#    x 1.739500 0.000000 0.000000 
#    y 0.000000 1.722340 0.000000 
#    z 0.000000 0.000000 1.774010 
# 
# From -- ./inp_files/19222.got.cif
#   From: 2010.03.12/outbox.cif.g09.slc.cpg/sg44_10_cif.got.tgz:19222.got - 2010.04.14 02:36:11.
