data_PCOD8188000
_publ_section_title
;
Structure prediction by ZEFSAII (Michael W. Deem and Ramdas Pophale) SiO2 
 PCOD8188000
Probable space group: I M M 2
;
_chemical_formula_sum "Si O2"
_cell_formula_units_Z 64
_cell_length_a 8.888391
_cell_length_b 26.493808
_cell_length_c 18.478978
_cell_angle_alpha 90.000000
_cell_angle_beta 90.000000
_cell_angle_gamma 90.000000
_cell_volume 4351.565090
_symmetry_space_group_name_H-M "I M M 2"
_symmetry_group_IT_number 44
_symmetry_cell_setting 'orthorhombic'
loop_
_space_group_symop_operation_xyz
x,y,z
-x,-y,z
-x,y,z
x,-y,z
1/2+x,1/2+y,1/2+z
1/2-x,1/2-y,1/2+z
1/2-x,1/2+y,1/2+z
1/2+x,1/2-y,1/2+z
loop_
_atom_site_type_symbol
_atom_site_label
_atom_site_fract_x
_atom_site_fract_y
_atom_site_fract_z
Si Si1 0.826050 0.648854 0.890700
Si Si2 0.821826 0.443544 0.803010
Si Si3 0.671263 0.787897 0.516824
Si Si4 0.176730 0.646916 0.574109
Si Si5 0.675807 0.441983 0.650861
Si Si6 0.326985 0.261537 0.659110
Si Si7 0.677113 0.248973 0.310101
Si Si8 0.827570 0.702367 0.435012
O O1 0.758082 0.595534 0.863708
O O2 0.762229 0.696593 0.845212
O O3 0.000000 0.645598 0.872370
O O4 0.798778 0.657806 0.977400
O O5 0.775132 0.500000 0.827446
O O6 0.742637 0.428245 0.728776
O O7 0.000000 0.440086 0.791239
O O8 0.500000 0.770525 0.495642
O O9 0.688547 0.786370 0.603603
O O10 0.793837 0.750709 0.484201
O O11 0.242067 0.591923 0.591093
O O12 0.255998 0.688294 0.624934
O O13 0.209055 0.655285 0.488212
O O14 0.000000 0.649535 0.590725
O O15 0.500000 0.429961 0.651466
O O16 0.708705 0.500000 0.630985
O O17 0.500000 0.273458 0.675996
O O18 0.245587 0.244005 0.731267
O O19 0.500000 0.250322 0.302950
O O20 0.728851 0.295619 0.361669
O O21 0.000000 0.702486 0.410881
#
# Coordination Sequence:
#
# PCOD8188000 Si02
#       8
#     8   8   8   8   8   8   8   8
#     4   8  14  25  39  54  74 102 134 161 192 235
#     4   9  16  26  41  59  79 105 137 172 205 236
#     4   8  15  27  40  54  76 106 134 163 201 241
#     4  10  19  30  44  60  80 108 138 168 205 247
#     4  10  20  31  42  58  81 108 138 172 205 237
#     4  10  18  27  41  60  81 106 137 170 203 242
#     4  10  18  27  40  57  80 109 136 165 202 243
#     4   9  17  28  41  58  79 102 132 168 201 238
#
# _framework density 14.707352999999999
#
# number of rings (size 3 to 8) (size 9 to 14) (size 15 to 20)
#    0.000    2.750    0.000    3.375    0.000    3.750 
#    0.000    2.500    0.000    0.000    0.000    0.000 
#    0.000    1.000    0.000    7.500    0.000    2.000 
#
# Total GULP energy -396473.887372 kJ/mol
# GULP energy per Si atom -12389.808980 kJ/mol
# Density = 1.467388 g / cm^3
# Si number density = 14.707353 Si / 1000 Ang^3
#
#
#
# Elastic Constant Matrix: (Units=GPa)
#
#
# Indices 1 2 3 4 5 6 
#
# 1 62.3346 30.3969 42.3934 0.0000 0.0000 0.0000
# 2 30.3969 78.0242 54.9039 -0.0001 0.0000 0.0000
# 3 42.3934 54.9039 110.4002 -0.0003 0.0000 0.0000
# 4 0.0000 -0.0001 -0.0003 26.9067 0.0000 0.0000
# 5 0.0000 0.0000 0.0000 0.0000 22.1072 0.0000
# 6 0.0000 0.0000 0.0000 0.0000 0.0000 15.2932
#
#
#
# Elastic Compliance Matrix: (Units=1/GPa)
#
#
# Indices 1 2 3 4 5 6 
#
# 1 0.022550 -0.004141 -0.006600 0.000000 0.000000 0.000000
# 2 -0.004141 0.020477 -0.008593 0.000000 0.000000 0.000000
# 3 -0.006600 -0.008593 0.015866 0.000000 0.000000 0.000000
# 4 0.000000 0.000000 0.000000 0.037166 0.000000 0.000000
# 5 0.000000 0.000000 0.000000 0.000000 0.045234 0.000000
# 6 0.000000 0.000000 0.000000 0.000000 0.000000 0.065389
#
#
# Mechanical properties :
#
#
# Convention : Reuss Voigt Hill
#
# Bulk Modulus (GPa) = 49.44486 56.23861 52.84173
# Shear Modulus (GPa) = 19.83411 21.06573 20.44992
#
# Velocity S-wave (km/s) = 3.67629 3.78871 3.73293
# Velocity P-wave (km/s) = 7.19113 7.58028 7.38826
#
# Compressibility (1/GPa) = 0.02022455
#
# Stress axis : x y z
#
# Youngs Moduli (GPa) = 44.34523 48.83604 63.02843
#
# Poissons Ratio (x) = 0.20223 0.41598
# Poissons Ratio (y) = 0.18364 0.54162
# Poissons Ratio (z) = 0.29267 0.41966
#
# Static dielectric constant tensor:
#      x y z
#    x 2.874660 0.000000 0.000000 
#    y 0.000000 2.853690 0.000000 
#    z 0.000000 0.000000 2.997100 
# 
# 
# High freq. dielectric constant tensor:
#      x y z
#    x 1.568220 0.000000 0.000000 
#    y 0.000000 1.526710 0.000000 
#    z 0.000000 0.000000 1.554670 
# 
# From -- ./inp_files/20855.got.cif
#   From: 2010.03.12/outbox.cif.g09.slc.cpg/sg44_11_cif.got.tgz:20855.got - 2010.04.14 02:36:11.
