data_PCOD8188070
_publ_section_title
;
Structure prediction by ZEFSAII (Michael W. Deem and Ramdas Pophale) SiO2 
 PCOD8188070
Probable space group: I M M 2
;
_chemical_formula_sum "Si O2"
_cell_formula_units_Z 56
_cell_length_a 8.896133
_cell_length_b 29.346918
_cell_length_c 13.697739
_cell_angle_alpha 90.000000
_cell_angle_beta 90.000000
_cell_angle_gamma 90.000000
_cell_volume 3576.124685
_symmetry_space_group_name_H-M "I M M 2"
_symmetry_group_IT_number 44
_symmetry_cell_setting 'orthorhombic'
loop_
_space_group_symop_operation_xyz
x,y,z
-x,-y,z
-x,y,z
x,-y,z
1/2+x,1/2+y,1/2+z
1/2-x,1/2-y,1/2+z
1/2-x,1/2+y,1/2+z
1/2+x,1/2-y,1/2+z
loop_
_atom_site_type_symbol
_atom_site_label
_atom_site_fract_x
_atom_site_fract_y
_atom_site_fract_z
Si Si1 0.674531 0.265756 0.862770
Si Si2 0.666860 0.000000 0.867770
Si Si3 0.174149 0.816799 0.956642
Si Si4 0.324915 0.264777 0.645101
Si Si5 0.177312 0.091882 0.856254
Si Si6 0.164068 0.500000 0.136262
Si Si7 0.319471 0.902408 0.648132
Si Si8 0.822759 0.181326 0.549708
O O1 0.500000 0.257964 0.878281
O O2 0.747036 0.216692 0.880432
O O3 0.712858 0.282962 0.753628
O O4 0.729325 0.303363 0.941086
O O5 0.756200 0.045218 0.900585
O O6 0.500000 0.000000 0.915120
O O7 0.651709 0.000000 0.752481
O O8 0.217936 0.868908 0.934683
O O9 0.000000 0.808989 0.939154
O O10 0.218897 0.804444 0.068328
O O11 0.500000 0.251245 0.636000
O O12 0.226376 0.219932 0.626198
O O13 0.251153 0.107078 0.754373
O O14 0.000000 0.086151 0.840484
O O15 0.242164 0.548109 0.107921
O O16 0.000000 0.500000 0.087652
O O17 0.500000 0.902792 0.656730
O O18 0.264145 0.865183 0.571640
O O19 0.000000 0.173004 0.558439
#
# Coordination Sequence:
#
# PCOD8188070 Si02
#       8
#     8   4   8   8   8   4   8   8
#     4   9  18  30  44  60  83 113 144 175 209 249
#     4   9  17  29  43  61  86 117 146 172 205 256
#     4   9  18  29  43  63  86 110 141 176 212 251
#     4   9  17  31  46  60  81 114 147 174 207 253
#     4  10  18  28  43  65  90 114 140 178 217 248
#     4   7  14  27  41  57  78 103 136 168 195 234
#     4  10  18  29  44  62  85 115 144 171 206 256
#     4  10  19  29  41  63  88 110 139 177 214 249
#
# _framework density 15.659408000000001
#
# number of rings (size 3 to 8) (size 9 to 14) (size 15 to 20)
#    0.000    2.714    0.000    3.214    0.000    4.571 
#    0.000    1.071    0.000    0.000    0.000    1.000 
#    0.000    5.714    0.000    0.000    0.000    0.000 
#
# Total GULP energy -347029.875398 kJ/mol
# GULP energy per Si atom -12393.924121 kJ/mol
# Density = 1.562377 g / cm^3
# Si number density = 15.659408 Si / 1000 Ang^3
#
#
#
# Elastic Constant Matrix: (Units=GPa)
#
#
# Indices 1 2 3 4 5 6 
#
# 1 58.3985 45.4370 27.9202 -0.0001 0.0000 0.0000
# 2 45.4370 141.5957 57.7344 0.0003 0.0000 -0.0001
# 3 27.9202 57.7344 85.9653 0.0001 0.0000 -0.0003
# 4 -0.0001 0.0003 0.0001 20.7195 0.0000 -0.0001
# 5 0.0000 0.0000 0.0000 0.0000 16.2577 0.0001
# 6 0.0000 -0.0001 -0.0003 -0.0001 0.0001 24.8510
#
#
#
# Elastic Compliance Matrix: (Units=1/GPa)
#
#
# Indices 1 2 3 4 5 6 
#
# 1 0.023582 -0.006120 -0.003549 0.000000 0.000000 0.000000
# 2 -0.006120 0.011314 -0.005611 0.000000 0.000000 0.000000
# 3 -0.003549 -0.005611 0.016553 0.000000 0.000000 0.000000
# 4 0.000000 0.000000 0.000000 0.048264 0.000000 0.000000
# 5 0.000000 0.000000 0.000000 0.000000 0.061509 0.000000
# 6 0.000000 0.000000 0.000000 0.000000 0.000000 0.040240
#
#
# Mechanical properties :
#
#
# Convention : Reuss Voigt Hill
#
# Bulk Modulus (GPa) = 47.86966 60.90476 54.38721
# Shear Modulus (GPa) = 20.92175 22.69017 21.80596
#
# Velocity S-wave (km/s) = 3.65917 3.81068 3.73569
# Velocity P-wave (km/s) = 6.96335 7.63803 7.30848
#
# Compressibility (1/GPa) = 0.02089006
#
# Stress axis : x y z
#
# Youngs Moduli (GPa) = 42.40459 88.38526 60.41083
#
# Poissons Ratio (x) = 0.54096 0.21438
# Poissons Ratio (y) = 0.25954 0.33895
# Poissons Ratio (z) = 0.15048 0.49591
#
# Static dielectric constant tensor:
#      x y z
#    x 3.034380 0.000000 0.000000 
#    y 0.000000 3.225940 0.000000 
#    z 0.000000 0.000000 2.983540 
# 
# 
# High freq. dielectric constant tensor:
#      x y z
#    x 1.605740 0.000000 0.000000 
#    y 0.000000 1.600020 0.000000 
#    z 0.000000 0.000000 1.569430 
# 
# From -- ./inp_files/17055.got.cif
#   From: 2010.03.12/outbox.cif.g09.slc.cpg/sg44_9_cif.got.tgz:17055.got - 2010.04.14 02:36:11.
