data_PCOD8188911
_publ_section_title
;
Structure prediction by ZEFSAII (Michael W. Deem and Ramdas Pophale) SiO2 
 PCOD8188911
Probable space group: I M M 2
;
_chemical_formula_sum "Si O2"
_cell_formula_units_Z 64
_cell_length_a 24.951462
_cell_length_b 9.369619
_cell_length_c 14.903684
_cell_angle_alpha 90.000000
_cell_angle_beta 90.000000
_cell_angle_gamma 90.000000
_cell_volume 3484.268084
_symmetry_space_group_name_H-M "I M M 2"
_symmetry_group_IT_number 44
_symmetry_cell_setting 'orthorhombic'
loop_
_space_group_symop_operation_xyz
x,y,z
-x,-y,z
-x,y,z
x,-y,z
1/2+x,1/2+y,1/2+z
1/2-x,1/2-y,1/2+z
1/2-x,1/2+y,1/2+z
1/2+x,1/2-y,1/2+z
loop_
_atom_site_type_symbol
_atom_site_label
_atom_site_fract_x
_atom_site_fract_y
_atom_site_fract_z
Si Si1 0.605335 0.332757 0.095630
Si Si2 0.725588 0.339210 0.107031
Si Si3 0.437031 0.833164 0.267099
Si Si4 0.844655 0.169111 0.288578
Si Si5 0.868158 0.165083 0.903286
Si Si6 0.757918 0.837588 0.814145
Si Si7 0.174092 0.835545 0.088344
Si Si8 0.558984 0.669316 0.908232
O O1 0.597576 0.500000 0.119035
O O2 0.666929 0.300737 0.069789
O O3 0.587146 0.240990 0.179905
O O4 0.571161 0.283250 0.009959
O O5 0.741280 0.500000 0.082407
O O6 0.722963 0.315276 0.213024
O O7 0.770517 0.241249 0.062002
O O8 0.500000 0.805626 0.270912
O O9 0.411747 0.765023 0.356578
O O10 0.422982 0.000000 0.264202
O O11 0.792621 0.237035 0.335832
O O12 0.848789 0.217500 0.184251
O O13 0.897504 0.229902 0.338064
O O14 0.839868 0.000000 0.299031
O O15 0.808133 0.207782 0.874457
O O16 0.880036 0.000000 0.878416
O O17 0.870381 0.190789 0.011036
O O18 0.740582 0.000000 0.833103
O O19 0.189457 0.000000 0.094436
O O20 0.500000 0.727692 0.882022
O O21 0.560285 0.500000 0.903495
#
# Coordination Sequence:
#
# PCOD8188911 Si02
#       8
#     8   8   8   8   8   8   8   8
#     4  10  19  34  55  79 106 142 184 218 259 325
#     4   9  17  30  49  75 106 137 171 212 260 317
#     4  11  24  39  55  79 110 141 177 226 281 327
#     4   9  18  33  52  77 107 137 176 222 266 312
#     4  10  20  36  55  77 107 144 185 221 261 320
#     4   9  17  31  49  72 102 135 171 213 261 313
#     4   9  19  33  51  77 110 143 176 219 268 314
#     4   9  18  32  52  77 104 138 181 225 264 307
#
# _framework density 18.368276999999999
#
# number of rings (size 3 to 8) (size 9 to 14) (size 15 to 20)
#    0.000    2.500    1.250    0.750    1.750    3.000 
#    0.000    1.250    0.000    3.375    0.000    0.000 
#    0.000    0.000    0.000    0.000    0.000    0.000 
#
# Total GULP energy -396767.219730 kJ/mol
# GULP energy per Si atom -12398.975617 kJ/mol
# Density = 1.832647 g / cm^3
# Si number density = 18.368277 Si / 1000 Ang^3
#
#
#
# Elastic Constant Matrix: (Units=GPa)
#
#
# Indices 1 2 3 4 5 6 
#
# 1 88.2941 40.3892 31.3707 0.0000 0.0000 0.0000
# 2 40.3892 59.7439 33.0999 0.0000 0.0000 0.0000
# 3 31.3707 33.0999 65.2178 0.0000 0.0000 0.0000
# 4 0.0000 0.0000 0.0000 16.4923 0.0000 0.0000
# 5 0.0000 0.0000 0.0000 0.0000 29.1323 0.0000
# 6 0.0000 0.0000 0.0000 0.0000 0.0000 27.6495
#
#
#
# Elastic Compliance Matrix: (Units=1/GPa)
#
#
# Indices 1 2 3 4 5 6 
#
# 1 0.016874 -0.009614 -0.003237 0.000000 0.000000 0.000000
# 2 -0.009614 0.028763 -0.009974 0.000000 0.000000 0.000000
# 3 -0.003237 -0.009974 0.021952 0.000000 0.000000 0.000000
# 4 0.000000 0.000000 0.000000 0.060634 0.000000 0.000000
# 5 0.000000 0.000000 0.000000 0.000000 0.034326 0.000000
# 6 0.000000 0.000000 0.000000 0.000000 0.000000 0.036167
#
#
# Mechanical properties :
#
#
# Convention : Reuss Voigt Hill
#
# Bulk Modulus (GPa) = 45.57950 46.99729 46.28840
# Shear Modulus (GPa) = 19.86655 21.88123 20.87389
#
# Velocity S-wave (km/s) = 3.29229 3.45520 3.37473
# Velocity P-wave (km/s) = 6.27059 6.44667 6.35924
#
# Compressibility (1/GPa) = 0.02193969
#
# Stress axis : x y z
#
# Youngs Moduli (GPa) = 59.26396 34.76668 45.55318
#
# Poissons Ratio (x) = 0.33424 0.14747
# Poissons Ratio (y) = 0.56975 0.45434
# Poissons Ratio (z) = 0.19185 0.34676
#
# Static dielectric constant tensor:
#      x y z
#    x 3.478350 0.000000 0.000000 
#    y 0.000000 3.255160 0.000000 
#    z 0.000000 0.000000 3.503490 
# 
# 
# High freq. dielectric constant tensor:
#      x y z
#    x 1.704820 0.000000 0.000000 
#    y 0.000000 1.691250 0.000000 
#    z 0.000000 0.000000 1.715880 
# 
# From -- ./inp_files/19469.got.cif
#   From: 2010.03.12/outbox.cif.g09.slc.cpg/sg44_10_cif.got.tgz:19469.got - 2010.04.14 02:36:11.
