data_PCOD8188082
_publ_section_title
;
Structure prediction by ZEFSAII (Michael W. Deem and Ramdas Pophale) SiO2 
 PCOD8188082
Probable space group: I M M 2
;
_chemical_formula_sum "Si O2"
_cell_formula_units_Z 48
_cell_length_a 16.681713
_cell_length_b 8.897757
_cell_length_c 18.835131
_cell_angle_alpha 90.000000
_cell_angle_beta 90.000000
_cell_angle_gamma 90.000000
_cell_volume 2795.695266
_symmetry_space_group_name_H-M "I M M 2"
_symmetry_group_IT_number 44
_symmetry_cell_setting 'orthorhombic'
loop_
_space_group_symop_operation_xyz
x,y,z
-x,-y,z
-x,y,z
x,-y,z
1/2+x,1/2+y,1/2+z
1/2-x,1/2-y,1/2+z
1/2-x,1/2+y,1/2+z
1/2+x,1/2-y,1/2+z
loop_
_atom_site_type_symbol
_atom_site_label
_atom_site_fract_x
_atom_site_fract_y
_atom_site_fract_z
Si Si1 0.826947 0.327362 0.947060
Si Si2 0.663349 0.679158 0.199553
Si Si3 0.500000 0.829087 0.413950
Si Si4 0.687416 0.675345 0.043589
Si Si5 0.408947 0.321411 0.908215
Si Si6 0.229455 0.323195 0.327406
Si Si7 0.500000 0.677495 0.266108
O O1 0.809544 0.500000 0.924836
O O2 0.797572 0.221874 0.883649
O O3 0.921092 0.298780 0.961622
O O4 0.778356 0.289784 0.018806
O O5 0.659835 0.500000 0.197435
O O6 0.675248 0.749857 0.120875
O O7 0.737499 0.727658 0.250141
O O8 0.579342 0.744408 0.228798
O O9 0.500000 0.718802 0.348062
O O10 0.500000 0.000000 0.385495
O O11 0.671276 0.500000 0.051814
O O12 0.625752 0.737861 0.983903
O O13 0.500000 0.264059 0.899794
O O14 0.404015 0.500000 0.904764
O O15 0.355245 0.256586 0.844016
O O16 0.215717 0.500000 0.331235
O O17 0.500000 0.500000 0.259696
#
# Coordination Sequence:
#
# PCOD8188082 Si02
#       7
#     8   8   4   8   8   8   4
#     4   9  17  30  47  67  92 122 157 191 226 268
#     4   9  17  27  44  70  97 121 148 187 231 274
#     4  10  18  28  46  70  94 119 152 192 228 267
#     4   8  15  28  46  68  93 118 149 190 231 271
#     4   9  18  32  51  72  91 118 156 193 228 268
#     4  10  18  29  47  69  95 123 152 186 230 275
#     4  10  18  28  44  70  96 121 150 182 226 277
#
# _framework density 17.169253999999999
#
# number of rings (size 3 to 8) (size 9 to 14) (size 15 to 20)
#    0.000    2.833    1.667    1.500    1.167    0.333 
#    0.000    0.000    1.833   12.000    0.000    0.000 
#    0.000    0.000    0.000    0.000    0.000    0.000 
#
# Total GULP energy -297445.926033 kJ/mol
# GULP energy per Si atom -12393.580251 kJ/mol
# Density = 1.713018 g / cm^3
# Si number density = 17.169254 Si / 1000 Ang^3
#
#
#
# Elastic Constant Matrix: (Units=GPa)
#
#
# Indices 1 2 3 4 5 6 
#
# 1 174.1394 20.4327 71.6794 0.0000 0.0000 0.0000
# 2 20.4327 19.0598 16.3277 0.0000 0.0000 0.0000
# 3 71.6794 16.3277 107.4798 0.0000 0.0000 0.0000
# 4 0.0000 0.0000 0.0000 16.9439 0.0000 0.0000
# 5 0.0000 0.0000 0.0000 0.0000 23.1585 0.0000
# 6 0.0000 0.0000 0.0000 0.0000 0.0000 21.3635
#
#
#
# Elastic Compliance Matrix: (Units=1/GPa)
#
#
# Indices 1 2 3 4 5 6 
#
# 1 0.008275 -0.004764 -0.004795 0.000000 0.000000 0.000000
# 2 -0.004764 0.063058 -0.006403 0.000000 0.000000 0.000000
# 3 -0.004795 -0.006403 0.013475 0.000000 0.000000 0.000000
# 4 0.000000 0.000000 0.000000 0.059018 0.000000 0.000000
# 5 0.000000 0.000000 0.000000 0.000000 0.043181 0.000000
# 6 0.000000 0.000000 0.000000 0.000000 0.000000 0.046809
#
#
# Mechanical properties :
#
#
# Convention : Reuss Voigt Hill
#
# Bulk Modulus (GPa) = 18.90887 57.50651 38.20769
# Shear Modulus (GPa) = 17.64499 25.10912 21.37705
#
# Velocity S-wave (km/s) = 3.20927 3.82834 3.53239
# Velocity P-wave (km/s) = 4.97691 7.28754 6.24011
#
# Compressibility (1/GPa) = 0.05288523
#
# Stress axis : x y z
#
# Youngs Moduli (GPa) = 120.84194 15.85848 74.21319
#
# Poissons Ratio (x) = 0.07554 0.35587
# Poissons Ratio (y) = 0.57563 0.47515
# Poissons Ratio (z) = 0.57946 0.10153
#
# Static dielectric constant tensor:
#      x y z
#    x 3.507140 0.000000 0.000000 
#    y 0.000000 2.878670 0.000000 
#    z 0.000000 0.000000 3.294310 
# 
# 
# High freq. dielectric constant tensor:
#      x y z
#    x 1.671940 0.000000 0.000000 
#    y 0.000000 1.627420 0.000000 
#    z 0.000000 0.000000 1.644070 
# 
# From -- ./inp_files/24308.got.cif
#   From: 2010.03.12/outbox.cif.g09.slc.cpg/sg44_13_cif.got.tgz:24308.got - 2010.04.14 02:36:11.
