data_PCOD8188457
_publ_section_title
;
Structure prediction by ZEFSAII (Michael W. Deem and Ramdas Pophale) SiO2 
 PCOD8188457
Probable space group: I M M 2
;
_chemical_formula_sum "Si O2"
_cell_formula_units_Z 56
_cell_length_a 13.658489
_cell_length_b 9.440683
_cell_length_c 28.726432
_cell_angle_alpha 90.000000
_cell_angle_beta 90.000000
_cell_angle_gamma 90.000000
_cell_volume 3704.143129
_symmetry_space_group_name_H-M "I M M 2"
_symmetry_group_IT_number 44
_symmetry_cell_setting 'orthorhombic'
loop_
_space_group_symop_operation_xyz
x,y,z
-x,-y,z
-x,y,z
x,-y,z
1/2+x,1/2+y,1/2+z
1/2-x,1/2-y,1/2+z
1/2-x,1/2+y,1/2+z
1/2+x,1/2-y,1/2+z
loop_
_atom_site_type_symbol
_atom_site_label
_atom_site_fract_x
_atom_site_fract_y
_atom_site_fract_z
Si Si1 0.293324 0.338842 0.140630
Si Si2 0.616397 0.156821 0.958106
Si Si3 0.611739 0.664361 0.872160
Si Si4 0.612151 0.335613 0.237682
Si Si5 0.110755 0.662102 0.199361
Si Si6 0.111062 0.332315 0.561061
Si Si7 0.215563 0.832521 0.276946
O O1 0.309824 0.500000 0.124684
O O2 0.363448 0.301758 0.184045
O O3 0.180793 0.310846 0.155208
O O4 0.316784 0.238169 0.097805
O O5 0.500000 0.152021 0.957541
O O6 0.656188 0.257864 0.917408
O O7 0.658887 0.000000 0.949022
O O8 0.648206 0.211371 0.009350
O O9 0.500000 0.711984 0.861812
O O10 0.615932 0.500000 0.883553
O O11 0.678446 0.703838 0.828406
O O12 0.500000 0.297067 0.247611
O O13 0.634782 0.500000 0.248255
O O14 0.678000 0.238216 0.271077
O O15 0.124526 0.500000 0.216789
O O16 0.138044 0.766615 0.241143
O O17 0.000000 0.692312 0.183445
O O18 0.116033 0.500000 0.566930
O O19 0.000000 0.278916 0.569524
O O20 0.222312 0.000000 0.268148
#
# Coordination Sequence:
#
# PCOD8188457 Si02
#       7
#     8   8   8   8   8   8   8
#     4   9  17  28  43  63  83 107 141 175 207 244
#     4   8  15  27  41  58  81 109 140 171 203 244
#     4   9  17  28  41  60  87 114 138 168 207 249
#     4   9  18  32  46  61  85 115 147 180 208 242
#     4   9  18  32  46  60  83 115 148 179 209 246
#     4   9  17  28  41  60  87 114 138 167 205 249
#     4  10  19  29  43  65  90 113 140 175 214 254
#
# _framework density 15.118207
#
# number of rings (size 3 to 8) (size 9 to 14) (size 15 to 20)
#    0.000    3.000    0.000    3.000    0.000    6.000 
#    0.000    2.857    0.000    0.000    0.000    1.000 
#    0.000    3.429    0.000    0.000    0.000    0.000 
#
# Total GULP energy -347127.556923 kJ/mol
# GULP energy per Si atom -12397.412747 kJ/mol
# Density = 1.508380 g / cm^3
# Si number density = 15.118207 Si / 1000 Ang^3
#
#
#
# Elastic Constant Matrix: (Units=GPa)
#
#
# Indices 1 2 3 4 5 6 
#
# 1 94.4484 42.4173 53.9763 0.0000 0.0000 0.0000
# 2 42.4173 66.7754 64.6774 0.0000 0.0000 0.0000
# 3 53.9763 64.6774 122.1012 0.0000 0.0000 0.0000
# 4 0.0000 0.0000 0.0000 31.1303 0.0000 0.0000
# 5 0.0000 0.0000 0.0000 0.0000 19.9545 0.0000
# 6 0.0000 0.0000 0.0000 0.0000 0.0000 21.5882
#
#
#
# Elastic Compliance Matrix: (Units=1/GPa)
#
#
# Indices 1 2 3 4 5 6 
#
# 1 0.015454 -0.006571 -0.003351 0.000000 0.000000 0.000000
# 2 -0.006571 0.033549 -0.014866 0.000000 0.000000 0.000000
# 3 -0.003351 -0.014866 0.017546 0.000000 0.000000 0.000000
# 4 0.000000 0.000000 0.000000 0.032123 0.000000 0.000000
# 5 0.000000 0.000000 0.000000 0.000000 0.050114 0.000000
# 6 0.000000 0.000000 0.000000 0.000000 0.000000 0.046322
#
#
# Mechanical properties :
#
#
# Convention : Reuss Voigt Hill
#
# Bulk Modulus (GPa) = 58.91916 67.27412 63.09664
# Shear Modulus (GPa) = 19.97283 22.68487 21.32885
#
# Velocity S-wave (km/s) = 3.63865 3.87783 3.76014
# Velocity P-wave (km/s) = 7.53060 8.04024 7.78959
#
# Compressibility (1/GPa) = 0.01697241
#
# Stress axis : x y z
#
# Youngs Moduli (GPa) = 64.70868 29.80755 56.99384
#
# Poissons Ratio (x) = 0.19587 0.19098
# Poissons Ratio (y) = 0.42521 0.84727
# Poissons Ratio (z) = 0.21683 0.44312
#
# Static dielectric constant tensor:
#      x y z
#    x 2.815820 0.000000 0.000000 
#    y 0.000000 2.941220 0.000000 
#    z 0.000000 0.000000 2.897400 
# 
# 
# High freq. dielectric constant tensor:
#      x y z
#    x 1.553810 0.000000 0.000000 
#    y 0.000000 1.582890 0.000000 
#    z 0.000000 0.000000 1.569780 
# 
# From -- ./inp_files/27204.got.cif
#   From: 2010.03.12/outbox.cif.g09.slc.cpg/sg44_14_cif.got.tgz:27204.got - 2010.04.14 02:36:11.
