data_PCOD8188932
_publ_section_title
;
Structure prediction by ZEFSAII (Michael W. Deem and Ramdas Pophale) SiO2 
 PCOD8188932
Probable space group: I M M 2
;
_chemical_formula_sum "Si O2"
_cell_formula_units_Z 64
_cell_length_a 28.705573
_cell_length_b 8.894230
_cell_length_c 12.564640
_cell_angle_alpha 90.000000
_cell_angle_beta 90.000000
_cell_angle_gamma 90.000000
_cell_volume 3207.928102
_symmetry_space_group_name_H-M "I M M 2"
_symmetry_group_IT_number 44
_symmetry_cell_setting 'orthorhombic'
loop_
_space_group_symop_operation_xyz
x,y,z
-x,-y,z
-x,y,z
x,-y,z
1/2+x,1/2+y,1/2+z
1/2-x,1/2-y,1/2+z
1/2-x,1/2+y,1/2+z
1/2+x,1/2-y,1/2+z
loop_
_atom_site_type_symbol
_atom_site_label
_atom_site_fract_x
_atom_site_fract_y
_atom_site_fract_z
Si Si1 0.411857 0.667646 0.778240
Si Si2 0.798324 0.824020 0.998436
Si Si3 0.174949 0.330950 0.208754
Si Si4 0.102111 0.172742 0.509549
Si Si5 0.446669 0.178476 0.207891
Si Si6 0.196915 0.673272 0.440992
Si Si7 0.949179 0.830129 0.060878
Si Si8 0.884231 0.676582 0.904312
O O1 0.388745 0.500000 0.771866
O O2 0.376814 0.799829 0.748926
O O3 0.452242 0.680152 0.689841
O O4 0.428162 0.692128 0.900421
O O5 0.745400 0.766454 0.988548
O O6 0.832596 0.747103 0.911594
O O7 0.801745 0.000000 0.977706
O O8 0.812261 0.787604 0.118797
O O9 0.178528 0.500000 0.162535
O O10 0.205838 0.309934 0.314382
O O11 0.075637 0.266740 0.598416
O O12 0.154854 0.228845 0.488918
O O13 0.104483 0.000000 0.546264
O O14 0.500000 0.238256 0.220220
O O15 0.414294 0.239339 0.304642
O O16 0.446809 0.000000 0.208143
O O17 0.186927 0.500000 0.471455
O O18 0.000000 0.785787 0.016711
O O19 0.935945 0.000000 0.026360
O O20 0.911126 0.717974 0.013033
O O21 0.878393 0.500000 0.895974
#
# Coordination Sequence:
#
# PCOD8188932 Si02
#       8
#     8   8   8   8   8   8   8   8
#     4   9  18  34  55  81 114 149 183 229 290 348
#     4  11  22  37  58  85 118 156 197 244 301 362
#     4  10  19  34  56  81 111 147 188 237 288 345
#     4  10  21  37  61  90 119 152 198 250 298 354
#     4  10  23  43  63  84 119 166 209 253 306 363
#     4   9  21  39  58  83 118 159 199 243 299 359
#     4  10  20  34  55  83 115 149 184 229 289 351
#     4  11  23  39  59  84 114 152 201 253 298 351
#
# _framework density 19.950572000000001
#
# number of rings (size 3 to 8) (size 9 to 14) (size 15 to 20)
#    0.000    2.000    1.250    1.875    0.000    5.500 
#    0.000    3.750    0.000    0.000    0.000    0.000 
#    0.000    0.000    0.000    0.000    0.000    0.000 
#
# Total GULP energy -396617.394417 kJ/mol
# GULP energy per Si atom -12394.293576 kJ/mol
# Density = 1.990516 g / cm^3
# Si number density = 19.950572 Si / 1000 Ang^3
#
#
#
# Elastic Constant Matrix: (Units=GPa)
#
#
# Indices 1 2 3 4 5 6 
#
# 1 83.0870 23.0616 31.1954 0.0000 0.0000 0.0000
# 2 23.0616 44.4542 18.6812 0.0000 0.0000 0.0000
# 3 31.1954 18.6812 100.5757 0.0000 0.0000 0.0000
# 4 0.0000 0.0000 0.0000 29.7580 0.0000 0.0000
# 5 0.0000 0.0000 0.0000 0.0000 24.0587 0.0000
# 6 0.0000 0.0000 0.0000 0.0000 0.0000 25.8745
#
#
#
# Elastic Compliance Matrix: (Units=1/GPa)
#
#
# Indices 1 2 3 4 5 6 
#
# 1 0.015120 -0.006370 -0.003507 0.000000 0.000000 0.000000
# 2 -0.006370 0.027084 -0.003055 0.000000 0.000000 0.000000
# 3 -0.003507 -0.003055 0.011598 0.000000 0.000000 0.000000
# 4 0.000000 0.000000 0.000000 0.033604 0.000000 0.000000
# 5 0.000000 0.000000 0.000000 0.000000 0.041565 0.000000
# 6 0.000000 0.000000 0.000000 0.000000 0.000000 0.038648
#
#
# Mechanical properties :
#
#
# Convention : Reuss Voigt Hill
#
# Bulk Modulus (GPa) = 35.79317 41.55482 38.67399
# Shear Modulus (GPa) = 24.65543 26.28351 25.46947
#
# Velocity S-wave (km/s) = 3.51925 3.63358 3.57687
# Velocity P-wave (km/s) = 5.87310 6.20306 6.04034
#
# Compressibility (1/GPa) = 0.02793829
#
# Stress axis : x y z
#
# Youngs Moduli (GPa) = 66.13622 36.92281 86.22348
#
# Poissons Ratio (x) = 0.23521 0.30235
# Poissons Ratio (y) = 0.42132 0.26338
# Poissons Ratio (z) = 0.23191 0.11279
#
# Static dielectric constant tensor:
#      x y z
#    x 3.698520 0.000000 0.000000 
#    y 0.000000 3.542750 0.000000 
#    z 0.000000 0.000000 3.773070 
# 
# 
# High freq. dielectric constant tensor:
#      x y z
#    x 1.768440 0.000000 0.000000 
#    y 0.000000 1.775630 0.000000 
#    z 0.000000 0.000000 1.782320 
# 
# From -- ./inp_files/11518.got.cif
#   From: 2010.03.12/outbox.cif.g09.slc.cpg/sg44_6_cif.got.tgz:11518.got - 2010.04.14 02:36:11.
