data_PCOD8188318
_publ_section_title
;
Structure prediction by ZEFSAII (Michael W. Deem and Ramdas Pophale) SiO2 
 PCOD8188318
Probable space group: I M M 2
;
_chemical_formula_sum "Si O2"
_cell_formula_units_Z 48
_cell_length_a 10.052484
_cell_length_b 8.856411
_cell_length_c 27.863058
_cell_angle_alpha 90.000000
_cell_angle_beta 90.000000
_cell_angle_gamma 90.000000
_cell_volume 2480.618237
_symmetry_space_group_name_H-M "I M M 2"
_symmetry_group_IT_number 44
_symmetry_cell_setting 'orthorhombic'
loop_
_space_group_symop_operation_xyz
x,y,z
-x,-y,z
-x,y,z
x,-y,z
1/2+x,1/2+y,1/2+z
1/2-x,1/2-y,1/2+z
1/2-x,1/2+y,1/2+z
1/2+x,1/2-y,1/2+z
loop_
_atom_site_type_symbol
_atom_site_label
_atom_site_fract_x
_atom_site_fract_y
_atom_site_fract_z
Si Si1 0.000000 0.821580 0.971791
Si Si2 0.750093 0.672557 0.409692
Si Si3 0.500000 0.179792 0.577316
Si Si4 0.000000 0.176362 0.571990
Si Si5 0.154331 0.821724 0.314624
Si Si6 0.500000 0.166073 0.976222
Si Si7 0.258740 0.320354 0.131417
Si Si8 0.845690 0.820580 0.735825
O O1 0.874617 0.768629 0.940313
O O2 0.000000 0.744315 0.023663
O O3 0.000000 0.000000 0.980454
O O4 0.728666 0.500000 0.392202
O O5 0.776242 0.777814 0.364371
O O6 0.873480 0.688696 0.444004
O O7 0.377376 0.240981 0.608838
O O8 0.500000 0.000000 0.572423
O O9 0.128951 0.247780 0.596705
O O10 0.000000 0.206130 0.515926
O O11 0.000000 0.000000 0.581521
O O12 0.245715 0.748873 0.274117
O O13 0.000000 0.763729 0.311840
O O14 0.157311 0.000000 0.308858
O O15 0.500000 0.000000 0.000277
O O16 0.258281 0.500000 0.131605
O O17 0.288722 0.262179 0.184946
O O18 0.000000 0.767745 0.742811
O O19 0.839256 0.000000 0.739646
#
# Coordination Sequence:
#
# PCOD8188318 Si02
#       8
#     4   8   4   4   8   4   8   8
#     4  10  22  38  57  84 117 153 194 239 285 338
#     4  10  21  39  60  82 113 151 195 241 284 343
#     4  10  20  34  55  84 117 153 194 237 283 336
#     4  10  18  32  55  80 111 145 182 233 285 338
#     4  11  25  42  60  87 121 152 190 243 302 357
#     4  10  20  34  55  82 111 145 188 237 285 340
#     4   9  18  34  56  84 113 146 192 238 278 334
#     4  10  21  39  64  90 117 153 198 243 291 348
#
# _framework density 19.350014999999999
#
# number of rings (size 3 to 8) (size 9 to 14) (size 15 to 20)
#    0.000    2.000    1.667    1.500    2.333    2.667 
#    0.000    1.667    0.000    0.000    0.000    0.000 
#    0.000    0.000    0.000    0.000    0.000    0.000 
#
# Total GULP energy -297526.206351 kJ/mol
# GULP energy per Si atom -12396.925265 kJ/mol
# Density = 1.930597 g / cm^3
# Si number density = 19.350015 Si / 1000 Ang^3
#
#
#
# Elastic Constant Matrix: (Units=GPa)
#
#
# Indices 1 2 3 4 5 6 
#
# 1 184.8623 33.8416 87.4631 0.0000 0.0000 0.0000
# 2 33.8416 30.4061 32.8453 0.0000 0.0000 0.0000
# 3 87.4631 32.8453 145.8118 0.0000 0.0000 0.0000
# 4 0.0000 0.0000 0.0000 32.5257 0.0000 0.0000
# 5 0.0000 0.0000 0.0000 0.0000 72.9410 0.0000
# 6 0.0000 0.0000 0.0000 0.0000 0.0000 19.7739
#
#
#
# Elastic Compliance Matrix: (Units=1/GPa)
#
#
# Indices 1 2 3 4 5 6 
#
# 1 0.008083 -0.004968 -0.003730 0.000000 0.000000 0.000000
# 2 -0.004968 0.046517 -0.007498 0.000000 0.000000 0.000000
# 3 -0.003730 -0.007498 0.010784 0.000000 0.000000 0.000000
# 4 0.000000 0.000000 0.000000 0.030745 0.000000 0.000000
# 5 0.000000 0.000000 0.000000 0.000000 0.013710 0.000000
# 6 0.000000 0.000000 0.000000 0.000000 0.000000 0.050572
#
#
# Mechanical properties :
#
#
# Convention : Reuss Voigt Hill
#
# Bulk Modulus (GPa) = 30.30937 74.37558 52.34247
# Shear Modulus (GPa) = 24.53368 38.84347 31.68857
#
# Velocity S-wave (km/s) = 3.56461 4.48528 4.05118
# Velocity P-wave (km/s) = 5.71311 8.08356 6.99942
#
# Compressibility (1/GPa) = 0.03299310
#
# Stress axis : x y z
#
# Youngs Moduli (GPa) = 123.70884 21.49735 92.72610
#
# Poissons Ratio (x) = 0.10680 0.34584
# Poissons Ratio (y) = 0.61458 0.69530
# Poissons Ratio (z) = 0.46140 0.16120
#
# Static dielectric constant tensor:
#      x y z
#    x 3.977010 0.000000 0.000000 
#    y 0.000000 3.267790 0.000000 
#    z 0.000000 0.000000 3.669800 
# 
# 
# High freq. dielectric constant tensor:
#      x y z
#    x 1.776260 0.000000 0.000000 
#    y 0.000000 1.720710 0.000000 
#    z 0.000000 0.000000 1.765410 
# 
# From -- ./inp_files/27051.got.cif
#   From: 2010.03.12/outbox.cif.g09.slc.cpg/sg44_14_cif.got.tgz:27051.got - 2010.04.14 02:36:11.
