data_PCOD8188567
_publ_section_title
;
Structure prediction by ZEFSAII (Michael W. Deem and Ramdas Pophale) SiO2 
 PCOD8188567
Probable space group: I M M 2
;
_chemical_formula_sum "Si O2"
_cell_formula_units_Z 64
_cell_length_a 30.080796
_cell_length_b 9.083890
_cell_length_c 14.258982
_cell_angle_alpha 90.000000
_cell_angle_beta 90.000000
_cell_angle_gamma 90.000000
_cell_volume 3896.275985
_symmetry_space_group_name_H-M "I M M 2"
_symmetry_group_IT_number 44
_symmetry_cell_setting 'orthorhombic'
loop_
_space_group_symop_operation_xyz
x,y,z
-x,-y,z
-x,y,z
x,-y,z
1/2+x,1/2+y,1/2+z
1/2-x,1/2-y,1/2+z
1/2-x,1/2+y,1/2+z
1/2+x,1/2-y,1/2+z
loop_
_atom_site_type_symbol
_atom_site_label
_atom_site_fract_x
_atom_site_fract_y
_atom_site_fract_z
Si Si1 0.451587 0.674662 0.905520
Si Si2 0.867838 0.669146 0.677376
Si Si3 0.277256 0.667464 0.494932
Si Si4 0.301174 0.826140 0.674337
Si Si5 0.711618 0.673663 0.280303
Si Si6 0.137598 0.173449 0.314558
Si Si7 0.449491 0.328810 0.117669
Si Si8 0.176301 0.335683 0.482355
O O1 0.500000 0.729999 0.868794
O O2 0.451171 0.500000 0.910246
O O3 0.412806 0.729336 0.835622
O O4 0.443838 0.732115 0.011369
O O5 0.869616 0.500000 0.708418
O O6 0.832135 0.749749 0.741522
O O7 0.916625 0.741494 0.687867
O O8 0.856045 0.689314 0.568800
O O9 0.293678 0.500000 0.508536
O O10 0.303142 0.772091 0.567008
O O11 0.284968 0.719934 0.388760
O O12 0.225739 0.682929 0.520904
O O13 0.256123 0.772389 0.726615
O O14 0.344239 0.756364 0.723733
O O15 0.305486 0.000000 0.677597
O O16 0.706558 0.500000 0.267717
O O17 0.167538 0.213811 0.404079
O O18 0.139994 0.000000 0.297506
O O19 0.500000 0.302392 0.151850
O O20 0.436940 0.500000 0.122508
O O21 0.170504 0.500000 0.438615
#
# Coordination Sequence:
#
# PCOD8188567 Si02
#       8
#     8   8   8   8   8   8   8   8
#     4   8  15  28  46  70  98 127 163 204 240 282
#     4  11  21  31  48  73 103 134 166 207 250 295
#     4  10  20  37  52  68  97 132 171 212 244 284
#     4  11  22  35  50  72 101 132 165 205 251 298
#     4  10  21  35  51  69  96 133 171 205 243 292
#     4  11  20  30  50  74  97 133 172 204 242 296
#     4   9  17  31  50  71  99 133 168 204 242 293
#     4  10  19  31  46  69 103 134 163 206 247 282
#
# _framework density 16.425941000000002
#
# number of rings (size 3 to 8) (size 9 to 14) (size 15 to 20)
#    0.000    2.000    3.750    1.875    0.000    2.250 
#    0.000    0.000    0.000    1.500    0.000    0.875 
#    0.000    3.000    0.000    0.000    0.000    0.000 
#
# Total GULP energy -396746.771829 kJ/mol
# GULP energy per Si atom -12398.336620 kJ/mol
# Density = 1.638856 g / cm^3
# Si number density = 16.425941 Si / 1000 Ang^3
#
#
#
# Elastic Constant Matrix: (Units=GPa)
#
#
# Indices 1 2 3 4 5 6 
#
# 1 102.2596 36.7792 35.9466 0.0000 0.0000 0.0000
# 2 36.7792 52.5142 32.8843 0.0000 0.0000 0.0000
# 3 35.9466 32.8843 64.5588 0.0000 0.0000 0.0000
# 4 0.0000 0.0000 0.0000 26.3942 0.0000 0.0000
# 5 0.0000 0.0000 0.0000 0.0000 24.5309 0.0000
# 6 0.0000 0.0000 0.0000 0.0000 0.0000 23.7589
#
#
#
# Elastic Compliance Matrix: (Units=1/GPa)
#
#
# Indices 1 2 3 4 5 6 
#
# 1 0.013754 -0.007103 -0.004040 0.000000 0.000000 0.000000
# 2 -0.007103 0.031629 -0.012156 0.000000 0.000000 0.000000
# 3 -0.004040 -0.012156 0.023931 0.000000 0.000000 0.000000
# 4 0.000000 0.000000 0.000000 0.037887 0.000000 0.000000
# 5 0.000000 0.000000 0.000000 0.000000 0.040765 0.000000
# 6 0.000000 0.000000 0.000000 0.000000 0.000000 0.042090
#
#
# Mechanical properties :
#
#
# Convention : Reuss Voigt Hill
#
# Bulk Modulus (GPa) = 44.02162 47.83920 45.93041
# Shear Modulus (GPa) = 20.47283 22.51830 21.49556
#
# Velocity S-wave (km/s) = 3.53423 3.70658 3.62143
# Velocity P-wave (km/s) = 6.59641 6.89244 6.74605
#
# Compressibility (1/GPa) = 0.02271611
#
# Stress axis : x y z
#
# Youngs Moduli (GPa) = 72.70662 31.61644 41.78620
#
# Poissons Ratio (x) = 0.22456 0.16883
# Poissons Ratio (y) = 0.51642 0.50796
# Poissons Ratio (z) = 0.29376 0.38433
#
# Static dielectric constant tensor:
#      x y z
#    x 3.247250 0.000000 0.000000 
#    y 0.000000 3.015760 0.000000 
#    z 0.000000 0.000000 2.882190 
# 
# 
# High freq. dielectric constant tensor:
#      x y z
#    x 1.627520 0.000000 0.000000 
#    y 0.000000 1.627080 0.000000 
#    z 0.000000 0.000000 1.603220 
# 
# From -- ./inp_files/17071.got.cif
#   From: 2010.03.12/outbox.cif.g09.slc.cpg/sg44_9_cif.got.tgz:17071.got - 2010.04.14 02:36:11.
