data_PCOD8188410
_publ_section_title
;
Structure prediction by ZEFSAII (Michael W. Deem and Ramdas Pophale) SiO2 
 PCOD8188410
Probable space group: I M M 2
;
_chemical_formula_sum "Si O2"
_cell_formula_units_Z 48
_cell_length_a 16.288633
_cell_length_b 11.564415
_cell_length_c 13.367782
_cell_angle_alpha 90.000000
_cell_angle_beta 90.000000
_cell_angle_gamma 90.000000
_cell_volume 2518.069201
_symmetry_space_group_name_H-M "I M M 2"
_symmetry_group_IT_number 44
_symmetry_cell_setting 'orthorhombic'
loop_
_space_group_symop_operation_xyz
x,y,z
-x,-y,z
-x,y,z
x,-y,z
1/2+x,1/2+y,1/2+z
1/2-x,1/2-y,1/2+z
1/2-x,1/2+y,1/2+z
1/2+x,1/2-y,1/2+z
loop_
_atom_site_type_symbol
_atom_site_label
_atom_site_fract_x
_atom_site_fract_y
_atom_site_fract_z
Si Si1 0.186936 0.267260 0.194930
Si Si2 0.095547 0.500000 0.166052
Si Si3 0.847560 0.864011 0.005672
Si Si4 0.000000 0.864182 0.874849
Si Si5 0.100335 0.500000 0.927524
Si Si6 0.260985 0.179728 0.394358
Si Si7 0.000000 0.862639 0.651208
Si Si8 0.830582 0.127040 0.580464
O O1 0.135825 0.384989 0.214370
O O2 0.137893 0.184456 0.117838
O O3 0.209466 0.195451 0.293427
O O4 0.273890 0.292496 0.146278
O O5 0.000000 0.500000 0.192736
O O6 0.111470 0.500000 0.047202
O O7 0.833076 0.000000 0.010141
O O8 0.923377 0.823227 0.938937
O O9 0.772151 0.804562 0.947490
O O10 0.000000 0.809069 0.763765
O O11 0.000000 0.000000 0.863299
O O12 0.150963 0.388620 0.884316
O O13 0.000000 0.500000 0.900840
O O14 0.198976 0.111531 0.466635
O O15 0.078660 0.818249 0.589249
O O16 0.000000 0.000000 0.656582
O O17 0.830036 0.000000 0.630603
#
# Coordination Sequence:
#
# PCOD8188410 Si02
#       8
#     8   4   8   4   4   8   4   8
#     4  11  22  37  62  85 122 162 205 262 318 383
#     4  11  22  42  66  91 121 164 222 269 311 377
#     4  10  22  35  55  86 122 158 196 254 319 375
#     4   9  18  34  51  84 115 142 193 248 307 358
#     4  11  22  42  68  93 125 164 216 277 317 371
#     4  11  22  37  61  86 123 163 207 257 317 386
#     4   9  18  30  59  81 110 151 190 262 296 367
#     4  10  18  38  55  83 115 151 205 248 311 365
#
# _framework density 19.062225000000002
#
# number of rings (size 3 to 8) (size 9 to 14) (size 15 to 20)
#    0.000    1.667    5.000    1.000    4.667    1.333 
#    3.000    0.000    0.000    3.000    0.000    4.667 
#    0.000    0.000    0.000    0.000    0.000    0.000 
#
# Total GULP energy -297360.908567 kJ/mol
# GULP energy per Si atom -12390.037857 kJ/mol
# Density = 1.901884 g / cm^3
# Si number density = 19.062225 Si / 1000 Ang^3
#
#
#
# Elastic Constant Matrix: (Units=GPa)
#
#
# Indices 1 2 3 4 5 6 
#
# 1 131.2293 33.9905 51.4268 0.0000 0.0000 0.0000
# 2 33.9905 91.1316 24.0191 0.0000 0.0000 0.0000
# 3 51.4268 24.0191 99.3537 0.0000 0.0000 0.0000
# 4 0.0000 0.0000 0.0000 23.0119 0.0000 0.0000
# 5 0.0000 0.0000 0.0000 0.0000 37.0029 0.0000
# 6 0.0000 0.0000 0.0000 0.0000 0.0000 16.5790
#
#
#
# Elastic Compliance Matrix: (Units=1/GPa)
#
#
# Indices 1 2 3 4 5 6 
#
# 1 0.010084 -0.002548 -0.004604 0.000000 0.000000 0.000000
# 2 -0.002548 0.012364 -0.001670 0.000000 0.000000 0.000000
# 3 -0.004604 -0.001670 0.012852 0.000000 0.000000 0.000000
# 4 0.000000 0.000000 0.000000 0.043456 0.000000 0.000000
# 5 0.000000 0.000000 0.000000 0.000000 0.027025 0.000000
# 6 0.000000 0.000000 0.000000 0.000000 0.000000 0.060317
#
#
# Mechanical properties :
#
#
# Convention : Reuss Voigt Hill
#
# Bulk Modulus (GPa) = 56.63763 60.06528 58.35146
# Shear Modulus (GPa) = 26.36755 29.47063 27.91909
#
# Velocity S-wave (km/s) = 3.72322 3.93622 3.83120
# Velocity P-wave (km/s) = 6.94692 7.22751 7.08860
#
# Compressibility (1/GPa) = 0.01765611
#
# Stress axis : x y z
#
# Youngs Moduli (GPa) = 99.16339 80.88232 77.80993
#
# Poissons Ratio (x) = 0.20608 0.35823
# Poissons Ratio (y) = 0.25266 0.12995
# Poissons Ratio (z) = 0.45653 0.13509
#
# Static dielectric constant tensor:
#      x y z
#    x 3.740230 0.000000 0.000000 
#    y 0.000000 3.380120 0.000000 
#    z 0.000000 0.000000 3.505320 
# 
# 
# High freq. dielectric constant tensor:
#      x y z
#    x 1.740360 0.000000 0.000000 
#    y 0.000000 1.734490 0.000000 
#    z 0.000000 0.000000 1.723740 
# 
# From -- ./inp_files/18404.got.cif
#   From: 2010.03.12/outbox.cif.g09.slc.cpg/sg44_10_cif.got.tgz:18404.got - 2010.04.14 02:36:11.
