data_PCOD8188274
_publ_section_title
;
Structure prediction by ZEFSAII (Michael W. Deem and Ramdas Pophale) SiO2 
 PCOD8188274
Probable space group: I M M 2
;
_chemical_formula_sum "Si O2"
_cell_formula_units_Z 64
_cell_length_a 8.999102
_cell_length_b 28.520389
_cell_length_c 12.727909
_cell_angle_alpha 90.000000
_cell_angle_beta 90.000000
_cell_angle_gamma 90.000000
_cell_volume 3266.718264
_symmetry_space_group_name_H-M "I M M 2"
_symmetry_group_IT_number 44
_symmetry_cell_setting 'orthorhombic'
loop_
_space_group_symop_operation_xyz
x,y,z
-x,-y,z
-x,y,z
x,-y,z
1/2+x,1/2+y,1/2+z
1/2-x,1/2-y,1/2+z
1/2-x,1/2+y,1/2+z
1/2+x,1/2-y,1/2+z
loop_
_atom_site_type_symbol
_atom_site_label
_atom_site_fract_x
_atom_site_fract_y
_atom_site_fract_z
Si Si1 0.177523 0.616733 0.894050
Si Si2 0.166100 0.169426 0.716731
Si Si3 0.324397 0.445080 0.713828
Si Si4 0.324679 0.050089 0.572283
Si Si5 0.327408 0.081728 0.789484
Si Si6 0.666431 0.704402 0.437457
Si Si7 0.673901 0.400580 0.493167
Si Si8 0.327228 0.702973 0.986627
O O1 0.239736 0.587509 0.796471
O O2 0.239898 0.669523 0.903937
O O3 0.000000 0.617942 0.885533
O O4 0.240256 0.590905 0.998986
O O5 0.294043 0.133790 0.749425
O O6 0.164305 0.207155 0.810642
O O7 0.212165 0.191820 0.606847
O O8 0.000000 0.146477 0.709560
O O9 0.500000 0.439663 0.730699
O O10 0.277473 0.500000 0.722919
O O11 0.274819 0.424520 0.601146
O O12 0.500000 0.056857 0.574545
O O13 0.267569 0.050189 0.692622
O O14 0.279746 0.000000 0.522271
O O15 0.500000 0.074707 0.810935
O O16 0.245151 0.069624 0.897907
O O17 0.500000 0.714604 0.480262
O O18 0.721993 0.654064 0.483546
O O19 0.780187 0.743433 0.475154
O O20 0.500000 0.404534 0.477695
O O21 0.500000 0.697607 0.961360
#
# Coordination Sequence:
#
# PCOD8188274 Si02
#       8
#     8   8   8   8   8   8   8   8
#     4  11  22  38  59  83 115 155 198 244 296 354
#     4   9  19  36  55  75 109 149 183 230 289 347
#     4  10  22  41  63  87 120 162 206 252 301 355
#     4   9  18  32  51  79 113 144 177 225 282 335
#     4  10  18  31  55  83 109 142 186 232 282 341
#     4   9  19  36  56  80 110 150 195 240 295 354
#     4   9  20  39  59  81 116 156 193 239 296 350
#     4  11  22  36  57  84 114 149 195 247 300 357
#
# _framework density 19.591526999999999
#
# number of rings (size 3 to 8) (size 9 to 14) (size 15 to 20)
#    0.000    2.250    1.250    2.250    0.000    5.250 
#    0.000    2.500    0.000    3.375    0.000    0.000 
#    0.000    0.000    0.000    0.000    0.000    0.000 
#
# Total GULP energy -396571.440737 kJ/mol
# GULP energy per Si atom -12392.857523 kJ/mol
# Density = 1.954694 g / cm^3
# Si number density = 19.591527 Si / 1000 Ang^3
#
#
#
# Elastic Constant Matrix: (Units=GPa)
#
#
# Indices 1 2 3 4 5 6 
#
# 1 46.9527 21.0937 37.5349 -0.0004 0.0000 0.0002
# 2 21.0937 73.8217 37.3498 -0.0009 0.0000 0.0004
# 3 37.5349 37.3498 112.8512 -0.0011 -0.0001 0.0003
# 4 -0.0004 -0.0009 -0.0011 26.3114 0.0000 0.0002
# 5 0.0000 0.0000 -0.0001 0.0000 31.0058 0.0001
# 6 0.0002 0.0004 0.0003 0.0002 0.0001 19.9052
#
#
#
# Elastic Compliance Matrix: (Units=1/GPa)
#
#
# Indices 1 2 3 4 5 6 
#
# 1 0.030080 -0.004244 -0.008600 0.000000 0.000000 0.000000
# 2 -0.004244 0.016869 -0.004172 0.000000 0.000000 0.000000
# 3 -0.008600 -0.004172 0.013102 0.000000 0.000000 0.000000
# 4 0.000000 0.000000 0.000000 0.038006 0.000000 0.000000
# 5 0.000000 0.000000 0.000000 0.000000 0.032252 0.000000
# 6 0.000000 0.000000 0.000000 0.000000 0.000000 0.050238
#
#
# Mechanical properties :
#
#
# Convention : Reuss Voigt Hill
#
# Bulk Modulus (GPa) = 38.43150 47.28692 42.85921
# Shear Modulus (GPa) = 22.39617 24.62095 23.50856
#
# Velocity S-wave (km/s) = 3.38473 3.54886 3.46777
# Velocity P-wave (km/s) = 5.91051 6.40167 6.16099
#
# Compressibility (1/GPa) = 0.02602032
#
# Stress axis : x y z
#
# Youngs Moduli (GPa) = 33.24511 59.27891 76.32219
#
# Poissons Ratio (x) = 0.25156 0.65638
# Poissons Ratio (y) = 0.14108 0.31839
# Poissons Ratio (z) = 0.28591 0.24729
#
# Static dielectric constant tensor:
#      x y z
#    x 3.417780 0.000000 0.000000 
#    y 0.000000 3.528980 0.000000 
#    z 0.000000 0.000000 3.862270 
# 
# 
# High freq. dielectric constant tensor:
#      x y z
#    x 1.749930 0.000000 0.000000 
#    y 0.000000 1.755860 0.000000 
#    z 0.000000 0.000000 1.770860 
# 
# From -- ./inp_files/11545.got.cif
#   From: 2010.03.12/outbox.cif.g09.slc.cpg/sg44_6_cif.got.tgz:11545.got - 2010.04.14 02:36:11.
