data_PCOD8188387
_publ_section_title
;
Structure prediction by ZEFSAII (Michael W. Deem and Ramdas Pophale) SiO2 
 PCOD8188387
Probable space group: I M M 2
;
_chemical_formula_sum "Si O2"
_cell_formula_units_Z 64
_cell_length_a 15.430714
_cell_length_b 8.998360
_cell_length_c 23.955162
_cell_angle_alpha 90.000000
_cell_angle_beta 90.000000
_cell_angle_gamma 90.000000
_cell_volume 3326.201065
_symmetry_space_group_name_H-M "I M M 2"
_symmetry_group_IT_number 44
_symmetry_cell_setting 'orthorhombic'
loop_
_space_group_symop_operation_xyz
x,y,z
-x,-y,z
-x,y,z
x,-y,z
1/2+x,1/2+y,1/2+z
1/2-x,1/2-y,1/2+z
1/2-x,1/2+y,1/2+z
1/2+x,1/2-y,1/2+z
loop_
_atom_site_type_symbol
_atom_site_label
_atom_site_fract_x
_atom_site_fract_y
_atom_site_fract_z
Si Si1 0.249449 0.324661 0.594070
Si Si2 0.852885 0.674270 0.905292
Si Si3 0.256809 0.823947 0.221899
Si Si4 0.901921 0.173505 0.528115
Si Si5 0.844492 0.175794 0.409162
Si Si6 0.097740 0.328334 0.028596
Si Si7 0.401896 0.329418 0.293939
Si Si8 0.594856 0.676891 0.791692
O O1 0.248340 0.500000 0.588213
O O2 0.249364 0.273257 0.658102
O O3 0.162285 0.261306 0.567766
O O4 0.336226 0.267313 0.564731
O O5 0.859645 0.500000 0.891965
O O6 0.754321 0.728782 0.909653
O O7 0.898863 0.761298 0.855704
O O8 0.898653 0.715368 0.963454
O O9 0.340773 0.754987 0.250626
O O10 0.169671 0.761825 0.251266
O O11 0.264279 0.000000 0.228312
O O12 0.891674 0.233922 0.464871
O O13 0.000000 0.202493 0.548180
O O14 0.877756 0.000000 0.530979
O O15 0.890742 0.240839 0.354145
O O16 0.850155 0.000000 0.407715
O O17 0.124379 0.500000 0.035425
O O18 0.000000 0.298588 0.050058
O O19 0.500000 0.314359 0.271622
O O20 0.372657 0.500000 0.297022
O O21 0.500000 0.730141 0.770585
O O22 0.599313 0.500000 0.792765
#
# Coordination Sequence:
#
# PCOD8188387 Si02
#       8
#     8   8   8   8   8   8   8   8
#     4  11  24  39  57  82 116 153 194 246 295 339
#     4  10  18  34  61  87 114 149 190 233 278 339
#     4  10  22  40  59  81 108 149 198 237 279 334
#     4  10  20  36  60  87 114 146 188 237 288 347
#     4   9  15  28  55  87 112 137 176 225 276 332
#     4  10  21  38  61  87 115 153 199 240 283 343
#     4  11  24  39  57  85 118 150 186 234 293 347
#     4   9  16  29  54  85 110 132 170 226 278 326
#
# _framework density 19.24117
#
# number of rings (size 3 to 8) (size 9 to 14) (size 15 to 20)
#    0.000    2.000    2.500    1.500    0.000    6.000 
#    0.000    3.750    0.000    0.375    0.000    0.000 
#    0.000    0.000    0.000    0.000    0.000    0.000 
#
# Total GULP energy -396798.353101 kJ/mol
# GULP energy per Si atom -12399.948534 kJ/mol
# Density = 1.919738 g / cm^3
# Si number density = 19.241170 Si / 1000 Ang^3
#
#
#
# Elastic Constant Matrix: (Units=GPa)
#
#
# Indices 1 2 3 4 5 6 
#
# 1 137.9841 35.2648 72.5219 0.0000 0.0000 0.0000
# 2 35.2648 44.5639 47.3433 0.0000 0.0000 0.0000
# 3 72.5219 47.3433 150.3457 0.0000 0.0000 0.0000
# 4 0.0000 0.0000 0.0000 26.0595 0.0000 0.0000
# 5 0.0000 0.0000 0.0000 0.0000 6.0722 0.0000
# 6 0.0000 0.0000 0.0000 0.0000 0.0000 24.7885
#
#
#
# Elastic Compliance Matrix: (Units=1/GPa)
#
#
# Indices 1 2 3 4 5 6 
#
# 1 0.010226 -0.004285 -0.003583 0.000000 0.000000 0.000000
# 2 -0.004285 0.035516 -0.009117 0.000000 0.000000 0.000000
# 3 -0.003583 -0.009117 0.011251 0.000000 0.000000 0.000000
# 4 0.000000 0.000000 0.000000 0.038374 0.000000 0.000000
# 5 0.000000 0.000000 0.000000 0.000000 0.164686 0.000000
# 6 0.000000 0.000000 0.000000 0.000000 0.000000 0.040341
#
#
# Mechanical properties :
#
#
# Convention : Reuss Voigt Hill
#
# Bulk Modulus (GPa) = 43.43677 71.46152 57.44915
# Shear Modulus (GPa) = 14.61826 23.23493 18.92659
#
# Velocity S-wave (km/s) = 2.75933 3.47877 3.13972
# Velocity P-wave (km/s) = 5.72501 7.30454 6.56247
#
# Compressibility (1/GPa) = 0.02302197
#
# Stress axis : x y z
#
# Youngs Moduli (GPa) = 97.79356 28.15615 88.88443
#
# Poissons Ratio (x) = 0.12066 0.31848
# Poissons Ratio (y) = 0.41907 0.81034
# Poissons Ratio (z) = 0.35040 0.25669
#
# Static dielectric constant tensor:
#      x y z
#    x 3.683750 0.000000 0.000000 
#    y 0.000000 3.187360 0.000000 
#    z 0.000000 0.000000 3.623660 
# 
# 
# High freq. dielectric constant tensor:
#      x y z
#    x 1.766010 0.000000 0.000000 
#    y 0.000000 1.711990 0.000000 
#    z 0.000000 0.000000 1.750130 
# 
# From -- ./inp_files/25091.got.cif
#   From: 2010.03.12/outbox.cif.g09.slc.cpg/sg44_13_cif.got.tgz:25091.got - 2010.04.14 02:36:11.
