data_PCOD8188404
_publ_section_title
;
Structure prediction by ZEFSAII (Michael W. Deem and Ramdas Pophale) SiO2 
 PCOD8188404
Probable space group: I M M 2
;
_chemical_formula_sum "Si O2"
_cell_formula_units_Z 48
_cell_length_a 7.714542
_cell_length_b 16.230578
_cell_length_c 19.890241
_cell_angle_alpha 90.000000
_cell_angle_beta 90.000000
_cell_angle_gamma 90.000000
_cell_volume 2490.486427
_symmetry_space_group_name_H-M "I M M 2"
_symmetry_group_IT_number 44
_symmetry_cell_setting 'orthorhombic'
loop_
_space_group_symop_operation_xyz
x,y,z
-x,-y,z
-x,y,z
x,-y,z
1/2+x,1/2+y,1/2+z
1/2-x,1/2-y,1/2+z
1/2-x,1/2+y,1/2+z
1/2+x,1/2-y,1/2+z
loop_
_atom_site_type_symbol
_atom_site_label
_atom_site_fract_x
_atom_site_fract_y
_atom_site_fract_z
Si Si1 0.803964 0.500000 0.073450
Si Si2 0.804038 0.000000 0.424946
Si Si3 0.298250 0.786056 0.006773
Si Si4 0.304444 0.797538 0.776135
Si Si5 0.500000 0.593414 0.487675
Si Si6 0.699435 0.329824 0.133001
Si Si7 0.797695 0.173429 0.385558
Si Si8 0.500000 0.407145 0.328571
O O1 0.768608 0.421057 0.119428
O O2 0.000000 0.500000 0.048314
O O3 0.689428 0.500000 0.006118
O O4 0.710769 0.082907 0.395968
O O5 0.000000 0.000000 0.398498
O O6 0.500000 0.813435 0.000977
O O7 0.175573 0.865043 0.016075
O O8 0.267526 0.726463 0.069152
O O9 0.229170 0.737762 0.941069
O O10 0.500000 0.821756 0.798366
O O11 0.297518 0.788117 0.695834
O O12 0.255061 0.710188 0.811791
O O13 0.174731 0.867539 0.800248
O O14 0.500000 0.500000 0.513925
O O15 0.500000 0.597778 0.407972
O O16 0.500000 0.335814 0.152711
O O17 0.000000 0.162542 0.399580
O O18 0.500000 0.500000 0.302276
#
# Coordination Sequence:
#
# PCOD8188404 Si02
#       8
#     4   4   8   8   4   8   8   4
#     4  12  24  34  52  94 132 159 196 244 307 368
#     4  10  18  36  62  88 120 157 198 247 298 361
#     4  10  21  38  62  89 120 155 198 255 308 359
#     4  11  23  40  59  85 122 165 201 243 297 362
#     4  11  24  40  66  90 114 155 209 256 301 358
#     4  11  23  39  60  87 122 167 202 245 307 367
#     4   9  18  35  60  86 116 158 200 243 300 355
#     4  11  24  40  58  88 118 157 199 246 299 356
#
# _framework density 19.273343000000001
#
# number of rings (size 3 to 8) (size 9 to 14) (size 15 to 20)
#    0.000    1.500    4.167    1.250    3.500    0.667 
#    1.500    1.667    1.833    0.000    0.000    0.000 
#    0.000    0.000    0.000    0.000    0.000    0.000 
#
# Total GULP energy -297584.878524 kJ/mol
# GULP energy per Si atom -12399.369938 kJ/mol
# Density = 1.922948 g / cm^3
# Si number density = 19.273343 Si / 1000 Ang^3
#
#
#
# Elastic Constant Matrix: (Units=GPa)
#
#
# Indices 1 2 3 4 5 6 
#
# 1 93.1465 52.8221 22.6415 0.0000 0.0000 0.0000
# 2 52.8221 151.6129 56.8587 0.0000 0.0000 0.0000
# 3 22.6415 56.8587 105.6258 0.0000 0.0000 0.0000
# 4 0.0000 0.0000 0.0000 30.8194 0.0000 0.0000
# 5 0.0000 0.0000 0.0000 0.0000 24.4106 0.0000
# 6 0.0000 0.0000 0.0000 0.0000 0.0000 20.8567
#
#
#
# Elastic Compliance Matrix: (Units=1/GPa)
#
#
# Indices 1 2 3 4 5 6 
#
# 1 0.013396 -0.004498 -0.000450 0.000000 0.000000 0.000000
# 2 -0.004498 0.009775 -0.004297 0.000000 0.000000 0.000000
# 3 -0.000450 -0.004297 0.011877 0.000000 0.000000 0.000000
# 4 0.000000 0.000000 0.000000 0.032447 0.000000 0.000000
# 5 0.000000 0.000000 0.000000 0.000000 0.040966 0.000000
# 6 0.000000 0.000000 0.000000 0.000000 0.000000 0.047946
#
#
# Mechanical properties :
#
#
# Convention : Reuss Voigt Hill
#
# Bulk Modulus (GPa) = 60.40053 68.33664 64.36859
# Shear Modulus (GPa) = 27.71344 29.75487 28.73415
#
# Velocity S-wave (km/s) = 3.79610 3.93343 3.86537
# Velocity P-wave (km/s) = 7.11483 7.49418 7.30696
#
# Compressibility (1/GPa) = 0.01655615
#
# Stress axis : x y z
#
# Youngs Moduli (GPa) = 74.64815 102.30518 84.19508
#
# Poissons Ratio (x) = 0.46022 0.03789
# Poissons Ratio (y) = 0.33580 0.36183
# Poissons Ratio (z) = 0.03359 0.43965
#
# Static dielectric constant tensor:
#      x y z
#    x 3.512890 0.000000 0.000000 
#    y 0.000000 3.673430 0.000000 
#    z 0.000000 0.000000 3.498670 
# 
# 
# High freq. dielectric constant tensor:
#      x y z
#    x 1.752230 0.000000 0.000000 
#    y 0.000000 1.742080 0.000000 
#    z 0.000000 0.000000 1.742610 
# 
# From -- ./inp_files/20354.got.cif
#   From: 2010.03.12/outbox.cif.g09.slc.cpg/sg44_11_cif.got.tgz:20354.got - 2010.04.14 02:36:11.
