data_PCOD8188696
_publ_section_title
;
Structure prediction by ZEFSAII (Michael W. Deem and Ramdas Pophale) SiO2 
 PCOD8188696
Probable space group: I M M 2
;
_chemical_formula_sum "Si O2"
_cell_formula_units_Z 64
_cell_length_a 23.224646
_cell_length_b 8.970996
_cell_length_c 18.846446
_cell_angle_alpha 90.000000
_cell_angle_beta 90.000000
_cell_angle_gamma 90.000000
_cell_volume 3926.623221
_symmetry_space_group_name_H-M "I M M 2"
_symmetry_group_IT_number 44
_symmetry_cell_setting 'orthorhombic'
loop_
_space_group_symop_operation_xyz
x,y,z
-x,-y,z
-x,y,z
x,-y,z
1/2+x,1/2+y,1/2+z
1/2-x,1/2-y,1/2+z
1/2-x,1/2+y,1/2+z
1/2+x,1/2-y,1/2+z
loop_
_atom_site_type_symbol
_atom_site_label
_atom_site_fract_x
_atom_site_fract_y
_atom_site_fract_z
Si Si1 0.246402 0.823040 0.053730
Si Si2 0.565280 0.827490 0.691345
Si Si3 0.229704 0.825883 0.409779
Si Si4 0.839958 0.674372 0.817155
Si Si5 0.932863 0.172715 0.905700
Si Si6 0.384893 0.324144 0.555765
Si Si7 0.277588 0.326239 0.194578
Si Si8 0.332227 0.827395 0.788487
O O1 0.180578 0.765800 0.057370
O O2 0.281274 0.756872 0.119686
O O3 0.250192 0.000000 0.054667
O O4 0.276139 0.762715 0.982799
O O5 0.500000 0.794983 0.715207
O O6 0.578621 0.739917 0.620054
O O7 0.606580 0.777649 0.755850
O O8 0.576039 0.000000 0.674378
O O9 0.290995 0.786569 0.374674
O O10 0.178765 0.771956 0.357860
O O11 0.222687 0.000000 0.424408
O O12 0.842414 0.500000 0.800961
O O13 0.900719 0.730792 0.846457
O O14 0.827470 0.760144 0.744205
O O15 0.000000 0.199300 0.894613
O O16 0.915708 0.000000 0.896662
O O17 0.914611 0.230338 0.983327
O O18 0.386935 0.500000 0.562326
O O19 0.288870 0.500000 0.183012
O O20 0.215515 0.294135 0.228919
O O21 0.331127 0.000000 0.811118
#
# Coordination Sequence:
#
# PCOD8188696 Si02
#       8
#     8   8   8   8   8   8   8   8
#     4  11  20  31  50  74 100 131 164 200 245 295
#     4  10  20  33  49  70  98 133 171 206 241 284
#     4  10  20  32  49  71  96 126 162 204 248 295
#     4  10  20  33  49  71  98 127 165 209 250 293
#     4  10  20  34  50  69  97 135 175 208 244 291
#     4  10  20  32  47  68  99 135 171 204 236 283
#     4  10  19  32  51  71  97 129 163 202 248 297
#     4   9  18  32  48  68  95 128 163 202 245 287
#
# _framework density 16.298991000000001
#
# number of rings (size 3 to 8) (size 9 to 14) (size 15 to 20)
#    0.000    2.000    2.500    1.875    0.000    4.000 
#    0.000    0.000    0.000    0.000    0.000    0.875 
#    0.000    5.000    0.000    0.000    0.000    0.000 
#
# Total GULP energy -396940.646311 kJ/mol
# GULP energy per Si atom -12404.395197 kJ/mol
# Density = 1.626189 g / cm^3
# Si number density = 16.298991 Si / 1000 Ang^3
#
#
#
# Elastic Constant Matrix: (Units=GPa)
#
#
# Indices 1 2 3 4 5 6 
#
# 1 80.3447 30.8417 51.0659 0.0000 0.0000 0.0000
# 2 30.8417 66.2563 52.2552 0.0000 0.0000 0.0000
# 3 51.0659 52.2552 117.4931 0.0000 0.0000 0.0000
# 4 0.0000 0.0000 0.0000 32.8004 0.0000 0.0000
# 5 0.0000 0.0000 0.0000 0.0000 24.6212 0.0000
# 6 0.0000 0.0000 0.0000 0.0000 0.0000 21.4407
#
#
#
# Elastic Compliance Matrix: (Units=1/GPa)
#
#
# Indices 1 2 3 4 5 6 
#
# 1 0.017664 -0.003338 -0.006192 0.000000 0.000000 0.000000
# 2 -0.003338 0.023878 -0.009169 0.000000 0.000000 0.000000
# 3 -0.006192 -0.009169 0.015280 0.000000 0.000000 0.000000
# 4 0.000000 0.000000 0.000000 0.030487 0.000000 0.000000
# 5 0.000000 0.000000 0.000000 0.000000 0.040615 0.000000
# 6 0.000000 0.000000 0.000000 0.000000 0.000000 0.046640
#
#
# Mechanical properties :
#
#
# Convention : Reuss Voigt Hill
#
# Bulk Modulus (GPa) = 51.48565 59.15774 55.32170
# Shear Modulus (GPa) = 22.88968 24.43457 23.66213
#
# Velocity S-wave (km/s) = 3.75155 3.87608 3.81432
# Velocity P-wave (km/s) = 7.10087 7.51040 7.30850
#
# Compressibility (1/GPa) = 0.01942289
#
# Stress axis : x y z
#
# Youngs Moduli (GPa) = 56.61339 41.87912 65.44343
#
# Poissons Ratio (x) = 0.13981 0.40525
# Poissons Ratio (y) = 0.18900 0.60004
# Poissons Ratio (z) = 0.35057 0.38398
#
# Static dielectric constant tensor:
#      x y z
#    x 2.948940 0.000000 0.000000 
#    y 0.000000 3.069040 0.000000 
#    z 0.000000 0.000000 3.012040 
# 
# 
# High freq. dielectric constant tensor:
#      x y z
#    x 1.601220 0.000000 0.000000 
#    y 0.000000 1.634230 0.000000 
#    z 0.000000 0.000000 1.621880 
# 
# From -- ./inp_files/19453.got.cif
#   From: 2010.03.12/outbox.cif.g09.slc.cpg/sg44_10_cif.got.tgz:19453.got - 2010.04.14 02:36:11.
