data_PCOD8188673
_publ_section_title
;
Structure prediction by ZEFSAII (Michael W. Deem and Ramdas Pophale) SiO2 
 PCOD8188673
Probable space group: I M M 2
;
_chemical_formula_sum "Si O2"
_cell_formula_units_Z 64
_cell_length_a 8.806157
_cell_length_b 23.316743
_cell_length_c 19.070066
_cell_angle_alpha 90.000000
_cell_angle_beta 90.000000
_cell_angle_gamma 90.000000
_cell_volume 3915.673807
_symmetry_space_group_name_H-M "I M M 2"
_symmetry_group_IT_number 44
_symmetry_cell_setting 'orthorhombic'
loop_
_space_group_symop_operation_xyz
x,y,z
-x,-y,z
-x,y,z
x,-y,z
1/2+x,1/2+y,1/2+z
1/2-x,1/2-y,1/2+z
1/2-x,1/2+y,1/2+z
1/2+x,1/2-y,1/2+z
loop_
_atom_site_type_symbol
_atom_site_label
_atom_site_fract_x
_atom_site_fract_y
_atom_site_fract_z
Si Si1 0.823498 0.220648 0.498640
Si Si2 0.821897 0.434992 0.513908
Si Si3 0.319655 0.766413 0.791703
Si Si4 0.322644 0.244359 0.149930
Si Si5 0.821494 0.665833 0.421053
Si Si6 0.178403 0.337130 0.874973
Si Si7 0.321442 0.620244 0.646031
Si Si8 0.822132 0.933900 0.293969
O O1 0.789973 0.216577 0.581478
O O2 0.772382 0.283922 0.474051
O O3 0.726837 0.173814 0.455756
O O4 0.000000 0.210408 0.481449
O O5 0.789096 0.500000 0.490907
O O6 0.757812 0.394265 0.451111
O O7 0.734254 0.421785 0.585140
O O8 0.000000 0.423909 0.526988
O O9 0.500000 0.762970 0.786635
O O10 0.251991 0.777473 0.715077
O O11 0.263281 0.818258 0.842675
O O12 0.263013 0.706113 0.822332
O O13 0.500000 0.237351 0.163241
O O14 0.255894 0.181597 0.139203
O O15 0.000000 0.661336 0.417353
O O16 0.228477 0.401092 0.854188
O O17 0.000000 0.329115 0.866694
O O18 0.500000 0.628970 0.640231
O O19 0.274577 0.590738 0.718586
O O20 0.000000 0.925601 0.307711
O O21 0.774370 0.000000 0.297609
#
# Coordination Sequence:
#
# PCOD8188673 Si02
#       8
#     8   8   8   8   8   8   8   8
#     4   9  18  33  51  67  96 129 157 198 251 301
#     4  10  19  32  50  70  95 131 173 209 239 277
#     4  10  19  32  49  68  97 132 163 199 248 297
#     4  11  20  32  51  75  99 127 164 204 248 294
#     4   8  15  30  47  66  92 126 161 196 241 288
#     4  11  21  32  49  73  98 125 165 208 246 289
#     4  11  21  32  47  69 100 135 168 199 237 286
#     4  10  21  36  51  67  95 137 175 202 240 293
#
# _framework density 16.344569
#
# number of rings (size 3 to 8) (size 9 to 14) (size 15 to 20)
#    0.000    2.000    2.500    3.375    0.000    2.500 
#    0.000    0.625    0.000    0.000    0.000    0.875 
#    0.000    3.000    0.000    0.000    0.000    0.000 
#
# Total GULP energy -396761.861714 kJ/mol
# GULP energy per Si atom -12398.808179 kJ/mol
# Density = 1.630737 g / cm^3
# Si number density = 16.344569 Si / 1000 Ang^3
#
#
#
# Elastic Constant Matrix: (Units=GPa)
#
#
# Indices 1 2 3 4 5 6 
#
# 1 68.0118 32.9625 43.9270 0.0000 0.0000 0.0000
# 2 32.9625 85.5209 57.2136 0.0000 0.0000 0.0000
# 3 43.9270 57.2136 118.5504 0.0000 0.0000 0.0000
# 4 0.0000 0.0000 0.0000 23.1884 0.0000 0.0000
# 5 0.0000 0.0000 0.0000 0.0000 27.4386 0.0000
# 6 0.0000 0.0000 0.0000 0.0000 0.0000 17.2241
#
#
#
# Elastic Compliance Matrix: (Units=1/GPa)
#
#
# Indices 1 2 3 4 5 6 
#
# 1 0.020265 -0.004116 -0.005522 0.000000 0.000000 0.000000
# 2 -0.004116 0.018105 -0.007212 0.000000 0.000000 0.000000
# 3 -0.005522 -0.007212 0.013962 0.000000 0.000000 0.000000
# 4 0.000000 0.000000 0.000000 0.043125 0.000000 0.000000
# 5 0.000000 0.000000 0.000000 0.000000 0.036445 0.000000
# 6 0.000000 0.000000 0.000000 0.000000 0.000000 0.058058
#
#
# Mechanical properties :
#
#
# Convention : Reuss Voigt Hill
#
# Bulk Modulus (GPa) = 53.67680 60.03215 56.85447
# Shear Modulus (GPa) = 21.75126 22.76889 22.26007
#
# Velocity S-wave (km/s) = 3.65196 3.73642 3.69443
# Velocity P-wave (km/s) = 7.12001 7.44468 7.28415
#
# Compressibility (1/GPa) = 0.01863002
#
# Stress axis : x y z
#
# Youngs Moduli (GPa) = 49.34598 55.23456 71.62249
#
# Poissons Ratio (x) = 0.22737 0.39552
# Poissons Ratio (y) = 0.20313 0.51656
# Poissons Ratio (z) = 0.27250 0.39836
#
# Static dielectric constant tensor:
#      x y z
#    x 3.021000 0.000000 0.000000 
#    y 0.000000 3.043560 0.000000 
#    z 0.000000 0.000000 3.330480 
# 
# 
# High freq. dielectric constant tensor:
#      x y z
#    x 1.626070 0.000000 0.000000 
#    y 0.000000 1.601530 0.000000 
#    z 0.000000 0.000000 1.628430 
# 
# From -- ./inp_files/20849.got.cif
#   From: 2010.03.12/outbox.cif.g09.slc.cpg/sg44_11_cif.got.tgz:20849.got - 2010.04.14 02:36:11.
