data_PCOD8188020
_publ_section_title
;
Structure prediction by ZEFSAII (Michael W. Deem and Ramdas Pophale) SiO2 
 PCOD8188020
Probable space group: I M M 2
;
_chemical_formula_sum "Si O2"
_cell_formula_units_Z 64
_cell_length_a 8.960306
_cell_length_b 25.605141
_cell_length_c 18.396599
_cell_angle_alpha 90.000000
_cell_angle_beta 90.000000
_cell_angle_gamma 90.000000
_cell_volume 4220.729842
_symmetry_space_group_name_H-M "I M M 2"
_symmetry_group_IT_number 44
_symmetry_cell_setting 'orthorhombic'
loop_
_space_group_symop_operation_xyz
x,y,z
-x,-y,z
-x,y,z
x,-y,z
1/2+x,1/2+y,1/2+z
1/2-x,1/2-y,1/2+z
1/2-x,1/2+y,1/2+z
1/2+x,1/2-y,1/2+z
loop_
_atom_site_type_symbol
_atom_site_label
_atom_site_fract_x
_atom_site_fract_y
_atom_site_fract_z
Si Si1 0.327141 0.060423 0.645290
Si Si2 0.324589 0.260345 0.991560
Si Si3 0.323043 0.146662 0.407082
Si Si4 0.326722 0.642736 0.239383
Si Si5 0.173013 0.939088 0.495675
Si Si6 0.666888 0.696381 0.778474
Si Si7 0.665139 0.194684 0.861373
Si Si8 0.326286 0.251527 0.157025
O O1 0.500000 0.072866 0.631378
O O2 0.266990 0.093076 0.713366
O O3 0.235918 0.077289 0.574139
O O4 0.301116 0.000000 0.664100
O O5 0.500000 0.274283 0.985622
O O6 0.275685 0.248728 0.073623
O O7 0.232539 0.309608 0.963252
O O8 0.287778 0.208111 0.944410
O O9 0.500000 0.146644 0.405346
O O10 0.262434 0.090835 0.433159
O O11 0.262952 0.155542 0.325407
O O12 0.500000 0.628773 0.237384
O O13 0.280616 0.655521 0.322717
O O14 0.285883 0.691411 0.187862
O O15 0.000000 0.923275 0.493548
O O16 0.198122 0.000000 0.481195
O O17 0.500000 0.674240 0.768103
O O18 0.664364 0.750401 0.820875
O O19 0.739829 0.705829 0.699651
O O20 0.500000 0.169425 0.858629
O O21 0.500000 0.240301 0.166977
#
# Coordination Sequence:
#
# PCOD8188020 Si02
#       8
#     8   8   8   8   8   8   8   8
#     4  10  20  32  45  62  84 109 140 178 214 249
#     4   9  17  29  44  62  87 116 144 175 210 251
#     4  11  20  29  44  63  85 113 144 177 211 249
#     4  10  18  27  42  61  83 113 144 175 210 249
#     4  10  20  33  47  62  83 111 142 176 212 249
#     4   9  17  29  43  59  82 111 142 174 208 247
#     4   8  15  27  41  57  80 111 143 175 209 245
#     4   9  17  28  42  62  86 111 141 174 208 246
#
# _framework density 15.163254999999999
#
# number of rings (size 3 to 8) (size 9 to 14) (size 15 to 20)
#    0.000    2.500    0.000    4.125    0.000    6.500 
#    0.000    0.000    0.000    0.000    0.000    0.000 
#    0.000    1.000    0.000    5.750    0.000    3.750 
#
# Total GULP energy -396796.312852 kJ/mol
# GULP energy per Si atom -12399.884777 kJ/mol
# Density = 1.512874 g / cm^3
# Si number density = 15.163255 Si / 1000 Ang^3
#
#
#
# Elastic Constant Matrix: (Units=GPa)
#
#
# Indices 1 2 3 4 5 6 
#
# 1 97.8301 39.6216 45.3631 0.0000 0.0000 0.0000
# 2 39.6216 52.0506 39.0547 0.0000 0.0000 0.0000
# 3 45.3631 39.0547 101.7973 0.0000 0.0000 0.0000
# 4 0.0000 0.0000 0.0000 24.8500 0.0000 0.0000
# 5 0.0000 0.0000 0.0000 0.0000 25.9642 0.0000
# 6 0.0000 0.0000 0.0000 0.0000 0.0000 22.1956
#
#
#
# Elastic Compliance Matrix: (Units=1/GPa)
#
#
# Indices 1 2 3 4 5 6 
#
# 1 0.015553 -0.009322 -0.003354 0.000000 0.000000 0.000000
# 2 -0.009322 0.032566 -0.008340 0.000000 0.000000 0.000000
# 3 -0.003354 -0.008340 0.014518 0.000000 0.000000 0.000000
# 4 0.000000 0.000000 0.000000 0.040241 0.000000 0.000000
# 5 0.000000 0.000000 0.000000 0.000000 0.038515 0.000000
# 6 0.000000 0.000000 0.000000 0.000000 0.000000 0.045054
#
#
# Mechanical properties :
#
#
# Convention : Reuss Voigt Hill
#
# Bulk Modulus (GPa) = 48.53440 55.52854 52.03147
# Shear Modulus (GPa) = 21.24533 23.11120 22.17826
#
# Velocity S-wave (km/s) = 3.74720 3.90828 3.82859
# Velocity P-wave (km/s) = 7.12737 7.55422 7.34389
#
# Compressibility (1/GPa) = 0.02060394
#
# Stress axis : x y z
#
# Youngs Moduli (GPa) = 64.29798 30.70720 68.88161
#
# Poissons Ratio (x) = 0.28626 0.23104
# Poissons Ratio (y) = 0.59939 0.57445
# Poissons Ratio (z) = 0.21566 0.25609
#
# Static dielectric constant tensor:
#      x y z
#    x 3.032490 0.000000 0.000000 
#    y 0.000000 2.672530 0.000000 
#    z 0.000000 0.000000 3.052630 
# 
# 
# High freq. dielectric constant tensor:
#      x y z
#    x 1.594120 0.000000 0.000000 
#    y 0.000000 1.542310 0.000000 
#    z 0.000000 0.000000 1.571460 
# 
# From -- ./inp_files/20760.got.cif
#   From: 2010.03.12/outbox.cif.g09.slc.cpg/sg44_11_cif.got.tgz:20760.got - 2010.04.14 02:36:11.
