data_PCOD8188719
_publ_section_title
;
Structure prediction by ZEFSAII (Michael W. Deem and Ramdas Pophale) SiO2 
 PCOD8188719
Probable space group: I M M 2
;
_chemical_formula_sum "Si O2"
_cell_formula_units_Z 48
_cell_length_a 9.167040
_cell_length_b 37.847866
_cell_length_c 7.605796
_cell_angle_alpha 90.000000
_cell_angle_beta 90.000000
_cell_angle_gamma 90.000000
_cell_volume 2638.852991
_symmetry_space_group_name_H-M "I M M 2"
_symmetry_group_IT_number 44
_symmetry_cell_setting 'orthorhombic'
loop_
_space_group_symop_operation_xyz
x,y,z
-x,-y,z
-x,y,z
x,-y,z
1/2+x,1/2+y,1/2+z
1/2-x,1/2-y,1/2+z
1/2-x,1/2+y,1/2+z
1/2+x,1/2-y,1/2+z
loop_
_atom_site_type_symbol
_atom_site_label
_atom_site_fract_x
_atom_site_fract_y
_atom_site_fract_z
Si Si1 0.829472 0.959067 0.073790
Si Si2 0.332099 0.040657 0.722175
Si Si3 0.670292 0.214028 0.081218
Si Si4 0.327537 0.837363 0.384305
Si Si5 0.829056 0.285399 0.182010
Si Si6 0.327424 0.916916 0.377655
O O1 0.751053 0.936229 0.219601
O O2 0.000000 0.951091 0.076337
O O3 0.794782 0.000000 0.110730
O O4 0.767034 0.947749 0.885041
O O5 0.500000 0.047394 0.773363
O O6 0.283683 0.064302 0.558478
O O7 0.305447 0.000000 0.670236
O O8 0.500000 0.221634 0.107676
O O9 0.722829 0.181993 0.205360
O O10 0.753382 0.248937 0.136523
O O11 0.706628 0.203241 0.881353
O O12 0.500000 0.839389 0.395945
O O13 0.267833 0.815916 0.553502
O O14 0.265807 0.877013 0.385933
O O15 0.000000 0.279685 0.152349
O O16 0.500000 0.918605 0.344728
#
# Coordination Sequence:
#
# PCOD8188719 Si02
#       6
#     8   8   8   8   8   8
#     4  10  21  36  55  80 111 147 182 218 267 325
#     4   9  18  33  55  82 108 138 181 227 268 316
#     4  10  19  32  53  77 100 131 170 213 261 311
#     4   9  19  34  51  77 108 136 172 218 269 318
#     4  10  19  32  52  75 100 132 171 214 259 310
#     4  10  20  35  57  82 109 142 182 228 273 318
#
# _framework density 18.189720999999999
#
# number of rings (size 3 to 8) (size 9 to 14) (size 15 to 20)
#    0.000    2.333    1.667    1.000    0.000    3.667 
#    0.000    8.333    0.000    2.000    0.000    0.000 
#    0.000    0.000    0.000    0.000    0.000    0.000 
#
# Total GULP energy -297633.554276 kJ/mol
# GULP energy per Si atom -12401.398095 kJ/mol
# Density = 1.814832 g / cm^3
# Si number density = 18.189721 Si / 1000 Ang^3
#
#
#
# Elastic Constant Matrix: (Units=GPa)
#
#
# Indices 1 2 3 4 5 6 
#
# 1 43.1390 47.9152 53.7772 -0.9679 -0.0022 0.0013
# 2 47.9152 139.2888 99.7478 2.4486 0.0209 0.0223
# 3 53.7772 99.7478 175.1885 2.8958 0.0206 0.0227
# 4 -0.9679 2.4486 2.8958 2016.9238 1.7382 -0.5005
# 5 -0.0022 0.0209 0.0206 1.7382 13.8046 0.0074
# 6 0.0013 0.0223 0.0227 -0.5005 0.0074 23.8249
#
#
#
# Elastic Compliance Matrix: (Units=1/GPa)
#
#
# Indices 1 2 3 4 5 6 
#
# 1 0.043473 -0.009115 -0.008156 0.000044 0.000027 0.000015
# 2 -0.009115 0.014033 -0.005192 -0.000014 -0.000013 -0.000008
# 3 -0.008156 -0.005192 0.011168 -0.000014 -0.000008 -0.000006
# 4 0.000044 -0.000014 -0.000014 0.000496 -0.000062 0.000010
# 5 0.000027 -0.000013 -0.000008 -0.000062 0.072448 -0.000024
# 6 0.000015 -0.000008 -0.000006 0.000010 -0.000024 0.041973
#
#
# Mechanical properties :
#
#
# Convention : Reuss Voigt Hill
#
# Bulk Modulus (GPa) = 42.10696 84.49964 63.30330
# Shear Modulus (GPa) = 21.14771 421.32239 221.23505
#
# Velocity S-wave (km/s) = 3.41342 15.23580 11.04040
# Velocity P-wave (km/s) = 6.22369 18.86959 14.04983
#
# Compressibility (1/GPa) = 0.02374904
#
# Stress axis : x y z
#
# Youngs Moduli (GPa) = 23.00282 71.25989 89.54137
#
# Poissons Ratio (x) = 0.64953 0.73027
# Poissons Ratio (y) = 0.20967 0.46489
# Poissons Ratio (z) = 0.18760 0.36997
#
# Static dielectric constant tensor:
#      x y z
#    x 3.176100 -0.000190 -0.000100 
#    y -0.000190 -4.849680 0.019820 
#    z -0.000100 0.019820 3.765010 
# 
# 
# High freq. dielectric constant tensor:
#      x y z
#    x 1.681600 0.000000 0.000000 
#    y 0.000000 1.703410 0.000000 
#    z 0.000000 0.000000 1.721500 
# 
# From -- ./inp_files/4912.got.cif
#   From: 2010.03.12/outbox.cif.g09.slc.cpg/sg44_3_cif.got.tgz:4912.got - 2010.04.14 02:36:11.
