data_PCOD8188169
_publ_section_title
;
Structure prediction by ZEFSAII (Michael W. Deem and Ramdas Pophale) SiO2 
 PCOD8188169
Probable space group: I M M 2
;
_chemical_formula_sum "Si O2"
_cell_formula_units_Z 48
_cell_length_a 28.759225
_cell_length_b 8.496411
_cell_length_c 10.477990
_cell_angle_alpha 90.000000
_cell_angle_beta 90.000000
_cell_angle_gamma 90.000000
_cell_volume 2560.298906
_symmetry_space_group_name_H-M "I M M 2"
_symmetry_group_IT_number 44
_symmetry_cell_setting 'orthorhombic'
loop_
_space_group_symop_operation_xyz
x,y,z
-x,-y,z
-x,y,z
x,-y,z
1/2+x,1/2+y,1/2+z
1/2-x,1/2-y,1/2+z
1/2-x,1/2+y,1/2+z
1/2+x,1/2-y,1/2+z
loop_
_atom_site_type_symbol
_atom_site_label
_atom_site_fract_x
_atom_site_fract_y
_atom_site_fract_z
Si Si1 0.193266 0.186577 0.271020
Si Si2 0.550643 0.312846 0.126967
Si Si3 0.050643 0.187154 0.915072
Si Si4 0.646271 0.312585 0.026371
Si Si5 0.296273 0.686675 0.271020
Si Si6 0.646271 0.687415 0.515668
O O1 0.167745 0.256600 0.396117
O O2 0.246262 0.235834 0.271019
O O3 0.167744 0.256600 0.145924
O O4 0.189910 0.000000 0.271020
O O5 0.500000 0.256153 0.074051
O O6 0.552177 0.500000 0.129106
O O7 0.557473 0.250334 0.271019
O O8 0.593136 0.249200 0.040354
O O9 0.000000 0.243847 0.967988
O O10 0.052177 0.000000 0.912933
O O11 0.093136 0.250800 0.001685
O O12 0.646719 0.500000 0.023823
O O13 0.676537 0.253031 0.146048
O O14 0.291140 0.500000 0.271020
O O15 0.323463 0.746969 0.395993
O O16 0.646719 0.500000 0.518217
#
# Coordination Sequence:
#
# PCOD8188169 Si02
#       6
#     8   8   8   8   8   8
#     4  10  20  30  41  61  91 115 134 172 219 248
#     4   8  12  20  37  59  81 107 139 169 199 245
#     4   8  12  20  37  59  81 107 139 169 199 245
#     4   9  16  27  41  60  85 112 139 171 211 248
#     4  10  18  30  47  61  79 113 152 176 195 242
#     4   9  16  27  41  60  85 112 139 171 211 248
#
# _framework density 18.747812
#
# number of rings (size 3 to 8) (size 9 to 14) (size 15 to 20)
#    0.000    3.000    1.667    2.000    0.000    0.000 
#    0.000    0.833    0.000    5.000    0.000    0.000 
#    0.000    8.000    0.000    0.000    0.000    0.000 
#
# Total GULP energy -297402.757340 kJ/mol
# GULP energy per Si atom -12391.781556 kJ/mol
# Density = 1.870514 g / cm^3
# Si number density = 18.747812 Si / 1000 Ang^3
#
#
#
# Elastic Constant Matrix: (Units=GPa)
#
#
# Indices 1 2 3 4 5 6 
#
# 1 209.9280 1.4096 101.3050 0.0000 0.0000 0.0000
# 2 1.4096 2.1564 5.7720 0.0000 0.0000 0.0000
# 3 101.3050 5.7720 160.4613 0.0000 0.0000 0.0000
# 4 0.0000 0.0000 0.0000 4.9811 0.0000 0.0000
# 5 0.0000 0.0000 0.0000 0.0000 2.5541 0.0000
# 6 0.0000 0.0000 0.0000 0.0000 0.0000 18.6439
#
#
#
# Elastic Compliance Matrix: (Units=1/GPa)
#
#
# Indices 1 2 3 4 5 6 
#
# 1 0.006973 0.007996 -0.004690 0.000000 0.000000 0.000000
# 2 0.007996 0.522323 -0.023837 0.000000 0.000000 0.000000
# 3 -0.004690 -0.023837 0.010050 0.000000 0.000000 0.000000
# 4 0.000000 0.000000 0.000000 0.200760 0.000000 0.000000
# 5 0.000000 0.000000 0.000000 0.000000 0.391521 0.000000
# 6 0.000000 0.000000 0.000000 0.000000 0.000000 0.053637
#
#
# Mechanical properties :
#
#
# Convention : Reuss Voigt Hill
#
# Bulk Modulus (GPa) = 2.00688 65.50208 33.75448
# Shear Modulus (GPa) = 3.59087 22.83977 13.21532
#
# Velocity S-wave (km/s) = 1.38546 3.49415 2.65787
# Velocity P-wave (km/s) = 1.90582 7.16192 5.24048
#
# Compressibility (1/GPa) = 0.49828484
#
# Stress axis : x y z
#
# Youngs Moduli (GPa) = 143.40829 1.91452 99.49823
#
# Poissons Ratio (x) = -0.01531 0.46665
# Poissons Ratio (y) = -1.14664 2.37171
# Poissons Ratio (z) = 0.67258 0.04564
#
# Static dielectric constant tensor:
#      x y z
#    x 3.946200 0.000000 0.000000 
#    y 0.000000 2.707280 0.000000 
#    z 0.000000 0.000000 3.699760 
# 
# 
# High freq. dielectric constant tensor:
#      x y z
#    x 1.752410 0.000000 0.000000 
#    y 0.000000 1.652760 0.000000 
#    z 0.000000 0.000000 1.715540 
# 
# From -- ./inp_files/6109.got.cif
#   From: 2010.03.12/outbox.cif.g09.slc.cpg/sg44_4_cif.got.tgz:6109.got - 2010.04.14 02:36:11.
