data_PCOD8188099
_publ_section_title
;
Structure prediction by ZEFSAII (Michael W. Deem and Ramdas Pophale) SiO2 
 PCOD8188099
Probable space group: I M M 2
;
_chemical_formula_sum "Si O2"
_cell_formula_units_Z 64
_cell_length_a 30.397449
_cell_length_b 8.648629
_cell_length_c 14.307817
_cell_angle_alpha 90.000000
_cell_angle_beta 90.000000
_cell_angle_gamma 90.000000
_cell_volume 3761.471563
_symmetry_space_group_name_H-M "I M M 2"
_symmetry_group_IT_number 44
_symmetry_cell_setting 'orthorhombic'
loop_
_space_group_symop_operation_xyz
x,y,z
-x,-y,z
-x,y,z
x,-y,z
1/2+x,1/2+y,1/2+z
1/2-x,1/2-y,1/2+z
1/2-x,1/2+y,1/2+z
1/2+x,1/2-y,1/2+z
loop_
_atom_site_type_symbol
_atom_site_label
_atom_site_fract_x
_atom_site_fract_y
_atom_site_fract_z
Si Si1 0.774358 0.678152 0.032280
Si Si2 0.634609 0.178746 0.853771
Si Si3 0.451815 0.816122 0.159075
Si Si4 0.798546 0.180837 0.219664
Si Si5 0.048627 0.316917 0.449603
Si Si6 0.137611 0.324167 0.730091
Si Si7 0.686292 0.171474 0.042428
Si Si8 0.783009 0.820283 0.832094
O O1 0.784363 0.500000 0.012078
O O2 0.802940 0.735581 0.119768
O O3 0.723514 0.701285 0.060782
O O4 0.784721 0.776228 0.940382
O O5 0.656192 0.279474 0.772239
O O6 0.585909 0.245171 0.878088
O O7 0.633159 0.000000 0.822575
O O8 0.664662 0.202154 0.943641
O O9 0.500000 0.763669 0.197279
O O10 0.413098 0.761998 0.230440
O O11 0.449581 0.000000 0.152039
O O12 0.445191 0.748393 0.054167
O O13 0.755329 0.230788 0.277492
O O14 0.794748 0.000000 0.203099
O O15 0.054478 0.500000 0.455657
O O16 0.000000 0.272355 0.411450
O O17 0.141385 0.500000 0.767923
O O18 0.149705 0.315283 0.621288
O O19 0.168869 0.216278 0.791187
O O20 0.707889 0.000000 0.044766
O O21 0.772552 0.000000 0.821392
#
# Coordination Sequence:
#
# PCOD8188099 Si02
#       8
#     8   8   8   8   8   8   8   8
#     4  12  24  38  54  73  98 132 171 215 258 304
#     4  10  18  30  49  75 104 138 175 211 250 297
#     4   8  13  23  43  73 105 135 168 207 250 295
#     4  12  24  37  52  73 101 135 173 213 253 303
#     4   8  13  23  43  73 105 135 168 207 250 295
#     4  10  18  30  49  75 104 138 175 211 250 297
#     4  10  18  28  47  72 104 139 172 209 246 287
#     4  12  24  37  52  73 101 135 173 213 253 303
#
# _framework density 17.014617000000001
#
# number of rings (size 3 to 8) (size 9 to 14) (size 15 to 20)
#    0.000    1.750    3.750    4.125    0.000    0.000 
#    0.000    0.000    0.000    0.750    0.000    2.625 
#    0.000    7.000    0.000    0.000    0.000    0.000 
#
# Total GULP energy -396662.317341 kJ/mol
# GULP energy per Si atom -12395.697417 kJ/mol
# Density = 1.697589 g / cm^3
# Si number density = 17.014617 Si / 1000 Ang^3
#
#
#
# Elastic Constant Matrix: (Units=GPa)
#
#
# Indices 1 2 3 4 5 6 
#
# 1 107.6255 14.0205 18.6892 0.0000 0.0000 0.0000
# 2 14.0205 54.7060 6.1958 0.0000 0.0000 0.0000
# 3 18.6892 6.1958 55.0164 0.0000 0.0000 0.0000
# 4 0.0000 0.0000 0.0000 22.1395 0.0000 0.0000
# 5 0.0000 0.0000 0.0000 0.0000 22.9257 0.0000
# 6 0.0000 0.0000 0.0000 0.0000 0.0000 16.4987
#
#
#
# Elastic Compliance Matrix: (Units=1/GPa)
#
#
# Indices 1 2 3 4 5 6 
#
# 1 0.010137 -0.002237 -0.003192 0.000000 0.000000 0.000000
# 2 -0.002237 0.019009 -0.001381 0.000000 0.000000 0.000000
# 3 -0.003192 -0.001381 0.019416 0.000000 0.000000 0.000000
# 4 0.000000 0.000000 0.000000 0.045168 0.000000 0.000000
# 5 0.000000 0.000000 0.000000 0.000000 0.043619 0.000000
# 6 0.000000 0.000000 0.000000 0.000000 0.000000 0.060611
#
#
# Mechanical properties :
#
#
# Convention : Reuss Voigt Hill
#
# Bulk Modulus (GPa) = 28.61733 32.79544 30.70638
# Shear Modulus (GPa) = 22.39876 24.20897 23.30386
#
# Velocity S-wave (km/s) = 3.63222 3.77614 3.70488
# Velocity P-wave (km/s) = 5.86911 6.19104 6.03222
#
# Compressibility (1/GPa) = 0.03494386
#
# Stress axis : x y z
#
# Youngs Moduli (GPa) = 98.64781 52.60632 51.50350
#
# Poissons Ratio (x) = 0.11766 0.16438
# Poissons Ratio (y) = 0.22063 0.07113
# Poissons Ratio (z) = 0.31486 0.07265
#
# Static dielectric constant tensor:
#      x y z
#    x 3.464450 0.000000 0.000000 
#    y 0.000000 2.996430 0.000000 
#    z 0.000000 0.000000 3.081940 
# 
# 
# High freq. dielectric constant tensor:
#      x y z
#    x 1.652740 0.000000 0.000000 
#    y 0.000000 1.634090 0.000000 
#    z 0.000000 0.000000 1.631820 
# 
# From -- ./inp_files/19687.got.cif
#   From: 2010.03.12/outbox.cif.g09.slc.cpg/sg44_10_cif.got.tgz:19687.got - 2010.04.14 02:36:11.
