data_PCOD8188742
_publ_section_title
;
Structure prediction by ZEFSAII (Michael W. Deem and Ramdas Pophale) SiO2 
 PCOD8188742
Probable space group: I M M 2
;
_chemical_formula_sum "Si O2"
_cell_formula_units_Z 64
_cell_length_a 9.209252
_cell_length_b 24.961043
_cell_length_c 15.197554
_cell_angle_alpha 90.000000
_cell_angle_beta 90.000000
_cell_angle_gamma 90.000000
_cell_volume 3493.500266
_symmetry_space_group_name_H-M "I M M 2"
_symmetry_group_IT_number 44
_symmetry_cell_setting 'orthorhombic'
loop_
_space_group_symop_operation_xyz
x,y,z
-x,-y,z
-x,y,z
x,-y,z
1/2+x,1/2+y,1/2+z
1/2-x,1/2-y,1/2+z
1/2-x,1/2+y,1/2+z
1/2+x,1/2-y,1/2+z
loop_
_atom_site_type_symbol
_atom_site_label
_atom_site_fract_x
_atom_site_fract_y
_atom_site_fract_z
Si Si1 0.828480 0.886063 0.597010
Si Si2 0.829478 0.160905 0.088393
Si Si3 0.165830 0.262738 0.316725
Si Si4 0.169385 0.562201 0.261271
Si Si5 0.328398 0.137267 0.919982
Si Si6 0.835303 0.282137 0.114524
Si Si7 0.673713 0.647089 0.784569
Si Si8 0.172210 0.940664 0.417985
O O1 0.758631 0.910362 0.683908
O O2 0.771765 0.826491 0.574524
O O3 0.781620 0.922956 0.515288
O O4 0.000000 0.883826 0.609574
O O5 0.787771 0.223626 0.080844
O O6 0.778100 0.138603 0.183435
O O7 0.000000 0.152640 0.076259
O O8 0.746677 0.127056 0.013894
O O9 0.236917 0.306688 0.381396
O O10 0.177919 0.285943 0.219159
O O11 0.238348 0.203592 0.321842
O O12 0.000000 0.256869 0.344820
O O13 0.210536 0.500000 0.267509
O O14 0.212210 0.589073 0.354107
O O15 0.000000 0.571137 0.240900
O O16 0.500000 0.140187 0.933481
O O17 0.000000 0.294597 0.085376
O O18 0.500000 0.650759 0.787441
O O19 0.736898 0.599199 0.844043
O O20 0.000000 0.940475 0.409857
O O21 0.235008 0.000000 0.400552
#
# Coordination Sequence:
#
# PCOD8188742 Si02
#       8
#     8   8   8   8   8   8   8   8
#     4  11  21  31  50  81 111 135 167 217 270 308
#     4   9  19  33  52  77 106 137 170 215 264 305
#     4   8  14  27  48  70  93 128 170 204 238 293
#     4  10  21  38  57  74  99 143 188 215 253 324
#     4  10  19  32  53  77 103 136 175 216 256 309
#     4   9  17  33  51  71 105 142 174 203 245 312
#     4   8  15  30  50  69  94 133 173 206 247 303
#     4   9  18  31  47  71 102 132 166 207 252 304
#
# _framework density 18.319735999999999
#
# number of rings (size 3 to 8) (size 9 to 14) (size 15 to 20)
#    0.000    2.750    1.250    2.250    1.750    1.750 
#    0.000    0.625    0.000    2.250    0.000    0.000 
#    0.000    0.000    0.000    0.000    0.000    0.000 
#
# Total GULP energy -396661.369450 kJ/mol
# GULP energy per Si atom -12395.667795 kJ/mol
# Density = 1.827804 g / cm^3
# Si number density = 18.319736 Si / 1000 Ang^3
#
#
#
# Elastic Constant Matrix: (Units=GPa)
#
#
# Indices 1 2 3 4 5 6 
#
# 1 36.6689 33.0791 35.1813 0.0000 0.0001 0.0000
# 2 33.0791 113.9226 54.2291 0.0002 -0.0001 0.0000
# 3 35.1813 54.2291 100.2817 0.0012 -0.0004 0.0001
# 4 0.0000 0.0002 0.0012 29.6319 -0.0001 0.0000
# 5 0.0001 -0.0001 -0.0004 -0.0001 23.7608 0.0001
# 6 0.0000 0.0000 0.0001 0.0000 0.0001 17.6537
#
#
#
# Elastic Compliance Matrix: (Units=1/GPa)
#
#
# Indices 1 2 3 4 5 6 
#
# 1 0.045472 -0.007554 -0.011868 0.000001 0.000000 0.000000
# 2 -0.007554 0.013076 -0.004421 0.000000 0.000000 0.000000
# 3 -0.011868 -0.004421 0.016526 -0.000001 0.000000 0.000000
# 4 0.000001 0.000000 -0.000001 0.033747 0.000000 0.000000
# 5 0.000000 0.000000 0.000000 0.000000 0.042086 0.000000
# 6 0.000000 0.000000 0.000000 0.000000 0.000000 0.056645
#
#
# Mechanical properties :
#
#
# Convention : Reuss Voigt Hill
#
# Bulk Modulus (GPa) = 36.51173 55.09471 45.80322
# Shear Modulus (GPa) = 18.91310 22.76819 20.84064
#
# Velocity S-wave (km/s) = 3.21657 3.52919 3.37650
# Velocity P-wave (km/s) = 5.81108 6.83712 6.34487
#
# Compressibility (1/GPa) = 0.02738846
#
# Stress axis : x y z
#
# Youngs Moduli (GPa) = 21.99159 76.47763 60.51100
#
# Poissons Ratio (x) = 0.57773 0.71812
# Poissons Ratio (y) = 0.16613 0.26750
# Poissons Ratio (z) = 0.26099 0.33808
#
# Static dielectric constant tensor:
#      x y z
#    x 2.933720 0.000000 0.000000 
#    y 0.000000 3.603010 0.000000 
#    z 0.000000 0.000000 3.382630 
# 
# 
# High freq. dielectric constant tensor:
#      x y z
#    x 1.664340 0.000000 0.000000 
#    y 0.000000 1.711060 0.000000 
#    z 0.000000 0.000000 1.712000 
# 
# From -- ./inp_files/16777.got.cif
#   From: 2010.03.12/outbox.cif.g09.slc.cpg/sg44_9_cif.got.tgz:16777.got - 2010.04.14 02:36:11.
