data_PCOD8188263
_publ_section_title
;
Structure prediction by ZEFSAII (Michael W. Deem and Ramdas Pophale) SiO2 
 PCOD8188263
Probable space group: I M M 2
;
_chemical_formula_sum "Si O2"
_cell_formula_units_Z 64
_cell_length_a 19.589028
_cell_length_b 9.001533
_cell_length_c 20.820183
_cell_angle_alpha 90.000000
_cell_angle_beta 90.000000
_cell_angle_gamma 90.000000
_cell_volume 3671.249559
_symmetry_space_group_name_H-M "I M M 2"
_symmetry_group_IT_number 44
_symmetry_cell_setting 'orthorhombic'
loop_
_space_group_symop_operation_xyz
x,y,z
-x,-y,z
-x,y,z
x,-y,z
1/2+x,1/2+y,1/2+z
1/2-x,1/2-y,1/2+z
1/2-x,1/2+y,1/2+z
1/2+x,1/2-y,1/2+z
loop_
_atom_site_type_symbol
_atom_site_label
_atom_site_fract_x
_atom_site_fract_y
_atom_site_fract_z
Si Si1 0.422594 0.671562 0.891580
Si Si2 0.076614 0.172333 0.645928
Si Si3 0.577525 0.825816 0.757142
Si Si4 0.803701 0.328316 0.453198
Si Si5 0.794638 0.176739 0.212405
Si Si6 0.703178 0.828257 0.095770
Si Si7 0.281862 0.325032 0.330728
Si Si8 0.426422 0.675891 0.290470
O O1 0.500000 0.693736 0.915949
O O2 0.407883 0.500000 0.875562
O O3 0.408043 0.767415 0.828422
O O4 0.371812 0.729413 0.946465
O O5 0.128995 0.255578 0.600280
O O6 0.084496 0.235215 0.718190
O O7 0.000000 0.201015 0.620435
O O8 0.095010 0.000000 0.644024
O O9 0.500000 0.790166 0.735778
O O10 0.628856 0.743154 0.708686
O O11 0.592666 0.000000 0.756611
O O12 0.824689 0.500000 0.445687
O O13 0.770347 0.298650 0.523197
O O14 0.748403 0.281806 0.399793
O O15 0.756315 0.235223 0.148259
O O16 0.756861 0.236728 0.275340
O O17 0.798751 0.000000 0.215494
O O18 0.693319 0.000000 0.109952
O O19 0.274965 0.500000 0.316074
O O20 0.361573 0.274265 0.332965
O O21 0.500000 0.736402 0.317353
O O22 0.430930 0.500000 0.287585
#
# Coordination Sequence:
#
# PCOD8188263 Si02
#       8
#     8   8   8   8   8   8   8   8
#     4  10  20  33  50  75 106 137 171 211 255 303
#     4   9  17  30  49  73 100 130 169 213 251 296
#     4  10  20  34  54  79 104 131 168 212 258 311
#     4  10  21  35  50  71 102 140 177 210 250 303
#     4  11  21  33  52  76 104 135 170 215 259 302
#     4  10  22  36  48  70 106 143 174 209 256 308
#     4  10  18  31  54  76  96 129 172 215 255 302
#     4   8  14  26  47  75 100 120 153 208 262 300
#
# _framework density 17.432756000000001
#
# number of rings (size 3 to 8) (size 9 to 14) (size 15 to 20)
#    0.000    2.250    2.500    1.875    0.000    3.250 
#    0.000    2.500    0.000    1.125    0.000    3.500 
#    0.000    0.000    0.000    0.000    0.000    0.000 
#
# Total GULP energy -396699.513397 kJ/mol
# GULP energy per Si atom -12396.859794 kJ/mol
# Density = 1.739308 g / cm^3
# Si number density = 17.432756 Si / 1000 Ang^3
#
#
#
# Elastic Constant Matrix: (Units=GPa)
#
#
# Indices 1 2 3 4 5 6 
#
# 1 129.6486 40.6545 65.7387 0.0000 0.0000 0.0000
# 2 40.6545 52.3820 36.2950 0.0000 0.0000 0.0000
# 3 65.7387 36.2950 107.4639 0.0000 0.0000 0.0000
# 4 0.0000 0.0000 0.0000 19.2355 0.0000 0.0000
# 5 0.0000 0.0000 0.0000 0.0000 23.4779 0.0000
# 6 0.0000 0.0000 0.0000 0.0000 0.0000 22.3200
#
#
#
# Elastic Compliance Matrix: (Units=1/GPa)
#
#
# Indices 1 2 3 4 5 6 
#
# 1 0.012353 -0.005681 -0.005638 0.000000 0.000000 0.000000
# 2 -0.005681 0.027535 -0.005825 0.000000 0.000000 0.000000
# 3 -0.005638 -0.005825 0.014722 0.000000 0.000000 0.000000
# 4 0.000000 0.000000 0.000000 0.051987 0.000000 0.000000
# 5 0.000000 0.000000 0.000000 0.000000 0.042593 0.000000
# 6 0.000000 0.000000 0.000000 0.000000 0.000000 0.044803
#
#
# Mechanical properties :
#
#
# Convention : Reuss Voigt Hill
#
# Bulk Modulus (GPa) = 49.20559 63.87453 56.54006
# Shear Modulus (GPa) = 21.27150 22.79375 22.03263
#
# Velocity S-wave (km/s) = 3.49693 3.61989 3.55894
# Velocity P-wave (km/s) = 6.67772 7.36149 7.02793
#
# Compressibility (1/GPa) = 0.02032289
#
# Stress axis : x y z
#
# Youngs Moduli (GPa) = 80.94883 36.31679 67.92672
#
# Poissons Ratio (x) = 0.20632 0.38299
# Poissons Ratio (y) = 0.45987 0.39565
# Poissons Ratio (z) = 0.45641 0.21153
#
# Static dielectric constant tensor:
#      x y z
#    x 3.661460 0.000000 0.000000 
#    y 0.000000 3.117050 0.000000 
#    z 0.000000 0.000000 3.124480 
# 
# 
# High freq. dielectric constant tensor:
#      x y z
#    x 1.680820 0.000000 0.000000 
#    y 0.000000 1.663440 0.000000 
#    z 0.000000 0.000000 1.645880 
# 
# From -- ./inp_files/23418.got.cif
#   From: 2010.03.12/outbox.cif.g09.slc.cpg/sg44_12_cif.got.tgz:23418.got - 2010.04.14 02:36:11.
