data_PCOD8188157
_publ_section_title
;
Structure prediction by ZEFSAII (Michael W. Deem and Ramdas Pophale) SiO2 
 PCOD8188157
Probable space group: I M M 2
;
_chemical_formula_sum "Si O2"
_cell_formula_units_Z 56
_cell_length_a 22.986235
_cell_length_b 8.872835
_cell_length_c 14.425290
_cell_angle_alpha 90.000000
_cell_angle_beta 90.000000
_cell_angle_gamma 90.000000
_cell_volume 2942.082187
_symmetry_space_group_name_H-M "I M M 2"
_symmetry_group_IT_number 44
_symmetry_cell_setting 'orthorhombic'
loop_
_space_group_symop_operation_xyz
x,y,z
-x,-y,z
-x,y,z
x,-y,z
1/2+x,1/2+y,1/2+z
1/2-x,1/2-y,1/2+z
1/2-x,1/2+y,1/2+z
1/2+x,1/2-y,1/2+z
loop_
_atom_site_type_symbol
_atom_site_label
_atom_site_fract_x
_atom_site_fract_y
_atom_site_fract_z
Si Si1 0.215580 0.327187 0.422300
Si Si2 0.652034 0.326280 0.430254
Si Si3 0.111134 0.179684 0.120139
Si Si4 0.000000 0.179724 0.231297
Si Si5 0.344124 0.320910 0.225557
Si Si6 0.110214 0.675734 0.552663
Si Si7 0.500000 0.821930 0.933181
Si Si8 0.722473 0.677096 0.732250
O O1 0.205966 0.500000 0.389775
O O2 0.280710 0.304945 0.460374
O O3 0.170351 0.283287 0.502022
O O4 0.204759 0.216419 0.336930
O O5 0.636375 0.500000 0.421728
O O6 0.612628 0.257546 0.513562
O O7 0.639575 0.255510 0.328422
O O8 0.055685 0.242964 0.175385
O O9 0.169676 0.235017 0.169413
O O10 0.109039 0.000000 0.119492
O O11 0.000000 0.242132 0.334557
O O12 0.000000 0.000000 0.236630
O O13 0.343001 0.500000 0.226096
O O14 0.390847 0.261787 0.151099
O O15 0.280172 0.262530 0.199055
O O16 0.104574 0.500000 0.573820
O O17 0.056535 0.731309 0.490208
O O18 0.500000 0.000000 0.916656
O O19 0.733510 0.500000 0.722057
#
# Coordination Sequence:
#
# PCOD8188157 Si02
#       8
#     8   8   8   4   8   8   4   8
#     4   9  17  30  49  72 100 134 169 209 258 307
#     4   8  15  29  47  69  98 129 162 203 252 302
#     4   9  17  30  49  73 101 134 170 208 253 302
#     4  10  20  34  55  80 102 130 173 220 255 294
#     4  10  20  33  51  76 104 133 169 216 263 307
#     4  10  20  35  54  74 101 140 178 212 258 313
#     4  10  22  38  55  76 104 138 171 206 257 316
#     4  10  18  29  49  76 105 136 168 205 254 312
#
# _framework density 19.034137999999999
#
# number of rings (size 3 to 8) (size 9 to 14) (size 15 to 20)
#    0.000    2.571    0.000    3.429    0.000    3.429 
#    0.000    1.429    0.000    8.571    0.000    0.000 
#    0.000    0.000    0.000    0.000    0.000    0.000 
#
# Total GULP energy -347089.287063 kJ/mol
# GULP energy per Si atom -12396.045967 kJ/mol
# Density = 1.899082 g / cm^3
# Si number density = 19.034138 Si / 1000 Ang^3
#
#
#
# Elastic Constant Matrix: (Units=GPa)
#
#
# Indices 1 2 3 4 5 6 
#
# 1 93.6190 24.2252 89.0963 0.0000 0.0000 0.0000
# 2 24.2252 35.8051 31.3827 0.0000 0.0000 0.0000
# 3 89.0963 31.3827 160.3140 0.0000 0.0000 0.0000
# 4 0.0000 0.0000 0.0000 27.3421 0.0000 0.0000
# 5 0.0000 0.0000 0.0000 0.0000 32.1566 0.0000
# 6 0.0000 0.0000 0.0000 0.0000 0.0000 18.0060
#
#
#
# Elastic Compliance Matrix: (Units=1/GPa)
#
#
# Indices 1 2 3 4 5 6 
#
# 1 0.023501 -0.005375 -0.012009 0.000000 0.000000 0.000000
# 2 -0.005375 0.034943 -0.003853 0.000000 0.000000 0.000000
# 3 -0.012009 -0.003853 0.013666 0.000000 0.000000 0.000000
# 4 0.000000 0.000000 0.000000 0.036574 0.000000 0.000000
# 5 0.000000 0.000000 0.000000 0.000000 0.031098 0.000000
# 6 0.000000 0.000000 0.000000 0.000000 0.000000 0.055537
#
#
# Mechanical properties :
#
#
# Convention : Reuss Voigt Hill
#
# Bulk Modulus (GPa) = 33.74253 64.34962 49.04607
# Shear Modulus (GPa) = 20.18807 25.16987 22.67897
#
# Velocity S-wave (km/s) = 3.26026 3.64036 3.45554
# Velocity P-wave (km/s) = 5.65139 7.17987 6.46099
#
# Compressibility (1/GPa) = 0.02963619
#
# Stress axis : x y z
#
# Youngs Moduli (GPa) = 42.55120 28.61818 73.17391
#
# Poissons Ratio (x) = 0.15382 0.87873
# Poissons Ratio (y) = 0.22871 0.28195
# Poissons Ratio (z) = 0.51099 0.11027
#
# Static dielectric constant tensor:
#      x y z
#    x 3.517990 0.000000 0.000000 
#    y 0.000000 3.158270 0.000000 
#    z 0.000000 0.000000 3.813670 
# 
# 
# High freq. dielectric constant tensor:
#      x y z
#    x 1.724850 0.000000 0.000000 
#    y 0.000000 1.704370 0.000000 
#    z 0.000000 0.000000 1.756630 
# 
# From -- ./inp_files/19224.got.cif
#   From: 2010.03.12/outbox.cif.g09.slc.cpg/sg44_10_cif.got.tgz:19224.got - 2010.04.14 02:36:11.
