data_PCOD8188730
_publ_section_title
;
Structure prediction by ZEFSAII (Michael W. Deem and Ramdas Pophale) SiO2 
 PCOD8188730
Probable space group: I M M 2
;
_chemical_formula_sum "Si O2"
_cell_formula_units_Z 48
_cell_length_a 7.868708
_cell_length_b 9.052522
_cell_length_c 34.280102
_cell_angle_alpha 90.000000
_cell_angle_beta 90.000000
_cell_angle_gamma 90.000000
_cell_volume 2441.828306
_symmetry_space_group_name_H-M "I M M 2"
_symmetry_group_IT_number 44
_symmetry_cell_setting 'orthorhombic'
loop_
_space_group_symop_operation_xyz
x,y,z
-x,-y,z
-x,y,z
x,-y,z
1/2+x,1/2+y,1/2+z
1/2-x,1/2-y,1/2+z
1/2-x,1/2+y,1/2+z
1/2+x,1/2-y,1/2+z
loop_
_atom_site_type_symbol
_atom_site_label
_atom_site_fract_x
_atom_site_fract_y
_atom_site_fract_z
Si Si1 0.802162 0.674360 0.860170
Si Si2 0.301186 0.333687 0.281440
Si Si3 0.500000 0.176229 0.906332
Si Si4 0.193496 0.332065 0.198731
Si Si5 0.313117 0.324170 0.545369
Si Si6 0.192477 0.337287 0.626193
Si Si7 0.000000 0.324690 0.495750
O O1 0.773031 0.500000 0.863333
O O2 0.752276 0.726493 0.816806
O O3 0.674079 0.757707 0.888982
O O4 0.000000 0.715444 0.869704
O O5 0.500000 0.338324 0.274819
O O6 0.231896 0.500000 0.290064
O O7 0.219449 0.265363 0.242070
O O8 0.500000 0.225697 0.951185
O O9 0.500000 0.000000 0.900682
O O10 0.256166 0.500000 0.200675
O O11 0.303292 0.253785 0.165913
O O12 0.000000 0.316578 0.185756
O O13 0.500000 0.276926 0.529900
O O14 0.294656 0.500000 0.547106
O O15 0.291983 0.263461 0.589733
O O16 0.169248 0.259187 0.516559
O O17 0.266774 0.500000 0.635274
O O18 0.000000 0.348417 0.611800
O O19 0.000000 0.500000 0.498576
#
# Coordination Sequence:
#
# PCOD8188730 Si02
#       7
#     8   8   4   8   8   8   4
#     4  10  22  40  61  86 118 155 194 240 295 354
#     4   9  18  34  55  78 106 143 188 236 287 340
#     4  11  23  37  61  91 121 153 193 245 297 359
#     4  10  21  34  49  75 111 147 185 230 278 332
#     4   9  16  29  51  77 109 145 179 226 284 334
#     4  10  19  32  52  77 107 143 187 234 278 330
#     4   9  18  33  51  81 115 143 183 233 285 343
#
# _framework density 19.657402999999999
#
# number of rings (size 3 to 8) (size 9 to 14) (size 15 to 20)
#    0.000    2.333    0.833    1.750    1.167    4.333 
#    0.000    3.333    0.000    2.000    0.000    2.333 
#    0.000    0.000    0.000    0.000    0.000    0.000 
#
# Total GULP energy -297509.623522 kJ/mol
# GULP energy per Si atom -12396.234313 kJ/mol
# Density = 1.961266 g / cm^3
# Si number density = 19.657403 Si / 1000 Ang^3
#
#
#
# Elastic Constant Matrix: (Units=GPa)
#
#
# Indices 1 2 3 4 5 6 
#
# 1 115.2079 32.7028 72.7948 0.0000 0.0000 0.0000
# 2 32.7028 57.7933 45.5956 0.0000 0.0000 0.0000
# 3 72.7948 45.5956 157.7805 0.0000 0.0000 0.0000
# 4 0.0000 0.0000 0.0000 22.2291 0.0000 0.0000
# 5 0.0000 0.0000 0.0000 0.0000 29.8391 0.0000
# 6 0.0000 0.0000 0.0000 0.0000 0.0000 22.0511
#
#
#
# Elastic Compliance Matrix: (Units=1/GPa)
#
#
# Indices 1 2 3 4 5 6 
#
# 1 0.012727 -0.003328 -0.004910 0.000000 0.000000 0.000000
# 2 -0.003328 0.023283 -0.005193 0.000000 0.000000 0.000000
# 3 -0.004910 -0.005193 0.010104 0.000000 0.000000 0.000000
# 4 0.000000 0.000000 0.000000 0.044986 0.000000 0.000000
# 5 0.000000 0.000000 0.000000 0.000000 0.033513 0.000000
# 6 0.000000 0.000000 0.000000 0.000000 0.000000 0.045349
#
#
# Mechanical properties :
#
#
# Convention : Reuss Voigt Hill
#
# Bulk Modulus (GPa) = 51.94235 70.32978 61.13607
# Shear Modulus (GPa) = 24.60119 26.80310 25.70215
#
# Velocity S-wave (km/s) = 3.54149 3.69658 3.61987
# Velocity P-wave (km/s) = 6.57298 7.35357 6.97421
#
# Compressibility (1/GPa) = 0.01925211
#
# Stress axis : x y z
#
# Youngs Moduli (GPa) = 78.57222 42.94948 98.97072
#
# Poissons Ratio (x) = 0.14293 0.48596
# Poissons Ratio (y) = 0.26148 0.51396
# Poissons Ratio (z) = 0.38580 0.22304
#
# Static dielectric constant tensor:
#      x y z
#    x 3.662770 0.000000 0.000000 
#    y 0.000000 3.249980 0.000000 
#    z 0.000000 0.000000 3.607100 
# 
# 
# High freq. dielectric constant tensor:
#      x y z
#    x 1.777750 0.000000 0.000000 
#    y 0.000000 1.724540 0.000000 
#    z 0.000000 0.000000 1.768730 
# 
# From -- ./inp_files/26926.got.cif
#   From: 2010.03.12/outbox.cif.g09.slc.cpg/sg44_14_cif.got.tgz:26926.got - 2010.04.14 02:36:11.
