data_PCOD8188142
_publ_section_title
;
Structure prediction by ZEFSAII (Michael W. Deem and Ramdas Pophale) SiO2 
 PCOD8188142
Probable space group: I M M 2
;
_chemical_formula_sum "Si O2"
_cell_formula_units_Z 36
_cell_length_a 13.299845
_cell_length_b 7.533963
_cell_length_c 22.413613
_cell_angle_alpha 90.000000
_cell_angle_beta 90.000000
_cell_angle_gamma 90.000000
_cell_volume 2245.856129
_symmetry_space_group_name_H-M "I M M 2"
_symmetry_group_IT_number 44
_symmetry_cell_setting 'orthorhombic'
loop_
_space_group_symop_operation_xyz
x,y,z
-x,-y,z
-x,y,z
x,-y,z
1/2+x,1/2+y,1/2+z
1/2-x,1/2-y,1/2+z
1/2-x,1/2+y,1/2+z
1/2+x,1/2-y,1/2+z
loop_
_atom_site_type_symbol
_atom_site_label
_atom_site_fract_x
_atom_site_fract_y
_atom_site_fract_z
Si Si1 0.803757 0.203279 0.638070
Si Si2 0.616781 0.500000 0.920580
Si Si3 0.612125 0.000000 0.218626
Si Si4 0.615203 0.202266 0.013571
Si Si5 0.887066 0.701612 0.211219
Si Si6 0.306316 0.500000 0.791797
O O1 0.875390 0.326144 0.677725
O O2 0.813462 0.251479 0.568875
O O3 0.687725 0.239737 0.656076
O O4 0.834921 0.000000 0.649698
O O5 0.500000 0.500000 0.901612
O O6 0.686955 0.500000 0.862806
O O7 0.644463 0.325316 0.958159
O O8 0.500000 0.000000 0.245308
O O9 0.689111 0.000000 0.273733
O O10 0.500000 0.238134 0.033097
O O11 0.631472 0.000000 0.993370
O O12 0.875934 0.500000 0.234087
O O13 0.000000 0.740423 0.188527
O O14 0.861137 0.825396 0.267028
#
# Coordination Sequence:
#
# PCOD8188142 Si02
#       6
#     8   4   4   8   8   4
#     4  10  18  29  48  73 100 126 154 192 240 287
#     4  10  20  32  48  68  92 127 163 195 235 283
#     4  10  20  32  50  74  98 125 155 195 244 286
#     4  10  19  30  45  68  97 126 155 192 237 283
#     4   9  18  31  48  71  98 126 157 197 238 278
#     4  10  20  34  50  70  96 128 164 196 231 283
#
# _framework density 16.029522
#
# number of rings (size 3 to 8) (size 9 to 14) (size 15 to 20)
#    0.000    2.222    2.222    1.667    0.000    2.222 
#    0.000    2.222    0.000    1.333    0.000    0.000 
#    0.000    0.000    0.000    0.000    0.000    0.000 
#
# Total GULP energy -223224.332018 kJ/mol
# GULP energy per Si atom -12401.351779 kJ/mol
# Density = 1.599304 g / cm^3
# Si number density = 16.029522 Si / 1000 Ang^3
#
#
#
# Elastic Constant Matrix: (Units=GPa)
#
#
# Indices 1 2 3 4 5 6 
#
# 1 101.9792 45.3824 55.0325 0.0000 0.0000 0.0000
# 2 45.3824 122.1505 56.0142 0.0000 0.0000 0.0000
# 3 55.0325 56.0142 126.3608 0.0000 0.0000 0.0000
# 4 0.0000 0.0000 0.0000 21.9237 0.0000 0.0000
# 5 0.0000 0.0000 0.0000 0.0000 20.1264 0.0000
# 6 0.0000 0.0000 0.0000 0.0000 0.0000 17.3719
#
#
#
# Elastic Compliance Matrix: (Units=1/GPa)
#
#
# Indices 1 2 3 4 5 6 
#
# 1 0.013608 -0.002935 -0.004626 0.000000 0.000000 0.000000
# 2 -0.002935 0.010908 -0.003557 0.000000 0.000000 0.000000
# 3 -0.004626 -0.003557 0.011505 0.000000 0.000000 0.000000
# 4 0.000000 0.000000 0.000000 0.045613 0.000000 0.000000
# 5 0.000000 0.000000 0.000000 0.000000 0.049686 0.000000
# 6 0.000000 0.000000 0.000000 0.000000 0.000000 0.057564
#
#
# Mechanical properties :
#
#
# Convention : Reuss Voigt Hill
#
# Bulk Modulus (GPa) = 72.53592 73.70540 73.12066
# Shear Modulus (GPa) = 23.17867 24.82182 24.00025
#
# Velocity S-wave (km/s) = 3.80675 3.93938 3.87363
# Velocity P-wave (km/s) = 8.04186 8.17144 8.10691
#
# Compressibility (1/GPa) = 0.01378627
#
# Stress axis : x y z
#
# Youngs Moduli (GPa) = 73.48559 91.67397 86.91572
#
# Poissons Ratio (x) = 0.26903 0.40205
# Poissons Ratio (y) = 0.21565 0.30920
# Poissons Ratio (z) = 0.33992 0.32612
#
# Static dielectric constant tensor:
#      x y z
#    x 3.015920 0.000000 0.000000 
#    y 0.000000 3.381800 0.000000 
#    z 0.000000 0.000000 2.754810 
# 
# 
# High freq. dielectric constant tensor:
#      x y z
#    x 1.601720 0.000000 0.000000 
#    y 0.000000 1.641400 0.000000 
#    z 0.000000 0.000000 1.589400 
# 
# From -- ./inp_files/22713.got.cif
#   From: 2010.03.12/outbox.cif.g09.slc.cpg/sg44_12_cif.got.tgz:22713.got - 2010.04.14 02:36:11.
