data_PCOD8188955
_publ_section_title
;
Structure prediction by ZEFSAII (Michael W. Deem and Ramdas Pophale) SiO2 
 PCOD8188955
Probable space group: I M M 2
;
_chemical_formula_sum "Si O2"
_cell_formula_units_Z 64
_cell_length_a 24.850012
_cell_length_b 8.887188
_cell_length_c 15.016442
_cell_angle_alpha 90.000000
_cell_angle_beta 90.000000
_cell_angle_gamma 90.000000
_cell_volume 3316.332089
_symmetry_space_group_name_H-M "I M M 2"
_symmetry_group_IT_number 44
_symmetry_cell_setting 'orthorhombic'
loop_
_space_group_symop_operation_xyz
x,y,z
-x,-y,z
-x,y,z
x,-y,z
1/2+x,1/2+y,1/2+z
1/2-x,1/2-y,1/2+z
1/2-x,1/2+y,1/2+z
1/2+x,1/2-y,1/2+z
loop_
_atom_site_type_symbol
_atom_site_label
_atom_site_fract_x
_atom_site_fract_y
_atom_site_fract_z
Si Si1 0.150870 0.175936 0.036080
Si Si2 0.939846 0.321035 0.557518
Si Si3 0.739640 0.325722 0.003916
Si Si4 0.142422 0.321918 0.409462
Si Si5 0.614667 0.174575 0.238236
Si Si6 0.276881 0.325980 0.209028
Si Si7 0.667236 0.323976 0.737331
Si Si8 0.561883 0.172788 0.424184
O O1 0.145364 0.220339 0.139928
O O2 0.162441 0.000000 0.025518
O O3 0.199907 0.265472 0.991009
O O4 0.095867 0.220101 0.988222
O O5 0.941386 0.500000 0.557713
O O6 0.903292 0.260405 0.476508
O O7 0.915639 0.263429 0.650847
O O8 0.000000 0.255627 0.545898
O O9 0.738620 0.500000 0.977565
O O10 0.700896 0.234996 0.938915
O O11 0.719199 0.297439 0.103753
O O12 0.142466 0.500000 0.407168
O O13 0.130063 0.257990 0.310935
O O14 0.668648 0.269080 0.254670
O O15 0.575682 0.201692 0.321275
O O16 0.630209 0.000000 0.226493
O O17 0.267339 0.500000 0.231804
O O18 0.228276 0.231203 0.249891
O O19 0.664875 0.500000 0.754493
O O20 0.500000 0.215027 0.438968
O O21 0.573507 0.000000 0.449670
#
# Coordination Sequence:
#
# PCOD8188955 Si02
#       8
#     8   8   8   8   8   8   8   8
#     4  10  22  40  61  83 111 150 196 245 295 346
#     4   9  18  34  57  84 115 152 193 234 278 337
#     4  10  20  35  56  82 116 153 188 231 284 344
#     4  11  21  34  57  87 117 151 193 239 286 338
#     4  10  19  34  57  84 116 153 191 231 281 341
#     4  10  20  34  54  83 117 151 189 232 281 337
#     4  10  22  39  58  80 113 153 193 238 293 349
#     4  10  22  39  60  86 115 151 196 243 292 346
#
# _framework density 19.298428000000001
#
# number of rings (size 3 to 8) (size 9 to 14) (size 15 to 20)
#    0.000    2.000    1.250    2.250    1.750    4.750 
#    0.000    0.625    0.000    6.375    0.000    0.000 
#    0.000    0.000    0.000    0.000    0.000    0.000 
#
# Total GULP energy -396942.097163 kJ/mol
# GULP energy per Si atom -12404.440536 kJ/mol
# Density = 1.925450 g / cm^3
# Si number density = 19.298428 Si / 1000 Ang^3
#
#
#
# Elastic Constant Matrix: (Units=GPa)
#
#
# Indices 1 2 3 4 5 6 
#
# 1 110.6732 29.6352 54.9136 0.0000 0.0000 0.0000
# 2 29.6352 64.4569 36.3050 0.0000 0.0000 0.0000
# 3 54.9136 36.3050 105.5665 0.0000 0.0000 0.0000
# 4 0.0000 0.0000 0.0000 30.7290 0.0000 0.0000
# 5 0.0000 0.0000 0.0000 0.0000 29.9498 0.0000
# 6 0.0000 0.0000 0.0000 0.0000 0.0000 25.0878
#
#
#
# Elastic Compliance Matrix: (Units=1/GPa)
#
#
# Indices 1 2 3 4 5 6 
#
# 1 0.012518 -0.002589 -0.005621 0.000000 0.000000 0.000000
# 2 -0.002589 0.019777 -0.005455 0.000000 0.000000 0.000000
# 3 -0.005621 -0.005455 0.014273 0.000000 0.000000 0.000000
# 4 0.000000 0.000000 0.000000 0.032543 0.000000 0.000000
# 5 0.000000 0.000000 0.000000 0.000000 0.033389 0.000000
# 6 0.000000 0.000000 0.000000 0.000000 0.000000 0.039860
#
#
# Mechanical properties :
#
#
# Convention : Reuss Voigt Hill
#
# Bulk Modulus (GPa) = 51.98151 58.04488 55.01320
# Shear Modulus (GPa) = 26.86700 27.80950 27.33825
#
# Velocity S-wave (km/s) = 3.73525 3.80020 3.76786
# Velocity P-wave (km/s) = 6.75255 7.02838 6.89184
#
# Compressibility (1/GPa) = 0.01923761
#
# Stress axis : x y z
#
# Youngs Moduli (GPa) = 79.88465 50.56391 70.06458
#
# Poissons Ratio (x) = 0.13093 0.39384
# Poissons Ratio (y) = 0.20685 0.38217
# Poissons Ratio (z) = 0.44904 0.27580
#
# Static dielectric constant tensor:
#      x y z
#    x 3.466300 0.000000 0.000000 
#    y 0.000000 3.375850 0.000000 
#    z 0.000000 0.000000 3.670420 
# 
# 
# High freq. dielectric constant tensor:
#      x y z
#    x 1.739760 0.000000 0.000000 
#    y 0.000000 1.741680 0.000000 
#    z 0.000000 0.000000 1.758250 
# 
# From -- ./inp_files/16836.got.cif
#   From: 2010.03.12/outbox.cif.g09.slc.cpg/sg44_9_cif.got.tgz:16836.got - 2010.04.14 02:36:11.
