data_PCOD8188050
_publ_section_title
;
Structure prediction by ZEFSAII (Michael W. Deem and Ramdas Pophale) SiO2 
 PCOD8188050
Probable space group: I M M 2
;
_chemical_formula_sum "Si O2"
_cell_formula_units_Z 64
_cell_length_a 23.762066
_cell_length_b 16.151759
_cell_length_c 9.576924
_cell_angle_alpha 90.000000
_cell_angle_beta 90.000000
_cell_angle_gamma 90.000000
_cell_volume 3675.615419
_symmetry_space_group_name_H-M "I M M 2"
_symmetry_group_IT_number 44
_symmetry_cell_setting 'orthorhombic'
loop_
_space_group_symop_operation_xyz
x,y,z
-x,-y,z
-x,y,z
x,-y,z
1/2+x,1/2+y,1/2+z
1/2-x,1/2-y,1/2+z
1/2-x,1/2+y,1/2+z
1/2+x,1/2-y,1/2+z
loop_
_atom_site_type_symbol
_atom_site_label
_atom_site_fract_x
_atom_site_fract_y
_atom_site_fract_z
Si Si1 0.272817 0.290930 0.054260
Si Si2 0.937606 0.402530 0.603599
Si Si3 0.874855 0.402884 0.878758
Si Si4 0.247653 0.908602 0.315885
Si Si5 0.733264 0.589246 0.299298
Si Si6 0.355559 0.767357 0.606042
Si Si7 0.664688 0.591419 0.570792
Si Si8 0.843995 0.664080 0.407008
O O1 0.285530 0.338152 0.196836
O O2 0.209289 0.258700 0.059549
O O3 0.283122 0.348635 0.921920
O O4 0.317756 0.219178 0.031258
O O5 0.939289 0.500000 0.603108
O O6 0.917565 0.374684 0.757797
O O7 0.898340 0.377082 0.474856
O O8 0.000000 0.365183 0.578980
O O9 0.883460 0.500000 0.925797
O O10 0.813959 0.390981 0.808657
O O11 0.883791 0.339695 0.010184
O O12 0.220264 0.894833 0.165343
O O13 0.236817 0.000000 0.373276
O O14 0.734183 0.500000 0.222082
O O15 0.685391 0.588610 0.413740
O O16 0.796070 0.599910 0.359853
O O17 0.377560 0.671317 0.586448
O O18 0.364462 0.788282 0.768091
O O19 0.636963 0.500000 0.605876
#
# Coordination Sequence:
#
# PCOD8188050 Si02
#       8
#     8   8   8   8   8   8   8   8
#     4  10  19  28  45  70 106 136 171 202 248 299
#     4  10  22  39  56  74  97 130 177 229 273 312
#     4   9  19  33  53  73  98 137 177 215 260 309
#     4   9  16  28  45  67 100 139 171 196 237 301
#     4  10  20  30  44  69 105 141 175 204 243 302
#     4  10  20  31  48  75 109 138 173 210 252 311
#     4  10  18  28  42  66 104 141 169 200 235 288
#     4  11  20  31  51  74 102 140 176 213 260 306
#
# _framework density 17.412051000000002
#
# number of rings (size 3 to 8) (size 9 to 14) (size 15 to 20)
#    0.000    2.125    2.500    1.500    1.750    5.500 
#    0.000    0.625    0.000    1.500    0.000    0.000 
#    0.000    9.000    0.000    0.000    0.000    0.000 
#
# Total GULP energy -396446.644138 kJ/mol
# GULP energy per Si atom -12388.957629 kJ/mol
# Density = 1.737242 g / cm^3
# Si number density = 17.412051 Si / 1000 Ang^3
#
#
#
# Elastic Constant Matrix: (Units=GPa)
#
#
# Indices 1 2 3 4 5 6 
#
# 1 38.1252 5.0258 22.4846 0.0000 0.0000 0.0000
# 2 5.0258 91.9967 36.6711 0.0000 0.0000 0.0000
# 3 22.4846 36.6711 88.3432 0.0000 0.0000 0.0000
# 4 0.0000 0.0000 0.0000 38.5840 0.0000 0.0000
# 5 0.0000 0.0000 0.0000 0.0000 12.9464 0.0000
# 6 0.0000 0.0000 0.0000 0.0000 0.0000 13.6773
#
#
#
# Elastic Compliance Matrix: (Units=1/GPa)
#
#
# Indices 1 2 3 4 5 6 
#
# 1 0.031094 0.001745 -0.008638 0.000000 0.000000 0.000000
# 2 0.001745 0.013123 -0.005891 0.000000 0.000000 0.000000
# 3 -0.008638 -0.005891 0.015963 0.000000 0.000000 0.000000
# 4 0.000000 0.000000 0.000000 0.025917 0.000000 0.000000
# 5 0.000000 0.000000 0.000000 0.000000 0.077242 0.000000
# 6 0.000000 0.000000 0.000000 0.000000 0.000000 0.073114
#
#
# Mechanical properties :
#
#
# Convention : Reuss Voigt Hill
#
# Bulk Modulus (GPa) = 28.89282 38.53647 33.71465
# Shear Modulus (GPa) = 18.27757 23.32712 20.80235
#
# Velocity S-wave (km/s) = 3.24343 3.66418 3.46021
# Velocity P-wave (km/s) = 5.53679 6.33101 5.94718
#
# Compressibility (1/GPa) = 0.03461067
#
# Stress axis : x y z
#
# Youngs Moduli (GPa) = 32.16084 76.20198 62.64302
#
# Poissons Ratio (x) = -0.13294 0.54111
# Poissons Ratio (y) = -0.05611 0.36905
# Poissons Ratio (z) = 0.27780 0.44893
#
# Static dielectric constant tensor:
#      x y z
#    x 2.819310 0.000000 0.000000 
#    y 0.000000 3.668410 0.000000 
#    z 0.000000 0.000000 3.309260 
# 
# 
# High freq. dielectric constant tensor:
#      x y z
#    x 1.595030 0.000000 0.000000 
#    y 0.000000 1.691420 0.000000 
#    z 0.000000 0.000000 1.685340 
# 
# From -- ./inp_files/9518.got.cif
#   From: 2010.03.12/outbox.cif.g09.slc.cpg/sg44_5_cif.got.tgz:9518.got - 2010.04.14 02:36:11.
