data_PCOD8188363
_publ_section_title
;
Structure prediction by ZEFSAII (Michael W. Deem and Ramdas Pophale) SiO2 
 PCOD8188363
Probable space group: I M M 2
;
_chemical_formula_sum "Si O2"
_cell_formula_units_Z 48
_cell_length_a 9.046195
_cell_length_b 18.407372
_cell_length_c 15.119605
_cell_angle_alpha 90.000000
_cell_angle_beta 90.000000
_cell_angle_gamma 90.000000
_cell_volume 2517.666375
_symmetry_space_group_name_H-M "I M M 2"
_symmetry_group_IT_number 44
_symmetry_cell_setting 'orthorhombic'
loop_
_space_group_symop_operation_xyz
x,y,z
-x,-y,z
-x,y,z
x,-y,z
1/2+x,1/2+y,1/2+z
1/2-x,1/2-y,1/2+z
1/2-x,1/2+y,1/2+z
1/2+x,1/2-y,1/2+z
loop_
_atom_site_type_symbol
_atom_site_label
_atom_site_fract_x
_atom_site_fract_y
_atom_site_fract_z
Si Si1 0.831939 0.111105 0.023690
Si Si2 0.826475 0.730748 0.060386
Si Si3 0.664091 0.000000 0.338007
Si Si4 0.177584 0.657204 0.885563
Si Si5 0.837551 0.500000 0.630407
Si Si6 0.823790 0.278625 0.259891
Si Si7 0.669019 0.580488 0.325777
O O1 0.776573 0.193417 0.017428
O O2 0.741758 0.072543 0.099967
O O3 0.000000 0.108106 0.055676
O O4 0.809966 0.072365 0.930571
O O5 0.760811 0.723764 0.159121
O O6 0.000000 0.724154 0.070354
O O7 0.772964 0.672393 0.987250
O O8 0.740593 0.075652 0.368237
O O9 0.658218 0.000000 0.234094
O O10 0.500000 0.000000 0.379163
O O11 0.248560 0.715306 0.817846
O O12 0.000000 0.662470 0.873009
O O13 0.000000 0.500000 0.588953
O O14 0.781536 0.359378 0.291202
O O15 0.000000 0.268793 0.265593
O O16 0.500000 0.603725 0.304216
O O17 0.703578 0.500000 0.285676
#
# Coordination Sequence:
#
# PCOD8188363 Si02
#       7
#     8   8   4   8   4   8   8
#     4  10  18  34  56  77 102 144 188 218 260 333
#     4   9  19  35  57  81 107 142 189 229 269 328
#     4   9  20  35  57  84 109 142 192 235 271 322
#     4  10  19  39  62  80 109 154 194 228 270 334
#     4  11  21  31  47  84 119 136 166 231 293 326
#     4  11  22  36  56  88 117 142 182 237 288 327
#     4  10  20  37  59  80 107 148 190 222 266 335
#
# _framework density 19.065273999999999
#
# number of rings (size 3 to 8) (size 9 to 14) (size 15 to 20)
#    0.000    2.000    2.500    1.750    0.000    1.000 
#    1.500    3.750    0.000    0.000    0.000    0.000 
#    0.000    0.000    0.000    0.000    0.000    0.000 
#
# Total GULP energy -297416.455932 kJ/mol
# GULP energy per Si atom -12392.352330 kJ/mol
# Density = 1.902188 g / cm^3
# Si number density = 19.065274 Si / 1000 Ang^3
#
#
#
# Elastic Constant Matrix: (Units=GPa)
#
#
# Indices 1 2 3 4 5 6 
#
# 1 53.4277 40.5442 30.7814 0.0000 0.0000 0.0000
# 2 40.5442 149.0970 59.8123 0.0000 0.0000 0.0000
# 3 30.7814 59.8123 107.6274 0.0001 0.0000 0.0000
# 4 0.0000 0.0000 0.0001 30.5789 0.0000 0.0000
# 5 0.0000 0.0000 0.0000 0.0000 22.9410 0.0000
# 6 0.0000 0.0000 0.0000 0.0000 0.0000 19.9521
#
#
#
# Elastic Compliance Matrix: (Units=1/GPa)
#
#
# Indices 1 2 3 4 5 6 
#
# 1 0.025074 -0.005072 -0.004352 0.000000 0.000000 0.000000
# 2 -0.005072 0.009657 -0.003916 0.000000 0.000000 0.000000
# 3 -0.004352 -0.003916 0.012712 0.000000 0.000000 0.000000
# 4 0.000000 0.000000 0.000000 0.032702 0.000000 0.000000
# 5 0.000000 0.000000 0.000000 0.000000 0.043590 0.000000
# 6 0.000000 0.000000 0.000000 0.000000 0.000000 0.050120
#
#
# Mechanical properties :
#
#
# Convention : Reuss Voigt Hill
#
# Bulk Modulus (GPa) = 48.16527 63.60310 55.88419
# Shear Modulus (GPa) = 24.10128 26.62868 25.36498
#
# Velocity S-wave (km/s) = 3.55934 3.74131 3.65146
# Velocity P-wave (km/s) = 6.49693 7.21778 6.86682
#
# Compressibility (1/GPa) = 0.02076185
#
# Stress axis : x y z
#
# Youngs Moduli (GPa) = 39.88273 103.54687 78.66315
#
# Poissons Ratio (x) = 0.52523 0.34235
# Poissons Ratio (y) = 0.20230 0.30807
# Poissons Ratio (z) = 0.17357 0.40552
#
# Static dielectric constant tensor:
#      x y z
#    x 3.312630 0.000000 0.000000 
#    y 0.000000 3.670680 0.000000 
#    z 0.000000 0.000000 3.577420 
# 
# 
# High freq. dielectric constant tensor:
#      x y z
#    x 1.709760 0.000000 0.000000 
#    y 0.000000 1.755900 0.000000 
#    z 0.000000 0.000000 1.738880 
# 
# From -- ./inp_files/16118.got.cif
#   From: 2010.03.12/outbox.cif.g09.slc.cpg/sg44_9_cif.got.tgz:16118.got - 2010.04.14 02:36:11.
