data_PCOD8188939
_publ_section_title
;
Structure prediction by ZEFSAII (Michael W. Deem and Ramdas Pophale) SiO2 
 PCOD8188939
Probable space group: I M M 2
;
_chemical_formula_sum "Si O2"
_cell_formula_units_Z 64
_cell_length_a 24.872993
_cell_length_b 8.724927
_cell_length_c 15.021634
_cell_angle_alpha 90.000000
_cell_angle_beta 90.000000
_cell_angle_gamma 90.000000
_cell_volume 3259.920627
_symmetry_space_group_name_H-M "I M M 2"
_symmetry_group_IT_number 44
_symmetry_cell_setting 'orthorhombic'
loop_
_space_group_symop_operation_xyz
x,y,z
-x,-y,z
-x,y,z
x,-y,z
1/2+x,1/2+y,1/2+z
1/2-x,1/2-y,1/2+z
1/2-x,1/2+y,1/2+z
1/2+x,1/2-y,1/2+z
loop_
_atom_site_type_symbol
_atom_site_label
_atom_site_fract_x
_atom_site_fract_y
_atom_site_fract_z
Si Si1 0.363539 0.678693 0.083460
Si Si2 0.239483 0.825083 0.489376
Si Si3 0.857063 0.681992 0.960672
Si Si4 0.224844 0.175812 0.285014
Si Si5 0.561869 0.323552 0.595958
Si Si6 0.663892 0.323067 0.277557
Si Si7 0.385272 0.180789 0.761273
Si Si8 0.439394 0.818474 0.942621
O O1 0.364609 0.500000 0.057566
O O2 0.371594 0.703358 0.188812
O O3 0.305512 0.750451 0.053319
O O4 0.411601 0.761389 0.032623
O O5 0.299440 0.753087 0.497039
O O6 0.217220 0.805981 0.390175
O O7 0.246649 0.000000 0.516676
O O8 0.861808 0.500000 0.971931
O O9 0.861380 0.721060 0.855926
O O10 0.904364 0.765136 0.012174
O O11 0.275538 0.274168 0.253004
O O12 0.171539 0.240742 0.238474
O O13 0.233849 0.000000 0.257277
O O14 0.500000 0.300972 0.569976
O O15 0.575660 0.500000 0.615382
O O16 0.573675 0.224700 0.683525
O O17 0.663570 0.500000 0.306690
O O18 0.408641 0.242445 0.854903
O O19 0.377075 0.000000 0.763203
O O20 0.500000 0.753882 0.940805
O O21 0.439634 0.000000 0.942492
#
# Coordination Sequence:
#
# PCOD8188939 Si02
#       8
#     8   8   8   8   8   8   8   8
#     4  10  20  36  58  85 118 156 197 240 289 346
#     4   8  16  32  54  82 116 150 185 232 285 340
#     4  10  21  39  63  87 117 155 196 247 301 353
#     4  10  19  34  56  84 120 158 198 241 290 348
#     4  11  25  43  62  87 118 152 197 251 300 354
#     4  10  21  36  58  87 122 159 198 244 298 356
#     4  11  22  37  59  87 120 158 197 238 294 359
#     4  10  22  39  58  84 119 155 195 244 291 341
#
# _framework density 19.632380000000001
#
# number of rings (size 3 to 8) (size 9 to 14) (size 15 to 20)
#    0.000    2.000    1.250    3.000    1.750    3.250 
#    0.000    1.250    0.000    0.750    0.000    0.000 
#    0.000    0.000    0.000    0.000    0.000    0.000 
#
# Total GULP energy -396814.302325 kJ/mol
# GULP energy per Si atom -12400.446948 kJ/mol
# Density = 1.958770 g / cm^3
# Si number density = 19.632380 Si / 1000 Ang^3
#
#
#
# Elastic Constant Matrix: (Units=GPa)
#
#
# Indices 1 2 3 4 5 6 
#
# 1 106.1334 21.8111 45.6239 0.0000 0.0000 0.0000
# 2 21.8111 33.2334 12.5370 0.0000 0.0000 0.0000
# 3 45.6239 12.5370 81.0587 0.0000 0.0000 0.0000
# 4 0.0000 0.0000 0.0000 31.3818 0.0000 0.0000
# 5 0.0000 0.0000 0.0000 0.0000 31.6742 0.0000
# 6 0.0000 0.0000 0.0000 0.0000 0.0000 30.7173
#
#
#
# Elastic Compliance Matrix: (Units=1/GPa)
#
#
# Indices 1 2 3 4 5 6 
#
# 1 0.013606 -0.006415 -0.006666 0.000000 0.000000 0.000000
# 2 -0.006415 0.034979 -0.001799 0.000000 0.000000 0.000000
# 3 -0.006666 -0.001799 0.016367 0.000000 0.000000 0.000000
# 4 0.000000 0.000000 0.000000 0.031866 0.000000 0.000000
# 5 0.000000 0.000000 0.000000 0.000000 0.031571 0.000000
# 6 0.000000 0.000000 0.000000 0.000000 0.000000 0.032555
#
#
# Mechanical properties :
#
#
# Convention : Reuss Voigt Hill
#
# Bulk Modulus (GPa) = 28.41596 42.26329 35.33963
# Shear Modulus (GPa) = 24.69928 28.11823 26.40875
#
# Velocity S-wave (km/s) = 3.55080 3.78860 3.67163
# Velocity P-wave (km/s) = 5.59610 6.38060 6.00118
#
# Compressibility (1/GPa) = 0.03519149
#
# Stress axis : x y z
#
# Youngs Moduli (GPa) = 73.49745 28.58844 61.09868
#
# Poissons Ratio (x) = 0.18339 0.40728
# Poissons Ratio (y) = 0.47148 0.10994
# Poissons Ratio (z) = 0.48993 0.05144
#
# Static dielectric constant tensor:
#      x y z
#    x 3.609170 0.000000 0.000000 
#    y 0.000000 3.453720 0.000000 
#    z 0.000000 0.000000 3.486800 
# 
# 
# High freq. dielectric constant tensor:
#      x y z
#    x 1.759420 0.000000 0.000000 
#    y 0.000000 1.756030 0.000000 
#    z 0.000000 0.000000 1.764090 
# 
# From -- ./inp_files/16853.got.cif
#   From: 2010.03.12/outbox.cif.g09.slc.cpg/sg44_9_cif.got.tgz:16853.got - 2010.04.14 02:36:11.
