data_PCOD8188386
_publ_section_title
;
Structure prediction by ZEFSAII (Michael W. Deem and Ramdas Pophale) SiO2 
 PCOD8188386
Probable space group: I M M 2
;
_chemical_formula_sum "Si O2"
_cell_formula_units_Z 64
_cell_length_a 30.633658
_cell_length_b 8.987155
_cell_length_c 12.002847
_cell_angle_alpha 90.000000
_cell_angle_beta 90.000000
_cell_angle_gamma 90.000000
_cell_volume 3304.496998
_symmetry_space_group_name_H-M "I M M 2"
_symmetry_group_IT_number 44
_symmetry_cell_setting 'orthorhombic'
loop_
_space_group_symop_operation_xyz
x,y,z
-x,-y,z
-x,y,z
x,-y,z
1/2+x,1/2+y,1/2+z
1/2-x,1/2-y,1/2+z
1/2-x,1/2+y,1/2+z
1/2+x,1/2-y,1/2+z
loop_
_atom_site_type_symbol
_atom_site_label
_atom_site_fract_x
_atom_site_fract_y
_atom_site_fract_z
Si Si1 0.205928 0.823819 0.014650
Si Si2 0.950921 0.669811 0.008642
Si Si3 0.828060 0.831761 0.247252
Si Si4 0.697455 0.175813 0.967610
Si Si5 0.624419 0.323559 0.375062
Si Si6 0.571025 0.668639 0.726590
Si Si7 0.548468 0.323347 0.971408
Si Si8 0.372138 0.323403 0.119854
O O1 0.200397 0.774275 0.143052
O O2 0.203238 0.000000 0.007317
O O3 0.252728 0.765841 0.973123
O O4 0.167368 0.758020 0.936908
O O5 0.934972 0.500000 0.010836
O O6 0.919473 0.762489 0.929286
O O7 0.000000 0.683094 0.960854
O O8 0.951543 0.730834 0.134206
O O9 0.821630 0.720358 0.348654
O O10 0.877530 0.827955 0.206444
O O11 0.815346 0.000000 0.283654
O O12 0.694588 0.000000 0.982738
O O13 0.670581 0.251823 0.066085
O O14 0.622538 0.500000 0.385041
O O15 0.625922 0.271749 0.247294
O O16 0.553348 0.500000 0.715796
O O17 0.559153 0.735713 0.847614
O O18 0.500000 0.269567 0.007579
O O19 0.551266 0.500000 0.970212
O O20 0.584341 0.261915 0.058133
O O21 0.368266 0.500000 0.107723
#
# Coordination Sequence:
#
# PCOD8188386 Si02
#       8
#     8   8   8   8   8   8   8   8
#     4   9  20  38  57  82 114 148 188 241 290 330
#     4  11  24  39  56  84 122 154 183 230 290 347
#     4  10  19  37  62  83 111 148 190 239 286 330
#     4  11  23  37  57  86 120 152 186 230 291 354
#     4  10  21  40  63  82 107 150 201 245 279 327
#     4  10  18  34  61  85 110 149 193 234 280 334
#     4   9  17  31  53  83 113 140 180 235 285 328
#     4  10  21  38  60  84 113 149 192 240 286 333
#
# _framework density 19.367547999999999
#
# number of rings (size 3 to 8) (size 9 to 14) (size 15 to 20)
#    0.000    2.000    2.500    1.125    1.750    3.000 
#    0.000    3.125    0.000    0.375    0.000    0.000 
#    0.000    0.000    0.000    0.000    0.000    0.000 
#
# Total GULP energy -396839.525348 kJ/mol
# GULP energy per Si atom -12401.235167 kJ/mol
# Density = 1.932347 g / cm^3
# Si number density = 19.367548 Si / 1000 Ang^3
#
#
#
# Elastic Constant Matrix: (Units=GPa)
#
#
# Indices 1 2 3 4 5 6 
#
# 1 119.9958 22.6707 56.7661 0.0000 0.0000 0.0000
# 2 22.6707 27.8831 30.6273 0.0000 0.0000 0.0000
# 3 56.7661 30.6273 133.1553 0.0000 0.0000 0.0000
# 4 0.0000 0.0000 0.0000 16.7615 0.0000 0.0000
# 5 0.0000 0.0000 0.0000 0.0000 25.8996 0.0000
# 6 0.0000 0.0000 0.0000 0.0000 0.0000 24.5064
#
#
#
# Elastic Compliance Matrix: (Units=1/GPa)
#
#
# Indices 1 2 3 4 5 6 
#
# 1 0.010946 -0.005050 -0.003505 0.000000 0.000000 0.000000
# 2 -0.005050 0.050318 -0.009421 0.000000 0.000000 0.000000
# 3 -0.003505 -0.009421 0.011171 0.000000 0.000000 0.000000
# 4 0.000000 0.000000 0.000000 0.059661 0.000000 0.000000
# 5 0.000000 0.000000 0.000000 0.000000 0.038611 0.000000
# 6 0.000000 0.000000 0.000000 0.000000 0.000000 0.040806
#
#
# Mechanical properties :
#
#
# Convention : Reuss Voigt Hill
#
# Bulk Modulus (GPa) = 27.40955 55.68471 41.54713
# Shear Modulus (GPa) = 19.25864 24.83149 22.04507
#
# Velocity S-wave (km/s) = 3.15680 3.58455 3.37745
# Velocity P-wave (km/s) = 5.24120 6.77835 6.05872
#
# Compressibility (1/GPa) = 0.03648364
#
# Stress axis : x y z
#
# Youngs Moduli (GPa) = 91.36023 19.87371 89.51682
#
# Poissons Ratio (x) = 0.10036 0.31374
# Poissons Ratio (y) = 0.46135 0.84333
# Poissons Ratio (z) = 0.32020 0.18723
#
# Static dielectric constant tensor:
#      x y z
#    x 3.764880 0.000000 0.000000 
#    y 0.000000 3.204180 0.000000 
#    z 0.000000 0.000000 3.610020 
# 
# 
# High freq. dielectric constant tensor:
#      x y z
#    x 1.767700 0.000000 0.000000 
#    y 0.000000 1.717810 0.000000 
#    z 0.000000 0.000000 1.759110 
# 
# From -- ./inp_files/15055.got.cif
#   From: 2010.03.12/outbox.cif.g09.slc.cpg/sg44_8_cif.got.tgz:15055.got - 2010.04.14 02:36:11.
