data_PCOD8188538
_publ_section_title
;
Structure prediction by ZEFSAII (Michael W. Deem and Ramdas Pophale) SiO2 
 PCOD8188538
Probable space group: I M M 2
;
_chemical_formula_sum "Si O2"
_cell_formula_units_Z 56
_cell_length_a 9.373564
_cell_length_b 21.240186
_cell_length_c 14.416093
_cell_angle_alpha 90.000000
_cell_angle_beta 90.000000
_cell_angle_gamma 90.000000
_cell_volume 2870.189953
_symmetry_space_group_name_H-M "I M M 2"
_symmetry_group_IT_number 44
_symmetry_cell_setting 'orthorhombic'
loop_
_space_group_symop_operation_xyz
x,y,z
-x,-y,z
-x,y,z
x,-y,z
1/2+x,1/2+y,1/2+z
1/2-x,1/2-y,1/2+z
1/2-x,1/2+y,1/2+z
1/2+x,1/2-y,1/2+z
loop_
_atom_site_type_symbol
_atom_site_label
_atom_site_fract_x
_atom_site_fract_y
_atom_site_fract_z
Si Si1 0.166717 0.621808 0.241860
Si Si2 0.665619 0.368693 0.600312
Si Si3 0.166121 0.572172 0.040884
Si Si4 0.667033 0.738458 0.738607
Si Si5 0.168629 0.861370 0.387644
Si Si6 0.161566 0.071503 0.910502
Si Si7 0.345708 0.070769 0.242269
O O1 0.197706 0.583579 0.148581
O O2 0.235652 0.692079 0.235027
O O3 0.235762 0.583744 0.325155
O O4 0.000000 0.625825 0.262945
O O5 0.500000 0.382232 0.625081
O O6 0.714368 0.302172 0.647563
O O7 0.690657 0.375766 0.490268
O O8 0.769445 0.420447 0.643792
O O9 0.210947 0.500000 0.016908
O O10 0.000000 0.582649 0.017459
O O11 0.255286 0.625775 0.985985
O O12 0.500000 0.746451 0.732202
O O13 0.707915 0.705014 0.836934
O O14 0.230947 0.913809 0.320462
O O15 0.000000 0.868991 0.400091
O O16 0.000000 0.078875 0.875397
O O17 0.186926 0.000000 0.947457
O O18 0.500000 0.107483 0.249284
O O19 0.386896 0.000000 0.255811
#
# Coordination Sequence:
#
# PCOD8188538 Si02
#       7
#     8   8   8   8   8   8   8
#     4  10  21  38  58  77 104 144 183 222 267 314
#     4   9  18  34  55  77 105 140 175 215 265 319
#     4  10  21  36  54  79 108 138 178 225 268 312
#     4   8  17  35  56  80 108 137 175 219 262 315
#     4  10  20  34  54  78 106 141 176 214 265 321
#     4  10  21  36  55  82 112 140 176 223 269 314
#     4  10  19  30  47  75 109 140 173 217 264 312
#
# _framework density 19.510904
#
# number of rings (size 3 to 8) (size 9 to 14) (size 15 to 20)
#    0.000    2.429    0.000    3.000    0.000    6.857 
#    0.000    5.000    0.000    0.000    0.000    0.000 
#    0.000    0.000    0.000    0.000    0.000    0.000 
#
# Total GULP energy -346896.467626 kJ/mol
# GULP energy per Si atom -12389.159558 kJ/mol
# Density = 1.946650 g / cm^3
# Si number density = 19.510904 Si / 1000 Ang^3
#
#
#
# Elastic Constant Matrix: (Units=GPa)
#
#
# Indices 1 2 3 4 5 6 
#
# 1 61.6262 21.8234 42.6728 0.0000 0.0000 0.0000
# 2 21.8234 79.9813 25.6519 0.0001 0.0000 0.0000
# 3 42.6728 25.6519 103.9660 0.0002 -0.0001 0.0000
# 4 0.0000 0.0001 0.0002 19.8647 0.0001 0.0000
# 5 0.0000 0.0000 -0.0001 0.0001 95.3759 0.0000
# 6 0.0000 0.0000 0.0000 0.0000 0.0000 19.5671
#
#
#
# Elastic Compliance Matrix: (Units=1/GPa)
#
#
# Indices 1 2 3 4 5 6 
#
# 1 0.023597 -0.003619 -0.008792 0.000000 0.000000 0.000000
# 2 -0.003619 0.014132 -0.002002 0.000000 0.000000 0.000000
# 3 -0.008792 -0.002002 0.013721 0.000000 0.000000 0.000000
# 4 0.000000 0.000000 0.000000 0.050340 0.000000 0.000000
# 5 0.000000 0.000000 0.000000 0.000000 0.010485 0.000000
# 6 0.000000 0.000000 0.000000 0.000000 0.000000 0.051106
#
#
# Mechanical properties :
#
#
# Convention : Reuss Voigt Hill
#
# Bulk Modulus (GPa) = 44.19916 47.31882 45.75899
# Shear Modulus (GPa) = 25.03153 37.32324 31.17738
#
# Velocity S-wave (km/s) = 3.58572 4.37847 4.00177
# Velocity P-wave (km/s) = 6.31236 7.06162 6.69747
#
# Compressibility (1/GPa) = 0.02262486
#
# Stress axis : x y z
#
# Youngs Moduli (GPa) = 42.37913 70.76014 72.87978
#
# Poissons Ratio (x) = 0.25605 0.64079
# Poissons Ratio (y) = 0.15335 0.14588
# Poissons Ratio (z) = 0.37261 0.14164
#
# Static dielectric constant tensor:
#      x y z
#    x 3.380800 0.000000 0.000000 
#    y 0.000000 3.847550 0.000000 
#    z 0.000000 0.000000 3.551920 
# 
# 
# High freq. dielectric constant tensor:
#      x y z
#    x 1.749750 0.000000 0.000000 
#    y 0.000000 1.751110 0.000000 
#    z 0.000000 0.000000 1.756970 
# 
# From -- ./inp_files/16423.got.cif
#   From: 2010.03.12/outbox.cif.g09.slc.cpg/sg44_9_cif.got.tgz:16423.got - 2010.04.14 02:36:11.
