data_PCOD8188873
_publ_section_title
;
Structure prediction by ZEFSAII (Michael W. Deem and Ramdas Pophale) SiO2 
 PCOD8188873
Probable space group: I M M 2
;
_chemical_formula_sum "Si O2"
_cell_formula_units_Z 64
_cell_length_a 18.080791
_cell_length_b 8.865644
_cell_length_c 20.625778
_cell_angle_alpha 90.000000
_cell_angle_beta 90.000000
_cell_angle_gamma 90.000000
_cell_volume 3306.267997
_symmetry_space_group_name_H-M "I M M 2"
_symmetry_group_IT_number 44
_symmetry_cell_setting 'orthorhombic'
loop_
_space_group_symop_operation_xyz
x,y,z
-x,-y,z
-x,y,z
x,-y,z
1/2+x,1/2+y,1/2+z
1/2-x,1/2-y,1/2+z
1/2-x,1/2+y,1/2+z
1/2+x,1/2-y,1/2+z
loop_
_atom_site_type_symbol
_atom_site_label
_atom_site_fract_x
_atom_site_fract_y
_atom_site_fract_z
Si Si1 0.585761 0.672865 0.565390
Si Si2 0.647127 0.821382 0.440422
Si Si3 0.813560 0.320709 0.171658
Si Si4 0.415157 0.673904 0.058797
Si Si5 0.353230 0.669318 0.309539
Si Si6 0.155297 0.321702 0.677583
Si Si7 0.317282 0.323502 0.940912
Si Si8 0.177598 0.666278 0.313111
O O1 0.500000 0.684721 0.582839
O O2 0.612981 0.500000 0.567103
O O3 0.598514 0.741130 0.494626
O O4 0.629486 0.771141 0.617335
O O5 0.617185 0.762511 0.371303
O O6 0.732549 0.773129 0.450870
O O7 0.636826 0.000000 0.444305
O O8 0.801164 0.500000 0.169136
O O9 0.735319 0.242720 0.158657
O O10 0.846807 0.272242 0.242164
O O11 0.500000 0.688586 0.037682
O O12 0.394244 0.500000 0.073987
O O13 0.401425 0.775683 0.121528
O O14 0.365556 0.740157 0.000168
O O15 0.386446 0.500000 0.310354
O O16 0.377434 0.753686 0.244084
O O17 0.265551 0.662936 0.312011
O O18 0.160548 0.500000 0.684836
O O19 0.324564 0.500000 0.938412
O O20 0.350771 0.267253 0.872425
O O21 0.144992 0.500000 0.324435
#
# Coordination Sequence:
#
# PCOD8188873 Si02
#       8
#     8   8   8   8   8   8   8   8
#     4  11  24  39  54  77 110 146 184 226 273 324
#     4  10  19  33  56  83 109 139 178 223 270 322
#     4  10  20  36  58  82 108 141 182 223 268 324
#     4  10  21  37  54  74 106 147 186 222 264 317
#     4   9  17  32  54  80 110 139 173 220 270 320
#     4  11  21  34  56  84 111 139 177 225 275 326
#     4   9  18  32  53  80 106 135 174 218 262 313
#     4   8  16  30  51  79 106 133 168 214 264 313
#
# _framework density 19.357171999999998
#
# number of rings (size 3 to 8) (size 9 to 14) (size 15 to 20)
#    0.000    2.250    0.000    4.125    0.000    6.750 
#    0.000    1.250    0.000    6.000    0.000    0.000 
#    0.000    0.000    0.000    0.000    0.000    0.000 
#
# Total GULP energy -396806.353893 kJ/mol
# GULP energy per Si atom -12400.198559 kJ/mol
# Density = 1.931311 g / cm^3
# Si number density = 19.357172 Si / 1000 Ang^3
#
#
#
# Elastic Constant Matrix: (Units=GPa)
#
#
# Indices 1 2 3 4 5 6 
#
# 1 34.2705 16.4062 15.2527 0.0000 0.0000 0.0000
# 2 16.4062 82.7116 29.7450 0.0000 0.0000 0.0000
# 3 15.2527 29.7450 118.6237 0.0000 0.0000 0.0000
# 4 0.0000 0.0000 0.0000 40.3379 0.0000 0.0000
# 5 0.0000 0.0000 0.0000 0.0000 3.4127 0.0000
# 6 0.0000 0.0000 0.0000 0.0000 0.0000 19.1202
#
#
#
# Elastic Compliance Matrix: (Units=1/GPa)
#
#
# Indices 1 2 3 4 5 6 
#
# 1 0.033106 -0.005535 -0.002869 0.000000 0.000000 0.000000
# 2 -0.005535 0.014214 -0.002852 0.000000 0.000000 0.000000
# 3 -0.002869 -0.002852 0.009514 0.000000 0.000000 0.000000
# 4 0.000000 0.000000 0.000000 0.024791 0.000000 0.000000
# 5 0.000000 0.000000 0.000000 0.000000 0.293021 0.000000
# 6 0.000000 0.000000 0.000000 0.000000 0.000000 0.052301
#
#
# Mechanical properties :
#
#
# Convention : Reuss Voigt Hill
#
# Bulk Modulus (GPa) = 29.13624 39.82374 34.47999
# Shear Modulus (GPa) = 10.84833 24.18762 17.51798
#
# Velocity S-wave (km/s) = 2.36991 3.53872 3.01156
# Velocity P-wave (km/s) = 4.75113 6.10856 5.47210
#
# Compressibility (1/GPa) = 0.03432152
#
# Stress axis : x y z
#
# Youngs Moduli (GPa) = 30.20573 70.35362 105.10646
#
# Poissons Ratio (x) = 0.38941 0.30154
# Poissons Ratio (y) = 0.16719 0.29981
# Poissons Ratio (z) = 0.08666 0.20068
#
# Static dielectric constant tensor:
#      x y z
#    x 3.210140 0.000000 0.000000 
#    y 0.000000 3.606970 0.000000 
#    z 0.000000 0.000000 3.924060 
# 
# 
# High freq. dielectric constant tensor:
#      x y z
#    x 1.714560 0.000000 0.000000 
#    y 0.000000 1.756600 0.000000 
#    z 0.000000 0.000000 1.772270 
# 
# From -- ./inp_files/23254.got.cif
#   From: 2010.03.12/outbox.cif.g09.slc.cpg/sg44_12_cif.got.tgz:23254.got - 2010.04.14 02:36:11.
