data_PCOD8188656
_publ_section_title
;
Structure prediction by ZEFSAII (Michael W. Deem and Ramdas Pophale) SiO2 
 PCOD8188656
Probable space group: I M M 2
;
_chemical_formula_sum "Si O2"
_cell_formula_units_Z 48
_cell_length_a 8.747280
_cell_length_b 13.454320
_cell_length_c 19.030530
_cell_angle_alpha 90.000000
_cell_angle_beta 90.000000
_cell_angle_gamma 90.000000
_cell_volume 2239.678417
_symmetry_space_group_name_H-M "I M M 2"
_symmetry_group_IT_number 44
_symmetry_cell_setting 'orthorhombic'
loop_
_space_group_symop_operation_xyz
x,y,z
-x,-y,z
-x,y,z
x,-y,z
1/2+x,1/2+y,1/2+z
1/2-x,1/2-y,1/2+z
1/2-x,1/2+y,1/2+z
1/2+x,1/2-y,1/2+z
loop_
_atom_site_type_symbol
_atom_site_label
_atom_site_fract_x
_atom_site_fract_y
_atom_site_fract_z
Si Si1 0.335165 0.610769 0.891240
Si Si2 0.823737 0.727573 0.775654
Si Si3 0.676361 0.889205 0.530609
Si Si4 0.677507 0.386850 0.385993
Si Si5 0.821814 0.309852 0.526659
Si Si6 0.178222 0.887921 0.157187
O O1 0.500000 0.656172 0.918990
O O2 0.369118 0.500000 0.869755
O O3 0.285527 0.658567 0.819725
O O4 0.198659 0.617373 0.946961
O O5 0.798406 0.838875 0.807797
O O6 0.767992 0.702351 0.696844
O O7 0.000000 0.697627 0.782066
O O8 0.500000 0.870197 0.549409
O O9 0.781642 0.799987 0.559061
O O10 0.727421 0.000000 0.557567
O O11 0.500000 0.383737 0.406791
O O12 0.738525 0.500000 0.383020
O O13 0.767993 0.323609 0.445342
O O14 0.733279 0.387351 0.576023
O O15 0.000000 0.330383 0.532215
O O16 0.000000 0.863768 0.160656
O O17 0.212651 0.000000 0.185683
#
# Coordination Sequence:
#
# PCOD8188656 Si02
#       6
#     8   8   8   8   8   8
#     4  10  19  31  51  82 119 155 192 240 298 356
#     4  11  22  37  60  89 121 159 204 256 312 370
#     4  10  20  35  57  86 120 159 203 249 300 359
#     4  10  22  41  64  90 123 165 210 256 311 374
#     4  12  24  39  63  94 128 164 207 260 315 374
#     4  11  25  44  65  89 123 167 210 258 317 378
#
# _framework density 21.431647999999999
#
# number of rings (size 3 to 8) (size 9 to 14) (size 15 to 20)
#    0.000    1.333    1.667    4.500    0.000    8.333 
#    0.000    0.833    0.000    3.000    0.000    0.000 
#    0.000    0.000    0.000    0.000    0.000    0.000 
#
# Total GULP energy -297321.041915 kJ/mol
# GULP energy per Si atom -12388.376746 kJ/mol
# Density = 2.138287 g / cm^3
# Si number density = 21.431648 Si / 1000 Ang^3
#
#
#
# Elastic Constant Matrix: (Units=GPa)
#
#
# Indices 1 2 3 4 5 6 
#
# 1 98.0477 52.7617 10.5697 0.0000 0.0000 0.0000
# 2 52.7617 112.3823 33.4611 0.0000 0.0000 0.0000
# 3 10.5697 33.4611 58.6619 0.0000 0.0000 0.0000
# 4 0.0000 0.0000 0.0000 32.7485 0.0000 0.0000
# 5 0.0000 0.0000 0.0000 0.0000 31.8473 0.0000
# 6 0.0000 0.0000 0.0000 0.0000 0.0000 26.1713
#
#
#
# Elastic Compliance Matrix: (Units=1/GPa)
#
#
# Indices 1 2 3 4 5 6 
#
# 1 0.013749 -0.006887 0.001451 0.000000 0.000000 0.000000
# 2 -0.006887 0.014168 -0.006841 0.000000 0.000000 0.000000
# 3 0.001451 -0.006841 0.020687 0.000000 0.000000 0.000000
# 4 0.000000 0.000000 0.000000 0.030536 0.000000 0.000000
# 5 0.000000 0.000000 0.000000 0.000000 0.031400 0.000000
# 6 0.000000 0.000000 0.000000 0.000000 0.000000 0.038210
#
#
# Mechanical properties :
#
#
# Convention : Reuss Voigt Hill
#
# Bulk Modulus (GPa) = 41.57796 51.40856 46.49326
# Shear Modulus (GPa) = 27.57557 29.64004 28.60780
#
# Velocity S-wave (km/s) = 3.59092 3.72291 3.65751
# Velocity P-wave (km/s) = 6.05271 6.52069 6.29105
#
# Compressibility (1/GPa) = 0.02405120
#
# Stress axis : x y z
#
# Youngs Moduli (GPa) = 72.73444 70.58032 48.33856
#
# Poissons Ratio (x) = 0.48607 -0.07014
# Poissons Ratio (y) = 0.50091 0.33067
# Poissons Ratio (z) = -0.10554 0.48283
#
# Static dielectric constant tensor:
#      x y z
#    x 3.901380 0.000000 0.000000 
#    y 0.000000 4.215510 0.000000 
#    z 0.000000 0.000000 3.670100 
# 
# 
# High freq. dielectric constant tensor:
#      x y z
#    x 1.846580 0.000000 0.000000 
#    y 0.000000 1.849270 0.000000 
#    z 0.000000 0.000000 1.812330 
# 
# From -- ./inp_files/22908.got.cif
#   From: 2010.03.12/outbox.cif.g09.slc.cpg/sg44_12_cif.got.tgz:22908.got - 2010.04.14 02:36:11.
