data_PCOD8188084
_publ_section_title
;
Structure prediction by ZEFSAII (Michael W. Deem and Ramdas Pophale) SiO2 
 PCOD8188084
Probable space group: I M M 2
;
_chemical_formula_sum "Si O2"
_cell_formula_units_Z 56
_cell_length_a 13.074640
_cell_length_b 28.889444
_cell_length_c 9.442092
_cell_angle_alpha 90.000000
_cell_angle_beta 90.000000
_cell_angle_gamma 90.000000
_cell_volume 3566.458304
_symmetry_space_group_name_H-M "I M M 2"
_symmetry_group_IT_number 44
_symmetry_cell_setting 'orthorhombic'
loop_
_space_group_symop_operation_xyz
x,y,z
-x,-y,z
-x,y,z
x,-y,z
1/2+x,1/2+y,1/2+z
1/2-x,1/2-y,1/2+z
1/2-x,1/2+y,1/2+z
1/2+x,1/2-y,1/2+z
loop_
_atom_site_type_symbol
_atom_site_label
_atom_site_fract_x
_atom_site_fract_y
_atom_site_fract_z
Si Si1 0.305817 0.159476 0.668690
Si Si2 0.884048 0.759711 0.243608
Si Si3 0.881679 0.371282 0.881887
Si Si4 0.119930 0.377067 0.444442
Si Si5 0.812484 0.697951 0.664993
Si Si6 0.614934 0.710370 0.063353
Si Si7 0.620859 0.051191 0.176593
O O1 0.367271 0.205791 0.709262
O O2 0.363379 0.129838 0.548597
O O3 0.309475 0.125736 0.804799
O O4 0.190765 0.169779 0.615543
O O5 0.808566 0.790663 0.146578
O O6 0.858435 0.770558 0.407177
O O7 0.000000 0.773215 0.205535
O O8 0.826591 0.326705 0.815569
O O9 0.838494 0.418611 0.810286
O O10 0.000000 0.367598 0.842530
O O11 0.144395 0.332632 0.538972
O O12 0.150476 0.423426 0.529612
O O13 0.000000 0.376495 0.404464
O O14 0.873925 0.746253 0.669513
O O15 0.500000 0.690385 0.070487
O O16 0.500000 0.046421 0.186422
O O17 0.671408 0.000000 0.180259
#
# Coordination Sequence:
#
# PCOD8188084 Si02
#       7
#     8   8   8   8   8   8   8
#     4  11  20  30  44  68  92 122 159 194 227 265
#     4  10  19  30  44  62  92 126 159 198 230 254
#     4  10  18  28  45  68  92 117 154 192 225 267
#     4  10  18  30  49  66  93 125 152 185 226 275
#     4  10  18  30  44  63  84 126 165 188 219 265
#     4  10  19  31  45  61  91 128 159 194 231 261
#     4   8  16  31  49  68  91 121 149 178 226 285
#
# _framework density 15.701853
#
# number of rings (size 3 to 8) (size 9 to 14) (size 15 to 20)
#    0.000    2.143    2.857    3.429    0.000    0.000 
#    0.000    2.857    0.000    3.429    0.000    0.000 
#    0.000   21.714    0.000    0.000    0.000    0.000 
#
# Total GULP energy -347087.234288 kJ/mol
# GULP energy per Si atom -12395.972653 kJ/mol
# Density = 1.566612 g / cm^3
# Si number density = 15.701853 Si / 1000 Ang^3
#
#
#
# Elastic Constant Matrix: (Units=GPa)
#
#
# Indices 1 2 3 4 5 6 
#
# 1 73.7450 27.5542 22.0608 -0.0001 -0.0001 0.0000
# 2 27.5542 83.4051 37.5904 0.0002 -0.0001 0.0000
# 3 22.0608 37.5904 91.2739 -0.0021 0.0034 0.0002
# 4 -0.0001 0.0002 -0.0021 17.9962 0.0003 0.0001
# 5 -0.0001 -0.0001 0.0034 0.0003 23.0256 0.0000
# 6 0.0000 0.0000 0.0002 0.0001 0.0000 12.8479
#
#
#
# Elastic Compliance Matrix: (Units=1/GPa)
#
#
# Indices 1 2 3 4 5 6 
#
# 1 0.015775 -0.004289 -0.002046 0.000000 0.000000 0.000000
# 2 -0.004289 0.015889 -0.005507 -0.000001 0.000001 0.000000
# 3 -0.002046 -0.005507 0.013719 0.000002 -0.000002 0.000000
# 4 0.000000 -0.000001 0.000002 0.055567 -0.000001 0.000000
# 5 0.000000 0.000001 -0.000002 -0.000001 0.043430 0.000000
# 6 0.000000 0.000000 0.000000 0.000000 0.000000 0.077833
#
#
# Mechanical properties :
#
#
# Convention : Reuss Voigt Hill
#
# Bulk Modulus (GPa) = 46.08863 46.98165 46.53514
# Shear Modulus (GPa) = 19.75268 21.52187 20.63727
#
# Velocity S-wave (km/s) = 3.55065 3.70626 3.62929
# Velocity P-wave (km/s) = 6.79894 6.94990 6.87484
#
# Compressibility (1/GPa) = 0.02169733
#
# Stress axis : x y z
#
# Youngs Moduli (GPa) = 63.39121 62.93803 72.89375
#
# Poissons Ratio (x) = 0.26996 0.14916
# Poissons Ratio (y) = 0.27190 0.40142
# Poissons Ratio (z) = 0.12972 0.34659
#
# Static dielectric constant tensor:
#      x y z
#    x 2.867130 0.000000 0.000000 
#    y 0.000000 2.979630 0.000000 
#    z 0.000000 0.000000 3.068040 
# 
# 
# High freq. dielectric constant tensor:
#      x y z
#    x 1.581090 0.000000 0.000000 
#    y 0.000000 1.572520 0.000000 
#    z 0.000000 0.000000 1.607870 
# 
# From -- ./inp_files/7660.got.cif
#   From: 2010.03.12/outbox.cif.g09.slc.cpg/sg44_4_cif.got.tgz:7660.got - 2010.04.14 02:36:11.
