data_PCOD8188010
_publ_section_title
;
Structure prediction by ZEFSAII (Michael W. Deem and Ramdas Pophale) SiO2 
 PCOD8188010
Probable space group: I M M 2
;
_chemical_formula_sum "Si O2"
_cell_formula_units_Z 64
_cell_length_a 8.888333
_cell_length_b 26.120661
_cell_length_c 18.565627
_cell_angle_alpha 90.000000
_cell_angle_beta 90.000000
_cell_angle_gamma 90.000000
_cell_volume 4310.365527
_symmetry_space_group_name_H-M "I M M 2"
_symmetry_group_IT_number 44
_symmetry_cell_setting 'orthorhombic'
loop_
_space_group_symop_operation_xyz
x,y,z
-x,-y,z
-x,y,z
x,-y,z
1/2+x,1/2+y,1/2+z
1/2-x,1/2-y,1/2+z
1/2-x,1/2+y,1/2+z
1/2+x,1/2-y,1/2+z
loop_
_atom_site_type_symbol
_atom_site_label
_atom_site_fract_x
_atom_site_fract_y
_atom_site_fract_z
Si Si1 0.323782 0.441504 0.857870
Si Si2 0.827072 0.643445 0.774056
Si Si3 0.671924 0.209538 0.147319
Si Si4 0.323785 0.940923 0.506498
Si Si5 0.677636 0.260288 0.849204
Si Si6 0.672742 0.198347 0.717596
Si Si7 0.822759 0.857113 0.597970
Si Si8 0.826127 0.759053 0.508615
O O1 0.500000 0.434273 0.867266
O O2 0.279665 0.500000 0.841135
O O3 0.265781 0.407569 0.791500
O O4 0.247382 0.422131 0.931372
O O5 0.809078 0.655043 0.687793
O O6 0.767479 0.691239 0.819507
O O7 0.000000 0.634041 0.794327
O O8 0.500000 0.230125 0.160392
O O9 0.793323 0.247537 0.180540
O O10 0.701583 0.209359 0.060710
O O11 0.500000 0.931405 0.502452
O O12 0.254398 0.909153 0.572070
O O13 0.283389 0.000000 0.520548
O O14 0.500000 0.273164 0.847011
O O15 0.708989 0.208578 0.802340
O O16 0.743325 0.249828 0.929581
O O17 0.500000 0.183329 0.705739
O O18 0.773289 0.153963 0.680868
O O19 0.763735 0.810247 0.547837
O O20 0.000000 0.864161 0.595079
O O21 0.000000 0.768415 0.495412
#
# Coordination Sequence:
#
# PCOD8188010 Si02
#       8
#     8   8   8   8   8   8   8   8
#     4  10  20  32  44  58  79 108 139 168 199 239
#     4  10  18  27  41  59  80 107 137 170 206 241
#     4   8  15  27  40  55  77 105 135 167 205 245
#     4  10  20  32  45  62  83 104 131 171 209 237
#     4   9  16  26  41  59  80 108 139 170 204 242
#     4   9  16  25  38  57  80 105 135 170 204 237
#     4  10  18  28  43  59  80 112 142 166 196 239
#     4   8  14  25  40  57  77 103 136 167 195 233
#
# _framework density 14.847929000000001
#
# number of rings (size 3 to 8) (size 9 to 14) (size 15 to 20)
#    0.000    2.750    0.000    3.375    0.000    3.500 
#    0.000    2.500    0.000    0.000    0.000    0.000 
#    0.000    1.000    0.000    8.250    0.000    2.000 
#
# Total GULP energy -396511.469714 kJ/mol
# GULP energy per Si atom -12390.983429 kJ/mol
# Density = 1.481413 g / cm^3
# Si number density = 14.847929 Si / 1000 Ang^3
#
#
#
# Elastic Constant Matrix: (Units=GPa)
#
#
# Indices 1 2 3 4 5 6 
#
# 1 52.4072 28.8371 27.0220 0.0000 0.0000 0.0000
# 2 28.8371 64.1435 42.8658 0.0000 0.0000 0.0000
# 3 27.0220 42.8658 98.2021 0.0002 0.0000 0.0000
# 4 0.0000 0.0000 0.0002 24.2314 0.0000 0.0000
# 5 0.0000 0.0000 0.0000 0.0000 18.4010 0.0000
# 6 0.0000 0.0000 0.0000 0.0000 0.0000 21.5168
#
#
#
# Elastic Compliance Matrix: (Units=1/GPa)
#
#
# Indices 1 2 3 4 5 6 
#
# 1 0.025921 -0.009723 -0.002888 0.000000 0.000000 0.000000
# 2 -0.009723 0.025658 -0.008524 0.000000 0.000000 0.000000
# 3 -0.002888 -0.008524 0.014699 0.000000 0.000000 0.000000
# 4 0.000000 0.000000 0.000000 0.041269 0.000000 0.000000
# 5 0.000000 0.000000 0.000000 0.000000 0.054345 0.000000
# 6 0.000000 0.000000 0.000000 0.000000 0.000000 0.046475
#
#
# Mechanical properties :
#
#
# Convention : Reuss Voigt Hill
#
# Bulk Modulus (GPa) = 41.65636 45.80029 43.72832
# Shear Modulus (GPa) = 19.33191 20.56503 19.94847
#
# Velocity S-wave (km/s) = 3.61223 3.72566 3.66938
# Velocity P-wave (km/s) = 6.74639 7.02998 6.88964
#
# Compressibility (1/GPa) = 0.02400594
#
# Stress axis : x y z
#
# Youngs Moduli (GPa) = 38.57914 38.97440 68.03265
#
# Poissons Ratio (x) = 0.37895 0.19651
# Poissons Ratio (y) = 0.37510 0.57994
# Poissons Ratio (z) = 0.11143 0.33223
#
# Static dielectric constant tensor:
#      x y z
#    x 2.877340 0.000000 0.000000 
#    y 0.000000 2.700130 0.000000 
#    z 0.000000 0.000000 3.191770 
# 
# 
# High freq. dielectric constant tensor:
#      x y z
#    x 1.573900 0.000000 0.000000 
#    y 0.000000 1.529440 0.000000 
#    z 0.000000 0.000000 1.561020 
# 
# From -- ./inp_files/20906.got.cif
#   From: 2010.03.12/outbox.cif.g09.slc.cpg/sg44_11_cif.got.tgz:20906.got - 2010.04.14 02:36:11.
