data_PCOD8188644
_publ_section_title
;
Structure prediction by ZEFSAII (Michael W. Deem and Ramdas Pophale) SiO2 
 PCOD8188644
Probable space group: I M M 2
;
_chemical_formula_sum "Si O2"
_cell_formula_units_Z 64
_cell_length_a 18.546788
_cell_length_b 9.122112
_cell_length_c 20.718523
_cell_angle_alpha 90.000000
_cell_angle_beta 90.000000
_cell_angle_gamma 90.000000
_cell_volume 3505.281492
_symmetry_space_group_name_H-M "I M M 2"
_symmetry_group_IT_number 44
_symmetry_cell_setting 'orthorhombic'
loop_
_space_group_symop_operation_xyz
x,y,z
-x,-y,z
-x,y,z
x,-y,z
1/2+x,1/2+y,1/2+z
1/2-x,1/2-y,1/2+z
1/2-x,1/2+y,1/2+z
1/2+x,1/2-y,1/2+z
loop_
_atom_site_type_symbol
_atom_site_label
_atom_site_fract_x
_atom_site_fract_y
_atom_site_fract_z
Si Si1 0.580413 0.825868 0.542030
Si Si2 0.666208 0.827767 0.417931
Si Si3 0.822088 0.326586 0.158841
Si Si4 0.416960 0.829610 0.037311
Si Si5 0.337994 0.665034 0.291664
Si Si6 0.171249 0.327540 0.664474
Si Si7 0.333210 0.328925 0.924101
Si Si8 0.166682 0.662322 0.299684
O O1 0.500000 0.759846 0.543021
O O2 0.621287 0.768974 0.478657
O O3 0.622261 0.770901 0.605166
O O4 0.578090 0.000000 0.541513
O O5 0.633541 0.746057 0.355677
O O6 0.749354 0.787744 0.431493
O O7 0.657119 0.000000 0.406341
O O8 0.804800 0.500000 0.153840
O O9 0.748550 0.239642 0.147303
O O10 0.859475 0.290310 0.228083
O O11 0.500000 0.781051 0.039304
O O12 0.382527 0.791785 0.106194
O O13 0.408559 0.000000 0.021283
O O14 0.376852 0.742032 0.981742
O O15 0.369109 0.500000 0.288859
O O16 0.362951 0.753566 0.228288
O O17 0.252365 0.663518 0.294660
O O18 0.179782 0.500000 0.676929
O O19 0.347021 0.500000 0.926301
O O20 0.362065 0.271223 0.854791
O O21 0.138445 0.500000 0.317307
#
# Coordination Sequence:
#
# PCOD8188644 Si02
#       8
#     8   8   8   8   8   8   8   8
#     4   9  17  30  49  73 101 134 171 206 239 282
#     4   9  17  30  50  76 103 130 163 204 246 287
#     4   9  17  31  52  77 103 130 164 205 245 287
#     4  10  22  38  52  69  97 131 165 202 245 296
#     4   9  17  30  50  75 101 128 161 202 245 291
#     4  10  19  32  53  77  98 124 161 203 248 297
#     4  10  19  31  51  76  99 125 160 204 249 292
#     4   8  15  28  47  72 100 127 157 197 243 290
#
# _framework density 18.258163
#
# number of rings (size 3 to 8) (size 9 to 14) (size 15 to 20)
#    0.000    2.750    0.000    2.625    0.000    5.750 
#    0.000    1.875    0.000    7.500    0.000    0.000 
#    0.000    0.000    0.000    0.000    0.000    0.000 
#
# Total GULP energy -396750.314212 kJ/mol
# GULP energy per Si atom -12398.447319 kJ/mol
# Density = 1.821661 g / cm^3
# Si number density = 18.258163 Si / 1000 Ang^3
#
#
#
# Elastic Constant Matrix: (Units=GPa)
#
#
# Indices 1 2 3 4 5 6 
#
# 1 74.2853 43.3818 64.1128 0.0000 0.0000 0.0000
# 2 43.3818 80.3480 71.5237 0.0000 0.0000 0.0000
# 3 64.1128 71.5237 178.2989 0.0000 0.0000 0.0000
# 4 0.0000 0.0000 0.0000 28.4989 0.0000 0.0000
# 5 0.0000 0.0000 0.0000 0.0000 -0.0006 0.0000
# 6 0.0000 0.0000 0.0000 0.0000 0.0000 16.4584
#
#
#
# Elastic Compliance Matrix: (Units=1/GPa)
#
#
# Indices 1 2 3 4 5 6 
#
# 1 0.022128 -0.007566 -0.004922 0.000000 0.000000 0.000000
# 2 -0.007566 0.021946 -0.006083 0.000000 0.000000 0.000000
# 3 -0.004922 -0.006083 0.009818 0.000000 0.000000 0.000000
# 4 0.000000 0.000000 0.000000 0.035089 0.000000 0.000000
# 5 0.000000 0.000000 0.000000 0.000000********** 0.000000
# 6 0.000000 0.000000 0.000000 0.000000 0.000000 0.060759
#
#
# Mechanical properties :
#
#
# Convention : Reuss Voigt Hill
#
# Bulk Modulus (GPa) = 59.69887 76.77431 68.23659
# Shear Modulus (GPa) = -0.00284 19.25227 9.62472
#
# Velocity S-wave (km/s) = -0.03946 3.25075 2.29846
# Velocity P-wave (km/s) = 5.72416 7.49869 6.67070
#
# Compressibility (1/GPa) = 0.01675074
#
# Stress axis : x y z
#
# Youngs Moduli (GPa) = 45.19190 45.56679 101.85051
#
# Poissons Ratio (x) = 0.34477 0.50126
# Poissons Ratio (y) = 0.34194 0.61953
# Poissons Ratio (z) = 0.22241 0.27717
#
# Static dielectric constant tensor:
#      x y z
#    x 3.130650 0.000000 0.000000 
#    y 0.000000 3.315660 0.000000 
#    z 0.000000 0.000000 3.765150 
# 
# 
# High freq. dielectric constant tensor:
#      x y z
#    x 1.671310 0.000000 0.000000 
#    y 0.000000 1.696340 0.000000 
#    z 0.000000 0.000000 1.728970 
# 
# From -- ./inp_files/24366.got.cif
#   From: 2010.03.12/outbox.cif.g09.slc.cpg/sg44_13_cif.got.tgz:24366.got - 2010.04.14 02:36:11.
