data_PCOD8188227
_publ_section_title
;
Structure prediction by ZEFSAII (Michael W. Deem and Ramdas Pophale) SiO2 
 PCOD8188227
Probable space group: I M M 2
;
_chemical_formula_sum "Si O2"
_cell_formula_units_Z 56
_cell_length_a 9.436391
_cell_length_b 20.857640
_cell_length_c 14.113080
_cell_angle_alpha 90.000000
_cell_angle_beta 90.000000
_cell_angle_gamma 90.000000
_cell_volume 2777.748351
_symmetry_space_group_name_H-M "I M M 2"
_symmetry_group_IT_number 44
_symmetry_cell_setting 'orthorhombic'
loop_
_space_group_symop_operation_xyz
x,y,z
-x,-y,z
-x,y,z
x,-y,z
1/2+x,1/2+y,1/2+z
1/2-x,1/2-y,1/2+z
1/2-x,1/2+y,1/2+z
1/2+x,1/2-y,1/2+z
loop_
_atom_site_type_symbol
_atom_site_label
_atom_site_fract_x
_atom_site_fract_y
_atom_site_fract_z
Si Si1 0.835401 0.855041 0.889620
Si Si2 0.348431 0.000000 0.106104
Si Si3 0.341390 0.125336 0.225445
Si Si4 0.165840 0.713336 0.557803
Si Si5 0.657185 0.926134 0.569539
Si Si6 0.163361 0.926028 0.385468
Si Si7 0.333604 0.500000 0.428058
Si Si8 0.838178 0.837448 0.676929
O O1 0.814341 0.819365 0.787897
O O2 0.000000 0.854133 0.919833
O O3 0.782719 0.930716 0.883722
O O4 0.751207 0.811314 0.965978
O O5 0.342446 0.941955 0.176131
O O6 0.500000 0.000000 0.050016
O O7 0.217647 0.000000 0.035802
O O8 0.500000 0.143988 0.261345
O O9 0.282847 0.174787 0.149403
O O10 0.231626 0.122988 0.311350
O O11 0.195752 0.785246 0.594702
O O12 0.000000 0.701922 0.536357
O O13 0.500000 0.898241 0.549980
O O14 0.758235 0.911800 0.482230
O O15 0.728750 0.894755 0.660861
O O16 0.646344 0.000000 0.593223
O O17 0.000000 0.908037 0.398212
O O18 0.183079 0.000000 0.354205
O O19 0.500000 0.500000 0.425819
O O20 0.000000 0.860826 0.665452
#
# Coordination Sequence:
#
# PCOD8188227 Si02
#       8
#     8   4   8   8   8   8   4   8
#     4  10  22  39  61  90 123 160 204 254 308 361
#     4  10  18  30  52  81 114 155 194 241 306 360
#     4  10  19  32  52  80 117 158 199 246 298 349
#     4  10  22  40  60  86 121 159 202 248 296 359
#     4  10  22  40  61  86 115 149 194 247 302 360
#     4  10  20  33  53  83 117 153 193 238 289 346
#     4  10  20  34  56  87 120 155 202 259 310 362
#     4  10  23  42  63  87 118 157 200 245 299 363
#
# _framework density 20.160214
#
# number of rings (size 3 to 8) (size 9 to 14) (size 15 to 20)
#    0.000    2.000    2.143    0.857    1.000    4.857 
#    0.000    1.429    0.000    0.000    0.000    0.000 
#    0.000    0.000    0.000    0.000    0.000    0.000 
#
# Total GULP energy -346907.021490 kJ/mol
# GULP energy per Si atom -12389.536482 kJ/mol
# Density = 2.011433 g / cm^3
# Si number density = 20.160214 Si / 1000 Ang^3
#
#
#
# Elastic Constant Matrix: (Units=GPa)
#
#
# Indices 1 2 3 4 5 6 
#
# 1 108.6399 35.8509 73.4068 0.0000 0.0000 0.0000
# 2 35.8509 54.3929 43.6898 0.0000 0.0000 0.0000
# 3 73.4068 43.6898 106.3716 0.0002 0.0000 0.0000
# 4 0.0000 0.0000 0.0002 35.4135 0.0000 0.0000
# 5 0.0000 0.0000 0.0000 0.0000 34.2457 0.0000
# 6 0.0000 0.0000 0.0000 0.0000 0.0000 27.0716
#
#
#
# Elastic Compliance Matrix: (Units=1/GPa)
#
#
# Indices 1 2 3 4 5 6 
#
# 1 0.017516 -0.002740 -0.010963 0.000000 0.000000 0.000000
# 2 -0.002740 0.027865 -0.009554 0.000000 0.000000 0.000000
# 3 -0.010963 -0.009554 0.020890 0.000000 0.000000 0.000000
# 4 0.000000 0.000000 0.000000 0.028238 0.000000 0.000000
# 5 0.000000 0.000000 0.000000 0.000000 0.029201 0.000000
# 6 0.000000 0.000000 0.000000 0.000000 0.000000 0.036939
#
#
# Mechanical properties :
#
#
# Convention : Reuss Voigt Hill
#
# Bulk Modulus (GPa) = 50.61137 63.92216 57.26677
# Shear Modulus (GPa) = 23.39206 27.10994 25.25100
#
# Velocity S-wave (km/s) = 3.41003 3.67103 3.54293
# Velocity P-wave (km/s) = 6.37679 7.05298 6.72339
#
# Compressibility (1/GPa) = 0.01975841
#
# Stress axis : x y z
#
# Youngs Moduli (GPa) = 57.09046 35.88774 47.86882
#
# Poissons Ratio (x) = 0.09832 0.52476
# Poissons Ratio (y) = 0.15640 0.45735
# Poissons Ratio (z) = 0.62586 0.34288
#
# Static dielectric constant tensor:
#      x y z
#    x 3.867070 0.000000 0.000000 
#    y 0.000000 3.687990 0.000000 
#    z 0.000000 0.000000 3.561340 
# 
# 
# High freq. dielectric constant tensor:
#      x y z
#    x 1.784610 0.000000 0.000000 
#    y 0.000000 1.783030 0.000000 
#    z 0.000000 0.000000 1.783190 
# 
# From -- ./inp_files/16541.got.cif
#   From: 2010.03.12/outbox.cif.g09.slc.cpg/sg44_9_cif.got.tgz:16541.got - 2010.04.14 02:36:11.
