data_PCOD8188085
_publ_section_title
;
Structure prediction by ZEFSAII (Michael W. Deem and Ramdas Pophale) SiO2 
 PCOD8188085
Probable space group: I M M 2
;
_chemical_formula_sum "Si O2"
_cell_formula_units_Z 64
_cell_length_a 23.017187
_cell_length_b 9.084962
_cell_length_c 19.212246
_cell_angle_alpha 90.000000
_cell_angle_beta 90.000000
_cell_angle_gamma 90.000000
_cell_volume 4017.477934
_symmetry_space_group_name_H-M "I M M 2"
_symmetry_group_IT_number 44
_symmetry_cell_setting 'orthorhombic'
loop_
_space_group_symop_operation_xyz
x,y,z
-x,-y,z
-x,y,z
x,-y,z
1/2+x,1/2+y,1/2+z
1/2-x,1/2-y,1/2+z
1/2-x,1/2+y,1/2+z
1/2+x,1/2-y,1/2+z
loop_
_atom_site_type_symbol
_atom_site_label
_atom_site_fract_x
_atom_site_fract_y
_atom_site_fract_z
Si Si1 0.779537 0.828573 0.955190
Si Si2 0.617198 0.673510 0.093605
Si Si3 0.932319 0.327484 0.728801
Si Si4 0.330647 0.825527 0.870943
Si Si5 0.748561 0.172806 0.588404
Si Si6 0.348141 0.671632 0.321499
Si Si7 0.233317 0.674697 0.241033
Si Si8 0.065801 0.671168 0.463257
O O1 0.719934 0.766294 0.921622
O O2 0.832762 0.797686 0.902428
O O3 0.773761 0.000000 0.971123
O O4 0.789972 0.746510 0.028094
O O5 0.607812 0.500000 0.098970
O O6 0.597588 0.744438 0.165320
O O7 0.683938 0.714199 0.078931
O O8 0.577579 0.736671 0.032262
O O9 0.921077 0.500000 0.721109
O O10 0.904028 0.267690 0.800384
O O11 0.000000 0.289838 0.730750
O O12 0.318676 0.767617 0.791952
O O13 0.393023 0.773452 0.899966
O O14 0.325991 0.000000 0.869103
O O15 0.726282 0.236658 0.662845
O O16 0.738773 0.000000 0.584088
O O17 0.361583 0.500000 0.309657
O O18 0.294732 0.724134 0.273190
O O19 0.233195 0.500000 0.237659
O O20 0.077500 0.500000 0.480307
O O21 0.000000 0.697796 0.438721
#
# Coordination Sequence:
#
# PCOD8188085 Si02
#       8
#     8   8   8   8   8   8   8   8
#     4   9  17  29  48  68  90 120 151 185 230 278
#     4  11  21  32  45  64  93 127 162 193 220 263
#     4  11  23  35  47  66  93 125 159 194 232 273
#     4   8  14  26  44  63  85 116 149 185 227 266
#     4  10  18  28  45  68  92 119 152 189 226 271
#     4   9  17  32  50  68  89 118 156 194 229 272
#     4   8  14  27  45  64  87 115 150 188 229 270
#     4  10  19  30  45  66  91 120 156 193 228 268
#
# _framework density 15.930391
#
# number of rings (size 3 to 8) (size 9 to 14) (size 15 to 20)
#    0.000    2.500    2.500    2.625    0.000    3.750 
#    0.000    0.000    0.000    0.750    0.000    0.875 
#    0.000    3.000    0.000    0.000    0.000    0.000 
#
# Total GULP energy -396660.174811 kJ/mol
# GULP energy per Si atom -12395.630463 kJ/mol
# Density = 1.589413 g / cm^3
# Si number density = 15.930391 Si / 1000 Ang^3
#
#
#
# Elastic Constant Matrix: (Units=GPa)
#
#
# Indices 1 2 3 4 5 6 
#
# 1 50.4450 29.5945 35.2178 0.0000 0.0000 0.0000
# 2 29.5945 43.7250 33.4189 0.0000 0.0000 0.0000
# 3 35.2178 33.4189 118.3590 0.0000 0.0000 0.0000
# 4 0.0000 0.0000 0.0000 24.6171 0.0000 0.0000
# 5 0.0000 0.0000 0.0000 0.0000 23.2558 0.0000
# 6 0.0000 0.0000 0.0000 0.0000 0.0000 18.6170
#
#
#
# Elastic Compliance Matrix: (Units=1/GPa)
#
#
# Indices 1 2 3 4 5 6 
#
# 1 0.034838 -0.019965 -0.004729 0.000000 0.000000 0.000000
# 2 -0.019965 0.040606 -0.005524 0.000000 0.000000 0.000000
# 3 -0.004729 -0.005524 0.011416 0.000000 0.000000 0.000000
# 4 0.000000 0.000000 0.000000 0.040622 0.000000 0.000000
# 5 0.000000 0.000000 0.000000 0.000000 0.043000 0.000000
# 6 0.000000 0.000000 0.000000 0.000000 0.000000 0.053714
#
#
# Mechanical properties :
#
#
# Convention : Reuss Voigt Hill
#
# Bulk Modulus (GPa) = 37.84667 45.44348 41.64508
# Shear Modulus (GPa) = 17.03925 20.91785 18.97855
#
# Velocity S-wave (km/s) = 3.27403 3.62757 3.45533
# Velocity P-wave (km/s) = 6.17264 6.79220 6.48982
#
# Compressibility (1/GPa) = 0.02642240
#
# Stress axis : x y z
#
# Youngs Moduli (GPa) = 28.70437 24.62710 87.59809
#
# Poissons Ratio (x) = 0.49169 0.41423
# Poissons Ratio (y) = 0.57309 0.48393
# Poissons Ratio (z) = 0.13574 0.13605
#
# Static dielectric constant tensor:
#      x y z
#    x 2.950930 0.000000 0.000000 
#    y 0.000000 2.796380 0.000000 
#    z 0.000000 0.000000 3.315520 
# 
# 
# High freq. dielectric constant tensor:
#      x y z
#    x 1.584250 0.000000 0.000000 
#    y 0.000000 1.592190 0.000000 
#    z 0.000000 0.000000 1.613950 
# 
# From -- ./inp_files/22339.got.cif
#   From: 2010.03.12/outbox.cif.g09.slc.cpg/sg44_12_cif.got.tgz:22339.got - 2010.04.14 02:36:11.
