data_PCOD8188585
_publ_section_title
;
Structure prediction by ZEFSAII (Michael W. Deem and Ramdas Pophale) SiO2 
 PCOD8188585
Probable space group: I M M 2
;
_chemical_formula_sum "Si O2"
_cell_formula_units_Z 64
_cell_length_a 27.773054
_cell_length_b 8.779492
_cell_length_c 14.673686
_cell_angle_alpha 90.000000
_cell_angle_beta 90.000000
_cell_angle_gamma 90.000000
_cell_volume 3577.933360
_symmetry_space_group_name_H-M "I M M 2"
_symmetry_group_IT_number 44
_symmetry_cell_setting 'orthorhombic'
loop_
_space_group_symop_operation_xyz
x,y,z
-x,-y,z
-x,y,z
x,-y,z
1/2+x,1/2+y,1/2+z
1/2-x,1/2-y,1/2+z
1/2-x,1/2+y,1/2+z
1/2+x,1/2-y,1/2+z
loop_
_atom_site_type_symbol
_atom_site_label
_atom_site_fract_x
_atom_site_fract_y
_atom_site_fract_z
Si Si1 0.223597 0.677114 0.304160
Si Si2 0.171024 0.180833 0.008536
Si Si3 0.324839 0.178575 0.318952
Si Si4 0.366240 0.180117 0.684044
Si Si5 0.863117 0.320105 0.629858
Si Si6 0.778318 0.676968 0.510040
Si Si7 0.555683 0.678382 0.810250
Si Si8 0.945628 0.679772 0.500552
O O1 0.236243 0.500000 0.289131
O O2 0.271429 0.774632 0.286553
O O3 0.181682 0.734706 0.237166
O O4 0.204795 0.705420 0.406555
O O5 0.135357 0.255800 0.081467
O O6 0.225028 0.245566 0.026496
O O7 0.167751 0.000000 0.014823
O O8 0.156073 0.230865 0.906752
O O9 0.361140 0.222071 0.236452
O O10 0.325325 0.000000 0.340163
O O11 0.413819 0.244784 0.730648
O O12 0.369860 0.000000 0.682598
O O13 0.859984 0.500000 0.616525
O O14 0.817367 0.245797 0.576841
O O15 0.912520 0.261233 0.584053
O O16 0.774288 0.500000 0.531371
O O17 0.500000 0.719101 0.792404
O O18 0.565134 0.500000 0.809057
O O19 0.572351 0.742631 0.907764
O O20 0.941265 0.500000 0.486075
O O21 0.000000 0.729108 0.524321
#
# Coordination Sequence:
#
# PCOD8188585 Si02
#       8
#     8   8   8   8   8   8   8   8
#     4   9  18  31  47  71 103 133 161 200 249 298
#     4  10  20  34  49  67  97 134 169 208 255 301
#     4  10  19  31  48  70  98 134 174 212 249 294
#     4  11  21  33  53  77  99 128 169 211 251 300
#     4   9  16  27  46  71  97 126 162 204 248 292
#     4   8  14  26  44  66  95 129 158 188 236 295
#     4  10  21  36  53  76 106 134 159 194 245 302
#     4   9  17  31  52  76 101 130 164 202 245 293
#
# _framework density 17.887419999999999
#
# number of rings (size 3 to 8) (size 9 to 14) (size 15 to 20)
#    0.000    2.500    0.000    3.750    0.000    4.750 
#    0.000    1.250    0.000    3.750    0.000    1.750 
#    0.000    0.000    0.000    0.000    0.000    0.000 
#
# Total GULP energy -396764.062386 kJ/mol
# GULP energy per Si atom -12398.876950 kJ/mol
# Density = 1.784671 g / cm^3
# Si number density = 17.887420 Si / 1000 Ang^3
#
#
#
# Elastic Constant Matrix: (Units=GPa)
#
#
# Indices 1 2 3 4 5 6 
#
# 1 84.5425 29.3194 73.0237 0.0000 0.0000 0.0000
# 2 29.3194 43.6913 29.3570 0.0000 0.0000 0.0000
# 3 73.0237 29.3570 128.8068 0.0000 0.0000 0.0000
# 4 0.0000 0.0000 0.0000 24.5319 0.0000 0.0000
# 5 0.0000 0.0000 0.0000 0.0000 32.9440 0.0000
# 6 0.0000 0.0000 0.0000 0.0000 0.0000 20.3460
#
#
#
# Elastic Compliance Matrix: (Units=1/GPa)
#
#
# Indices 1 2 3 4 5 6 
#
# 1 0.025773 -0.008830 -0.012599 0.000000 0.000000 0.000000
# 2 -0.008830 0.030052 -0.001843 0.000000 0.000000 0.000000
# 3 -0.012599 -0.001843 0.015326 0.000000 0.000000 0.000000
# 4 0.000000 0.000000 0.000000 0.040763 0.000000 0.000000
# 5 0.000000 0.000000 0.000000 0.000000 0.030355 0.000000
# 6 0.000000 0.000000 0.000000 0.000000 0.000000 0.049150
#
#
# Mechanical properties :
#
#
# Convention : Reuss Voigt Hill
#
# Bulk Modulus (GPa) = 40.63904 57.82676 49.23290
# Shear Modulus (GPa) = 20.31164 23.92041 22.11603
#
# Velocity S-wave (km/s) = 3.37341 3.66085 3.52006
# Velocity P-wave (km/s) = 6.15970 7.08995 6.64113
#
# Compressibility (1/GPa) = 0.02460688
#
# Stress axis : x y z
#
# Youngs Moduli (GPa) = 38.80079 33.27595 65.24754
#
# Poissons Ratio (x) = 0.29382 0.82204
# Poissons Ratio (y) = 0.34260 0.12028
# Poissons Ratio (z) = 0.48884 0.06134
#
# Static dielectric constant tensor:
#      x y z
#    x 3.324690 0.000000 0.000000 
#    y 0.000000 3.097760 0.000000 
#    z 0.000000 0.000000 3.408560 
# 
# 
# High freq. dielectric constant tensor:
#      x y z
#    x 1.671510 0.000000 0.000000 
#    y 0.000000 1.675590 0.000000 
#    z 0.000000 0.000000 1.696050 
# 
# From -- ./inp_files/19711.got.cif
#   From: 2010.03.12/outbox.cif.g09.slc.cpg/sg44_10_cif.got.tgz:19711.got - 2010.04.14 02:36:11.
