data_PCOD8188367
_publ_section_title
;
Structure prediction by ZEFSAII (Michael W. Deem and Ramdas Pophale) SiO2 
 PCOD8188367
Probable space group: I M M 2
;
_chemical_formula_sum "Si O2"
_cell_formula_units_Z 48
_cell_length_a 8.753644
_cell_length_b 14.583404
_cell_length_c 20.581799
_cell_angle_alpha 90.000000
_cell_angle_beta 90.000000
_cell_angle_gamma 90.000000
_cell_volume 2627.429793
_symmetry_space_group_name_H-M "I M M 2"
_symmetry_group_IT_number 44
_symmetry_cell_setting 'orthorhombic'
loop_
_space_group_symop_operation_xyz
x,y,z
-x,-y,z
-x,y,z
x,-y,z
1/2+x,1/2+y,1/2+z
1/2-x,1/2-y,1/2+z
1/2-x,1/2+y,1/2+z
1/2+x,1/2-y,1/2+z
loop_
_atom_site_type_symbol
_atom_site_label
_atom_site_fract_x
_atom_site_fract_y
_atom_site_fract_z
Si Si1 0.819351 0.688779 0.305350
Si Si2 0.320510 0.315963 0.923408
Si Si3 0.319614 0.689197 0.068085
Si Si4 0.319041 0.000000 0.229556
Si Si5 0.681570 0.803713 0.188235
Si Si6 0.319567 0.000000 0.375128
Si Si7 0.181180 0.000000 0.772495
Si Si8 0.818101 0.000000 0.623798
O O1 0.769126 0.740276 0.371353
O O2 0.757222 0.744543 0.244440
O O3 0.745677 0.588751 0.308975
O O4 0.000000 0.679883 0.299861
O O5 0.500000 0.334760 0.919251
O O6 0.236634 0.411092 0.912323
O O7 0.271075 0.281961 0.995366
O O8 0.500000 0.682207 0.073610
O O9 0.261431 0.766049 0.118674
O O10 0.251246 0.589797 0.087750
O O11 0.261839 0.091031 0.192458
O O12 0.500000 0.000000 0.232784
O O13 0.251160 0.000000 0.302237
O O14 0.500000 0.795309 0.196873
O O15 0.500000 0.000000 0.373114
O O16 0.238680 0.000000 0.698137
O O17 0.000000 0.000000 0.776833
O O18 0.000000 0.000000 0.622184
#
# Coordination Sequence:
#
# PCOD8188367 Si02
#       8
#     8   8   8   4   8   4   4   4
#     4  11  22  35  53  81 113 141 174 220 271 321
#     4  10  21  36  54  79 112 147 177 215 272 327
#     4   9  17  31  54  79 104 138 184 225 261 314
#     4   9  18  30  51  83 109 129 176 233 265 299
#     4  10  18  34  57  79 105 142 186 226 262 309
#     4  11  20  32  54  83 112 141 177 223 268 319
#     4  11  21  36  59  83 104 140 184 221 263 313
#     4   9  15  26  52  83 101 124 173 227 262 301
#
# _framework density 18.268803999999999
#
# number of rings (size 3 to 8) (size 9 to 14) (size 15 to 20)
#    0.000    2.000    3.333    1.500    0.000    2.000 
#    0.000    2.083    0.000    4.000    0.000    0.000 
#    0.000    0.000    0.000    0.000    0.000    0.000 
#
# Total GULP energy -297583.638995 kJ/mol
# GULP energy per Si atom -12399.318291 kJ/mol
# Density = 1.822722 g / cm^3
# Si number density = 18.268804 Si / 1000 Ang^3
#
#
#
# Elastic Constant Matrix: (Units=GPa)
#
#
# Indices 1 2 3 4 5 6 
#
# 1 36.1195 30.1974 29.8225 0.0000 0.0000 0.0000
# 2 30.1974 162.5095 86.9767 0.0000 0.0000 0.0000
# 3 29.8225 86.9767 169.2306 0.0000 0.0000 0.0000
# 4 0.0000 0.0000 0.0000 27.4990 0.0000 0.0000
# 5 0.0000 0.0000 0.0000 0.0000 20.8650 0.0000
# 6 0.0000 0.0000 0.0000 0.0000 0.0000 23.3269
#
#
#
# Elastic Compliance Matrix: (Units=1/GPa)
#
#
# Indices 1 2 3 4 5 6 
#
# 1 0.034498 -0.004354 -0.003841 0.000000 0.000000 0.000000
# 2 -0.004354 0.009038 -0.003878 0.000000 0.000000 0.000000
# 3 -0.003841 -0.003878 0.008579 0.000000 0.000000 0.000000
# 4 0.000000 0.000000 0.000000 0.036365 0.000000 0.000000
# 5 0.000000 0.000000 0.000000 0.000000 0.047927 0.000000
# 6 0.000000 0.000000 0.000000 0.000000 0.000000 0.042869
#
#
# Mechanical properties :
#
#
# Convention : Reuss Voigt Hill
#
# Bulk Modulus (GPa) = 35.75528 73.53920 54.64724
# Shear Modulus (GPa) = 23.50217 29.06237 26.28227
#
# Velocity S-wave (km/s) = 3.59062 3.99284 3.79706
# Velocity P-wave (km/s) = 6.06666 7.84846 7.01437
#
# Compressibility (1/GPa) = 0.02796790
#
# Stress axis : x y z
#
# Youngs Moduli (GPa) = 28.98711 110.64323 116.56315
#
# Poissons Ratio (x) = 0.48179 0.44777
# Poissons Ratio (y) = 0.12622 0.45201
# Poissons Ratio (z) = 0.11135 0.42905
#
# Static dielectric constant tensor:
#      x y z
#    x 3.072420 0.000000 0.000000 
#    y 0.000000 3.765490 0.000000 
#    z 0.000000 0.000000 3.616800 
# 
# 
# High freq. dielectric constant tensor:
#      x y z
#    x 1.676580 0.000000 0.000000 
#    y 0.000000 1.714180 0.000000 
#    z 0.000000 0.000000 1.710850 
# 
# From -- ./inp_files/20366.got.cif
#   From: 2010.03.12/outbox.cif.g09.slc.cpg/sg44_11_cif.got.tgz:20366.got - 2010.04.14 02:36:11.
