data_PCOD8188068
_publ_section_title
;
Structure prediction by ZEFSAII (Michael W. Deem and Ramdas Pophale) SiO2 
 PCOD8188068
Probable space group: I M M 2
;
_chemical_formula_sum "Si O2"
_cell_formula_units_Z 64
_cell_length_a 24.309371
_cell_length_b 13.219881
_cell_length_c 11.828682
_cell_angle_alpha 90.000000
_cell_angle_beta 90.000000
_cell_angle_gamma 90.000000
_cell_volume 3801.347951
_symmetry_space_group_name_H-M "I M M 2"
_symmetry_group_IT_number 44
_symmetry_cell_setting 'orthorhombic'
loop_
_space_group_symop_operation_xyz
x,y,z
-x,-y,z
-x,y,z
x,-y,z
1/2+x,1/2+y,1/2+z
1/2-x,1/2-y,1/2+z
1/2-x,1/2+y,1/2+z
1/2+x,1/2-y,1/2+z
loop_
_atom_site_type_symbol
_atom_site_label
_atom_site_fract_x
_atom_site_fract_y
_atom_site_fract_z
Si Si1 0.268396 0.304608 0.963550
Si Si2 0.328639 0.384285 0.172299
Si Si3 0.236074 0.386460 0.330087
Si Si4 0.438588 0.301628 0.852080
Si Si5 0.828422 0.309987 0.120945
Si Si6 0.330511 0.386511 0.754460
Si Si7 0.437724 0.883029 0.699206
Si Si8 0.059500 0.115336 0.590762
O O1 0.277133 0.187168 0.932848
O O2 0.285983 0.370944 0.855255
O O3 0.309521 0.318502 0.066769
O O4 0.206037 0.330669 0.005752
O O5 0.314039 0.500000 0.142915
O O6 0.297400 0.354727 0.286937
O O7 0.394078 0.365981 0.186162
O O8 0.233856 0.500000 0.377044
O O9 0.194451 0.376422 0.225004
O O10 0.500000 0.338878 0.816659
O O11 0.392903 0.373516 0.797536
O O12 0.429599 0.185313 0.812054
O O13 0.432324 0.307410 0.987134
O O14 0.820589 0.191438 0.151943
O O15 0.892492 0.343954 0.106692
O O16 0.323315 0.500000 0.707838
O O17 0.500000 0.868735 0.650533
O O18 0.427602 0.000000 0.731427
O O19 0.000000 0.133088 0.648159
O O20 0.064194 0.000000 0.544046
#
# Coordination Sequence:
#
# PCOD8188068 Si02
#       8
#     8   8   8   8   8   8   8   8
#     4  10  18  29  44  62  84 114 143 176 211 250
#     4   9  16  28  44  63  87 112 138 171 209 249
#     4   9  18  30  45  63  84 112 144 176 212 253
#     4   9  16  25  39  63  91 114 135 167 209 253
#     4   9  19  31  43  62  88 113 141 177 217 253
#     4  10  18  28  43  64  87 114 143 172 208 255
#     4   9  17  29  44  61  83 111 143 178 212 250
#     4   9  15  23  39  62  86 111 136 163 202 253
#
# _framework density 16.836134000000001
#
# number of rings (size 3 to 8) (size 9 to 14) (size 15 to 20)
#    0.000    2.750    1.250    1.125    0.000    2.750 
#    0.000    0.000    0.000    0.750    0.000    0.000 
#    0.000    0.000    0.000    0.000    0.000    0.000 
#
# Total GULP energy -396491.852352 kJ/mol
# GULP energy per Si atom -12390.370386 kJ/mol
# Density = 1.679781 g / cm^3
# Si number density = 16.836134 Si / 1000 Ang^3
#
#
#
# Elastic Constant Matrix: (Units=GPa)
#
#
# Indices 1 2 3 4 5 6 
#
# 1 113.8516 29.5380 20.4817 0.0000 0.0000 0.0000
# 2 29.5380 87.6402 17.5185 0.0000 0.0000 0.0000
# 3 20.4817 17.5185 26.2259 0.0000 0.0000 0.0000
# 4 0.0000 0.0000 0.0000 10.9799 0.0000 0.0000
# 5 0.0000 0.0000 0.0000 0.0000 20.3650 0.0000
# 6 0.0000 0.0000 0.0000 0.0000 0.0000 19.3057
#
#
#
# Elastic Compliance Matrix: (Units=1/GPa)
#
#
# Indices 1 2 3 4 5 6 
#
# 1 0.010577 -0.002209 -0.006785 0.000000 0.000000 0.000000
# 2 -0.002209 0.013630 -0.007380 0.000000 0.000000 0.000000
# 3 -0.006785 -0.007380 0.048359 0.000000 0.000000 0.000000
# 4 0.000000 0.000000 0.000000 0.091075 0.000000 0.000000
# 5 0.000000 0.000000 0.000000 0.000000 0.049104 0.000000
# 6 0.000000 0.000000 0.000000 0.000000 0.000000 0.051798
#
#
# Mechanical properties :
#
#
# Convention : Reuss Voigt Hill
#
# Bulk Modulus (GPa) = 25.11367 40.31045 32.71206
# Shear Modulus (GPa) = 16.09983 20.80876 18.45429
#
# Velocity S-wave (km/s) = 3.09571 3.51943 3.31435
# Velocity P-wave (km/s) = 5.26563 6.36475 5.84110
#
# Compressibility (1/GPa) = 0.03981896
#
# Stress axis : x y z
#
# Youngs Moduli (GPa) = 94.54494 73.36869 20.67877
#
# Poissons Ratio (x) = 0.16204 0.14031
# Poissons Ratio (y) = 0.20881 0.15260
# Poissons Ratio (z) = 0.64149 0.54144
#
# Static dielectric constant tensor:
#      x y z
#    x 3.596280 0.000000 0.000000 
#    y 0.000000 3.158130 0.000000 
#    z 0.000000 0.000000 2.702860 
# 
# 
# High freq. dielectric constant tensor:
#      x y z
#    x 1.667120 0.000000 0.000000 
#    y 0.000000 1.644620 0.000000 
#    z 0.000000 0.000000 1.588840 
# 
# From -- ./inp_files/14923.got.cif
#   From: 2010.03.12/outbox.cif.g09.slc.cpg/sg44_8_cif.got.tgz:14923.got - 2010.04.14 02:36:11.
