data_PCOD8188582
_publ_section_title
;
Structure prediction by ZEFSAII (Michael W. Deem and Ramdas Pophale) SiO2 
 PCOD8188582
Probable space group: I M M 2
;
_chemical_formula_sum "Si O2"
_cell_formula_units_Z 48
_cell_length_a 23.180769
_cell_length_b 9.172067
_cell_length_c 13.788692
_cell_angle_alpha 90.000000
_cell_angle_beta 90.000000
_cell_angle_gamma 90.000000
_cell_volume 2931.690559
_symmetry_space_group_name_H-M "I M M 2"
_symmetry_group_IT_number 44
_symmetry_cell_setting 'orthorhombic'
loop_
_space_group_symop_operation_xyz
x,y,z
-x,-y,z
-x,y,z
x,-y,z
1/2+x,1/2+y,1/2+z
1/2-x,1/2-y,1/2+z
1/2-x,1/2+y,1/2+z
1/2+x,1/2-y,1/2+z
loop_
_atom_site_type_symbol
_atom_site_label
_atom_site_fract_x
_atom_site_fract_y
_atom_site_fract_z
Si Si1 0.567120 0.169023 0.779580
Si Si2 0.434056 0.331640 0.583643
Si Si3 0.839569 0.172389 0.397842
Si Si4 0.779213 0.330342 0.562815
Si Si5 0.725938 0.170935 0.283464
Si Si6 0.165673 0.832466 0.944789
O O1 0.500000 0.192238 0.802527
O O2 0.583107 0.234277 0.675147
O O3 0.601675 0.254125 0.862226
O O4 0.584453 0.000000 0.780102
O O5 0.500000 0.306005 0.552376
O O6 0.422265 0.500000 0.611978
O O7 0.394742 0.284624 0.492886
O O8 0.825586 0.235157 0.504165
O O9 0.788462 0.217607 0.324119
O O10 0.848036 0.000000 0.404358
O O11 0.795861 0.500000 0.554111
O O12 0.780074 0.275411 0.673399
O O13 0.715366 0.300702 0.522954
O O14 0.675185 0.242103 0.346806
O O15 0.718172 0.000000 0.291502
O O16 0.164703 0.000000 0.913995
#
# Coordination Sequence:
#
# PCOD8188582 Si02
#       6
#     8   8   8   8   8   8
#     4  10  20  32  47  69  95 122 152 186 226 273
#     4   9  17  30  48  69  94 124 155 188 227 269
#     4  10  19  31  48  70  94 120 153 190 228 271
#     4   9  17  30  46  65  92 122 151 187 231 275
#     4   9  18  31  47  68  94 123 154 189 228 271
#     4   9  17  29  46  68  93 120 151 189 232 275
#
# _framework density 16.372806000000001
#
# number of rings (size 3 to 8) (size 9 to 14) (size 15 to 20)
#    0.000    2.667    0.000    2.000    0.000    5.667 
#    0.000    3.333    0.000    1.000    0.000    4.667 
#    0.000    0.000    0.000    0.000    0.000    0.000 
#
# Total GULP energy -297653.952260 kJ/mol
# GULP energy per Si atom -12402.248011 kJ/mol
# Density = 1.633554 g / cm^3
# Si number density = 16.372806 Si / 1000 Ang^3
#
#
#
# Elastic Constant Matrix: (Units=GPa)
#
#
# Indices 1 2 3 4 5 6 
#
# 1 73.6053 38.7682 53.7703 0.0000 0.0000 0.0000
# 2 38.7682 64.5846 51.8117 0.0000 0.0000 0.0000
# 3 53.7703 51.8117 134.5956 0.0000 0.0000 0.0000
# 4 0.0000 0.0000 0.0000 31.9146 0.0000 0.0000
# 5 0.0000 0.0000 0.0000 0.0000 28.8034 0.0000
# 6 0.0000 0.0000 0.0000 0.0000 0.0000 23.5696
#
#
#
# Elastic Compliance Matrix: (Units=1/GPa)
#
#
# Indices 1 2 3 4 5 6 
#
# 1 0.022316 -0.009033 -0.005438 0.000000 0.000000 0.000000
# 2 -0.009033 0.026058 -0.006422 0.000000 0.000000 0.000000
# 3 -0.005438 -0.006422 0.012074 0.000000 0.000000 0.000000
# 4 0.000000 0.000000 0.000000 0.031334 0.000000 0.000000
# 5 0.000000 0.000000 0.000000 0.000000 0.034718 0.000000
# 6 0.000000 0.000000 0.000000 0.000000 0.000000 0.042427
#
#
# Mechanical properties :
#
#
# Convention : Reuss Voigt Hill
#
# Bulk Modulus (GPa) = 53.58526 62.38731 57.98629
# Shear Modulus (GPa) = 23.04834 25.41989 24.23411
#
# Velocity S-wave (km/s) = 3.75603 3.94454 3.85144
# Velocity P-wave (km/s) = 7.18398 7.67677 7.43446
#
# Compressibility (1/GPa) = 0.01866185
#
# Stress axis : x y z
#
# Youngs Moduli (GPa) = 44.80993 38.37596 82.82097
#
# Poissons Ratio (x) = 0.34667 0.45038
# Poissons Ratio (y) = 0.40479 0.53188
# Poissons Ratio (z) = 0.24368 0.24645
#
# Static dielectric constant tensor:
#      x y z
#    x 3.046820 0.000000 0.000000 
#    y 0.000000 3.109840 0.000000 
#    z 0.000000 0.000000 3.080810 
# 
# 
# High freq. dielectric constant tensor:
#      x y z
#    x 1.617580 0.000000 0.000000 
#    y 0.000000 1.633500 0.000000 
#    z 0.000000 0.000000 1.621230 
# 
# From -- ./inp_files/11134.got.cif
#   From: 2010.03.12/outbox.cif.g09.slc.cpg/sg44_6_cif.got.tgz:11134.got - 2010.04.14 02:36:11.
