data_PCOD8188504
_publ_section_title
;
Structure prediction by ZEFSAII (Michael W. Deem and Ramdas Pophale) SiO2 
 PCOD8188504
Probable space group: I M M 2
;
_chemical_formula_sum "Si O2"
_cell_formula_units_Z 64
_cell_length_a 9.637298
_cell_length_b 27.420533
_cell_length_c 14.685032
_cell_angle_alpha 90.000000
_cell_angle_beta 90.000000
_cell_angle_gamma 90.000000
_cell_volume 3880.664322
_symmetry_space_group_name_H-M "I M M 2"
_symmetry_group_IT_number 44
_symmetry_cell_setting 'orthorhombic'
loop_
_space_group_symop_operation_xyz
x,y,z
-x,-y,z
-x,y,z
x,-y,z
1/2+x,1/2+y,1/2+z
1/2-x,1/2-y,1/2+z
1/2-x,1/2+y,1/2+z
1/2+x,1/2-y,1/2+z
loop_
_atom_site_type_symbol
_atom_site_label
_atom_site_fract_x
_atom_site_fract_y
_atom_site_fract_z
Si Si1 0.339102 0.718697 0.820480
Si Si2 0.165296 0.053873 0.330070
Si Si3 0.160489 0.056830 0.124979
Si Si4 0.335678 0.362017 0.957615
Si Si5 0.661738 0.329613 0.149748
Si Si6 0.159022 0.283065 0.651424
Si Si7 0.160261 0.330753 0.320813
Si Si8 0.160716 0.632032 0.515852
O O1 0.500000 0.710086 0.798013
O O2 0.290555 0.687574 0.907300
O O3 0.254616 0.699324 0.733988
O O4 0.305902 0.774582 0.843001
O O5 0.211093 0.068681 0.227883
O O6 0.227958 0.091571 0.403873
O O7 0.000000 0.053530 0.332642
O O8 0.222119 0.000000 0.354388
O O9 0.249516 0.088047 0.054722
O O10 0.000000 0.070958 0.112640
O O11 0.183863 0.000000 0.103397
O O12 0.500000 0.365903 0.957448
O O13 0.284647 0.360166 0.062107
O O14 0.500000 0.338581 0.169484
O O15 0.691332 0.273013 0.127145
O O16 0.746879 0.348833 0.236546
O O17 0.193996 0.316645 0.564884
O O18 0.000000 0.289107 0.681733
O O19 0.198212 0.362192 0.409486
O O20 0.000000 0.337126 0.293681
O O21 0.000000 0.618471 0.528373
#
# Coordination Sequence:
#
# PCOD8188504 Si02
#       8
#     8   8   8   8   8   8   8   8
#     4   9  16  27  44  64  87 117 151 182 214 260
#     4   8  14  25  42  66  93 114 134 169 217 262
#     4   9  18  32  49  70  94 115 139 178 223 264
#     4   9  15  24  42  64  84 112 148 178 209 256
#     4   9  17  29  44  62  86 117 151 186 221 255
#     4   9  17  28  41  62  92 118 143 181 223 259
#     4   9  18  31  44  61  87 118 151 185 218 254
#     4  10  19  30  46  66  89 119 151 182 221 270
#
# _framework density 16.492021000000001
#
# number of rings (size 3 to 8) (size 9 to 14) (size 15 to 20)
#    0.000    3.000    0.000    2.250    0.000    5.250 
#    0.000    0.625    0.000    7.500    0.000    1.750 
#    0.000    0.000    0.000    0.000    0.000    0.000 
#
# Total GULP energy -396705.595376 kJ/mol
# GULP energy per Si atom -12397.049856 kJ/mol
# Density = 1.645448 g / cm^3
# Si number density = 16.492021 Si / 1000 Ang^3
#
#
#
# Elastic Constant Matrix: (Units=GPa)
#
#
# Indices 1 2 3 4 5 6 
#
# 1 46.7104 33.8953 55.2854 0.0001 -0.0001 0.0000
# 2 33.8953 75.6067 67.9002 -0.0002 0.0000 0.0000
# 3 55.2854 67.9002 150.1123 -0.0011 0.0003 0.0001
# 4 0.0001 -0.0002 -0.0011 27.5322 0.0001 0.0000
# 5 -0.0001 0.0000 0.0003 0.0001 26.3035 -0.0001
# 6 0.0000 0.0000 0.0001 0.0000 -0.0001 19.6281
#
#
#
# Elastic Compliance Matrix: (Units=1/GPa)
#
#
# Indices 1 2 3 4 5 6 
#
# 1 0.040668 -0.008051 -0.011336 -0.000001 0.000000 0.000000
# 2 -0.008051 0.023869 -0.007831 0.000000 0.000000 0.000000
# 3 -0.011336 -0.007831 0.014379 0.000001 0.000000 0.000000
# 4 -0.000001 0.000000 0.000001 0.036321 0.000000 0.000000
# 5 0.000000 0.000000 0.000000 0.000000 0.038018 0.000000
# 6 0.000000 0.000000 0.000000 0.000000 0.000000 0.050947
#
#
# Mechanical properties :
#
#
# Convention : Reuss Voigt Hill
#
# Bulk Modulus (GPa) = 40.85214 65.17678 53.01446
# Shear Modulus (GPa) = 18.74074 22.38267 20.56171
#
# Velocity S-wave (km/s) = 3.37464 3.68799 3.53479
# Velocity P-wave (km/s) = 6.32526 7.59875 6.99106
#
# Compressibility (1/GPa) = 0.02447852
#
# Stress axis : x y z
#
# Youngs Moduli (GPa) = 24.58952 41.89536 69.54640
#
# Poissons Ratio (x) = 0.33732 0.78836
# Poissons Ratio (y) = 0.19798 0.54464
# Poissons Ratio (z) = 0.27874 0.32810
#
# Static dielectric constant tensor:
#      x y z
#    x 2.895250 0.000000 0.000000 
#    y 0.000000 3.091120 0.000000 
#    z 0.000000 0.000000 3.256420 
# 
# 
# High freq. dielectric constant tensor:
#      x y z
#    x 1.606590 0.000000 0.000000 
#    y 0.000000 1.619190 0.000000 
#    z 0.000000 0.000000 1.635080 
# 
# From -- ./inp_files/14937.got.cif
#   From: 2010.03.12/outbox.cif.g09.slc.cpg/sg44_8_cif.got.tgz:14937.got - 2010.04.14 02:36:11.
