data_PCOD8188268
_publ_section_title
;
Structure prediction by ZEFSAII (Michael W. Deem and Ramdas Pophale) SiO2 
 PCOD8188268
Probable space group: I M M 2
;
_chemical_formula_sum "Si O2"
_cell_formula_units_Z 64
_cell_length_a 17.848363
_cell_length_b 17.391475
_cell_length_c 11.757058
_cell_angle_alpha 90.000000
_cell_angle_beta 90.000000
_cell_angle_gamma 90.000000
_cell_volume 3649.500836
_symmetry_space_group_name_H-M "I M M 2"
_symmetry_group_IT_number 44
_symmetry_cell_setting 'orthorhombic'
loop_
_space_group_symop_operation_xyz
x,y,z
-x,-y,z
-x,y,z
x,-y,z
1/2+x,1/2+y,1/2+z
1/2-x,1/2-y,1/2+z
1/2-x,1/2+y,1/2+z
1/2+x,1/2-y,1/2+z
loop_
_atom_site_type_symbol
_atom_site_label
_atom_site_fract_x
_atom_site_fract_y
_atom_site_fract_z
Si Si1 0.083723 0.783897 0.790240
Si Si2 0.195999 0.592604 0.099094
Si Si3 0.780333 0.414284 0.762587
Si Si4 0.414315 0.867433 0.420126
Si Si5 0.208130 0.812187 0.421223
Si Si6 0.174527 0.585451 0.515163
Si Si7 0.263064 0.651344 0.329415
Si Si8 0.084440 0.729821 0.538398
O O1 0.089481 0.723984 0.894783
O O2 0.147723 0.849912 0.800809
O O3 0.098063 0.736843 0.673506
O O4 0.000000 0.821455 0.788448
O O5 0.208830 0.500000 0.106172
O O6 0.211212 0.633515 0.219848
O O7 0.112759 0.612285 0.049414
O O8 0.250807 0.633795 0.011516
O O9 0.750309 0.500000 0.771950
O O10 0.859003 0.408706 0.830829
O O11 0.712198 0.360756 0.805511
O O12 0.790237 0.389118 0.633654
O O13 0.500000 0.896915 0.404751
O O14 0.248035 0.732195 0.391380
O O15 0.126069 0.797372 0.469738
O O16 0.139609 0.500000 0.520293
O O17 0.240460 0.586827 0.421072
O O18 0.109034 0.646547 0.490455
O O19 0.000000 0.741647 0.503867
#
# Coordination Sequence:
#
# PCOD8188268 Si02
#       8
#     8   8   8   8   8   8   8   8
#     4  10  18  31  54  83 109 136 178 230 279 319
#     4  11  22  35  53  81 113 149 187 231 284 337
#     4  10  19  32  52  81 109 138 181 228 274 323
#     4  10  19  33  54  81 112 143 176 225 284 334
#     4  10  19  32  56  77 103 141 184 228 274 323
#     4  10  21  34  53  81 109 143 182 218 268 337
#     4  11  20  35  57  76 110 150 190 227 273 326
#     4  10  19  33  53  79 109 140 175 222 276 328
#
# _framework density 17.536643000000002
#
# number of rings (size 3 to 8) (size 9 to 14) (size 15 to 20)
#    0.000    1.750    5.000    1.875    1.750    1.250 
#    0.000    3.750    0.000    7.500    0.000    1.750 
#    0.000    0.000    0.000    0.000    0.000    0.000 
#
# Total GULP energy -396426.271774 kJ/mol
# GULP energy per Si atom -12388.320993 kJ/mol
# Density = 1.749673 g / cm^3
# Si number density = 17.536643 Si / 1000 Ang^3
#
#
#
# Elastic Constant Matrix: (Units=GPa)
#
#
# Indices 1 2 3 4 5 6 
#
# 1 106.7026 41.6593 49.0606 0.0000 0.0000 0.0000
# 2 41.6593 59.7087 24.0331 0.0000 0.0000 0.0000
# 3 49.0606 24.0331 88.1130 0.0000 0.0000 0.0000
# 4 0.0000 0.0000 0.0000 23.3918 0.0000 0.0000
# 5 0.0000 0.0000 0.0000 0.0000 21.1752 0.0000
# 6 0.0000 0.0000 0.0000 0.0000 0.0000 17.3218
#
#
#
# Elastic Compliance Matrix: (Units=1/GPa)
#
#
# Indices 1 2 3 4 5 6 
#
# 1 0.015542 -0.008268 -0.006398 0.000000 0.000000 0.000000
# 2 -0.008268 0.023212 -0.001727 0.000000 0.000000 0.000000
# 3 -0.006398 -0.001727 0.015383 0.000000 0.000000 0.000000
# 4 0.000000 0.000000 0.000000 0.042750 0.000000 0.000000
# 5 0.000000 0.000000 0.000000 0.000000 0.047225 0.000000
# 6 0.000000 0.000000 0.000000 0.000000 0.000000 0.057731
#
#
# Mechanical properties :
#
#
# Convention : Reuss Voigt Hill
#
# Bulk Modulus (GPa) = 46.84161 53.78114 50.31138
# Shear Modulus (GPa) = 20.68276 21.69585 21.18930
#
# Velocity S-wave (km/s) = 3.43797 3.52116 3.47981
# Velocity P-wave (km/s) = 6.52136 6.87502 6.70053
#
# Compressibility (1/GPa) = 0.02134854
#
# Stress axis : x y z
#
# Youngs Moduli (GPa) = 64.34207 43.08079 65.00759
#
# Poissons Ratio (x) = 0.35621 0.41595
# Poissons Ratio (y) = 0.53200 0.11230
# Poissons Ratio (z) = 0.41169 0.07442
#
# Static dielectric constant tensor:
#      x y z
#    x 3.367160 0.000000 0.000000 
#    y 0.000000 3.276910 0.000000 
#    z 0.000000 0.000000 3.546030 
# 
# 
# High freq. dielectric constant tensor:
#      x y z
#    x 1.656420 0.000000 0.000000 
#    y 0.000000 1.669170 0.000000 
#    z 0.000000 0.000000 1.681140 
# 
# From -- ./inp_files/14073.got.cif
#   From: 2010.03.12/outbox.cif.g09.slc.cpg/sg44_8_cif.got.tgz:14073.got - 2010.04.14 02:36:11.
