data_PCOD8188132
_publ_section_title
;
Structure prediction by ZEFSAII (Michael W. Deem and Ramdas Pophale) SiO2 
 PCOD8188132
Probable space group: I M M 2
;
_chemical_formula_sum "Si O2"
_cell_formula_units_Z 64
_cell_length_a 9.241991
_cell_length_b 30.124423
_cell_length_c 14.393078
_cell_angle_alpha 90.000000
_cell_angle_beta 90.000000
_cell_angle_gamma 90.000000
_cell_volume 4007.171754
_symmetry_space_group_name_H-M "I M M 2"
_symmetry_group_IT_number 44
_symmetry_cell_setting 'orthorhombic'
loop_
_space_group_symop_operation_xyz
x,y,z
-x,-y,z
-x,y,z
x,-y,z
1/2+x,1/2+y,1/2+z
1/2-x,1/2-y,1/2+z
1/2-x,1/2+y,1/2+z
1/2+x,1/2-y,1/2+z
loop_
_atom_site_type_symbol
_atom_site_label
_atom_site_fract_x
_atom_site_fract_y
_atom_site_fract_z
Si Si1 0.331420 0.550048 0.186680
Si Si2 0.161291 0.865752 0.588199
Si Si3 0.831532 0.551066 0.377011
Si Si4 0.329854 0.790871 0.486803
Si Si5 0.329071 0.224368 0.276301
Si Si6 0.330411 0.296477 0.597902
Si Si7 0.662053 0.678614 0.284415
Si Si8 0.170028 0.126773 0.957714
O O1 0.500000 0.556342 0.213074
O O2 0.298013 0.500000 0.153401
O O3 0.291569 0.582445 0.099182
O O4 0.239671 0.562100 0.277657
O O5 0.268665 0.836621 0.527570
O O6 0.163477 0.850443 0.693793
O O7 0.000000 0.861101 0.545786
O O8 0.805399 0.500000 0.404148
O O9 0.756912 0.580251 0.458909
O O10 0.000000 0.562575 0.370426
O O11 0.500000 0.792226 0.498362
O O12 0.285199 0.791660 0.378910
O O13 0.271248 0.746488 0.539383
O O14 0.500000 0.220737 0.258583
O O15 0.248749 0.196866 0.196307
O O16 0.264796 0.274064 0.265121
O O17 0.500000 0.290633 0.614416
O O18 0.296026 0.342483 0.545790
O O19 0.500000 0.689798 0.319576
O O20 0.736208 0.652498 0.368418
O O21 0.000000 0.116396 0.948884
#
# Coordination Sequence:
#
# PCOD8188132 Si02
#       8
#     8   8   8   8   8   8   8   8
#     4   9  17  30  48  68  92 126 163 193 230 283
#     4  10  18  29  47  69  93 124 160 196 231 274
#     4  10  20  31  44  68 100 126 152 193 238 278
#     4  10  20  32  47  68  95 127 159 192 233 280
#     4  10  19  33  48  63  93 131 160 190 232 280
#     4  10  20  32  48  70  94 121 159 202 234 266
#     4   9  15  26  45  67  91 122 157 190 226 269
#     4  10  18  32  50  67  92 128 163 194 232 278
#
# _framework density 15.971365
#
# number of rings (size 3 to 8) (size 9 to 14) (size 15 to 20)
#    0.000    2.250    3.750    0.375    0.000    2.250 
#    0.000    0.625    0.000    0.000    0.000    0.875 
#    0.000    3.000    0.000    0.000    0.000    0.000 
#
# Total GULP energy -396614.216468 kJ/mol
# GULP energy per Si atom -12394.194265 kJ/mol
# Density = 1.593501 g / cm^3
# Si number density = 15.971365 Si / 1000 Ang^3
#
#
#
# Elastic Constant Matrix: (Units=GPa)
#
#
# Indices 1 2 3 4 5 6 
#
# 1 45.5216 36.1303 34.9289 -0.0002 0.0000 0.0000
# 2 36.1303 98.0409 39.1766 -0.0011 0.0001 0.0001
# 3 34.9289 39.1766 84.1232 -0.0018 0.0001 0.0002
# 4 -0.0002 -0.0011 -0.0018 22.0163 0.0000 0.0001
# 5 0.0000 0.0001 0.0001 0.0000 23.5033 -0.0002
# 6 0.0000 0.0001 0.0002 0.0001 -0.0002 24.8014
#
#
#
# Elastic Compliance Matrix: (Units=1/GPa)
#
#
# Indices 1 2 3 4 5 6 
#
# 1 0.038352 -0.009547 -0.011478 -0.000001 0.000000 0.000000
# 2 -0.009547 0.014908 -0.002979 0.000000 0.000000 0.000000
# 3 -0.011478 -0.002979 0.018041 0.000001 0.000000 0.000000
# 4 -0.000001 0.000000 0.000001 0.045421 0.000000 0.000000
# 5 0.000000 0.000000 0.000000 0.000000 0.042547 0.000000
# 6 0.000000 0.000000 0.000000 0.000000 0.000000 0.040320
#
#
# Mechanical properties :
#
#
# Convention : Reuss Voigt Hill
#
# Bulk Modulus (GPa) = 42.93141 49.79524 46.36332
# Shear Modulus (GPa) = 19.58001 21.89418 20.73709
#
# Velocity S-wave (km/s) = 3.50515 3.70650 3.60723
# Velocity P-wave (km/s) = 6.58179 7.04010 6.81480
#
# Compressibility (1/GPa) = 0.02329297
#
# Stress axis : x y z
#
# Youngs Moduli (GPa) = 26.07404 67.07588 55.43083
#
# Poissons Ratio (x) = 0.64038 0.63625
# Poissons Ratio (y) = 0.24893 0.16512
# Poissons Ratio (z) = 0.29928 0.19981
#
# Static dielectric constant tensor:
#      x y z
#    x 2.910820 0.000000 0.000000 
#    y 0.000000 3.230210 0.000000 
#    z 0.000000 0.000000 2.818680 
# 
# 
# High freq. dielectric constant tensor:
#      x y z
#    x 1.599010 0.000000 0.000000 
#    y 0.000000 1.614770 0.000000 
#    z 0.000000 0.000000 1.585080 
# 
# From -- ./inp_files/17122.got.cif
#   From: 2010.03.12/outbox.cif.g09.slc.cpg/sg44_9_cif.got.tgz:17122.got - 2010.04.14 02:36:11.
