data_PCOD8188600
_publ_section_title
;
Structure prediction by ZEFSAII (Michael W. Deem and Ramdas Pophale) SiO2 
 PCOD8188600
Probable space group: I M M 2
;
_chemical_formula_sum "Si O2"
_cell_formula_units_Z 64
_cell_length_a 14.500553
_cell_length_b 9.235912
_cell_length_c 27.787378
_cell_angle_alpha 90.000000
_cell_angle_beta 90.000000
_cell_angle_gamma 90.000000
_cell_volume 3721.447703
_symmetry_space_group_name_H-M "I M M 2"
_symmetry_group_IT_number 44
_symmetry_cell_setting 'orthorhombic'
loop_
_space_group_symop_operation_xyz
x,y,z
-x,-y,z
-x,y,z
x,-y,z
1/2+x,1/2+y,1/2+z
1/2-x,1/2-y,1/2+z
1/2-x,1/2+y,1/2+z
1/2+x,1/2-y,1/2+z
loop_
_atom_site_type_symbol
_atom_site_label
_atom_site_fract_x
_atom_site_fract_y
_atom_site_fract_z
Si Si1 0.219099 0.171144 0.873600
Si Si2 0.850324 0.660658 0.962454
Si Si3 0.394029 0.830383 0.184575
Si Si4 0.395063 0.667967 0.279695
Si Si5 0.707080 0.170267 0.090062
Si Si6 0.601431 0.669108 0.900098
Si Si7 0.900308 0.165962 0.050359
Si Si8 0.351865 0.341953 0.003052
O O1 0.155667 0.246438 0.913760
O O2 0.172462 0.208858 0.823026
O O3 0.322957 0.234696 0.872629
O O4 0.223023 0.000000 0.883550
O O5 0.890980 0.500000 0.951500
O O6 0.751981 0.644522 0.986171
O O7 0.912098 0.743975 0.001258
O O8 0.500000 0.790804 0.172876
O O9 0.360134 0.753665 0.233043
O O10 0.329671 0.772476 0.141213
O O11 0.381151 0.000000 0.192236
O O12 0.500000 0.711925 0.293244
O O13 0.389123 0.500000 0.267200
O O14 0.814727 0.218167 0.083806
O O15 0.694497 0.000000 0.086972
O O16 0.641692 0.234393 0.048158
O O17 0.500000 0.694276 0.876801
O O18 0.630905 0.500000 0.896950
O O19 0.592857 0.715488 0.956419
O O20 0.000000 0.181650 0.077470
O O21 0.881558 0.000000 0.035795
O O22 0.388973 0.500000 0.019193
#
# Coordination Sequence:
#
# PCOD8188600 Si02
#       8
#     8   8   8   8   8   8   8   8
#     4  10  19  31  49  72  96 123 157 197 239 283
#     4   9  17  29  44  64  92 124 157 192 228 268
#     4   9  18  32  49  69  91 114 145 189 238 283
#     4   9  19  35  52  70  92 118 150 190 238 290
#     4   9  17  29  45  66  92 120 150 188 232 274
#     4   9  18  32  48  68  98 133 165 196 229 269
#     4   9  17  29  45  65  92 127 161 190 224 270
#     4   8  15  27  42  62  89 121 155 188 220 258
#
# _framework density 17.197607999999999
#
# number of rings (size 3 to 8) (size 9 to 14) (size 15 to 20)
#    0.000    3.000    0.000    1.500    0.000    6.000 
#    0.000    1.250    0.000    0.750    0.000    1.750 
#    0.000    0.000    0.000    0.000    0.000    0.000 
#
# Total GULP energy -396565.195291 kJ/mol
# GULP energy per Si atom -12392.662353 kJ/mol
# Density = 1.715847 g / cm^3
# Si number density = 17.197608 Si / 1000 Ang^3
#
#
#
# Elastic Constant Matrix: (Units=GPa)
#
#
# Indices 1 2 3 4 5 6 
#
# 1 89.4644 35.1294 57.7821 0.0000 0.0000 0.0000
# 2 35.1294 66.6975 55.1369 0.0000 0.0000 0.0000
# 3 57.7821 55.1369 125.5709 0.0000 0.0000 0.0000
# 4 0.0000 0.0000 0.0000 29.2009 0.0000 0.0000
# 5 0.0000 0.0000 0.0000 0.0000 21.8509 0.0000
# 6 0.0000 0.0000 0.0000 0.0000 0.0000 15.5832
#
#
#
# Elastic Compliance Matrix: (Units=1/GPa)
#
#
# Indices 1 2 3 4 5 6 
#
# 1 0.016492 -0.003788 -0.005926 0.000000 0.000000 0.000000
# 2 -0.003788 0.024406 -0.008974 0.000000 0.000000 0.000000
# 3 -0.005926 -0.008974 0.014631 0.000000 0.000000 0.000000
# 4 0.000000 0.000000 0.000000 0.034246 0.000000 0.000000
# 5 0.000000 0.000000 0.000000 0.000000 0.045765 0.000000
# 6 0.000000 0.000000 0.000000 0.000000 0.000000 0.064172
#
#
# Mechanical properties :
#
#
# Convention : Reuss Voigt Hill
#
# Bulk Modulus (GPa) = 55.08171 64.20330 59.64250
# Shear Modulus (GPa) = 20.56454 22.23930 21.40192
#
# Velocity S-wave (km/s) = 3.46176 3.59996 3.53153
# Velocity P-wave (km/s) = 6.93373 7.39549 7.16833
#
# Compressibility (1/GPa) = 0.01815485
#
# Stress axis : x y z
#
# Youngs Moduli (GPa) = 60.63460 40.97312 68.34958
#
# Poissons Ratio (x) = 0.15519 0.40503
# Poissons Ratio (y) = 0.22966 0.61334
# Poissons Ratio (z) = 0.35931 0.36768
#
# Static dielectric constant tensor:
#      x y z
#    x 3.397040 0.000000 0.000000 
#    y 0.000000 3.356260 0.000000 
#    z 0.000000 0.000000 3.124910 
# 
# 
# High freq. dielectric constant tensor:
#      x y z
#    x 1.660130 0.000000 0.000000 
#    y 0.000000 1.664000 0.000000 
#    z 0.000000 0.000000 1.636740 
# 
# From -- ./inp_files/27535.got.cif
#   From: 2010.03.12/outbox.cif.g09.slc.cpg/sg44_14_cif.got.tgz:27535.got - 2010.04.14 02:36:11.
