data_PCOD8188311
_publ_section_title
;
Structure prediction by ZEFSAII (Michael W. Deem and Ramdas Pophale) SiO2 
 PCOD8188311
Probable space group: I M M 2
;
_chemical_formula_sum "Si O2"
_cell_formula_units_Z 64
_cell_length_a 19.688347
_cell_length_b 9.240601
_cell_length_c 20.611096
_cell_angle_alpha 90.000000
_cell_angle_beta 90.000000
_cell_angle_gamma 90.000000
_cell_volume 3749.821194
_symmetry_space_group_name_H-M "I M M 2"
_symmetry_group_IT_number 44
_symmetry_cell_setting 'orthorhombic'
loop_
_space_group_symop_operation_xyz
x,y,z
-x,-y,z
-x,y,z
x,-y,z
1/2+x,1/2+y,1/2+z
1/2-x,1/2-y,1/2+z
1/2-x,1/2+y,1/2+z
1/2+x,1/2-y,1/2+z
loop_
_atom_site_type_symbol
_atom_site_label
_atom_site_fract_x
_atom_site_fract_y
_atom_site_fract_z
Si Si1 0.923173 0.332307 0.607150
Si Si2 0.703173 0.332929 0.152936
Si Si3 0.922542 0.668037 0.856633
Si Si4 0.785277 0.328094 0.415952
Si Si5 0.713127 0.332102 0.547600
Si Si6 0.073240 0.671279 0.457841
Si Si7 0.924271 0.834465 0.987813
Si Si8 0.694818 0.667193 0.298825
O O1 0.904287 0.500000 0.617139
O O2 0.871622 0.235056 0.647666
O O3 0.914882 0.287174 0.532449
O O4 0.000000 0.302443 0.631074
O O5 0.699284 0.500000 0.133007
O O6 0.758627 0.255936 0.108213
O O7 0.726647 0.313550 0.227483
O O8 0.904758 0.500000 0.859709
O O9 0.875176 0.744274 0.803610
O O10 0.000000 0.694871 0.835198
O O11 0.908144 0.733573 0.927156
O O12 0.786502 0.500000 0.414730
O O13 0.746680 0.275802 0.480730
O O14 0.863012 0.267364 0.416684
O O15 0.748092 0.269388 0.351624
O O16 0.730687 0.500000 0.558924
O O17 0.631772 0.305150 0.543440
O O18 0.070139 0.500000 0.451896
O O19 0.000000 0.735003 0.433880
O O20 0.000000 0.803681 0.015821
O O21 0.917745 0.000000 0.963527
O O22 0.678418 0.500000 0.313426
#
# Coordination Sequence:
#
# PCOD8188311 Si02
#       8
#     8   8   8   8   8   8   8   8
#     4   9  17  31  51  73  98 129 167 206 243 293
#     4  11  23  34  47  71 105 138 168 207 256 304
#     4  10  20  32  48  74 105 133 164 206 253 300
#     4   9  15  28  51  73  92 121 164 207 242 284
#     4  10  18  32  55  76  96 129 171 211 250 295
#     4   8  13  23  45  75  96 112 146 199 247 282
#     4   9  17  31  53  78 101 129 168 210 253 304
#     4  10  21  36  50  68  98 137 173 206 246 296
#
# _framework density 17.06748
#
# number of rings (size 3 to 8) (size 9 to 14) (size 15 to 20)
#    0.000    2.500    2.500    1.500    0.000    3.000 
#    0.000    2.500    0.000    0.750    0.000    1.750 
#    0.000    0.000    0.000    0.000    0.000    0.000 
#
# Total GULP energy -396665.082718 kJ/mol
# GULP energy per Si atom -12395.783835 kJ/mol
# Density = 1.702863 g / cm^3
# Si number density = 17.067480 Si / 1000 Ang^3
#
#
#
# Elastic Constant Matrix: (Units=GPa)
#
#
# Indices 1 2 3 4 5 6 
#
# 1 126.0652 39.0314 60.0767 0.0000 0.0000 0.0000
# 2 39.0314 60.3510 40.7780 0.0000 0.0000 0.0000
# 3 60.0767 40.7780 92.8157 0.0000 0.0000 0.0000
# 4 0.0000 0.0000 0.0000 21.4671 0.0000 0.0000
# 5 0.0000 0.0000 0.0000 0.0000 19.5356 0.0000
# 6 0.0000 0.0000 0.0000 0.0000 0.0000 19.4586
#
#
#
# Elastic Compliance Matrix: (Units=1/GPa)
#
#
# Indices 1 2 3 4 5 6 
#
# 1 0.011988 -0.003570 -0.006191 0.000000 0.000000 0.000000
# 2 -0.003570 0.024628 -0.008510 0.000000 0.000000 0.000000
# 3 -0.006191 -0.008510 0.018520 0.000000 0.000000 0.000000
# 4 0.000000 0.000000 0.000000 0.046583 0.000000 0.000000
# 5 0.000000 0.000000 0.000000 0.000000 0.051189 0.000000
# 6 0.000000 0.000000 0.000000 0.000000 0.000000 0.051391
#
#
# Mechanical properties :
#
#
# Convention : Reuss Voigt Hill
#
# Bulk Modulus (GPa) = 53.77747 62.11154 57.94451
# Shear Modulus (GPa) = 20.23974 21.38197 20.81086
#
# Velocity S-wave (km/s) = 3.44738 3.54332 3.49568
# Velocity P-wave (km/s) = 6.88644 7.29458 7.09344
#
# Compressibility (1/GPa) = 0.01859515
#
# Stress axis : x y z
#
# Youngs Moduli (GPa) = 83.41619 40.60362 53.99589
#
# Poissons Ratio (x) = 0.14495 0.33429
# Poissons Ratio (y) = 0.29780 0.45948
# Poissons Ratio (z) = 0.51643 0.34552
#
# Static dielectric constant tensor:
#      x y z
#    x 3.624700 0.000000 0.000000 
#    y 0.000000 2.977400 0.000000 
#    z 0.000000 0.000000 2.984520 
# 
# 
# High freq. dielectric constant tensor:
#      x y z
#    x 1.669460 0.000000 0.000000 
#    y 0.000000 1.632940 0.000000 
#    z 0.000000 0.000000 1.629510 
# 
# From -- ./inp_files/20744.got.cif
#   From: 2010.03.12/outbox.cif.g09.slc.cpg/sg44_11_cif.got.tgz:20744.got - 2010.04.14 02:36:11.
