data_PCOD8188291
_publ_section_title
;
Structure prediction by ZEFSAII (Michael W. Deem and Ramdas Pophale) SiO2 
 PCOD8188291
Probable space group: I M M 2
;
_chemical_formula_sum "Si O2"
_cell_formula_units_Z 56
_cell_length_a 9.048237
_cell_length_b 20.168196
_cell_length_c 15.245517
_cell_angle_alpha 90.000000
_cell_angle_beta 90.000000
_cell_angle_gamma 90.000000
_cell_volume 2782.102826
_symmetry_space_group_name_H-M "I M M 2"
_symmetry_group_IT_number 44
_symmetry_cell_setting 'orthorhombic'
loop_
_space_group_symop_operation_xyz
x,y,z
-x,-y,z
-x,y,z
x,-y,z
1/2+x,1/2+y,1/2+z
1/2-x,1/2-y,1/2+z
1/2-x,1/2+y,1/2+z
1/2+x,1/2-y,1/2+z
loop_
_atom_site_type_symbol
_atom_site_label
_atom_site_fract_x
_atom_site_fract_y
_atom_site_fract_z
Si Si1 0.825168 0.424600 0.992660
Si Si2 0.675724 0.720776 0.677014
Si Si3 0.835278 0.138975 0.342727
Si Si4 0.675365 0.372281 0.520677
Si Si5 0.671457 0.000000 0.095039
Si Si6 0.326390 0.076597 0.860615
Si Si7 0.824754 0.369904 0.175957
Si Si8 0.342494 0.500000 0.756494
O O1 0.774975 0.500000 0.968893
O O2 0.763541 0.365339 0.930433
O O3 0.000000 0.419223 0.988020
O O4 0.766704 0.408575 0.090625
O O5 0.500000 0.716806 0.682256
O O6 0.737084 0.682422 0.763778
O O7 0.726037 0.687547 0.584712
O O8 0.738821 0.795072 0.678200
O O9 0.000000 0.165759 0.365230
O O10 0.841766 0.063217 0.316550
O O11 0.500000 0.377064 0.514490
O O12 0.745511 0.437011 0.560407
O O13 0.743066 0.369586 0.422484
O O14 0.500000 0.000000 0.068258
O O15 0.693934 0.000000 0.199187
O O16 0.500000 0.089722 0.869798
O O17 0.271798 0.090220 0.761742
O O18 0.288789 0.000000 0.885751
O O19 0.000000 0.365838 0.173674
O O20 0.500000 0.500000 0.702143
#
# Coordination Sequence:
#
# PCOD8188291 Si02
#       8
#     8   8   8   8   4   8   8   4
#     4  10  20  34  55  83 109 139 182 229 274 318
#     4   9  19  35  55  79 108 148 187 216 268 341
#     4  10  19  33  54  79 107 141 178 217 270 329
#     4  11  21  35  56  82 113 147 182 224 277 338
#     4  12  22  32  52  83 114 143 180 229 280 326
#     4  10  20  35  57  84 109 140 186 237 281 323
#     4   9  19  37  57  76 107 148 188 229 274 326
#     4  10  18  32  52  77 110 145 176 217 270 326
#
# _framework density 20.128658000000001
#
# number of rings (size 3 to 8) (size 9 to 14) (size 15 to 20)
#    0.000    2.000    2.857    1.500    0.000    3.429 
#    0.000    0.714    0.000    5.143    0.000    0.000 
#    0.000    0.000    0.000    0.000    0.000    0.000 
#
# Total GULP energy -346949.029433 kJ/mol
# GULP energy per Si atom -12391.036765 kJ/mol
# Density = 2.008284 g / cm^3
# Si number density = 20.128658 Si / 1000 Ang^3
#
#
#
# Elastic Constant Matrix: (Units=GPa)
#
#
# Indices 1 2 3 4 5 6 
#
# 1 42.3967 18.1982 37.6275 0.0000 0.0000 0.0000
# 2 18.1982 75.7109 27.2585 0.0000 0.0000 0.0000
# 3 37.6275 27.2585 141.9127 0.0000 0.0000 0.0000
# 4 0.0000 0.0000 0.0000 24.7660 0.0000 0.0000
# 5 0.0000 0.0000 0.0000 0.0000 32.2575 0.0000
# 6 0.0000 0.0000 0.0000 0.0000 0.0000 15.5011
#
#
#
# Elastic Compliance Matrix: (Units=1/GPa)
#
#
# Indices 1 2 3 4 5 6 
#
# 1 0.032560 -0.005069 -0.007660 0.000000 0.000000 0.000000
# 2 -0.005069 0.014978 -0.001533 0.000000 0.000000 0.000000
# 3 -0.007660 -0.001533 0.009372 0.000000 0.000000 0.000000
# 4 0.000000 0.000000 0.000000 0.040378 0.000000 0.000000
# 5 0.000000 0.000000 0.000000 0.000000 0.031001 0.000000
# 6 0.000000 0.000000 0.000000 0.000000 0.000000 0.064512
#
#
# Mechanical properties :
#
#
# Convention : Reuss Voigt Hill
#
# Bulk Modulus (GPa) = 35.22615 47.35430 41.29022
# Shear Modulus (GPa) = 21.66505 26.30066 23.98286
#
# Velocity S-wave (km/s) = 3.28430 3.61865 3.45552
# Velocity P-wave (km/s) = 5.64984 6.40597 6.03975
#
# Compressibility (1/GPa) = 0.02838800
#
# Stress axis : x y z
#
# Youngs Moduli (GPa) = 30.71212 66.76266 106.70094
#
# Poissons Ratio (x) = 0.33840 0.81729
# Poissons Ratio (y) = 0.15567 0.16358
# Poissons Ratio (z) = 0.23524 0.10235
#
# Static dielectric constant tensor:
#      x y z
#    x 3.676890 0.000000 0.000000 
#    y 0.000000 3.630220 0.000000 
#    z 0.000000 0.000000 4.100190 
# 
# 
# High freq. dielectric constant tensor:
#      x y z
#    x 1.742680 0.000000 0.000000 
#    y 0.000000 1.779040 0.000000 
#    z 0.000000 0.000000 1.801720 
# 
# From -- ./inp_files/16586.got.cif
#   From: 2010.03.12/outbox.cif.g09.slc.cpg/sg44_9_cif.got.tgz:16586.got - 2010.04.14 02:36:11.
