data_PCOD8188446
_publ_section_title
;
Structure prediction by ZEFSAII (Michael W. Deem and Ramdas Pophale) SiO2 
 PCOD8188446
Probable space group: I M M 2
;
_chemical_formula_sum "Si O2"
_cell_formula_units_Z 64
_cell_length_a 34.379836
_cell_length_b 9.091796
_cell_length_c 13.643907
_cell_angle_alpha 90.000000
_cell_angle_beta 90.000000
_cell_angle_gamma 90.000000
_cell_volume 4264.736800
_symmetry_space_group_name_H-M "I M M 2"
_symmetry_group_IT_number 44
_symmetry_cell_setting 'orthorhombic'
loop_
_space_group_symop_operation_xyz
x,y,z
-x,-y,z
-x,y,z
x,-y,z
1/2+x,1/2+y,1/2+z
1/2-x,1/2-y,1/2+z
1/2-x,1/2+y,1/2+z
1/2+x,1/2-y,1/2+z
loop_
_atom_site_type_symbol
_atom_site_label
_atom_site_fract_x
_atom_site_fract_y
_atom_site_fract_z
Si Si1 0.692049 0.329003 0.487930
Si Si2 0.124735 0.333911 0.092977
Si Si3 0.690336 0.673509 0.923806
Si Si4 0.042797 0.829101 0.312867
Si Si5 0.881295 0.670714 0.324206
Si Si6 0.229199 0.671939 0.594947
Si Si7 0.269088 0.172310 0.318506
Si Si8 0.958561 0.333914 0.114877
O O1 0.688850 0.500000 0.467459
O O2 0.652303 0.277346 0.536991
O O3 0.727129 0.289840 0.561175
O O4 0.698261 0.251396 0.383526
O O5 0.139197 0.500000 0.073508
O O6 0.124234 0.299610 0.208759
O O7 0.080562 0.309252 0.050702
O O8 0.684800 0.500000 0.929804
O O9 0.651758 0.744831 0.882354
O O10 0.726021 0.718812 0.853201
O O11 0.698240 0.735913 0.032365
O O12 0.077146 0.733633 0.362323
O O13 0.040327 0.786246 0.199393
O O14 0.000000 0.798689 0.361099
O O15 0.053730 0.000000 0.321297
O O16 0.878966 0.500000 0.350480
O O17 0.220410 0.500000 0.581357
O O18 0.225199 0.722642 0.706970
O O19 0.275029 0.000000 0.331125
O O20 0.954953 0.500000 0.160524
O O21 0.000000 0.321681 0.055616
#
# Coordination Sequence:
#
# PCOD8188446 Si02
#       8
#     8   8   8   8   8   8   8   8
#     4  10  19  29  43  63  85 108 138 175 210 247
#     4   9  17  27  40  59  83 112 143 173 206 244
#     4  10  19  30  45  65  86 108 138 176 213 248
#     4   9  16  25  38  57  81 109 140 173 208 245
#     4  10  19  29  42  60  84 115 146 175 207 247
#     4   9  18  32  46  60  81 110 141 172 208 248
#     4   9  18  32  47  61  82 112 142 173 210 250
#     4   8  14  25  39  55  78 109 142 172 204 246
#
# _framework density 15.006788
#
# number of rings (size 3 to 8) (size 9 to 14) (size 15 to 20)
#    0.000    2.750    0.000    3.000    0.000    5.750 
#    0.000    0.000    0.000    0.000    0.000    0.000 
#    0.000    1.000    0.000    8.250    0.000    4.375 
#
# Total GULP energy -396599.903382 kJ/mol
# GULP energy per Si atom -12393.746981 kJ/mol
# Density = 1.497263 g / cm^3
# Si number density = 15.006788 Si / 1000 Ang^3
#
#
#
# Elastic Constant Matrix: (Units=GPa)
#
#
# Indices 1 2 3 4 5 6 
#
# 1 114.3903 41.2556 42.5724 0.0000 0.0000 0.0000
# 2 41.2556 56.1675 35.1844 0.0000 0.0000 0.0000
# 3 42.5724 35.1844 75.0074 0.0000 0.0000 0.0000
# 4 0.0000 0.0000 0.0000 20.5757 0.0000 0.0000
# 5 0.0000 0.0000 0.0000 0.0000 16.4067 0.0000
# 6 0.0000 0.0000 0.0000 0.0000 0.0000 26.3512
#
#
#
# Elastic Compliance Matrix: (Units=1/GPa)
#
#
# Indices 1 2 3 4 5 6 
#
# 1 0.012690 -0.006810 -0.004008 0.000000 0.000000 0.000000
# 2 -0.006810 0.028867 -0.009676 0.000000 0.000000 0.000000
# 3 -0.004008 -0.009676 0.020145 0.000000 0.000000 0.000000
# 4 0.000000 0.000000 0.000000 0.048601 0.000000 0.000000
# 5 0.000000 0.000000 0.000000 0.000000 0.060951 0.000000
# 6 0.000000 0.000000 0.000000 0.000000 0.000000 0.037949
#
#
# Mechanical properties :
#
#
# Convention : Reuss Voigt Hill
#
# Bulk Modulus (GPa) = 48.27453 53.73223 51.00338
# Shear Modulus (GPa) = 19.44804 21.10356 20.27580
#
# Velocity S-wave (km/s) = 3.60384 3.75409 3.67973
# Velocity P-wave (km/s) = 7.03954 7.39418 7.21904
#
# Compressibility (1/GPa) = 0.02071486
#
# Stress axis : x y z
#
# Youngs Moduli (GPa) = 78.80388 34.64161 49.63899
#
# Poissons Ratio (x) = 0.23591 0.19895
# Poissons Ratio (y) = 0.53666 0.48029
# Poissons Ratio (z) = 0.31584 0.33518
#
# Static dielectric constant tensor:
#      x y z
#    x 3.158080 0.000000 0.000000 
#    y 0.000000 2.946610 0.000000 
#    z 0.000000 0.000000 2.605730 
# 
# 
# High freq. dielectric constant tensor:
#      x y z
#    x 1.581240 0.000000 0.000000 
#    y 0.000000 1.586740 0.000000 
#    z 0.000000 0.000000 1.522500 
# 
# From -- ./inp_files/19715.got.cif
#   From: 2010.03.12/outbox.cif.g09.slc.cpg/sg44_10_cif.got.tgz:19715.got - 2010.04.14 02:36:11.
