data_PCOD8188331
_publ_section_title
;
Structure prediction by ZEFSAII (Michael W. Deem and Ramdas Pophale) SiO2 
 PCOD8188331
Probable space group: I M M 2
;
_chemical_formula_sum "Si O2"
_cell_formula_units_Z 64
_cell_length_a 9.185717
_cell_length_b 15.348784
_cell_length_c 23.891159
_cell_angle_alpha 90.000000
_cell_angle_beta 90.000000
_cell_angle_gamma 90.000000
_cell_volume 3368.404619
_symmetry_space_group_name_H-M "I M M 2"
_symmetry_group_IT_number 44
_symmetry_cell_setting 'orthorhombic'
loop_
_space_group_symop_operation_xyz
x,y,z
-x,-y,z
-x,y,z
x,-y,z
1/2+x,1/2+y,1/2+z
1/2-x,1/2-y,1/2+z
1/2-x,1/2+y,1/2+z
1/2+x,1/2-y,1/2+z
loop_
_atom_site_type_symbol
_atom_site_label
_atom_site_fract_x
_atom_site_fract_y
_atom_site_fract_z
Si Si1 0.827133 0.095711 0.896220
Si Si2 0.167430 0.099341 0.407892
Si Si3 0.167644 0.403322 0.624819
Si Si4 0.327857 0.250370 0.203549
Si Si5 0.168579 0.148185 0.017181
Si Si6 0.668453 0.147887 0.517646
Si Si7 0.827272 0.263177 0.831111
Si Si8 0.831956 0.401007 0.141065
O O1 0.769584 0.170554 0.854786
O O2 0.000000 0.099536 0.897541
O O3 0.773377 0.000000 0.875938
O O4 0.767962 0.113294 0.958595
O O5 0.234470 0.105781 0.469642
O O6 0.253343 0.158399 0.364059
O O7 0.000000 0.129442 0.410362
O O8 0.180725 0.000000 0.387188
O O9 0.187899 0.500000 0.650936
O O10 0.230522 0.331678 0.667724
O O11 0.249565 0.400735 0.566335
O O12 0.000000 0.382857 0.612888
O O13 0.500000 0.260502 0.199870
O O14 0.278577 0.232770 0.266874
O O15 0.259888 0.339633 0.181523
O O16 0.197674 0.250121 0.020437
O O17 0.000000 0.125214 0.023429
O O18 0.500000 0.126744 0.504727
O O19 0.718422 0.107622 0.576705
O O20 0.000000 0.272797 0.838901
O O21 0.806794 0.500000 0.160903
O O22 0.000000 0.373134 0.145722
#
# Coordination Sequence:
#
# PCOD8188331 Si02
#       8
#     8   8   8   8   8   8   8   8
#     4   9  17  31  53  81 110 136 172 226 277 324
#     4  11  24  39  57  85 118 150 185 232 290 342
#     4  10  21  36  53  78 113 147 180 225 282 337
#     4  10  22  38  58  82 110 147 193 240 282 329
#     4  10  18  32  57  84 108 140 182 224 273 332
#     4  10  19  35  60  86 112 147 191 232 276 338
#     4  10  21  39  60  82 108 148 196 235 278 332
#     4  10  21  37  58  84 115 151 189 232 284 340
#
# _framework density 19.000091999999999
#
# number of rings (size 3 to 8) (size 9 to 14) (size 15 to 20)
#    0.000    2.000    2.500    1.125    0.000    5.000 
#    0.000    2.500    0.000    0.375    0.000    0.000 
#    0.000    0.000    0.000    0.000    0.000    0.000 
#
# Total GULP energy -396846.206344 kJ/mol
# GULP energy per Si atom -12401.443948 kJ/mol
# Density = 1.895685 g / cm^3
# Si number density = 19.000092 Si / 1000 Ang^3
#
#
#
# Elastic Constant Matrix: (Units=GPa)
#
#
# Indices 1 2 3 4 5 6 
#
# 1 43.4227 34.9893 38.3371 0.0000 0.0000 0.0000
# 2 34.9893 113.6869 52.4591 0.0000 0.0000 0.0000
# 3 38.3371 52.4591 121.3644 0.0000 0.0000 0.0000
# 4 0.0000 0.0000 0.0000 11.4784 0.0000 0.0000
# 5 0.0000 0.0000 0.0000 0.0000 26.1333 0.0000
# 6 0.0000 0.0000 0.0000 0.0000 0.0000 28.1985
#
#
#
# Elastic Compliance Matrix: (Units=1/GPa)
#
#
# Indices 1 2 3 4 5 6 
#
# 1 0.036251 -0.007336 -0.008280 0.000000 0.000000 0.000000
# 2 -0.007336 0.012472 -0.003074 0.000000 0.000000 0.000000
# 3 -0.008280 -0.003074 0.012184 0.000000 0.000000 0.000000
# 4 0.000000 0.000000 0.000000 0.087120 0.000000 0.000000
# 5 0.000000 0.000000 0.000000 0.000000 0.038265 0.000000
# 6 0.000000 0.000000 0.000000 0.000000 0.000000 0.035463
#
#
# Mechanical properties :
#
#
# Convention : Reuss Voigt Hill
#
# Bulk Modulus (GPa) = 42.50406 58.89390 50.69898
# Shear Modulus (GPa) = 18.72814 23.34128 21.03471
#
# Velocity S-wave (km/s) = 3.14297 3.50877 3.33090
# Velocity P-wave (km/s) = 5.96574 6.89052 6.44474
#
# Compressibility (1/GPa) = 0.02352717
#
# Stress axis : x y z
#
# Youngs Moduli (GPa) = 27.58525 80.17794 82.07629
#
# Poissons Ratio (x) = 0.58821 0.67960
# Poissons Ratio (y) = 0.20237 0.25227
# Poissons Ratio (z) = 0.22841 0.24644
#
# Static dielectric constant tensor:
#      x y z
#    x 3.258040 0.000000 0.000000 
#    y 0.000000 3.676410 0.000000 
#    z 0.000000 0.000000 3.507650 
# 
# 
# High freq. dielectric constant tensor:
#      x y z
#    x 1.713530 0.000000 0.000000 
#    y 0.000000 1.755990 0.000000 
#    z 0.000000 0.000000 1.735900 
# 
# From -- ./inp_files/25076.got.cif
#   From: 2010.03.12/outbox.cif.g09.slc.cpg/sg44_13_cif.got.tgz:25076.got - 2010.04.14 02:36:11.
