data_PCOD8188625
_publ_section_title
;
Structure prediction by ZEFSAII (Michael W. Deem and Ramdas Pophale) SiO2 
 PCOD8188625
Probable space group: I M M 2
;
_chemical_formula_sum "Si O2"
_cell_formula_units_Z 64
_cell_length_a 14.529273
_cell_length_b 8.896986
_cell_length_c 27.521967
_cell_angle_alpha 90.000000
_cell_angle_beta 90.000000
_cell_angle_gamma 90.000000
_cell_volume 3557.674910
_symmetry_space_group_name_H-M "I M M 2"
_symmetry_group_IT_number 44
_symmetry_cell_setting 'orthorhombic'
loop_
_space_group_symop_operation_xyz
x,y,z
-x,-y,z
-x,y,z
x,-y,z
1/2+x,1/2+y,1/2+z
1/2-x,1/2-y,1/2+z
1/2-x,1/2+y,1/2+z
1/2+x,1/2-y,1/2+z
loop_
_atom_site_type_symbol
_atom_site_label
_atom_site_fract_x
_atom_site_fract_y
_atom_site_fract_z
Si Si1 0.715496 0.677653 0.851610
Si Si2 0.899048 0.824496 0.883266
Si Si3 0.599576 0.671736 0.036143
Si Si4 0.648558 0.165310 0.944285
Si Si5 0.150108 0.165008 0.986510
Si Si6 0.208725 0.676262 0.077972
Si Si7 0.894220 0.324086 0.266573
Si Si8 0.105191 0.174588 0.164836
O O1 0.713643 0.500000 0.853217
O O2 0.821596 0.730762 0.855229
O O3 0.651605 0.739392 0.894915
O O4 0.673841 0.734717 0.801437
O O5 0.908168 0.777261 0.940278
O O6 0.000000 0.794737 0.859718
O O7 0.871547 0.000000 0.880175
O O8 0.500000 0.689450 0.063300
O O9 0.621019 0.500000 0.023037
O O10 0.684725 0.728036 0.069307
O O11 0.586903 0.756380 0.985052
O O12 0.748082 0.150277 0.966742
O O13 0.608325 0.000000 0.932122
O O14 0.115783 0.000000 0.004515
O O15 0.146281 0.281923 0.031051
O O16 0.199039 0.500000 0.088384
O O17 0.173889 0.769800 0.123460
O O18 0.873291 0.500000 0.270446
O O19 0.872188 0.269929 0.212455
O O20 0.000000 0.287704 0.280109
O O21 0.000000 0.202212 0.148181
O O22 0.123297 0.000000 0.175660
#
# Coordination Sequence:
#
# PCOD8188625 Si02
#       8
#     8   8   8   8   8   8   8   8
#     4  11  21  33  52  77 106 138 171 209 254 306
#     4   9  18  33  52  74 104 142 180 216 254 297
#     4   9  18  32  49  72 104 139 173 210 252 296
#     4   9  17  30  47  68  96 131 172 212 248 290
#     4   8  15  28  45  67  96 130 168 208 247 287
#     4  10  19  31  50  75 102 134 170 207 248 298
#     4  10  21  38  59  80 101 126 161 207 257 310
#     4  10  21  37  56  77 101 128 159 201 256 311
#
# _framework density 17.989276
#
# number of rings (size 3 to 8) (size 9 to 14) (size 15 to 20)
#    0.000    2.500    0.000    3.375    0.000    6.500 
#    0.000    1.250    0.000    0.750    0.000    1.750 
#    0.000    0.000    0.000    0.000    0.000    0.000 
#
# Total GULP energy -396633.588148 kJ/mol
# GULP energy per Si atom -12394.799630 kJ/mol
# Density = 1.794833 g / cm^3
# Si number density = 17.989276 Si / 1000 Ang^3
#
#
#
# Elastic Constant Matrix: (Units=GPa)
#
#
# Indices 1 2 3 4 5 6 
#
# 1 91.7523 40.0379 48.3506 0.0000 0.0000 0.0000
# 2 40.0379 99.3850 42.7198 0.0000 0.0000 0.0000
# 3 48.3506 42.7198 85.2447 0.0000 0.0000 0.0000
# 4 0.0000 0.0000 0.0000 33.5896 0.0000 0.0000
# 5 0.0000 0.0000 0.0000 0.0000 22.6377 0.0000
# 6 0.0000 0.0000 0.0000 0.0000 0.0000 20.3452
#
#
#
# Elastic Compliance Matrix: (Units=1/GPa)
#
#
# Indices 1 2 3 4 5 6 
#
# 1 0.016360 -0.003317 -0.007617 0.000000 0.000000 0.000000
# 2 -0.003317 0.013497 -0.004883 0.000000 0.000000 0.000000
# 3 -0.007617 -0.004883 0.018498 0.000000 0.000000 0.000000
# 4 0.000000 0.000000 0.000000 0.029771 0.000000 0.000000
# 5 0.000000 0.000000 0.000000 0.000000 0.044174 0.000000
# 6 0.000000 0.000000 0.000000 0.000000 0.000000 0.049152
#
#
# Mechanical properties :
#
#
# Convention : Reuss Voigt Hill
#
# Bulk Modulus (GPa) = 59.80090 59.84429 59.82260
# Shear Modulus (GPa) = 23.96243 24.99940 24.48092
#
# Velocity S-wave (km/s) = 3.65367 3.73189 3.69299
# Velocity P-wave (km/s) = 7.14939 7.20473 7.17712
#
# Compressibility (1/GPa) = 0.01672216
#
# Stress axis : x y z
#
# Youngs Moduli (GPa) = 61.12352 74.09199 54.05859
#
# Poissons Ratio (x) = 0.24573 0.41179
# Poissons Ratio (y) = 0.20272 0.26395
# Poissons Ratio (z) = 0.46561 0.36176
#
# Static dielectric constant tensor:
#      x y z
#    x 3.533890 0.000000 0.000000 
#    y 0.000000 3.493180 0.000000 
#    z 0.000000 0.000000 3.208330 
# 
# 
# High freq. dielectric constant tensor:
#      x y z
#    x 1.693000 0.000000 0.000000 
#    y 0.000000 1.703030 0.000000 
#    z 0.000000 0.000000 1.671200 
# 
# From -- ./inp_files/25788.got.cif
#   From: 2010.03.12/outbox.cif.g09.slc.cpg/sg44_13_cif.got.tgz:25788.got - 2010.04.14 02:36:11.
