data_PCOD8188239
_publ_section_title
;
Structure prediction by ZEFSAII (Michael W. Deem and Ramdas Pophale) SiO2 
 PCOD8188239
Probable space group: I M M 2
;
_chemical_formula_sum "Si O2"
_cell_formula_units_Z 64
_cell_length_a 9.184413
_cell_length_b 29.353661
_cell_length_c 12.887605
_cell_angle_alpha 90.000000
_cell_angle_beta 90.000000
_cell_angle_gamma 90.000000
_cell_volume 3474.448635
_symmetry_space_group_name_H-M "I M M 2"
_symmetry_group_IT_number 44
_symmetry_cell_setting 'orthorhombic'
loop_
_space_group_symop_operation_xyz
x,y,z
-x,-y,z
-x,y,z
x,-y,z
1/2+x,1/2+y,1/2+z
1/2-x,1/2-y,1/2+z
1/2-x,1/2+y,1/2+z
1/2+x,1/2-y,1/2+z
loop_
_atom_site_type_symbol
_atom_site_label
_atom_site_fract_x
_atom_site_fract_y
_atom_site_fract_z
Si Si1 0.159760 0.288605 0.846530
Si Si2 0.839065 0.206394 0.989200
Si Si3 0.171645 0.947708 0.031432
Si Si4 0.826633 0.617438 0.925410
Si Si5 0.173665 0.860403 0.628031
Si Si6 0.172112 0.878355 0.858019
Si Si7 0.827660 0.757143 0.648195
Si Si8 0.330495 0.947438 0.239164
O O1 0.145140 0.256708 0.944772
O O2 0.238762 0.335467 0.878181
O O3 0.239203 0.258613 0.758629
O O4 0.000000 0.302859 0.804787
O O5 0.777297 0.169460 0.908377
O O6 0.000000 0.190903 0.029969
O O7 0.721249 0.214525 0.077976
O O8 0.245707 0.929302 0.137255
O O9 0.000000 0.941555 0.045548
O O10 0.215473 0.000000 0.011322
O O11 0.229241 0.919440 0.931350
O O12 0.781362 0.578330 0.843943
O O13 0.000000 0.619039 0.943800
O O14 0.749101 0.610006 0.036852
O O15 0.228259 0.881086 0.739097
O O16 0.228957 0.807801 0.620267
O O17 0.000000 0.864127 0.616853
O O18 0.000000 0.879309 0.852795
O O19 0.000000 0.760595 0.651056
O O20 0.500000 0.939419 0.217444
O O21 0.292482 0.000000 0.258399
#
# Coordination Sequence:
#
# PCOD8188239 Si02
#       8
#     8   8   8   8   8   8   8   8
#     4   9  17  30  47  66  93 130 165 194 237 293
#     4  10  18  31  49  68  94 130 166 200 241 292
#     4   9  18  34  56  79 102 128 162 206 251 298
#     4  10  20  34  52  73  99 133 169 204 245 295
#     4  10  19  33  51  71 100 136 169 203 244 292
#     4   9  18  33  52  73  99 134 168 199 249 304
#     4  10  19  31  46  67  97 131 165 203 245 287
#     4   9  19  36  56  77 102 131 162 201 253 305
#
# _framework density 18.420190999999999
#
# number of rings (size 3 to 8) (size 9 to 14) (size 15 to 20)
#    0.000    2.500    2.500    0.000    1.750    0.500 
#    0.000    3.125    0.000    0.750    0.000    0.000 
#    0.000    0.000    0.000    0.000    0.000    0.000 
#
# Total GULP energy -396460.297572 kJ/mol
# GULP energy per Si atom -12389.384299 kJ/mol
# Density = 1.837827 g / cm^3
# Si number density = 18.420191 Si / 1000 Ang^3
#
#
#
# Elastic Constant Matrix: (Units=GPa)
#
#
# Indices 1 2 3 4 5 6 
#
# 1 25.7025 21.2753 37.4054 0.0000 0.0000 0.0001
# 2 21.2753 85.9354 60.2135 0.0003 0.0000 -0.0002
# 3 37.4054 60.2135 147.4307 0.0000 -0.0004 0.0001
# 4 0.0000 0.0003 0.0000 36.1321 -0.0001 0.0000
# 5 0.0000 0.0000 -0.0004 -0.0001 26.4429 0.0001
# 6 0.0001 -0.0002 0.0001 0.0000 0.0001 15.4021
#
#
#
# Elastic Compliance Matrix: (Units=1/GPa)
#
#
# Indices 1 2 3 4 5 6 
#
# 1 0.063997 -0.006258 -0.013681 0.000000 0.000000 0.000000
# 2 -0.006258 0.016914 -0.005320 0.000000 0.000000 0.000000
# 3 -0.013681 -0.005320 0.012427 0.000000 0.000000 0.000000
# 4 0.000000 0.000000 0.000000 0.027676 0.000000 0.000000
# 5 0.000000 0.000000 0.000000 0.000000 0.037817 0.000000
# 6 0.000000 0.000000 0.000000 0.000000 0.000000 0.064926
#
#
# Mechanical properties :
#
#
# Convention : Reuss Voigt Hill
#
# Bulk Modulus (GPa) = 23.35389 55.20633 39.28011
# Shear Modulus (GPa) = 17.32806 24.94039 21.13422
#
# Velocity S-wave (km/s) = 3.07043 3.68363 3.39092
# Velocity P-wave (km/s) = 5.02752 6.93742 6.05821
#
# Compressibility (1/GPa) = 0.04281942
#
# Stress axis : x y z
#
# Youngs Moduli (GPa) = 15.62562 59.12381 80.47081
#
# Poissons Ratio (x) = 0.36998 1.10095
# Poissons Ratio (y) = 0.09778 0.42812
# Poissons Ratio (z) = 0.21378 0.31455
#
# Static dielectric constant tensor:
#      x y z
#    x 3.113170 0.000000 0.000000 
#    y 0.000000 3.422270 0.000000 
#    z 0.000000 0.000000 3.596710 
# 
# 
# High freq. dielectric constant tensor:
#      x y z
#    x 1.674980 0.000000 0.000000 
#    y 0.000000 1.704940 0.000000 
#    z 0.000000 0.000000 1.722160 
# 
# From -- ./inp_files/11429.got.cif
#   From: 2010.03.12/outbox.cif.g09.slc.cpg/sg44_6_cif.got.tgz:11429.got - 2010.04.14 02:36:11.
