data_PCOD8188122
_publ_section_title
;
Structure prediction by ZEFSAII (Michael W. Deem and Ramdas Pophale) SiO2 
 PCOD8188122
Probable space group: I M M 2
;
_chemical_formula_sum "Si O2"
_cell_formula_units_Z 56
_cell_length_a 7.849936
_cell_length_b 13.640111
_cell_length_c 32.046705
_cell_angle_alpha 90.000000
_cell_angle_beta 90.000000
_cell_angle_gamma 90.000000
_cell_volume 3431.368839
_symmetry_space_group_name_H-M "I M M 2"
_symmetry_group_IT_number 44
_symmetry_cell_setting 'orthorhombic'
loop_
_space_group_symop_operation_xyz
x,y,z
-x,-y,z
-x,y,z
x,-y,z
1/2+x,1/2+y,1/2+z
1/2-x,1/2-y,1/2+z
1/2-x,1/2+y,1/2+z
1/2+x,1/2-y,1/2+z
loop_
_atom_site_type_symbol
_atom_site_label
_atom_site_fract_x
_atom_site_fract_y
_atom_site_fract_z
Si Si1 0.190203 0.113045 0.375000
Si Si2 0.305186 0.204761 0.292716
Si Si3 0.305186 0.795239 0.663079
Si Si4 0.798258 0.389324 0.707085
Si Si5 0.000000 0.616355 0.931349
Si Si6 0.809797 0.886955 0.580796
Si Si7 0.201742 0.610676 0.248711
Si Si8 0.000000 0.383645 0.024447
O O1 0.195855 0.175298 0.332677
O O2 0.329464 0.153265 0.407823
O O3 0.000000 0.124542 0.394144
O O4 0.229839 0.000000 0.364117
O O5 0.500000 0.177601 0.302104
O O6 0.235401 0.144645 0.252818
O O7 0.285901 0.320791 0.283926
O O8 0.500000 0.822399 0.653692
O O9 0.285901 0.679209 0.671870
O O10 0.195855 0.824702 0.623119
O O11 0.235401 0.855355 0.702978
O O12 0.736851 0.500000 0.698966
O O13 0.000000 0.378972 0.704319
O O14 0.000000 0.500000 0.934120
O O15 0.000000 0.661604 0.977898
O O16 0.670536 0.846735 0.547973
O O17 0.000000 0.875458 0.561652
O O18 0.770162 0.000000 0.591679
O O19 0.263149 0.500000 0.256830
O O20 0.000000 0.621028 0.251477
O O21 0.000000 0.500000 0.021676
#
# Coordination Sequence:
#
# PCOD8188122 Si02
#       8
#     8   8   8   8   4   8   8   4
#     4  10  19  30  47  69  93 124 158 190 228 278
#     4  10  18  29  45  64  90 123 159 196 232 273
#     4  10  18  29  45  64  90 123 159 196 232 273
#     4   9  18  30  43  61  89 124 159 198 237 271
#     4   9  18  32  48  68  95 123 153 193 236 278
#     4  10  19  30  47  69  93 124 158 190 228 278
#     4   9  18  30  43  61  89 124 159 198 237 271
#     4   9  18  32  48  68  95 123 153 193 236 278
#
# _framework density 16.320017
#
# number of rings (size 3 to 8) (size 9 to 14) (size 15 to 20)
#    0.000    2.429    1.429    1.714    0.000    3.429 
#    0.000    2.857    0.000    0.000    0.000    0.000 
#    0.000    2.286    0.000    6.000    0.000    0.286 
#
# Total GULP energy -347209.765860 kJ/mol
# GULP energy per Si atom -12400.348781 kJ/mol
# Density = 1.628287 g / cm^3
# Si number density = 16.320017 Si / 1000 Ang^3
#
#
#
# Elastic Constant Matrix: (Units=GPa)
#
#
# Indices 1 2 3 4 5 6 
#
# 1 87.6740 19.8889 45.7474 0.0000 0.0000 0.0000
# 2 19.8889 75.6057 31.7561 0.0000 0.0000 0.0000
# 3 45.7474 31.7561 104.3515 0.0000 0.0000 0.0000
# 4 0.0000 0.0000 0.0000 15.5941 0.0000 0.0000
# 5 0.0000 0.0000 0.0000 0.0000 19.2059 0.0000
# 6 0.0000 0.0000 0.0000 0.0000 0.0000 19.7055
#
#
#
# Elastic Compliance Matrix: (Units=1/GPa)
#
#
# Indices 1 2 3 4 5 6 
#
# 1 0.014908 -0.001349 -0.006125 0.000000 0.000000 0.000000
# 2 -0.001349 0.015287 -0.004061 0.000000 0.000000 0.000000
# 3 -0.006125 -0.004061 0.013504 0.000000 0.000000 0.000000
# 4 0.000000 0.000000 0.000000 0.064127 0.000000 0.000000
# 5 0.000000 0.000000 0.000000 0.000000 0.052067 0.000000
# 6 0.000000 0.000000 0.000000 0.000000 0.000000 0.050747
#
#
# Mechanical properties :
#
#
# Convention : Reuss Voigt Hill
#
# Bulk Modulus (GPa) = 48.47480 51.37955 49.92718
# Shear Modulus (GPa) = 20.78256 22.25035 21.51645
#
# Velocity S-wave (km/s) = 3.57240 3.69640 3.63493
# Velocity P-wave (km/s) = 6.83982 7.05469 6.94809
#
# Compressibility (1/GPa) = 0.02062928
#
# Stress axis : x y z
#
# Youngs Moduli (GPa) = 67.07856 65.41517 74.05244
#
# Poissons Ratio (x) = 0.08825 0.45357
# Poissons Ratio (y) = 0.09049 0.30071
# Poissons Ratio (z) = 0.41086 0.26563
#
# Static dielectric constant tensor:
#      x y z
#    x 3.139450 0.000000 0.000000 
#    y 0.000000 2.911030 0.000000 
#    z 0.000000 0.000000 2.949520 
# 
# 
# High freq. dielectric constant tensor:
#      x y z
#    x 1.641550 0.000000 0.000000 
#    y 0.000000 1.594510 0.000000 
#    z 0.000000 0.000000 1.600510 
# 
# From -- ./inp_files/19670.got.cif
#   From: 2010.03.12/outbox.cif.g09.slc.cpg/sg44_10_cif.got.tgz:19670.got - 2010.04.14 02:36:11.
