data_PCOD8188413
_publ_section_title
;
Structure prediction by ZEFSAII (Michael W. Deem and Ramdas Pophale) SiO2 
 PCOD8188413
Probable space group: I M M 2
;
_chemical_formula_sum "Si O2"
_cell_formula_units_Z 30
_cell_length_a 10.710791
_cell_length_b 15.260832
_cell_length_c 8.610602
_cell_angle_alpha 90.000000
_cell_angle_beta 90.000000
_cell_angle_gamma 90.000000
_cell_volume 1407.450962
_symmetry_space_group_name_H-M "I M M 2"
_symmetry_group_IT_number 44
_symmetry_cell_setting 'orthorhombic'
loop_
_space_group_symop_operation_xyz
x,y,z
-x,-y,z
-x,y,z
x,-y,z
1/2+x,1/2+y,1/2+z
1/2-x,1/2-y,1/2+z
1/2-x,1/2+y,1/2+z
1/2+x,1/2-y,1/2+z
loop_
_atom_site_type_symbol
_atom_site_label
_atom_site_fract_x
_atom_site_fract_y
_atom_site_fract_z
Si Si1 0.500000 0.403414 0.546391
Si Si2 0.143003 0.500000 0.846579
Si Si3 0.749430 0.166261 0.176431
Si Si4 0.000000 0.000000 0.749068
Si Si5 0.775206 0.500000 0.190239
Si Si6 0.856861 0.323912 0.353166
O O1 0.500000 0.500000 0.626032
O O2 0.619686 0.349904 0.594737
O O3 0.500000 0.413704 0.359265
O O4 0.210227 0.586253 0.784851
O O5 0.000000 0.500000 0.792238
O O6 0.147754 0.500000 0.032393
O O7 0.763678 0.251844 0.282239
O O8 0.648847 0.180857 0.040389
O O9 0.873276 0.000000 0.647412
O O10 0.811252 0.417959 0.295613
O O11 0.000000 0.307044 0.303404
#
# Coordination Sequence:
#
# PCOD8188413 Si02
#       6
#     4   4   8   2   4   8
#     4  10  18  43  72  94 131 168 214 283 332 384
#     4  12  26  47  68  98 135 177 219 275 330 393
#     4  12  24  45  69  99 134 173 223 272 332 394
#     4  10  20  44  72  96 126 174 220 272 334 392
#     4  12  25  45  68  98 136 177 223 271 330 389
#     4  12  25  44  69 100 134 176 222 274 329 394
#
# _framework density 21.315128999999999
#
# number of rings (size 3 to 8) (size 9 to 14) (size 15 to 20)
#    0.400    0.000    5.333    4.400    0.000    1.067 
#   14.400    0.000    0.000    0.000    0.000    0.000 
#    0.000    0.000    0.000    0.000    0.000    0.000 
#
# Total GULP energy -186045.243769 kJ/mol
# GULP energy per Si atom -12403.016251 kJ/mol
# Density = 2.126662 g / cm^3
# Si number density = 21.315129 Si / 1000 Ang^3
#
#
#
# Elastic Constant Matrix: (Units=GPa)
#
#
# Indices 1 2 3 4 5 6 
#
# 1 112.3394 27.7250 10.6287 0.0000 0.0000 0.0000
# 2 27.7250 163.3090 52.5136 0.0000 0.0000 0.0000
# 3 10.6287 52.5136 101.3611 0.0001 0.0000 0.0000
# 4 0.0000 0.0000 0.0001 29.6554 0.0000 0.0000
# 5 0.0000 0.0000 0.0000 0.0000 30.7925 0.0000
# 6 0.0000 0.0000 0.0000 0.0000 0.0000 12.2187
#
#
#
# Elastic Compliance Matrix: (Units=1/GPa)
#
#
# Indices 1 2 3 4 5 6 
#
# 1 0.009294 -0.001517 -0.000189 0.000000 0.000000 0.000000
# 2 -0.001517 0.007595 -0.003776 0.000000 0.000000 0.000000
# 3 -0.000189 -0.003776 0.011842 0.000000 0.000000 0.000000
# 4 0.000000 0.000000 0.000000 0.033721 0.000000 0.000000
# 5 0.000000 0.000000 0.000000 0.000000 0.032475 0.000000
# 6 0.000000 0.000000 0.000000 0.000000 0.000000 0.081842
#
#
# Mechanical properties :
#
#
# Convention : Reuss Voigt Hill
#
# Bulk Modulus (GPa) = 56.28224 62.08267 59.18246
# Shear Modulus (GPa) = 25.81925 33.60949 29.71437
#
# Velocity S-wave (km/s) = 3.48416 3.97519 3.73775
# Velocity P-wave (km/s) = 6.53055 7.08935 6.81568
#
# Compressibility (1/GPa) = 0.01776759
#
# Stress axis : x y z
#
# Youngs Moduli (GPa) = 107.59780 131.66417 84.44756
#
# Poissons Ratio (x) = 0.19976 0.01592
# Poissons Ratio (y) = 0.16325 0.31886
# Poissons Ratio (z) = 0.02028 0.49714
#
# Static dielectric constant tensor:
#      x y z
#    x 3.910670 0.000000 0.000000 
#    y 0.000000 3.789850 0.000000 
#    z 0.000000 0.000000 3.732140 
# 
# 
# High freq. dielectric constant tensor:
#      x y z
#    x 1.848570 0.000000 0.000000 
#    y 0.000000 1.841780 0.000000 
#    z 0.000000 0.000000 1.831730 
# 
# From -- ./inp_files/5350.got.cif
#   From: 2010.03.12/outbox.cif.g09.slc.cpg/sg44_3_cif.got.tgz:5350.got - 2010.04.14 02:36:11.
