data_PCOD8188637
_publ_section_title
;
Structure prediction by ZEFSAII (Michael W. Deem and Ramdas Pophale) SiO2 
 PCOD8188637
Probable space group: I M M 2
;
_chemical_formula_sum "Si O2"
_cell_formula_units_Z 64
_cell_length_a 17.740863
_cell_length_b 26.036917
_cell_length_c 7.617915
_cell_angle_alpha 90.000000
_cell_angle_beta 90.000000
_cell_angle_gamma 90.000000
_cell_volume 3518.847318
_symmetry_space_group_name_H-M "I M M 2"
_symmetry_group_IT_number 44
_symmetry_cell_setting 'orthorhombic'
loop_
_space_group_symop_operation_xyz
x,y,z
-x,-y,z
-x,y,z
x,-y,z
1/2+x,1/2+y,1/2+z
1/2-x,1/2-y,1/2+z
1/2-x,1/2+y,1/2+z
1/2+x,1/2-y,1/2+z
loop_
_atom_site_type_symbol
_atom_site_label
_atom_site_fract_x
_atom_site_fract_y
_atom_site_fract_z
Si Si1 0.582733 0.113866 0.625000
Si Si2 0.263111 0.940034 0.625000
Si Si3 0.085525 0.797780 0.831847
Si Si4 0.786321 0.129994 0.319991
Si Si5 0.635890 0.185692 0.327935
Si Si6 0.085525 0.202220 0.418152
Si Si7 0.786321 0.870006 0.930009
Si Si8 0.864110 0.314308 0.422065
O O1 0.500000 0.087563 0.625000
O O2 0.647265 0.070561 0.625000
O O3 0.587659 0.148050 0.449579
O O4 0.587659 0.148050 0.800421
O O5 0.222966 0.916716 0.454025
O O6 0.222966 0.916716 0.795974
O O7 0.248200 0.000000 0.624999
O O8 0.120690 0.743556 0.890325
O O9 0.089906 0.803854 0.625000
O O10 0.132060 0.844019 0.917162
O O11 0.000000 0.801487 0.900307
O O12 0.724094 0.173893 0.358564
O O13 0.867940 0.155981 0.332837
O O14 0.775831 0.107123 0.125000
O O15 0.611349 0.177524 0.125000
O O16 0.120690 0.256444 0.359674
O O17 0.000000 0.198513 0.349691
O O18 0.724094 0.826107 0.891436
#
# Coordination Sequence:
#
# PCOD8188637 Si02
#       8
#     8   8   8   8   8   8   8   8
#     4  10  20  33  54  83 111 142 177 211 260 316
#     4  10  22  41  59  76 102 135 181 235 274 312
#     4  10  19  31  50  78 114 148 175 209 259 314
#     4  10  20  35  56  78 103 140 180 222 265 313
#     4   9  19  33  50  76 113 150 179 205 246 311
#     4  10  19  31  50  78 114 148 175 209 259 314
#     4  10  20  35  56  78 103 140 180 222 265 313
#     4   9  19  33  50  76 113 150 179 205 246 311
#
# _framework density 18.187774000000001
#
# number of rings (size 3 to 8) (size 9 to 14) (size 15 to 20)
#    0.000    2.250    1.250    1.500    1.750    2.750 
#    0.000    0.000    0.000    1.500    0.000    8.750 
#    0.000    0.000    0.000    0.000    0.000    0.000 
#
# Total GULP energy -396825.554318 kJ/mol
# GULP energy per Si atom -12400.798572 kJ/mol
# Density = 1.814638 g / cm^3
# Si number density = 18.187774 Si / 1000 Ang^3
#
#
#
# Elastic Constant Matrix: (Units=GPa)
#
#
# Indices 1 2 3 4 5 6 
#
# 1 110.1386 58.6109 38.7277 0.0000 0.0000 0.0000
# 2 58.6109 117.4938 51.0652 0.0000 0.0000 0.0000
# 3 38.7277 51.0652 94.6841 0.0000 0.0001 0.0000
# 4 0.0000 0.0000 0.0000 15.0489 0.0000 0.0000
# 5 0.0000 0.0000 0.0001 0.0000 16.6797 0.0000
# 6 0.0000 0.0000 0.0000 0.0000 0.0000 11.5993
#
#
#
# Elastic Compliance Matrix: (Units=1/GPa)
#
#
# Indices 1 2 3 4 5 6 
#
# 1 0.012742 -0.005344 -0.002330 0.000000 0.000000 0.000000
# 2 -0.005344 0.013358 -0.005018 0.000000 0.000000 0.000000
# 3 -0.002330 -0.005018 0.014221 0.000000 0.000000 0.000000
# 4 0.000000 0.000000 0.000000 0.066450 0.000000 0.000000
# 5 0.000000 0.000000 0.000000 0.000000 0.059953 0.000000
# 6 0.000000 0.000000 0.000000 0.000000 0.000000 0.086212
#
#
# Mechanical properties :
#
#
# Convention : Reuss Voigt Hill
#
# Bulk Modulus (GPa) = 66.94796 68.79154 67.86975
# Shear Modulus (GPa) = 17.64915 20.25978 18.95446
#
# Velocity S-wave (km/s) = 3.11848 3.34117 3.23174
# Velocity P-wave (km/s) = 7.06086 7.26565 7.16399
#
# Compressibility (1/GPa) = 0.01493697
#
# Stress axis : x y z
#
# Youngs Moduli (GPa) = 78.47763 74.86161 70.31866
#
# Poissons Ratio (x) = 0.40005 0.16383
# Poissons Ratio (y) = 0.41938 0.35289
# Poissons Ratio (z) = 0.18284 0.37569
#
# Static dielectric constant tensor:
#      x y z
#    x 3.429730 0.000000 0.000000 
#    y 0.000000 2.908040 0.000000 
#    z 0.000000 0.000000 3.507930 
# 
# 
# High freq. dielectric constant tensor:
#      x y z
#    x 1.707410 0.000000 0.000000 
#    y 0.000000 1.658910 0.000000 
#    z 0.000000 0.000000 1.719710 
# 
# From -- ./inp_files/8521.got.cif
#   From: 2010.03.12/outbox.cif.g09.slc.cpg/sg44_5_cif.got.tgz:8521.got - 2010.04.14 02:36:11.
