data_PCOD8188945
_publ_section_title
;
Structure prediction by ZEFSAII (Michael W. Deem and Ramdas Pophale) SiO2 
 PCOD8188945
Probable space group: I M M 2
;
_chemical_formula_sum "Si O2"
_cell_formula_units_Z 48
_cell_length_a 16.525583
_cell_length_b 8.741574
_cell_length_c 18.317251
_cell_angle_alpha 90.000000
_cell_angle_beta 90.000000
_cell_angle_gamma 90.000000
_cell_volume 2646.102875
_symmetry_space_group_name_H-M "I M M 2"
_symmetry_group_IT_number 44
_symmetry_cell_setting 'orthorhombic'
loop_
_space_group_symop_operation_xyz
x,y,z
-x,-y,z
-x,y,z
x,-y,z
1/2+x,1/2+y,1/2+z
1/2-x,1/2-y,1/2+z
1/2-x,1/2+y,1/2+z
1/2+x,1/2-y,1/2+z
loop_
_atom_site_type_symbol
_atom_site_label
_atom_site_fract_x
_atom_site_fract_y
_atom_site_fract_z
Si Si1 0.000000 0.318837 0.921800
Si Si2 0.826541 0.675952 0.122539
Si Si3 0.907373 0.320769 0.562220
Si Si4 0.767409 0.824618 0.475406
Si Si5 0.688751 0.822905 0.205550
Si Si6 0.840426 0.821406 0.858009
Si Si7 0.000000 0.319510 0.083583
O O1 0.920826 0.266350 0.879918
O O2 0.000000 0.500000 0.923659
O O3 0.000000 0.246193 0.002849
O O4 0.814588 0.500000 0.147390
O O5 0.798384 0.695816 0.039129
O O6 0.778135 0.788749 0.175122
O O7 0.919934 0.729570 0.127726
O O8 0.897926 0.500000 0.548272
O O9 0.854943 0.235166 0.500999
O O10 0.876463 0.279239 0.643353
O O11 0.000000 0.266556 0.555138
O O12 0.736758 0.731534 0.405322
O O13 0.776609 0.000000 0.452195
O O14 0.674464 0.714341 0.273678
O O15 0.682360 0.000000 0.228246
O O16 0.853426 0.000000 0.869001
O O17 0.000000 0.500000 0.072546
#
# Coordination Sequence:
#
# PCOD8188945 Si02
#       7
#     4   8   8   8   8   8   4
#     4  11  21  37  57  83 115 148 179 218 273 331
#     4   9  17  33  55  80 108 143 182 222 268 324
#     4   9  19  36  57  82 110 143 183 228 276 326
#     4  10  19  34  57  81 108 146 185 226 273 324
#     4  10  21  36  55  79 110 149 184 223 274 330
#     4  12  24  37  54  82 115 148 184 227 272 327
#     4   9  16  31  57  83 109 140 177 216 265 325
#
# _framework density 18.139883999999999
#
# number of rings (size 3 to 8) (size 9 to 14) (size 15 to 20)
#    0.000    2.000    1.667    2.750    1.167    1.667 
#    0.000    0.417    1.833    0.000    0.000    0.000 
#    0.000    0.000    0.000    0.000    0.000    0.000 
#
# Total GULP energy -297655.030685 kJ/mol
# GULP energy per Si atom -12402.292945 kJ/mol
# Density = 1.809860 g / cm^3
# Si number density = 18.139884 Si / 1000 Ang^3
#
#
#
# Elastic Constant Matrix: (Units=GPa)
#
#
# Indices 1 2 3 4 5 6 
#
# 1 143.0200 32.8674 38.9656 0.0000 0.0000 0.0000
# 2 32.8674 73.5837 30.0462 0.0000 0.0000 0.0000
# 3 38.9656 30.0462 69.6802 0.0000 0.0000 0.0000
# 4 0.0000 0.0000 0.0000 28.1499 0.0000 0.0000
# 5 0.0000 0.0000 0.0000 0.0000 8.4403 0.0000
# 6 0.0000 0.0000 0.0000 0.0000 0.0000 30.2531
#
#
#
# Elastic Compliance Matrix: (Units=1/GPa)
#
#
# Indices 1 2 3 4 5 6 
#
# 1 0.008549 -0.002265 -0.003804 0.000000 0.000000 0.000000
# 2 -0.002265 0.017094 -0.006104 0.000000 0.000000 0.000000
# 3 -0.003804 -0.006104 0.019111 0.000000 0.000000 0.000000
# 4 0.000000 0.000000 0.000000 0.035524 0.000000 0.000000
# 5 0.000000 0.000000 0.000000 0.000000 0.118480 0.000000
# 6 0.000000 0.000000 0.000000 0.000000 0.000000 0.033054
#
#
# Mechanical properties :
#
#
# Convention : Reuss Voigt Hill
#
# Bulk Modulus (GPa) = 49.00289 54.44916 51.72603
# Shear Modulus (GPa) = 19.01420 25.66231 22.33825
#
# Velocity S-wave (km/s) = 3.24110 3.76532 3.51300
# Velocity P-wave (km/s) = 6.40928 6.99892 6.71058
#
# Compressibility (1/GPa) = 0.02040696
#
# Stress axis : x y z
#
# Youngs Moduli (GPa) = 116.97319 58.49875 52.32700
#
# Poissons Ratio (x) = 0.13252 0.19904
# Poissons Ratio (y) = 0.26498 0.31942
# Poissons Ratio (z) = 0.44494 0.35710
#
# Static dielectric constant tensor:
#      x y z
#    x 3.536510 0.000000 0.000000 
#    y 0.000000 3.280010 0.000000 
#    z 0.000000 0.000000 3.200210 
# 
# 
# High freq. dielectric constant tensor:
#      x y z
#    x 1.707800 0.000000 0.000000 
#    y 0.000000 1.701080 0.000000 
#    z 0.000000 0.000000 1.685260 
# 
# From -- ./inp_files/16198.got.cif
#   From: 2010.03.12/outbox.cif.g09.slc.cpg/sg44_9_cif.got.tgz:16198.got - 2010.04.14 02:36:11.
