data_PCOD8188230
_publ_section_title
;
Structure prediction by ZEFSAII (Michael W. Deem and Ramdas Pophale) SiO2 
 PCOD8188230
Probable space group: I M M 2
;
_chemical_formula_sum "Si O2"
_cell_formula_units_Z 64
_cell_length_a 8.713495
_cell_length_b 28.694840
_cell_length_c 12.141611
_cell_angle_alpha 90.000000
_cell_angle_beta 90.000000
_cell_angle_gamma 90.000000
_cell_volume 3035.795469
_symmetry_space_group_name_H-M "I M M 2"
_symmetry_group_IT_number 44
_symmetry_cell_setting 'orthorhombic'
loop_
_space_group_symop_operation_xyz
x,y,z
-x,-y,z
-x,y,z
x,-y,z
1/2+x,1/2+y,1/2+z
1/2-x,1/2-y,1/2+z
1/2-x,1/2+y,1/2+z
1/2+x,1/2-y,1/2+z
loop_
_atom_site_type_symbol
_atom_site_label
_atom_site_fract_x
_atom_site_fract_y
_atom_site_fract_z
Si Si1 0.168548 0.949429 0.448950
Si Si2 0.177636 0.190319 0.198093
Si Si3 0.178469 0.219854 0.783870
Si Si4 0.176381 0.666493 0.105971
Si Si5 0.678728 0.051631 0.906372
Si Si6 0.825873 0.634853 0.867848
Si Si7 0.173956 0.923417 0.687799
Si Si8 0.318568 0.155464 0.973511
O O1 0.304471 0.919011 0.398876
O O2 0.184054 0.955622 0.580494
O O3 0.000000 0.927660 0.422748
O O4 0.183822 0.000000 0.394585
O O5 0.259648 0.227446 0.280510
O O6 0.208286 0.143824 0.268384
O O7 0.000000 0.202472 0.184674
O O8 0.246557 0.182250 0.077420
O O9 0.213040 0.205282 0.657673
O O10 0.263316 0.184134 0.866248
O O11 0.000000 0.219696 0.813112
O O12 0.210100 0.619111 0.170399
O O13 0.000000 0.680315 0.125482
O O14 0.214561 0.664628 0.976764
O O15 0.500000 0.056657 0.880002
O O16 0.772187 0.047902 0.793315
O O17 0.730074 0.099839 0.970030
O O18 0.708341 0.000000 0.965210
O O19 0.000000 0.643058 0.828962
O O20 0.000000 0.904914 0.706613
O O21 0.500000 0.159636 0.982153
#
# Coordination Sequence:
#
# PCOD8188230 Si02
#       8
#     8   8   8   8   8   8   8   8
#     4   9  18  33  54  84 123 166 211 260 318 379
#     4  12  27  46  68  92 125 168 217 267 325 387
#     4  12  25  42  67  97 129 164 208 258 321 386
#     4  10  20  36  59  89 126 164 203 251 307 371
#     4  10  21  37  60  90 127 171 215 263 323 388
#     4  10  22  40  62  89 124 162 210 262 313 374
#     4  10  18  30  52  85 125 165 205 255 312 372
#     4  11  24  45  69  95 133 172 218 272 326 386
#
# _framework density 21.081789000000001
#
# number of rings (size 3 to 8) (size 9 to 14) (size 15 to 20)
#    0.000    1.500    1.250    4.125    1.750    3.500 
#    0.000    0.625    0.000    2.250    0.000    0.000 
#    0.000    0.000    0.000    0.000    0.000    0.000 
#
# Total GULP energy -396495.371814 kJ/mol
# GULP energy per Si atom -12390.480369 kJ/mol
# Density = 2.103381 g / cm^3
# Si number density = 21.081789 Si / 1000 Ang^3
#
#
#
# Elastic Constant Matrix: (Units=GPa)
#
#
# Indices 1 2 3 4 5 6 
#
# 1 90.2051 31.2510 34.9875 -0.0003 -0.0001 -0.0001
# 2 31.2510 93.6418 34.6506 -0.0005 -0.0002 0.0000
# 3 34.9875 34.6506 78.1963 -0.0009 -0.0007 0.0002
# 4 -0.0003 -0.0005 -0.0009 12.0964 -0.0002 0.0000
# 5 -0.0001 -0.0002 -0.0007 -0.0002 32.2384 -0.0001
# 6 -0.0001 0.0000 0.0002 0.0000 -0.0001 25.6030
#
#
#
# Elastic Compliance Matrix: (Units=1/GPa)
#
#
# Indices 1 2 3 4 5 6 
#
# 1 0.014009 -0.002818 -0.005019 0.000000 0.000000 0.000000
# 2 -0.002818 0.013340 -0.004651 0.000000 0.000000 0.000000
# 3 -0.005019 -0.004651 0.017095 0.000001 0.000000 0.000000
# 4 0.000000 0.000000 0.000001 0.082669 0.000001 0.000000
# 5 0.000000 0.000000 0.000000 0.000001 0.031019 0.000000
# 6 0.000000 0.000000 0.000000 0.000000 0.000000 0.039058
#
#
# Mechanical properties :
#
#
# Convention : Reuss Voigt Hill
#
# Bulk Modulus (GPa) = 51.36504 51.53572 51.45038
# Shear Modulus (GPa) = 21.86699 24.73118 23.29908
#
# Velocity S-wave (km/s) = 3.22412 3.42878 3.32803
# Velocity P-wave (km/s) = 6.18688 6.33830 6.26305
#
# Compressibility (1/GPa) = 0.01946849
#
# Stress axis : x y z
#
# Youngs Moduli (GPa) = 71.38308 74.96109 58.49687
#
# Poissons Ratio (x) = 0.21123 0.29362
# Poissons Ratio (y) = 0.20115 0.27204
# Poissons Ratio (z) = 0.35830 0.34861
#
# Static dielectric constant tensor:
#      x y z
#    x 3.765980 0.000000 0.000000 
#    y 0.000000 4.006090 0.000000 
#    z 0.000000 0.000000 3.652180 
# 
# 
# High freq. dielectric constant tensor:
#      x y z
#    x 1.827380 0.000000 0.000000 
#    y 0.000000 1.833530 0.000000 
#    z 0.000000 0.000000 1.804190 
# 
# From -- ./inp_files/11567.got.cif
#   From: 2010.03.12/outbox.cif.g09.slc.cpg/sg44_6_cif.got.tgz:11567.got - 2010.04.14 02:36:11.
