data_PCOD8188630
_publ_section_title
;
Structure prediction by ZEFSAII (Michael W. Deem and Ramdas Pophale) SiO2 
 PCOD8188630
Probable space group: I M M 2
;
_chemical_formula_sum "Si O2"
_cell_formula_units_Z 64
_cell_length_a 9.525044
_cell_length_b 22.539050
_cell_length_c 15.247956
_cell_angle_alpha 90.000000
_cell_angle_beta 90.000000
_cell_angle_gamma 90.000000
_cell_volume 3273.514188
_symmetry_space_group_name_H-M "I M M 2"
_symmetry_group_IT_number 44
_symmetry_cell_setting 'orthorhombic'
loop_
_space_group_symop_operation_xyz
x,y,z
-x,-y,z
-x,y,z
x,-y,z
1/2+x,1/2+y,1/2+z
1/2-x,1/2-y,1/2+z
1/2-x,1/2+y,1/2+z
1/2+x,1/2-y,1/2+z
loop_
_atom_site_type_symbol
_atom_site_label
_atom_site_fract_x
_atom_site_fract_y
_atom_site_fract_z
Si Si1 0.833643 0.388355 0.734380
Si Si2 0.655836 0.570119 0.077947
Si Si3 0.339477 0.565422 0.580387
Si Si4 0.840560 0.683917 0.333879
Si Si5 0.661017 0.933140 0.743822
Si Si6 0.654906 0.069820 0.424690
Si Si7 0.660567 0.311981 0.497166
Si Si8 0.837537 0.776446 0.188398
O O1 0.764626 0.431124 0.662573
O O2 0.793978 0.415891 0.827558
O O3 0.765309 0.323761 0.731808
O O4 0.000000 0.384656 0.718121
O O5 0.500000 0.598044 0.083098
O O6 0.645415 0.500000 0.067519
O O7 0.740236 0.586626 0.164733
O O8 0.736663 0.597909 0.994362
O O9 0.500000 0.573760 0.613024
O O10 0.319676 0.500000 0.536764
O O11 0.303570 0.618385 0.513237
O O12 0.811884 0.613517 0.321993
O O13 0.749127 0.709919 0.413600
O O14 0.808024 0.715427 0.240257
O O15 0.000000 0.695877 0.361312
O O16 0.500000 0.929289 0.711107
O O17 0.695925 0.000000 0.776789
O O18 0.500000 0.097300 0.441247
O O19 0.647573 0.000000 0.438321
O O20 0.500000 0.303341 0.470538
O O21 0.697141 0.272806 0.583917
O O22 0.000000 0.796538 0.198436
#
# Coordination Sequence:
#
# PCOD8188630 Si02
#       8
#     8   8   8   8   8   8   8   8
#     4  10  19  31  50  77 106 139 184 237 280 320
#     4   9  17  29  46  70 101 136 174 216 260 309
#     4   9  18  33  53  78 112 153 187 217 269 336
#     4  10  21  38  60  83 108 143 184 226 275 332
#     4   9  18  34  55  78 107 141 174 213 269 332
#     4   9  17  29  45  68 102 141 178 219 271 326
#     4   9  19  36  57  80 109 144 182 228 276 325
#     4   9  20  40  58  74 106 148 184 225 278 334
#
# _framework density 19.550854999999999
#
# number of rings (size 3 to 8) (size 9 to 14) (size 15 to 20)
#    0.000    2.750    0.000    1.875    0.000    6.750 
#    2.250    1.250    0.000    0.000    0.000    0.000 
#    0.000    0.000    0.000    0.000    0.000    0.000 
#
# Total GULP energy -396635.734058 kJ/mol
# GULP energy per Si atom -12394.866689 kJ/mol
# Density = 1.950636 g / cm^3
# Si number density = 19.550855 Si / 1000 Ang^3
#
#
#
# Elastic Constant Matrix: (Units=GPa)
#
#
# Indices 1 2 3 4 5 6 
#
# 1 94.5069 18.9646 61.4120 0.0000 0.0000 0.0000
# 2 18.9646 62.1684 29.5621 0.0000 0.0000 0.0000
# 3 61.4120 29.5621 114.1086 -0.0003 0.0001 0.0001
# 4 0.0000 0.0000 -0.0003 22.1055 0.0000 0.0000
# 5 0.0000 0.0000 0.0001 0.0000 35.0658 0.0000
# 6 0.0000 0.0000 0.0001 0.0000 0.0000 15.9788
#
#
#
# Elastic Compliance Matrix: (Units=1/GPa)
#
#
# Indices 1 2 3 4 5 6 
#
# 1 0.016317 -0.000914 -0.008545 0.000000 0.000000 0.000000
# 2 -0.000914 0.018397 -0.004274 0.000000 0.000000 0.000000
# 3 -0.008545 -0.004274 0.014470 0.000000 0.000000 0.000000
# 4 0.000000 0.000000 0.000000 0.045238 0.000000 0.000000
# 5 0.000000 0.000000 0.000000 0.000000 0.028518 0.000000
# 6 0.000000 0.000000 0.000000 0.000000 0.000000 0.062583
#
#
# Mechanical properties :
#
#
# Convention : Reuss Voigt Hill
#
# Bulk Modulus (GPa) = 46.04661 54.51793 50.28227
# Shear Modulus (GPa) = 22.70383 25.35304 24.02844
#
# Velocity S-wave (km/s) = 3.41144 3.60498 3.50954
# Velocity P-wave (km/s) = 6.25464 6.72856 6.49593
#
# Compressibility (1/GPa) = 0.02171713
#
# Stress axis : x y z
#
# Youngs Moduli (GPa) = 61.28450 54.35793 69.11041
#
# Poissons Ratio (x) = 0.04970 0.59054
# Poissons Ratio (y) = 0.05604 0.29537
# Poissons Ratio (z) = 0.52367 0.23232
#
# Static dielectric constant tensor:
#      x y z
#    x 3.710150 0.000000 0.000000 
#    y 0.000000 3.430610 0.000000 
#    z 0.000000 0.000000 3.364740 
# 
# 
# High freq. dielectric constant tensor:
#      x y z
#    x 1.763630 0.000000 0.000000 
#    y 0.000000 1.741030 0.000000 
#    z 0.000000 0.000000 1.750420 
# 
# From -- ./inp_files/16787.got.cif
#   From: 2010.03.12/outbox.cif.g09.slc.cpg/sg44_9_cif.got.tgz:16787.got - 2010.04.14 02:36:11.
