data_PCOD8188065
_publ_section_title
;
Structure prediction by ZEFSAII (Michael W. Deem and Ramdas Pophale) SiO2 
 PCOD8188065
Probable space group: I M M 2
;
_chemical_formula_sum "Si O2"
_cell_formula_units_Z 56
_cell_length_a 8.433061
_cell_length_b 18.475486
_cell_length_c 21.264216
_cell_angle_alpha 90.000000
_cell_angle_beta 90.000000
_cell_angle_gamma 90.000000
_cell_volume 3313.069057
_symmetry_space_group_name_H-M "I M M 2"
_symmetry_group_IT_number 44
_symmetry_cell_setting 'orthorhombic'
loop_
_space_group_symop_operation_xyz
x,y,z
-x,-y,z
-x,y,z
x,-y,z
1/2+x,1/2+y,1/2+z
1/2-x,1/2-y,1/2+z
1/2-x,1/2+y,1/2+z
1/2+x,1/2-y,1/2+z
loop_
_atom_site_type_symbol
_atom_site_label
_atom_site_fract_x
_atom_site_fract_y
_atom_site_fract_z
Si Si1 0.314143 0.081734 0.561080
Si Si2 0.184141 0.784476 0.613162
Si Si3 0.317322 0.283261 0.490865
Si Si4 0.188312 0.160918 0.182838
Si Si5 0.811390 0.081576 0.306865
Si Si6 0.311516 0.419921 0.557963
Si Si7 0.815290 0.150527 0.436016
O O1 0.500000 0.086264 0.572883
O O2 0.224737 0.129873 0.614535
O O3 0.277082 0.109160 0.490811
O O4 0.251708 0.000000 0.568396
O O5 0.296954 0.753192 0.558802
O O6 0.232587 0.741002 0.676348
O O7 0.000000 0.773195 0.597118
O O8 0.500000 0.280230 0.470553
O O9 0.259185 0.366801 0.500222
O O10 0.216518 0.237508 0.439934
O O11 0.253598 0.125160 0.246693
O O12 0.247634 0.110690 0.125064
O O13 0.000000 0.169052 0.184259
O O14 0.750955 0.121599 0.369571
O O15 0.000000 0.079785 0.304942
O O16 0.743681 0.000000 0.305616
O O17 0.500000 0.423383 0.560115
O O18 0.239298 0.500000 0.546776
O O19 0.000000 0.134514 0.444148
#
# Coordination Sequence:
#
# PCOD8188065 Si02
#       7
#     8   8   8   8   8   8   8
#     4  10  19  30  45  65  88 114 145 180 218 260
#     4  10  18  28  43  62  86 113 141 175 215 260
#     4   9  16  27  43  61  83 112 145 179 216 261
#     4   9  16  28  45  62  84 113 144 177 210 252
#     4   9  17  28  44  66  88 115 152 185 211 246
#     4   8  13  22  40  64  83 102 134 176 216 251
#     4  10  18  28  43  63  90 120 149 181 215 254
#
# _framework density 16.902756
#
# number of rings (size 3 to 8) (size 9 to 14) (size 15 to 20)
#    0.000    2.714    0.000    6.000    0.000    3.429 
#    0.000    1.429    0.000   16.286    0.000    1.000 
#    0.000    5.714    0.000    0.000    0.000    0.000 
#
# Total GULP energy -346977.471104 kJ/mol
# GULP energy per Si atom -12392.052539 kJ/mol
# Density = 1.686428 g / cm^3
# Si number density = 16.902756 Si / 1000 Ang^3
#
#
#
# Elastic Constant Matrix: (Units=GPa)
#
#
# Indices 1 2 3 4 5 6 
#
# 1 30.4551 19.5955 10.7853 0.0000 0.0000 0.0000
# 2 19.5955 162.0500 70.9434 0.0000 0.0000 0.0000
# 3 10.7853 70.9434 83.7302 0.0000 0.0000 0.0000
# 4 0.0000 0.0000 0.0000 30.4225 0.0000 0.0000
# 5 0.0000 0.0000 0.0000 0.0000 16.2645 0.0000
# 6 0.0000 0.0000 0.0000 0.0000 0.0000 17.4399
#
#
#
# Elastic Compliance Matrix: (Units=1/GPa)
#
#
# Indices 1 2 3 4 5 6 
#
# 1 0.035723 -0.003665 -0.001497 0.000000 0.000000 0.000000
# 2 -0.003665 0.010186 -0.008158 0.000000 0.000000 0.000000
# 3 -0.001497 -0.008158 0.019048 0.000000 0.000000 0.000000
# 4 0.000000 0.000000 0.000000 0.032870 0.000000 0.000000
# 5 0.000000 0.000000 0.000000 0.000000 0.061484 0.000000
# 6 0.000000 0.000000 0.000000 0.000000 0.000000 0.057340
#
#
# Mechanical properties :
#
#
# Convention : Reuss Voigt Hill
#
# Bulk Modulus (GPa) = 26.09712 53.20930 39.65321
# Shear Modulus (GPa) = 19.52655 24.48612 22.00633
#
# Velocity S-wave (km/s) = 3.40255 3.81024 3.61215
# Velocity P-wave (km/s) = 5.55964 7.13479 6.39589
#
# Compressibility (1/GPa) = 0.03831840
#
# Stress axis : x y z
#
# Youngs Moduli (GPa) = 27.99309 98.17844 52.49879
#
# Poissons Ratio (x) = 0.35978 0.07857
# Poissons Ratio (y) = 0.10258 0.42829
# Poissons Ratio (z) = 0.04189 0.80094
#
# Static dielectric constant tensor:
#      x y z
#    x 2.898520 0.000000 0.000000 
#    y 0.000000 3.818840 0.000000 
#    z 0.000000 0.000000 3.034100 
# 
# 
# High freq. dielectric constant tensor:
#      x y z
#    x 1.634700 0.000000 0.000000 
#    y 0.000000 1.661350 0.000000 
#    z 0.000000 0.000000 1.605360 
# 
# From -- ./inp_files/23368.got.cif
#   From: 2010.03.12/outbox.cif.g09.slc.cpg/sg44_12_cif.got.tgz:23368.got - 2010.04.14 02:36:11.
