data_PCOD8188962
_publ_section_title
;
Structure prediction by ZEFSAII (Michael W. Deem and Ramdas Pophale) SiO2 
 PCOD8188962
Probable space group: I M M 2
;
_chemical_formula_sum "Si O2"
_cell_formula_units_Z 56
_cell_length_a 28.560718
_cell_length_b 13.006873
_cell_length_c 7.230363
_cell_angle_alpha 90.000000
_cell_angle_beta 90.000000
_cell_angle_gamma 90.000000
_cell_volume 2685.975967
_symmetry_space_group_name_H-M "I M M 2"
_symmetry_group_IT_number 44
_symmetry_cell_setting 'orthorhombic'
loop_
_space_group_symop_operation_xyz
x,y,z
-x,-y,z
-x,y,z
x,-y,z
1/2+x,1/2+y,1/2+z
1/2-x,1/2-y,1/2+z
1/2-x,1/2+y,1/2+z
1/2+x,1/2-y,1/2+z
loop_
_atom_site_type_symbol
_atom_site_label
_atom_site_fract_x
_atom_site_fract_y
_atom_site_fract_z
Si Si1 0.052115 0.879289 0.607890
Si Si2 0.277849 0.880398 0.241145
Si Si3 0.051679 0.387195 0.307525
Si Si4 0.151524 0.615810 0.423350
Si Si5 0.195989 0.738303 0.088078
Si Si6 0.122830 0.884972 0.915959
Si Si7 0.051646 0.176249 0.196852
O O1 0.091540 0.839975 0.749297
O O2 0.061968 0.824498 0.415070
O O3 0.000000 0.852082 0.683163
O O4 0.056768 0.000000 0.576840
O O5 0.286148 0.853316 0.456297
O O6 0.262876 0.000000 0.230236
O O7 0.323971 0.857568 0.117984
O O8 0.237330 0.808438 0.163269
O O9 0.054970 0.500000 0.211941
O O10 0.095184 0.375738 0.450752
O O11 0.055690 0.298651 0.149032
O O12 0.000000 0.375606 0.405799
O O13 0.165691 0.500000 0.363939
O O14 0.167563 0.692597 0.260312
O O15 0.165407 0.810152 0.954091
O O16 0.141533 0.000000 0.874103
O O17 0.089172 0.892620 0.093773
O O18 0.000000 0.131925 0.152512
#
# Coordination Sequence:
#
# PCOD8188962 Si02
#       7
#     8   8   8   8   8   8   8
#     4   9  19  35  54  81 118 157 197 240 291 356
#     4  11  25  44  67  94 122 162 210 257 313 382
#     4   9  18  34  59  90 121 157 203 253 305 363
#     4  10  21  41  67  93 126 165 205 255 316 374
#     4  12  23  42  66  91 123 160 203 253 317 372
#     4  11  23  36  56  87 121 153 197 252 303 360
#     4  10  19  34  58  82 115 163 203 240 297 363
#
# _framework density 20.849032999999999
#
# number of rings (size 3 to 8) (size 9 to 14) (size 15 to 20)
#    0.000    1.714    2.857    1.714    2.000    1.429 
#    0.000    0.000    0.000    1.714    0.000    8.000 
#    0.000    0.000    0.000    0.000    0.000    0.000 
#
# Total GULP energy -346995.288508 kJ/mol
# GULP energy per Si atom -12392.688875 kJ/mol
# Density = 2.080158 g / cm^3
# Si number density = 20.849033 Si / 1000 Ang^3
#
#
#
# Elastic Constant Matrix: (Units=GPa)
#
#
# Indices 1 2 3 4 5 6 
#
# 1 106.5020 24.3086 28.9044 0.0000 0.0000 0.0000
# 2 24.3086 74.8537 23.5920 0.0000 0.0000 0.0000
# 3 28.9044 23.5920 71.4913 0.0000 0.0000 0.0000
# 4 0.0000 0.0000 0.0000 24.6407 0.0000 0.0000
# 5 0.0000 0.0000 0.0000 0.0000 23.6743 0.0000
# 6 0.0000 0.0000 0.0000 0.0000 0.0000 2.0114
#
#
#
# Elastic Compliance Matrix: (Units=1/GPa)
#
#
# Indices 1 2 3 4 5 6 
#
# 1 0.010921 -0.002405 -0.003622 0.000000 0.000000 0.000000
# 2 -0.002405 0.015440 -0.004123 0.000000 0.000000 0.000000
# 3 -0.003622 -0.004123 0.016813 0.000000 0.000000 0.000000
# 4 0.000000 0.000000 0.000000 0.040583 0.000000 0.000000
# 5 0.000000 0.000000 0.000000 0.000000 0.042240 0.000000
# 6 0.000000 0.000000 0.000000 0.000000 0.000000 0.497166
#
#
# Mechanical properties :
#
#
# Convention : Reuss Voigt Hill
#
# Bulk Modulus (GPa) = 43.71719 45.16186 44.43953
# Shear Modulus (GPa) = 7.67946 21.80140 14.74043
#
# Velocity S-wave (km/s) = 1.92129 3.23720 2.66185
# Velocity P-wave (km/s) = 5.09272 5.97336 5.55053
#
# Compressibility (1/GPa) = 0.02287430
#
# Stress axis : x y z
#
# Youngs Moduli (GPa) = 91.56296 64.76749 59.47938
#
# Poissons Ratio (x) = 0.15578 0.21543
# Poissons Ratio (y) = 0.22023 0.24521
# Poissons Ratio (z) = 0.33163 0.26702
#
# Static dielectric constant tensor:
#      x y z
#    x 3.919020 0.000000 0.000000 
#    y 0.000000 3.988640 0.000000 
#    z 0.000000 0.000000 3.490290 
# 
# 
# High freq. dielectric constant tensor:
#      x y z
#    x 1.823450 0.000000 0.000000 
#    y 0.000000 1.833010 0.000000 
#    z 0.000000 0.000000 1.781000 
# 
# From -- ./inp_files/3305.got.cif
#   From: 2010.03.12/outbox.cif.g09.slc.cpg/sg44_2_cif.got.tgz:3305.got - 2010.04.14 02:36:11.
