data_PCOD8188649
_publ_section_title
;
Structure prediction by ZEFSAII (Michael W. Deem and Ramdas Pophale) SiO2 
 PCOD8188649
Probable space group: I M M 2
;
_chemical_formula_sum "Si O2"
_cell_formula_units_Z 56
_cell_length_a 22.776966
_cell_length_b 9.003767
_cell_length_c 14.354159
_cell_angle_alpha 90.000000
_cell_angle_beta 90.000000
_cell_angle_gamma 90.000000
_cell_volume 2943.729322
_symmetry_space_group_name_H-M "I M M 2"
_symmetry_group_IT_number 44
_symmetry_cell_setting 'orthorhombic'
loop_
_space_group_symop_operation_xyz
x,y,z
-x,-y,z
-x,y,z
x,-y,z
1/2+x,1/2+y,1/2+z
1/2-x,1/2-y,1/2+z
1/2-x,1/2+y,1/2+z
1/2+x,1/2-y,1/2+z
loop_
_atom_site_type_symbol
_atom_site_label
_atom_site_fract_x
_atom_site_fract_y
_atom_site_fract_z
Si Si1 0.112394 0.325329 0.304700
Si Si2 0.721481 0.829958 0.483684
Si Si3 0.655372 0.173699 0.000370
Si Si4 0.500000 0.822514 0.695629
Si Si5 0.115828 0.172276 0.885375
Si Si6 0.780029 0.330932 0.194809
Si Si7 0.849524 0.827043 0.684883
Si Si8 0.000000 0.175806 0.994461
O O1 0.113749 0.500000 0.285040
O O2 0.110810 0.292526 0.415109
O O3 0.055619 0.259607 0.252997
O O4 0.171165 0.251787 0.259557
O O5 0.781985 0.741957 0.473289
O O6 0.672025 0.763005 0.417828
O O7 0.697881 0.817662 0.588879
O O8 0.732751 0.000000 0.455367
O O9 0.664201 0.000000 0.015946
O O10 0.626301 0.243586 0.093276
O O11 0.500000 0.757208 0.592560
O O12 0.500000 0.000000 0.688704
O O13 0.108485 0.198251 0.773824
O O14 0.056915 0.227429 0.935961
O O15 0.127718 0.000000 0.906500
O O16 0.774017 0.500000 0.227749
O O17 0.715408 0.259425 0.206967
O O18 0.844051 0.000000 0.658164
O O19 0.000000 0.000000 0.009854
#
# Coordination Sequence:
#
# PCOD8188649 Si02
#       8
#     8   8   8   4   8   8   8   4
#     4   9  17  30  50  74 100 134 174 210 250 304
#     4  10  19  31  51  80 109 136 172 215 258 311
#     4  10  19  32  51  76 106 138 173 216 264 309
#     4  10  20  36  57  78 102 138 179 212 249 304
#     4  10  20  35  54  74 103 142 176 211 260 312
#     4   8  14  26  45  70  98 127 161 203 249 298
#     4   9  18  33  51  71  99 136 175 214 259 313
#     4  10  22  38  55  80 108 132 167 214 259 306
#
# _framework density 19.023486999999999
#
# number of rings (size 3 to 8) (size 9 to 14) (size 15 to 20)
#    0.000    2.571    0.000    3.429    0.000    4.571 
#    0.000    2.143    0.000    4.286    0.000    0.000 
#    0.000    0.000    0.000    0.000    0.000    0.000 
#
# Total GULP energy -347091.565522 kJ/mol
# GULP energy per Si atom -12396.127340 kJ/mol
# Density = 1.898019 g / cm^3
# Si number density = 19.023487 Si / 1000 Ang^3
#
#
#
# Elastic Constant Matrix: (Units=GPa)
#
#
# Indices 1 2 3 4 5 6 
#
# 1 76.4551 26.7763 68.3055 0.0000 0.0000 0.0000
# 2 26.7763 59.6952 46.5498 0.0000 0.0000 0.0000
# 3 68.3055 46.5498 146.3449 0.0000 0.0000 0.0000
# 4 0.0000 0.0000 0.0000 31.9149 0.0000 0.0000
# 5 0.0000 0.0000 0.0000 0.0000 35.7823 0.0000
# 6 0.0000 0.0000 0.0000 0.0000 0.0000 15.2963
#
#
#
# Elastic Compliance Matrix: (Units=1/GPa)
#
#
# Indices 1 2 3 4 5 6 
#
# 1 0.022724 -0.002556 -0.009793 0.000000 0.000000 0.000000
# 2 -0.002556 0.022565 -0.005984 0.000000 0.000000 0.000000
# 3 -0.009793 -0.005984 0.013308 0.000000 0.000000 0.000000
# 4 0.000000 0.000000 0.000000 0.031333 0.000000 0.000000
# 5 0.000000 0.000000 0.000000 0.000000 0.027947 0.000000
# 6 0.000000 0.000000 0.000000 0.000000 0.000000 0.065375
#
#
# Mechanical properties :
#
#
# Convention : Reuss Voigt Hill
#
# Bulk Modulus (GPa) = 45.60182 62.86205 54.23194
# Shear Modulus (GPa) = 22.00418 25.98962 23.99690
#
# Velocity S-wave (km/s) = 3.40470 3.70020 3.55552
# Velocity P-wave (km/s) = 6.28326 7.16739 6.73984
#
# Compressibility (1/GPa) = 0.02192895
#
# Stress axis : x y z
#
# Youngs Moduli (GPa) = 44.00596 44.31649 75.14466
#
# Poissons Ratio (x) = 0.11328 0.73591
# Poissons Ratio (y) = 0.11249 0.44970
# Poissons Ratio (z) = 0.43096 0.26521
#
# Static dielectric constant tensor:
#      x y z
#    x 3.475140 0.000000 0.000000 
#    y 0.000000 3.202740 0.000000 
#    z 0.000000 0.000000 3.643210 
# 
# 
# High freq. dielectric constant tensor:
#      x y z
#    x 1.720790 0.000000 0.000000 
#    y 0.000000 1.707610 0.000000 
#    z 0.000000 0.000000 1.754060 
# 
# From -- ./inp_files/19238.got.cif
#   From: 2010.03.12/outbox.cif.g09.slc.cpg/sg44_10_cif.got.tgz:19238.got - 2010.04.14 02:36:11.
