data_PCOD8188171
_publ_section_title
;
Structure prediction by ZEFSAII (Michael W. Deem and Ramdas Pophale) SiO2 
 PCOD8188171
Probable space group: I M M 2
;
_chemical_formula_sum "Si O2"
_cell_formula_units_Z 48
_cell_length_a 23.862983
_cell_length_b 8.805253
_cell_length_c 13.879908
_cell_angle_alpha 90.000000
_cell_angle_beta 90.000000
_cell_angle_gamma 90.000000
_cell_volume 2916.440754
_symmetry_space_group_name_H-M "I M M 2"
_symmetry_group_IT_number 44
_symmetry_cell_setting 'orthorhombic'
loop_
_space_group_symop_operation_xyz
x,y,z
-x,-y,z
-x,y,z
x,-y,z
1/2+x,1/2+y,1/2+z
1/2-x,1/2-y,1/2+z
1/2-x,1/2+y,1/2+z
1/2+x,1/2-y,1/2+z
loop_
_atom_site_type_symbol
_atom_site_label
_atom_site_fract_x
_atom_site_fract_y
_atom_site_fract_z
Si Si1 0.166139 0.178299 0.954560
Si Si2 0.564368 0.176626 0.357606
Si Si3 0.227159 0.821966 0.141171
Si Si4 0.271837 0.319539 0.855263
Si Si5 0.833195 0.680778 0.524588
Si Si6 0.438472 0.180581 0.140344
O O1 0.103408 0.228696 0.929520
O O2 0.210670 0.263918 0.887523
O O3 0.174203 0.000000 0.937741
O O4 0.177206 0.220117 0.067000
O O5 0.500000 0.206092 0.386952
O O6 0.575345 0.235088 0.248756
O O7 0.579530 0.000000 0.367013
O O8 0.216525 0.755089 0.247474
O O9 0.233358 0.000000 0.152646
O O10 0.285546 0.760023 0.097822
O O11 0.273310 0.500000 0.860561
O O12 0.321787 0.252692 0.920358
O O13 0.832271 0.500000 0.514279
O O14 0.892530 0.741783 0.565085
O O15 0.500000 0.240830 0.108937
O O16 0.438590 0.000000 0.141596
#
# Coordination Sequence:
#
# PCOD8188171 Si02
#       6
#     8   8   8   8   8   8
#     4  10  19  31  46  66  91 117 147 181 219 261
#     4   9  17  30  48  69  91 116 147 180 215 259
#     4   8  16  29  44  61  85 118 147 174 214 267
#     4  10  18  30  47  65  87 117 151 182 218 261
#     4   9  16  28  45  66  90 113 143 183 222 259
#     4   8  14  26  46  68  90 120 151 175 210 266
#
# _framework density 16.458417000000001
#
# number of rings (size 3 to 8) (size 9 to 14) (size 15 to 20)
#    0.000    3.000    0.000    4.000    0.000    3.000 
#    0.000   12.500    0.000    2.500    0.000    4.667 
#    0.000    0.000    0.000    0.000    0.000    0.000 
#
# Total GULP energy -297475.037752 kJ/mol
# GULP energy per Si atom -12394.793240 kJ/mol
# Density = 1.642096 g / cm^3
# Si number density = 16.458417 Si / 1000 Ang^3
#
#
#
# Elastic Constant Matrix: (Units=GPa)
#
#
# Indices 1 2 3 4 5 6 
#
# 1 117.5241 26.2617 73.7250 0.0000 0.0000 0.0000
# 2 26.2617 37.8478 30.4506 0.0000 0.0000 0.0000
# 3 73.7250 30.4506 144.8613 0.0000 0.0000 0.0000
# 4 0.0000 0.0000 0.0000 23.0152 0.0000 0.0000
# 5 0.0000 0.0000 0.0000 0.0000 29.0169 0.0000
# 6 0.0000 0.0000 0.0000 0.0000 0.0000 22.4154
#
#
#
# Elastic Compliance Matrix: (Units=1/GPa)
#
#
# Indices 1 2 3 4 5 6 
#
# 1 0.013103 -0.004485 -0.005726 0.000000 0.000000 0.000000
# 2 -0.004485 0.033335 -0.004724 0.000000 0.000000 0.000000
# 3 -0.005726 -0.004724 0.010810 0.000000 0.000000 0.000000
# 4 0.000000 0.000000 0.000000 0.043449 0.000000 0.000000
# 5 0.000000 0.000000 0.000000 0.000000 0.034463 0.000000
# 6 0.000000 0.000000 0.000000 0.000000 0.000000 0.044612
#
#
# Mechanical properties :
#
#
# Convention : Reuss Voigt Hill
#
# Bulk Modulus (GPa) = 36.52658 62.34531 49.43595
# Shear Modulus (GPa) = 22.85514 26.20925 24.53219
#
# Velocity S-wave (km/s) = 3.73052 3.99488 3.86496
# Velocity P-wave (km/s) = 6.38726 7.69685 7.07243
#
# Compressibility (1/GPa) = 0.02737732
#
# Stress axis : x y z
#
# Youngs Moduli (GPa) = 76.31822 29.99859 92.50421
#
# Poissons Ratio (x) = 0.13455 0.52966
# Poissons Ratio (y) = 0.34230 0.43704
# Poissons Ratio (z) = 0.43698 0.14173
#
# Static dielectric constant tensor:
#      x y z
#    x 3.195900 0.000000 0.000000 
#    y 0.000000 2.818770 0.000000 
#    z 0.000000 0.000000 3.298780 
# 
# 
# High freq. dielectric constant tensor:
#      x y z
#    x 1.625350 0.000000 0.000000 
#    y 0.000000 1.609220 0.000000 
#    z 0.000000 0.000000 1.628100 
# 
# From -- ./inp_files/11152.got.cif
#   From: 2010.03.12/outbox.cif.g09.slc.cpg/sg44_6_cif.got.tgz:11152.got - 2010.04.14 02:36:11.
