data_PCOD8188619
_publ_section_title
;
Structure prediction by ZEFSAII (Michael W. Deem and Ramdas Pophale) SiO2 
 PCOD8188619
Probable space group: I M M 2
;
_chemical_formula_sum "Si O2"
_cell_formula_units_Z 64
_cell_length_a 9.072121
_cell_length_b 14.487588
_cell_length_c 27.539346
_cell_angle_alpha 90.000000
_cell_angle_beta 90.000000
_cell_angle_gamma 90.000000
_cell_volume 3619.583030
_symmetry_space_group_name_H-M "I M M 2"
_symmetry_group_IT_number 44
_symmetry_cell_setting 'orthorhombic'
loop_
_space_group_symop_operation_xyz
x,y,z
-x,-y,z
-x,y,z
x,-y,z
1/2+x,1/2+y,1/2+z
1/2-x,1/2-y,1/2+z
1/2-x,1/2+y,1/2+z
1/2+x,1/2-y,1/2+z
loop_
_atom_site_type_symbol
_atom_site_label
_atom_site_fract_x
_atom_site_fract_y
_atom_site_fract_z
Si Si1 0.669387 0.894427 0.549100
Si Si2 0.829182 0.400576 0.669795
Si Si3 0.824820 0.774973 0.358708
Si Si4 0.336330 0.854137 0.722846
Si Si5 0.174839 0.206553 0.631805
Si Si6 0.330465 0.397509 0.317271
Si Si7 0.660615 0.351281 0.759256
Si Si8 0.670008 0.105506 0.436523
O O1 0.500000 0.876284 0.563168
O O2 0.773134 0.825695 0.579037
O O3 0.695962 0.872784 0.492827
O O4 0.712315 0.000000 0.560504
O O5 0.794937 0.500000 0.643964
O O6 0.770118 0.313350 0.638871
O O7 0.765854 0.408707 0.724336
O O8 0.000000 0.385622 0.677332
O O9 0.751237 0.674289 0.352803
O O10 0.776669 0.841764 0.314014
O O11 0.771850 0.823262 0.407693
O O12 0.000000 0.760647 0.359260
O O13 0.500000 0.898752 0.717189
O O14 0.249016 0.860090 0.671902
O O15 0.243857 0.905135 0.764313
O O16 0.354688 0.749417 0.737449
O O17 0.000000 0.197828 0.635964
O O18 0.500000 0.366256 0.311002
O O19 0.320594 0.500000 0.340702
O O20 0.500000 0.399227 0.760384
O O21 0.500000 0.121336 0.422420
O O22 0.715751 0.000000 0.424936
#
# Coordination Sequence:
#
# PCOD8188619 Si02
#       8
#     8   8   8   8   8   8   8   8
#     4   9  19  36  55  74  97 125 158 200 252 305
#     4   9  18  31  46  67  97 132 166 198 234 279
#     4  10  20  33  51  75 103 134 166 203 249 300
#     4   9  17  30  47  67  95 130 165 202 244 289
#     4  10  19  31  50  74  99 129 166 207 248 294
#     4  10  20  33  50  73 102 136 173 211 247 287
#     4   8  16  29  43  64  93 124 159 196 232 272
#     4   9  19  36  56  76  98 126 161 203 254 308
#
# _framework density 17.681595000000002
#
# number of rings (size 3 to 8) (size 9 to 14) (size 15 to 20)
#    0.000    2.750    0.000    3.000    0.000    7.250 
#    0.000    3.750    0.000    0.750    0.000    3.500 
#    0.000    0.000    0.000    0.000    0.000    0.000 
#
# Total GULP energy -396602.618172 kJ/mol
# GULP energy per Si atom -12393.831818 kJ/mol
# Density = 1.764135 g / cm^3
# Si number density = 17.681595 Si / 1000 Ang^3
#
#
#
# Elastic Constant Matrix: (Units=GPa)
#
#
# Indices 1 2 3 4 5 6 
#
# 1 89.2296 47.2507 42.9469 0.0000 0.0000 0.0000
# 2 47.2507 95.8498 48.4972 0.0000 0.0000 0.0000
# 3 42.9469 48.4972 85.1248 0.0000 0.0000 0.0000
# 4 0.0000 0.0000 0.0000 22.2279 0.0000 0.0000
# 5 0.0000 0.0000 0.0000 0.0000 31.9392 0.0000
# 6 0.0000 0.0000 0.0000 0.0000 0.0000 14.8201
#
#
#
# Elastic Compliance Matrix: (Units=1/GPa)
#
#
# Indices 1 2 3 4 5 6 
#
# 1 0.016680 -0.005570 -0.005242 0.000000 0.000000 0.000000
# 2 -0.005570 0.016519 -0.006601 0.000000 0.000000 0.000000
# 3 -0.005242 -0.006601 0.018152 0.000000 0.000000 0.000000
# 4 0.000000 0.000000 0.000000 0.044989 0.000000 0.000000
# 5 0.000000 0.000000 0.000000 0.000000 0.031310 0.000000
# 6 0.000000 0.000000 0.000000 0.000000 0.000000 0.067476
#
#
# Mechanical properties :
#
#
# Convention : Reuss Voigt Hill
#
# Bulk Modulus (GPa) = 60.51256 60.84375 60.67815
# Shear Modulus (GPa) = 21.23517 22.56474 21.89995
#
# Velocity S-wave (km/s) = 3.46927 3.57623 3.52316
# Velocity P-wave (km/s) = 7.09546 7.17900 7.13735
#
# Compressibility (1/GPa) = 0.01652550
#
# Stress axis : x y z
#
# Youngs Moduli (GPa) = 59.95352 60.53725 55.08901
#
# Poissons Ratio (x) = 0.33722 0.28875
# Poissons Ratio (y) = 0.33396 0.36363
# Poissons Ratio (z) = 0.31425 0.39959
#
# Static dielectric constant tensor:
#      x y z
#    x 3.384610 0.000000 0.000000 
#    y 0.000000 3.315030 0.000000 
#    z 0.000000 0.000000 3.152640 
# 
# 
# High freq. dielectric constant tensor:
#      x y z
#    x 1.690100 0.000000 0.000000 
#    y 0.000000 1.678970 0.000000 
#    z 0.000000 0.000000 1.658230 
# 
# From -- ./inp_files/25145.got.cif
#   From: 2010.03.12/outbox.cif.g09.slc.cpg/sg44_13_cif.got.tgz:25145.got - 2010.04.14 02:36:11.
