data_PCOD8188048
_publ_section_title
;
Structure prediction by ZEFSAII (Michael W. Deem and Ramdas Pophale) SiO2 
 PCOD8188048
Probable space group: I M M 2
;
_chemical_formula_sum "Si O2"
_cell_formula_units_Z 56
_cell_length_a 29.396242
_cell_length_b 8.628804
_cell_length_c 13.648367
_cell_angle_alpha 90.000000
_cell_angle_beta 90.000000
_cell_angle_gamma 90.000000
_cell_volume 3461.968486
_symmetry_space_group_name_H-M "I M M 2"
_symmetry_group_IT_number 44
_symmetry_cell_setting 'orthorhombic'
loop_
_space_group_symop_operation_xyz
x,y,z
-x,-y,z
-x,y,z
x,-y,z
1/2+x,1/2+y,1/2+z
1/2-x,1/2-y,1/2+z
1/2-x,1/2+y,1/2+z
1/2+x,1/2-y,1/2+z
loop_
_atom_site_type_symbol
_atom_site_label
_atom_site_fract_x
_atom_site_fract_y
_atom_site_fract_z
Si Si1 0.000000 0.684236 0.988430
Si Si2 0.765084 0.681276 0.490534
Si Si3 0.266637 0.821028 0.209657
Si Si4 0.817738 0.318263 0.305090
Si Si5 0.500000 0.316743 0.705826
Si Si6 0.907569 0.684350 0.205004
Si Si7 0.591876 0.317498 0.488725
Si Si8 0.321086 0.819007 0.397282
O O1 0.953670 0.745689 0.937723
O O2 0.000000 0.500000 0.993595
O O3 0.000000 0.759423 0.095076
O O4 0.754649 0.500000 0.474392
O O5 0.783739 0.714742 0.599609
O O6 0.803391 0.740483 0.413717
O O7 0.718449 0.773842 0.473460
O O8 0.220550 0.727217 0.227008
O O9 0.305697 0.773810 0.286849
O O10 0.254135 0.000000 0.223721
O O11 0.822501 0.500000 0.304969
O O12 0.866409 0.250223 0.272123
O O13 0.500000 0.500000 0.712907
O O14 0.453963 0.249500 0.754364
O O15 0.909727 0.500000 0.201493
O O16 0.899800 0.744681 0.095248
O O17 0.586117 0.500000 0.499776
O O18 0.633837 0.278251 0.418549
O O19 0.331900 0.000000 0.408272
#
# Coordination Sequence:
#
# PCOD8188048 Si02
#       8
#     4   8   8   8   4   8   8   8
#     4  10  18  30  46  64  87 114 141 176 215 256
#     4   9  17  31  46  63  86 115 146 181 218 255
#     4   9  18  30  45  62  86 115 145 179 215 252
#     4   9  18  29  44  64  87 113 145 178 214 256
#     4  10  18  28  42  62  87 116 145 176 211 256
#     4  10  18  29  44  64  89 117 144 177 215 256
#     4  11  20  30  44  64  89 118 146 176 211 255
#     4  10  19  30  43  64  88 115 147 179 214 256
#
# _framework density 16.175768000000001
#
# number of rings (size 3 to 8) (size 9 to 14) (size 15 to 20)
#    0.000    2.286    0.000    6.000    0.000    4.571 
#    0.000    0.000    0.000    0.000    0.000    1.000 
#    0.000    4.571    0.000    0.000    0.000    0.000 
#
# Total GULP energy -347103.956588 kJ/mol
# GULP energy per Si atom -12396.569878 kJ/mol
# Density = 1.613895 g / cm^3
# Si number density = 16.175768 Si / 1000 Ang^3
#
#
#
# Elastic Constant Matrix: (Units=GPa)
#
#
# Indices 1 2 3 4 5 6 
#
# 1 145.0005 35.9592 50.0723 0.0000 0.0000 0.0000
# 2 35.9592 68.9520 17.0053 0.0000 0.0000 0.0000
# 3 50.0723 17.0053 83.6918 0.0000 0.0000 0.0000
# 4 0.0000 0.0000 0.0000 13.4219 0.0000 0.0000
# 5 0.0000 0.0000 0.0000 0.0000 22.3284 0.0000
# 6 0.0000 0.0000 0.0000 0.0000 0.0000 26.5723
#
#
#
# Elastic Compliance Matrix: (Units=1/GPa)
#
#
# Indices 1 2 3 4 5 6 
#
# 1 0.009534 -0.003753 -0.004941 0.000000 0.000000 0.000000
# 2 -0.003753 0.016746 -0.001157 0.000000 0.000000 0.000000
# 3 -0.004941 -0.001157 0.015140 0.000000 0.000000 0.000000
# 4 0.000000 0.000000 0.000000 0.074505 0.000000 0.000000
# 5 0.000000 0.000000 0.000000 0.000000 0.044786 0.000000
# 6 0.000000 0.000000 0.000000 0.000000 0.000000 0.037633
#
#
# Mechanical properties :
#
#
# Convention : Reuss Voigt Hill
#
# Bulk Modulus (GPa) = 46.04863 55.96867 51.00865
# Shear Modulus (GPa) = 22.19405 25.43834 23.81620
#
# Velocity S-wave (km/s) = 3.70815 3.96993 3.84127
# Velocity P-wave (km/s) = 6.84567 7.46252 7.16074
#
# Compressibility (1/GPa) = 0.02171617
#
# Stress axis : x y z
#
# Youngs Moduli (GPa) = 104.89139 59.71742 66.04997
#
# Poissons Ratio (x) = 0.22413 0.32637
# Poissons Ratio (y) = 0.39368 0.07642
# Poissons Ratio (z) = 0.51830 0.06909
#
# Static dielectric constant tensor:
#      x y z
#    x 3.608600 0.000000 0.000000 
#    y 0.000000 3.101190 0.000000 
#    z 0.000000 0.000000 2.979750 
# 
# 
# High freq. dielectric constant tensor:
#      x y z
#    x 1.623870 0.000000 0.000000 
#    y 0.000000 1.632040 0.000000 
#    z 0.000000 0.000000 1.586390 
# 
# From -- ./inp_files/19677.got.cif
#   From: 2010.03.12/outbox.cif.g09.slc.cpg/sg44_10_cif.got.tgz:19677.got - 2010.04.14 02:36:11.
