data_PCOD8188453
_publ_section_title
;
Structure prediction by ZEFSAII (Michael W. Deem and Ramdas Pophale) SiO2 
 PCOD8188453
Probable space group: I M M 2
;
_chemical_formula_sum "Si O2"
_cell_formula_units_Z 56
_cell_length_a 13.633065
_cell_length_b 8.962469
_cell_length_c 29.036885
_cell_angle_alpha 90.000000
_cell_angle_beta 90.000000
_cell_angle_gamma 90.000000
_cell_volume 3547.898578
_symmetry_space_group_name_H-M "I M M 2"
_symmetry_group_IT_number 44
_symmetry_cell_setting 'orthorhombic'
loop_
_space_group_symop_operation_xyz
x,y,z
-x,-y,z
-x,y,z
x,-y,z
1/2+x,1/2+y,1/2+z
1/2-x,1/2-y,1/2+z
1/2-x,1/2+y,1/2+z
1/2+x,1/2-y,1/2+z
loop_
_atom_site_type_symbol
_atom_site_label
_atom_site_fract_x
_atom_site_fract_y
_atom_site_fract_z
Si Si1 0.700591 0.323276 0.440850
Si Si2 0.384879 0.172046 0.353804
Si Si3 0.387254 0.827861 0.527319
Si Si4 0.220284 0.323525 0.579202
Si Si5 0.392769 0.824004 0.989579
Si Si6 0.116188 0.164540 0.763874
Si Si7 0.112542 0.824299 0.661504
O O1 0.687507 0.500000 0.444648
O O2 0.674697 0.269536 0.390091
O O3 0.628692 0.248718 0.477830
O O4 0.812990 0.274021 0.451552
O O5 0.500000 0.203635 0.360113
O O6 0.348643 0.220020 0.302916
O O7 0.359499 0.000000 0.361197
O O8 0.500000 0.810454 0.541443
O O9 0.324973 0.749265 0.567468
O O10 0.356294 0.000000 0.523130
O O11 0.233902 0.500000 0.580520
O O12 0.143094 0.272913 0.540040
O O13 0.182861 0.266398 0.627989
O O14 0.500000 0.751834 0.979370
O O15 0.402507 0.000000 0.988972
O O16 0.149460 0.217179 0.713067
O O17 0.000000 0.153580 0.763085
O O18 0.159293 0.000000 0.774998
O O19 0.000000 0.773808 0.653970
O O20 0.123020 0.000000 0.652678
#
# Coordination Sequence:
#
# PCOD8188453 Si02
#       7
#     8   8   8   8   8   8   8
#     4  10  19  29  45  67  88 115 148 180 219 265
#     4  10  19  29  42  62  89 119 148 180 219 262
#     4  10  20  33  47  63  87 118 150 186 224 261
#     4  10  19  29  45  68  91 118 150 182 219 263
#     4   8  15  28  43  61  86 113 143 178 211 247
#     4   8  15  28  44  62  86 116 148 181 217 258
#     4   9  17  29  45  66  93 122 149 180 220 264
#
# _framework density 15.783991
#
# number of rings (size 3 to 8) (size 9 to 14) (size 15 to 20)
#    0.000    2.714    0.000    4.286    0.000    5.143 
#    0.000    1.429    0.000    8.571    0.000    1.000 
#    0.000    3.429    0.000    0.000    0.000    0.000 
#
# Total GULP energy -347117.213412 kJ/mol
# GULP energy per Si atom -12397.043336 kJ/mol
# Density = 1.574807 g / cm^3
# Si number density = 15.783991 Si / 1000 Ang^3
#
#
#
# Elastic Constant Matrix: (Units=GPa)
#
#
# Indices 1 2 3 4 5 6 
#
# 1 81.1489 41.1869 47.9662 0.0000 0.0000 0.0000
# 2 41.1869 79.3834 50.7745 0.0000 0.0000 0.0000
# 3 47.9662 50.7745 116.4317 0.0000 0.0000 0.0000
# 4 0.0000 0.0000 0.0000 28.9302 0.0000 0.0000
# 5 0.0000 0.0000 0.0000 0.0000 22.5865 0.0000
# 6 0.0000 0.0000 0.0000 0.0000 0.0000 18.9839
#
#
#
# Elastic Compliance Matrix: (Units=1/GPa)
#
#
# Indices 1 2 3 4 5 6 
#
# 1 0.018447 -0.006532 -0.004751 0.000000 0.000000 0.000000
# 2 -0.006532 0.019783 -0.005936 0.000000 0.000000 0.000000
# 3 -0.004751 -0.005936 0.013135 0.000000 0.000000 0.000000
# 4 0.000000 0.000000 0.000000 0.034566 0.000000 0.000000
# 5 0.000000 0.000000 0.000000 0.000000 0.044274 0.000000
# 6 0.000000 0.000000 0.000000 0.000000 0.000000 0.052676
#
#
# Mechanical properties :
#
#
# Convention : Reuss Voigt Hill
#
# Bulk Modulus (GPa) = 59.08042 61.86881 60.47461
# Shear Modulus (GPa) = 22.42549 23.23587 22.83068
#
# Velocity S-wave (km/s) = 3.77341 3.84098 3.80734
# Velocity P-wave (km/s) = 7.51642 7.67809 7.59769
#
# Compressibility (1/GPa) = 0.01692608
#
# Stress axis : x y z
#
# Youngs Moduli (GPa) = 54.21080 50.54853 76.13468
#
# Poissons Ratio (x) = 0.33018 0.36170
# Poissons Ratio (y) = 0.35411 0.45195
# Poissons Ratio (z) = 0.25755 0.30006
#
# Static dielectric constant tensor:
#      x y z
#    x 2.955290 0.000000 0.000000 
#    y 0.000000 2.992050 0.000000 
#    z 0.000000 0.000000 3.070920 
# 
# 
# High freq. dielectric constant tensor:
#      x y z
#    x 1.576850 0.000000 0.000000 
#    y 0.000000 1.607480 0.000000 
#    z 0.000000 0.000000 1.602210 
# 
# From -- ./inp_files/27223.got.cif
#   From: 2010.03.12/outbox.cif.g09.slc.cpg/sg44_14_cif.got.tgz:27223.got - 2010.04.14 02:36:11.
