data_PCOD8188115
_publ_section_title
;
Structure prediction by ZEFSAII (Michael W. Deem and Ramdas Pophale) SiO2 
 PCOD8188115
Probable space group: I M M 2
;
_chemical_formula_sum "Si O2"
_cell_formula_units_Z 64
_cell_length_a 26.238953
_cell_length_b 8.727009
_cell_length_c 18.225747
_cell_angle_alpha 90.000000
_cell_angle_beta 90.000000
_cell_angle_gamma 90.000000
_cell_volume 4173.469681
_symmetry_space_group_name_H-M "I M M 2"
_symmetry_group_IT_number 44
_symmetry_cell_setting 'orthorhombic'
loop_
_space_group_symop_operation_xyz
x,y,z
-x,-y,z
-x,y,z
x,-y,z
1/2+x,1/2+y,1/2+z
1/2-x,1/2-y,1/2+z
1/2-x,1/2+y,1/2+z
1/2+x,1/2-y,1/2+z
loop_
_atom_site_type_symbol
_atom_site_label
_atom_site_fract_x
_atom_site_fract_y
_atom_site_fract_z
Si Si1 0.206150 0.676965 0.631570
Si Si2 0.058527 0.676293 0.263098
Si Si3 0.200856 0.678493 0.050856
Si Si4 0.742190 0.675418 0.774853
Si Si5 0.646339 0.678120 0.676466
Si Si6 0.242285 0.320796 0.428366
Si Si7 0.851476 0.179883 0.513712
Si Si8 0.441510 0.822736 0.931175
O O1 0.216679 0.500000 0.610262
O O2 0.248809 0.785408 0.596953
O O3 0.209196 0.695091 0.719732
O O4 0.154017 0.736143 0.593633
O O5 0.074169 0.500000 0.252337
O O6 0.091923 0.780809 0.210054
O O7 0.067763 0.725702 0.347014
O O8 0.000000 0.702366 0.241296
O O9 0.194745 0.500000 0.035792
O O10 0.152629 0.737511 0.097935
O O11 0.207524 0.763377 0.972459
O O12 0.737650 0.500000 0.801679
O O13 0.690722 0.726688 0.733095
O O14 0.750992 0.785167 0.843220
O O15 0.649888 0.500000 0.659871
O O16 0.234856 0.500000 0.439333
O O17 0.191314 0.237567 0.456819
O O18 0.907089 0.218142 0.482931
O O19 0.846005 0.000000 0.524491
O O20 0.500000 0.793709 0.953045
O O21 0.426993 0.000000 0.942026
#
# Coordination Sequence:
#
# PCOD8188115 Si02
#       8
#     8   8   8   8   8   8   8   8
#     4   9  17  30  45  60  82 110 141 176 211 250
#     4   9  18  31  45  62  84 111 145 182 216 250
#     4  10  18  29  44  60  82 110 141 176 212 250
#     4   9  18  30  43  62  86 111 141 177 213 251
#     4  10  19  30  44  62  85 113 145 177 212 254
#     4  11  20  29  43  62  86 114 144 176 210 252
#     4  11  20  29  43  62  86 114 145 178 212 253
#     4   9  18  32  47  62  83 112 146 182 216 250
#
# _framework density 15.334962000000001
#
# number of rings (size 3 to 8) (size 9 to 14) (size 15 to 20)
#    0.000    2.250    0.000    7.875    0.000    6.000 
#    0.000    1.250    0.000    0.000    0.000    0.000 
#    0.000    1.000    0.000    8.750    0.000    4.875 
#
# Total GULP energy -396699.580484 kJ/mol
# GULP energy per Si atom -12396.861890 kJ/mol
# Density = 1.530006 g / cm^3
# Si number density = 15.334962 Si / 1000 Ang^3
#
#
#
# Elastic Constant Matrix: (Units=GPa)
#
#
# Indices 1 2 3 4 5 6 
#
# 1 61.4418 27.0434 39.0642 0.0000 0.0000 0.0000
# 2 27.0434 79.4352 38.8907 0.0000 0.0000 0.0000
# 3 39.0642 38.8907 85.6889 0.0000 0.0000 0.0000
# 4 0.0000 0.0000 0.0000 26.1196 0.0000 0.0000
# 5 0.0000 0.0000 0.0000 0.0000 27.1575 0.0000
# 6 0.0000 0.0000 0.0000 0.0000 0.0000 22.9410
#
#
#
# Elastic Compliance Matrix: (Units=1/GPa)
#
#
# Indices 1 2 3 4 5 6 
#
# 1 0.023680 -0.003570 -0.009175 0.000000 0.000000 0.000000
# 2 -0.003570 0.016723 -0.005963 0.000000 0.000000 0.000000
# 3 -0.009175 -0.005963 0.018559 0.000000 0.000000 0.000000
# 4 0.000000 0.000000 0.000000 0.038285 0.000000 0.000000
# 5 0.000000 0.000000 0.000000 0.000000 0.036822 0.000000
# 6 0.000000 0.000000 0.000000 0.000000 0.000000 0.043590
#
#
# Mechanical properties :
#
#
# Convention : Reuss Voigt Hill
#
# Bulk Modulus (GPa) = 46.40909 48.50695 47.45802
# Shear Modulus (GPa) = 22.49629 23.34814 22.92221
#
# Velocity S-wave (km/s) = 3.83429 3.90621 3.87042
# Velocity P-wave (km/s) = 7.06623 7.21422 7.14061
#
# Compressibility (1/GPa) = 0.02154750
#
# Stress axis : x y z
#
# Youngs Moduli (GPa) = 42.22905 59.79619 53.88145
#
# Poissons Ratio (x) = 0.21346 0.49438
# Poissons Ratio (y) = 0.15075 0.32128
# Poissons Ratio (z) = 0.38747 0.35655
#
# Static dielectric constant tensor:
#      x y z
#    x 2.781330 0.000000 0.000000 
#    y 0.000000 2.951330 0.000000 
#    z 0.000000 0.000000 3.095810 
# 
# 
# High freq. dielectric constant tensor:
#      x y z
#    x 1.549870 0.000000 0.000000 
#    y 0.000000 1.600410 0.000000 
#    z 0.000000 0.000000 1.577830 
# 
# From -- ./inp_files/22354.got.cif
#   From: 2010.03.12/outbox.cif.g09.slc.cpg/sg44_12_cif.got.tgz:22354.got - 2010.04.14 02:36:11.
