data_PCOD8188889
_publ_section_title
;
Structure prediction by ZEFSAII (Michael W. Deem and Ramdas Pophale) SiO2 
 PCOD8188889
Probable space group: I M M 2
;
_chemical_formula_sum "Si O2"
_cell_formula_units_Z 64
_cell_length_a 8.861700
_cell_length_b 29.541034
_cell_length_c 12.870555
_cell_angle_alpha 90.000000
_cell_angle_beta 90.000000
_cell_angle_gamma 90.000000
_cell_volume 3369.302551
_symmetry_space_group_name_H-M "I M M 2"
_symmetry_group_IT_number 44
_symmetry_cell_setting 'orthorhombic'
loop_
_space_group_symop_operation_xyz
x,y,z
-x,-y,z
-x,y,z
x,-y,z
1/2+x,1/2+y,1/2+z
1/2-x,1/2-y,1/2+z
1/2-x,1/2+y,1/2+z
1/2+x,1/2-y,1/2+z
loop_
_atom_site_type_symbol
_atom_site_label
_atom_site_fract_x
_atom_site_fract_y
_atom_site_fract_z
Si Si1 0.822156 0.880801 0.622080
Si Si2 0.679074 0.876836 0.181012
Si Si3 0.331229 0.215755 0.084989
Si Si4 0.678769 0.948442 0.014654
Si Si5 0.321265 0.856839 0.411640
Si Si6 0.676634 0.551789 0.300614
Si Si7 0.830661 0.762323 0.386517
Si Si8 0.823535 0.709263 0.190043
O O1 0.746458 0.885252 0.508179
O O2 0.771491 0.921971 0.696706
O O3 0.770228 0.836403 0.683061
O O4 0.000000 0.879590 0.604734
O O5 0.500000 0.876559 0.175201
O O6 0.740436 0.830514 0.128688
O O7 0.732245 0.879119 0.301553
O O8 0.740894 0.918769 0.112146
O O9 0.500000 0.223209 0.132447
O O10 0.219293 0.258442 0.095562
O O11 0.339238 0.217977 0.960612
O O12 0.500000 0.945004 0.008036
O O13 0.743120 0.929807 0.905269
O O14 0.732606 0.000000 0.033930
O O15 0.500000 0.858494 0.421775
O O16 0.271081 0.804785 0.420357
O O17 0.500000 0.557969 0.318863
O O18 0.723145 0.500000 0.281855
O O19 0.762963 0.740411 0.283490
O O20 0.000000 0.781641 0.369656
O O21 0.000000 0.697674 0.194553
#
# Coordination Sequence:
#
# PCOD8188889 Si02
#       8
#     8   8   8   8   8   8   8   8
#     4  11  23  38  56  79 109 147 184 225 278 327
#     4   9  19  34  54  80 111 145 179 219 272 326
#     4  10  19  34  52  71 103 148 184 218 268 321
#     4   9  18  35  61  88 112 140 175 219 274 332
#     4  11  21  35  55  78 107 147 189 228 268 317
#     4   9  20  40  62  83 109 140 176 222 275 328
#     4  10  21  34  50  73 106 146 182 223 271 318
#     4  11  22  34  51  79 109 142 184 227 266 318
#
# _framework density 18.995028000000001
#
# number of rings (size 3 to 8) (size 9 to 14) (size 15 to 20)
#    0.000    2.000    2.500    1.125    1.750    1.500 
#    0.000    2.500    0.000    0.750    0.000    0.000 
#    0.000    0.000    0.000    0.000    0.000    0.000 
#
# Total GULP energy -396541.063892 kJ/mol
# GULP energy per Si atom -12391.908247 kJ/mol
# Density = 1.895179 g / cm^3
# Si number density = 18.995028 Si / 1000 Ang^3
#
#
#
# Elastic Constant Matrix: (Units=GPa)
#
#
# Indices 1 2 3 4 5 6 
#
# 1 45.6890 27.2123 41.1070 0.0001 0.0000 0.0000
# 2 27.2123 100.4913 72.6722 0.0000 0.0000 0.0000
# 3 41.1070 72.6722 144.5290 0.0005 -0.0001 0.0001
# 4 0.0001 0.0000 0.0005 39.8976 0.0000 0.0001
# 5 0.0000 0.0000 -0.0001 0.0000 25.2233 0.0001
# 6 0.0000 0.0000 0.0001 0.0001 0.0001 17.4213
#
#
#
# Elastic Compliance Matrix: (Units=1/GPa)
#
#
# Indices 1 2 3 4 5 6 
#
# 1 0.030005 -0.003070 -0.006990 0.000000 0.000000 0.000000
# 2 -0.003070 0.015951 -0.007147 0.000000 0.000000 0.000000
# 3 -0.006990 -0.007147 0.012501 0.000000 0.000000 0.000000
# 4 0.000000 0.000000 0.000000 0.025064 0.000000 0.000000
# 5 0.000000 0.000000 0.000000 0.000000 0.039646 0.000000
# 6 0.000000 0.000000 0.000000 0.000000 0.000000 0.057401
#
#
# Mechanical properties :
#
#
# Convention : Reuss Voigt Hill
#
# Bulk Modulus (GPa) = 41.59431 63.63246 52.61338
# Shear Modulus (GPa) = 22.42177 26.48963 24.45570
#
# Velocity S-wave (km/s) = 3.43943 3.73843 3.59204
# Velocity P-wave (km/s) = 6.14149 7.22542 6.70539
#
# Compressibility (1/GPa) = 0.02404175
#
# Stress axis : x y z
#
# Youngs Moduli (GPa) = 33.32798 62.69102 79.99264
#
# Poissons Ratio (x) = 0.19245 0.55918
# Poissons Ratio (y) = 0.10231 0.57175
# Poissons Ratio (z) = 0.23298 0.44808
#
# Static dielectric constant tensor:
#      x y z
#    x 3.329050 0.000000 0.000000 
#    y 0.000000 3.462050 0.000000 
#    z 0.000000 0.000000 3.792560 
# 
# 
# High freq. dielectric constant tensor:
#      x y z
#    x 1.723630 0.000000 0.000000 
#    y 0.000000 1.719370 0.000000 
#    z 0.000000 0.000000 1.754300 
# 
# From -- ./inp_files/11534.got.cif
#   From: 2010.03.12/outbox.cif.g09.slc.cpg/sg44_6_cif.got.tgz:11534.got - 2010.04.14 02:36:11.
