data_PCOD8188821
_publ_section_title
;
Structure prediction by ZEFSAII (Michael W. Deem and Ramdas Pophale) SiO2 
 PCOD8188821
Probable space group: I M M 2
;
_chemical_formula_sum "Si O2"
_cell_formula_units_Z 64
_cell_length_a 9.074474
_cell_length_b 27.025209
_cell_length_c 13.080508
_cell_angle_alpha 90.000000
_cell_angle_beta 90.000000
_cell_angle_gamma 90.000000
_cell_volume 3207.857980
_symmetry_space_group_name_H-M "I M M 2"
_symmetry_group_IT_number 44
_symmetry_cell_setting 'orthorhombic'
loop_
_space_group_symop_operation_xyz
x,y,z
-x,-y,z
-x,y,z
x,-y,z
1/2+x,1/2+y,1/2+z
1/2-x,1/2-y,1/2+z
1/2-x,1/2+y,1/2+z
1/2+x,1/2-y,1/2+z
loop_
_atom_site_type_symbol
_atom_site_label
_atom_site_fract_x
_atom_site_fract_y
_atom_site_fract_z
Si Si1 0.172221 0.558110 0.042070
Si Si2 0.828028 0.780741 0.638418
Si Si3 0.175655 0.122295 0.951809
Si Si4 0.824841 0.055434 0.136756
Si Si5 0.175046 0.114645 0.721811
Si Si6 0.661940 0.268857 0.476317
Si Si7 0.174322 0.106004 0.346438
Si Si8 0.662802 0.798167 0.292634
O O1 0.200091 0.500000 0.032087
O O2 0.244199 0.576099 0.147763
O O3 0.000000 0.571350 0.042476
O O4 0.247030 0.584407 0.945633
O O5 0.769998 0.829906 0.694653
O O6 0.753408 0.775330 0.528557
O O7 0.784186 0.727652 0.688160
O O8 0.000000 0.786225 0.623718
O O9 0.223979 0.103524 0.839006
O O10 0.238813 0.177118 0.975229
O O11 0.000000 0.125320 0.953509
O O12 0.238005 0.086136 0.040057
O O13 0.771297 0.077498 0.244766
O O14 0.000000 0.056044 0.132929
O O15 0.762656 0.000000 0.127618
O O16 0.000000 0.108640 0.707754
O O17 0.500000 0.272451 0.527371
O O18 0.648176 0.250866 0.360821
O O19 0.217634 0.163038 0.331695
O O20 0.000000 0.101711 0.362548
O O21 0.500000 0.823253 0.282941
#
# Coordination Sequence:
#
# PCOD8188821 Si02
#       8
#     8   8   8   8   8   8   8   8
#     4  11  25  43  61  83 115 156 198 244 303 362
#     4  10  20  34  52  80 116 152 188 232 281 335
#     4   9  17  33  56  82 115 150 186 231 286 344
#     4   9  18  32  53  83 114 142 179 235 295 342
#     4  10  20  37  61  87 117 152 195 244 289 342
#     4  10  19  33  53  77 108 149 187 226 277 334
#     4  11  22  37  59  88 118 148 193 248 294 344
#     4  10  20  35  54  78 114 154 185 219 281 346
#
# _framework density 19.951008999999999
#
# number of rings (size 3 to 8) (size 9 to 14) (size 15 to 20)
#    0.000    2.000    1.250    2.625    0.000    6.500 
#    0.000    1.875    0.000    1.500    0.000    1.750 
#    0.000    0.000    0.000    0.000    0.000    0.000 
#
# Total GULP energy -396671.818802 kJ/mol
# GULP energy per Si atom -12395.994338 kJ/mol
# Density = 1.990560 g / cm^3
# Si number density = 19.951009 Si / 1000 Ang^3
#
#
#
# Elastic Constant Matrix: (Units=GPa)
#
#
# Indices 1 2 3 4 5 6 
#
# 1 38.9896 22.2253 17.6811 0.0000 0.0000 0.0000
# 2 22.2253 89.1792 19.4940 0.0003 0.0001 0.0001
# 3 17.6811 19.4940 93.5355 -0.0002 0.0001 0.0000
# 4 0.0000 0.0003 -0.0002 32.8728 0.0000 0.0000
# 5 0.0000 0.0001 0.0001 0.0000 21.6365 -0.0001
# 6 0.0000 0.0001 0.0000 0.0000 -0.0001 25.5705
#
#
#
# Elastic Compliance Matrix: (Units=1/GPa)
#
#
# Indices 1 2 3 4 5 6 
#
# 1 0.031637 -0.006891 -0.004544 0.000000 0.000000 0.000000
# 2 -0.006891 0.013250 -0.001459 0.000000 0.000000 0.000000
# 3 -0.004544 -0.001459 0.011854 0.000000 0.000000 0.000000
# 4 0.000000 0.000000 0.000000 0.030420 0.000000 0.000000
# 5 0.000000 0.000000 0.000000 0.000000 0.046218 0.000000
# 6 0.000000 0.000000 0.000000 0.000000 0.000000 0.039108
#
#
# Mechanical properties :
#
#
# Convention : Reuss Voigt Hill
#
# Bulk Modulus (GPa) = 32.30766 37.83389 35.07077
# Shear Modulus (GPa) = 23.97021 26.83622 25.40321
#
# Velocity S-wave (km/s) = 3.46996 3.67155 3.57218
# Velocity P-wave (km/s) = 5.68180 6.08097 5.88477
#
# Compressibility (1/GPa) = 0.03095241
#
# Stress axis : x y z
#
# Youngs Moduli (GPa) = 31.60880 75.47348 84.35876
#
# Poissons Ratio (x) = 0.52010 0.38334
# Poissons Ratio (y) = 0.21782 0.12306
# Poissons Ratio (z) = 0.14363 0.11010
#
# Static dielectric constant tensor:
#      x y z
#    x 3.309100 0.000000 0.000000 
#    y 0.000000 3.662030 0.000000 
#    z 0.000000 0.000000 3.768220 
# 
# 
# High freq. dielectric constant tensor:
#      x y z
#    x 1.742660 0.000000 0.000000 
#    y 0.000000 1.782150 0.000000 
#    z 0.000000 0.000000 1.793900 
# 
# From -- ./inp_files/11510.got.cif
#   From: 2010.03.12/outbox.cif.g09.slc.cpg/sg44_6_cif.got.tgz:11510.got - 2010.04.14 02:36:11.
