data_PCOD8188781
_publ_section_title
;
Structure prediction by ZEFSAII (Michael W. Deem and Ramdas Pophale) SiO2 
 PCOD8188781
Probable space group: I M M 2
;
_chemical_formula_sum "Si O2"
_cell_formula_units_Z 64
_cell_length_a 9.323333
_cell_length_b 28.812636
_cell_length_c 12.526022
_cell_angle_alpha 90.000000
_cell_angle_beta 90.000000
_cell_angle_gamma 90.000000
_cell_volume 3364.862785
_symmetry_space_group_name_H-M "I M M 2"
_symmetry_group_IT_number 44
_symmetry_cell_setting 'orthorhombic'
loop_
_space_group_symop_operation_xyz
x,y,z
-x,-y,z
-x,y,z
x,-y,z
1/2+x,1/2+y,1/2+z
1/2-x,1/2-y,1/2+z
1/2-x,1/2+y,1/2+z
1/2+x,1/2-y,1/2+z
loop_
_atom_site_type_symbol
_atom_site_label
_atom_site_fract_x
_atom_site_fract_y
_atom_site_fract_z
Si Si1 0.160418 0.050125 0.063570
Si Si2 0.666295 0.917201 0.242780
Si Si3 0.667335 0.109226 0.476049
Si Si4 0.331164 0.054167 0.688660
Si Si5 0.336139 0.300000 0.921542
Si Si6 0.841634 0.168226 0.190495
Si Si7 0.162097 0.790854 0.961186
Si Si8 0.330559 0.610988 0.370272
O O1 0.250526 0.044830 0.173125
O O2 0.000000 0.064819 0.095199
O O3 0.163644 0.000000 0.006746
O O4 0.223063 0.086961 0.979621
O O5 0.500000 0.924813 0.224648
O O6 0.706226 0.919063 0.368062
O O7 0.715568 0.868967 0.190772
O O8 0.500000 0.122678 0.477205
O O9 0.707839 0.075077 0.572737
O O10 0.755089 0.157294 0.479483
O O11 0.500000 0.057356 0.710568
O O12 0.251782 0.087183 0.772797
O O13 0.281212 0.000000 0.694517
O O14 0.500000 0.302204 0.961000
O O15 0.323057 0.300157 0.794138
O O16 0.270498 0.250922 0.950173
O O17 0.000000 0.144416 0.193243
O O18 0.826756 0.198166 0.085467
O O19 0.205446 0.834374 0.884644
O O20 0.000000 0.775703 0.931893
O O21 0.500000 0.602916 0.353873
#
# Coordination Sequence:
#
# PCOD8188781 Si02
#       8
#     8   8   8   8   8   8   8   8
#     4  10  20  35  55  79 111 148 181 219 277 343
#     4  10  19  32  55  83 108 137 179 233 281 327
#     4   9  20  39  59  80 113 155 192 230 288 351
#     4  10  22  40  61  84 115 157 200 245 296 350
#     4  10  21  35  56  86 114 144 190 245 289 335
#     4   9  18  36  56  73 104 148 183 219 278 345
#     4  10  20  36  58  80 110 152 192 231 287 354
#     4  10  21  38  59  82 111 150 194 238 285 343
#
# _framework density 19.020092999999999
#
# number of rings (size 3 to 8) (size 9 to 14) (size 15 to 20)
#    0.000    2.250    1.250    1.125    0.000    5.500 
#    0.000    5.000    0.000    0.000    0.000    0.000 
#    0.000    0.000    0.000    0.000    0.000    0.000 
#
# Total GULP energy -396587.977147 kJ/mol
# GULP energy per Si atom -12393.374286 kJ/mol
# Density = 1.897680 g / cm^3
# Si number density = 19.020093 Si / 1000 Ang^3
#
#
#
# Elastic Constant Matrix: (Units=GPa)
#
#
# Indices 1 2 3 4 5 6 
#
# 1 64.1475 34.3935 45.3219 -0.0008 -0.0001 0.0000
# 2 34.3935 93.5636 40.7698 -0.0017 0.0001 -0.0001
# 3 45.3219 40.7698 103.1131 -0.0004 -0.0007 -0.0008
# 4 -0.0008 -0.0017 -0.0004 22.7923 0.0000 -0.0005
# 5 -0.0001 0.0001 -0.0007 0.0000 30.7508 -0.0001
# 6 0.0000 -0.0001 -0.0008 -0.0005 -0.0001 26.5317
#
#
#
# Elastic Compliance Matrix: (Units=1/GPa)
#
#
# Indices 1 2 3 4 5 6 
#
# 1 0.024556 -0.005224 -0.008728 0.000000 0.000000 0.000000
# 2 -0.005224 0.014024 -0.003249 0.000001 0.000000 0.000000
# 3 -0.008728 -0.003249 0.014819 0.000000 0.000000 0.000000
# 4 0.000000 0.000001 0.000000 0.043874 0.000000 0.000001
# 5 0.000000 0.000000 0.000000 0.000000 0.032519 0.000000
# 6 0.000000 0.000000 0.000000 0.000001 0.000000 0.037691
#
#
# Mechanical properties :
#
#
# Convention : Reuss Voigt Hill
#
# Bulk Modulus (GPa) = 52.63705 55.75496 54.19601
# Shear Modulus (GPa) = 24.01334 25.37090 24.69212
#
# Velocity S-wave (km/s) = 3.55706 3.65622 3.60698
# Velocity P-wave (km/s) = 6.67868 6.87032 6.77518
#
# Compressibility (1/GPa) = 0.01899802
#
# Stress axis : x y z
#
# Youngs Moduli (GPa) = 40.72260 71.30753 67.48116
#
# Poissons Ratio (x) = 0.37248 0.58898
# Poissons Ratio (y) = 0.21272 0.21924
# Poissons Ratio (z) = 0.35543 0.23167
#
# Static dielectric constant tensor:
#      x y z
#    x 3.647070 0.000010 0.000000 
#    y 0.000010 3.436300 0.000000 
#    z 0.000000 0.000000 3.643370 
# 
# 
# High freq. dielectric constant tensor:
#      x y z
#    x 1.734920 0.000000 0.000000 
#    y 0.000000 1.739260 0.000000 
#    z 0.000000 0.000000 1.741790 
# 
# From -- ./inp_files/11441.got.cif
#   From: 2010.03.12/outbox.cif.g09.slc.cpg/sg44_6_cif.got.tgz:11441.got - 2010.04.14 02:36:11.
