data_PCOD8188032
_publ_section_title
;
Structure prediction by ZEFSAII (Michael W. Deem and Ramdas Pophale) SiO2 
 PCOD8188032
Probable space group: I M M 2
;
_chemical_formula_sum "Si O2"
_cell_formula_units_Z 64
_cell_length_a 30.679114
_cell_length_b 8.808794
_cell_length_c 14.470880
_cell_angle_alpha 90.000000
_cell_angle_beta 90.000000
_cell_angle_gamma 90.000000
_cell_volume 3910.697369
_symmetry_space_group_name_H-M "I M M 2"
_symmetry_group_IT_number 44
_symmetry_cell_setting 'orthorhombic'
loop_
_space_group_symop_operation_xyz
x,y,z
-x,-y,z
-x,y,z
x,-y,z
1/2+x,1/2+y,1/2+z
1/2-x,1/2-y,1/2+z
1/2-x,1/2+y,1/2+z
1/2+x,1/2-y,1/2+z
loop_
_atom_site_type_symbol
_atom_site_label
_atom_site_fract_x
_atom_site_fract_y
_atom_site_fract_z
Si Si1 0.727941 0.178987 0.471440
Si Si2 0.363932 0.822735 0.146666
Si Si3 0.049744 0.676044 0.375176
Si Si4 0.370843 0.672448 0.784975
Si Si5 0.214305 0.318322 0.768477
Si Si6 0.798761 0.679523 0.170037
Si Si7 0.174857 0.827088 0.478532
Si Si8 0.452647 0.180948 0.083906
O O1 0.708619 0.239829 0.374220
O O2 0.700999 0.229620 0.561798
O O3 0.776734 0.240290 0.482548
O O4 0.730077 0.000000 0.463559
O O5 0.328625 0.749914 0.216544
O O6 0.414466 0.764605 0.155208
O O7 0.362548 0.000000 0.163431
O O8 0.352904 0.784534 0.041438
O O9 0.062337 0.500000 0.371704
O O10 0.081012 0.763425 0.303924
O O11 0.055715 0.741211 0.479419
O O12 0.000000 0.701986 0.342707
O O13 0.375397 0.500000 0.750849
O O14 0.345634 0.767772 0.707063
O O15 0.341496 0.684130 0.875184
O O16 0.216826 0.500000 0.761666
O O17 0.258428 0.255555 0.723405
O O18 0.793669 0.500000 0.180660
O O19 0.172133 0.000000 0.515822
O O20 0.500000 0.239902 0.119411
O O21 0.453219 0.000000 0.077798
#
# Coordination Sequence:
#
# PCOD8188032 Si02
#       8
#     8   8   8   8   8   8   8   8
#     4   9  18  33  46  60  90 125 154 187 236 280
#     4  10  18  27  46  70  90 120 159 194 226 272
#     4   9  17  30  48  69  96 126 155 191 232 279
#     4  11  21  32  47  68  96 128 157 195 235 272
#     4  10  19  32  47  67  93 119 153 197 240 277
#     4  11  21  32  48  66  87 123 163 191 226 284
#     4  10  18  29  44  62  92 128 153 184 232 276
#     4   8  14  25  41  65  96 123 149 186 228 269
#
# _framework density 16.365368
#
# number of rings (size 3 to 8) (size 9 to 14) (size 15 to 20)
#    0.000    2.250    3.750    1.500    0.000    0.750 
#    0.000    1.250    0.000    0.375    0.000    0.875 
#    0.000    5.000    0.000    0.000    0.000    0.125 
#
# Total GULP energy -396516.521250 kJ/mol
# GULP energy per Si atom -12391.141289 kJ/mol
# Density = 1.632812 g / cm^3
# Si number density = 16.365368 Si / 1000 Ang^3
#
#
#
# Elastic Constant Matrix: (Units=GPa)
#
#
# Indices 1 2 3 4 5 6 
#
# 1 116.4218 22.8936 40.1944 0.0000 0.0000 0.0000
# 2 22.8936 28.1855 22.1560 0.0000 0.0000 0.0000
# 3 40.1944 22.1560 74.9224 0.0000 0.0000 0.0000
# 4 0.0000 0.0000 0.0000 15.0830 0.0000 0.0000
# 5 0.0000 0.0000 0.0000 0.0000 26.1801 0.0000
# 6 0.0000 0.0000 0.0000 0.0000 0.0000 17.2402
#
#
#
# Elastic Compliance Matrix: (Units=1/GPa)
#
#
# Indices 1 2 3 4 5 6 
#
# 1 0.011204 -0.005700 -0.004325 0.000000 0.000000 0.000000
# 2 -0.005700 0.049125 -0.011469 0.000000 0.000000 0.000000
# 3 -0.004325 -0.011469 0.019059 0.000000 0.000000 0.000000
# 4 0.000000 0.000000 0.000000 0.066300 0.000000 0.000000
# 5 0.000000 0.000000 0.000000 0.000000 0.038197 0.000000
# 6 0.000000 0.000000 0.000000 0.000000 0.000000 0.058004
#
#
# Mechanical properties :
#
#
# Convention : Reuss Voigt Hill
#
# Bulk Modulus (GPa) = 27.47329 43.33527 35.40428
# Shear Modulus (GPa) = 16.83448 20.65305 18.74376
#
# Velocity S-wave (km/s) = 3.21076 3.55631 3.38795
# Velocity P-wave (km/s) = 5.52894 6.58791 6.08152
#
# Compressibility (1/GPa) = 0.03639900
#
# Stress axis : x y z
#
# Youngs Moduli (GPa) = 89.25770 20.35624 52.46896
#
# Poissons Ratio (x) = 0.11604 0.22691
# Poissons Ratio (y) = 0.50881 0.60177
# Poissons Ratio (z) = 0.38602 0.23347
#
# Static dielectric constant tensor:
#      x y z
#    x 3.378860 0.000000 0.000000 
#    y 0.000000 2.904710 0.000000 
#    z 0.000000 0.000000 3.121050 
# 
# 
# High freq. dielectric constant tensor:
#      x y z
#    x 1.632050 0.000000 0.000000 
#    y 0.000000 1.608710 0.000000 
#    z 0.000000 0.000000 1.601550 
# 
# From -- ./inp_files/17104.got.cif
#   From: 2010.03.12/outbox.cif.g09.slc.cpg/sg44_9_cif.got.tgz:17104.got - 2010.04.14 02:36:11.
