data_PCOD8188850
_publ_section_title
;
Structure prediction by ZEFSAII (Michael W. Deem and Ramdas Pophale) SiO2 
 PCOD8188850
Probable space group: I M M 2
;
_chemical_formula_sum "Si O2"
_cell_formula_units_Z 48
_cell_length_a 9.175294
_cell_length_b 37.913747
_cell_length_c 7.555860
_cell_angle_alpha 90.000000
_cell_angle_beta 90.000000
_cell_angle_gamma 90.000000
_cell_volume 2628.455321
_symmetry_space_group_name_H-M "I M M 2"
_symmetry_group_IT_number 44
_symmetry_cell_setting 'orthorhombic'
loop_
_space_group_symop_operation_xyz
x,y,z
-x,-y,z
-x,y,z
x,-y,z
1/2+x,1/2+y,1/2+z
1/2-x,1/2-y,1/2+z
1/2-x,1/2+y,1/2+z
1/2+x,1/2-y,1/2+z
loop_
_atom_site_type_symbol
_atom_site_label
_atom_site_fract_x
_atom_site_fract_y
_atom_site_fract_z
Si Si1 0.329824 0.214364 0.349730
Si Si2 0.670158 0.214325 0.751234
Si Si3 0.827438 0.337736 0.550588
Si Si4 0.832357 0.959224 0.754223
Si Si5 0.332351 0.459225 0.847414
Si Si6 0.173200 0.417047 0.550814
O O1 0.500000 0.221069 0.318581
O O2 0.295539 0.203197 0.550462
O O3 0.250095 0.250045 0.300700
O O4 0.271851 0.182927 0.224779
O O5 0.500000 0.221082 0.782302
O O6 0.727874 0.182828 0.875988
O O7 0.764213 0.377210 0.550772
O O8 0.000000 0.339893 0.550885
O O9 0.801096 0.949502 0.550818
O O10 0.000000 0.951579 0.802590
O O11 0.796212 0.000000 0.789791
O O12 0.728659 0.935823 0.874411
O O13 0.500000 0.451588 0.799049
O O14 0.296173 0.500000 0.811841
O O15 0.228679 0.435814 0.727233
O O16 0.000000 0.418134 0.550818
#
# Coordination Sequence:
#
# PCOD8188850 Si02
#       6
#     8   8   8   8   8   8
#     4  10  19  33  55  77  98 130 171 214 260 310
#     4  10  19  33  55  77  98 130 171 214 260 310
#     4   9  20  36  50  73 110 144 172 208 265 327
#     4   9  19  37  59  80 106 145 187 224 268 321
#     4   9  19  37  59  80 106 145 187 224 268 321
#     4  11  22  34  53  82 114 146 180 222 272 323
#
# _framework density 18.261675
#
# number of rings (size 3 to 8) (size 9 to 14) (size 15 to 20)
#    0.000    2.333    1.667    2.000    0.000    4.667 
#    0.000    8.333    0.000    0.000    0.000    0.000 
#    0.000    0.000    0.000    0.000    0.000    0.000 
#
# Total GULP energy -297617.883473 kJ/mol
# GULP energy per Si atom -12400.745145 kJ/mol
# Density = 1.822011 g / cm^3
# Si number density = 18.261675 Si / 1000 Ang^3
#
#
#
# Elastic Constant Matrix: (Units=GPa)
#
#
# Indices 1 2 3 4 5 6 
#
# 1 56.2190 52.9465 50.4431 0.0069 0.0010 0.0001
# 2 52.9465 148.7120 90.0969 0.0002 0.0013 -0.0001
# 3 50.4431 90.0969 157.5702 0.1139 0.0047 0.0027
# 4 0.0069 0.0002 0.1139 6.9941 -0.0001 0.0005
# 5 0.0010 0.0013 0.0047 -0.0001 30.5771 -0.0012
# 6 0.0001 -0.0001 0.0027 0.0005 -0.0012 26.6089
#
#
#
# Elastic Compliance Matrix: (Units=1/GPa)
#
#
# Indices 1 2 3 4 5 6 
#
# 1 0.029332 -0.007274 -0.005231 0.000056 0.000000 0.000000
# 2 -0.007274 0.012092 -0.004586 0.000081 0.000000 0.000001
# 3 -0.005231 -0.004586 0.010643 -0.000168 -0.000001 -0.000001
# 4 0.000056 0.000081 -0.000168 0.142979 0.000001 -0.000003
# 5 0.000000 0.000000 -0.000001 0.000001 0.032704 0.000001
# 6 0.000000 0.000001 -0.000001 -0.000003 0.000001 0.037581
#
#
# Mechanical properties :
#
#
# Convention : Reuss Voigt Hill
#
# Bulk Modulus (GPa) = 55.90947 83.27492 69.59220
# Shear Modulus (GPa) = 16.36794 24.10367 20.23581
#
# Velocity S-wave (km/s) = 2.99708 3.63699 3.33243
# Velocity P-wave (km/s) = 6.53137 7.95845 7.27996
#
# Compressibility (1/GPa) = 0.01788606
#
# Stress axis : x y z
#
# Youngs Moduli (GPa) = 34.09301 82.69607 93.95713
#
# Poissons Ratio (x) = 0.60153 0.49147
# Poissons Ratio (y) = 0.24799 0.43087
# Poissons Ratio (z) = 0.17833 0.37923
#
# Static dielectric constant tensor:
#      x y z
#    x 3.158690 0.000030 0.000020 
#    y 0.000030 -3.968030 -0.006130 
#    z 0.000020 -0.006130 3.903230 
# 
# 
# High freq. dielectric constant tensor:
#      x y z
#    x 1.687730 0.000000 0.000000 
#    y 0.000000 1.705630 0.000000 
#    z 0.000000 0.000000 1.726990 
# 
# From -- ./inp_files/4908.got.cif
#   From: 2010.03.12/outbox.cif.g09.slc.cpg/sg44_3_cif.got.tgz:4908.got - 2010.04.14 02:36:11.
