data_PCOD8188071
_publ_section_title
;
Structure prediction by ZEFSAII (Michael W. Deem and Ramdas Pophale) SiO2 
 PCOD8188071
Probable space group: I M M 2
;
_chemical_formula_sum "Si O2"
_cell_formula_units_Z 56
_cell_length_a 8.857101
_cell_length_b 29.200570
_cell_length_c 13.736285
_cell_angle_alpha 90.000000
_cell_angle_beta 90.000000
_cell_angle_gamma 90.000000
_cell_volume 3552.648326
_symmetry_space_group_name_H-M "I M M 2"
_symmetry_group_IT_number 44
_symmetry_cell_setting 'orthorhombic'
loop_
_space_group_symop_operation_xyz
x,y,z
-x,-y,z
-x,y,z
x,-y,z
1/2+x,1/2+y,1/2+z
1/2-x,1/2-y,1/2+z
1/2-x,1/2+y,1/2+z
1/2+x,1/2-y,1/2+z
loop_
_atom_site_type_symbol
_atom_site_label
_atom_site_fract_x
_atom_site_fract_y
_atom_site_fract_z
Si Si1 0.679251 0.272082 0.311670
Si Si2 0.323853 0.732400 0.095654
Si Si3 0.328586 0.000000 0.083792
Si Si4 0.668840 0.000000 0.315168
Si Si5 0.820291 0.679001 0.485040
Si Si6 0.176591 0.091379 0.308054
Si Si7 0.823013 0.185305 0.403278
Si Si8 0.821512 0.907184 0.084932
O O1 0.500000 0.277779 0.321291
O O2 0.740763 0.280173 0.201584
O O3 0.761547 0.310215 0.376660
O O4 0.725834 0.220814 0.341070
O O5 0.500000 0.739810 0.107574
O O6 0.258589 0.780593 0.055542
O O7 0.287812 0.692146 0.018116
O O8 0.241795 0.955315 0.044959
O O9 0.500000 0.000000 0.044934
O O10 0.323420 0.000000 0.199548
O O11 0.748143 0.953910 0.353791
O O12 0.500000 0.000000 0.355502
O O13 0.752033 0.631557 0.519391
O O14 0.000000 0.676165 0.483549
O O15 0.226776 0.134405 0.373368
O O16 0.227914 0.100485 0.197005
O O17 0.000000 0.082872 0.312038
O O18 0.000000 0.194065 0.381526
O O19 0.000000 0.906281 0.072586
#
# Coordination Sequence:
#
# PCOD8188071 Si02
#       8
#     8   8   4   4   8   8   8   8
#     4  10  18  29  44  63  86 113 144 181 216 250
#     4   8  16  29  44  61  85 114 144 177 214 253
#     4   9  17  29  43  61  86 119 148 173 211 260
#     4   9  17  27  41  61  88 117 146 177 213 256
#     4  10  19  31  45  63  87 117 148 177 213 261
#     4   9  17  28  44  64  89 117 146 178 214 255
#     4   9  17  30  45  63  86 115 146 176 213 260
#     4  10  18  28  43  66  91 115 144 181 216 251
#
# _framework density 15.762888
#
# number of rings (size 3 to 8) (size 9 to 14) (size 15 to 20)
#    0.000    2.714    0.000    3.429    0.000    2.857 
#    0.000    6.429    0.000    0.000    0.000    1.000 
#    0.000    5.714    0.000    0.000    0.000    0.000 
#
# Total GULP energy -347133.492314 kJ/mol
# GULP energy per Si atom -12397.624725 kJ/mol
# Density = 1.572701 g / cm^3
# Si number density = 15.762888 Si / 1000 Ang^3
#
#
#
# Elastic Constant Matrix: (Units=GPa)
#
#
# Indices 1 2 3 4 5 6 
#
# 1 62.0912 45.3828 31.7150 -0.0002 -0.0002 -0.0001
# 2 45.3828 143.6246 61.8477 0.0001 0.0000 0.0000
# 3 31.7150 61.8477 101.3493 0.0025 0.0000 0.0003
# 4 -0.0002 0.0001 0.0025 24.1993 0.0000 0.0001
# 5 -0.0002 0.0000 0.0000 0.0000 17.3790 0.0001
# 6 -0.0001 0.0000 0.0003 0.0001 0.0001 29.2642
#
#
#
# Elastic Compliance Matrix: (Units=1/GPa)
#
#
# Indices 1 2 3 4 5 6 
#
# 1 0.021849 -0.005371 -0.003560 0.000001 0.000000 0.000000
# 2 -0.005371 0.010765 -0.004888 0.000000 0.000000 0.000000
# 3 -0.003560 -0.004888 0.013964 -0.000001 0.000000 0.000000
# 4 0.000001 0.000000 -0.000001 0.041324 0.000000 0.000000
# 5 0.000000 0.000000 0.000000 0.000000 0.057541 0.000000
# 6 0.000000 0.000000 0.000000 0.000000 0.000000 0.034171
#
#
# Mechanical properties :
#
#
# Convention : Reuss Voigt Hill
#
# Bulk Modulus (GPa) = 52.79884 64.99513 58.89698
# Shear Modulus (GPa) = 23.41207 25.37647 24.39427
#
# Velocity S-wave (km/s) = 3.85810 4.01669 3.93819
# Velocity P-wave (km/s) = 7.30855 7.92681 7.62395
#
# Compressibility (1/GPa) = 0.01893981
#
# Stress axis : x y z
#
# Youngs Moduli (GPa) = 45.76804 92.89522 71.61356
#
# Poissons Ratio (x) = 0.49896 0.25491
# Poissons Ratio (y) = 0.24583 0.35007
# Poissons Ratio (z) = 0.16291 0.45411
#
# Static dielectric constant tensor:
#      x y z
#    x 2.970990 0.000000 0.000000 
#    y 0.000000 3.053560 0.000000 
#    z 0.000000 0.000000 3.001990 
# 
# 
# High freq. dielectric constant tensor:
#      x y z
#    x 1.606180 0.000000 0.000000 
#    y 0.000000 1.602270 0.000000 
#    z 0.000000 0.000000 1.576210 
# 
# From -- ./inp_files/17067.got.cif
#   From: 2010.03.12/outbox.cif.g09.slc.cpg/sg44_9_cif.got.tgz:17067.got - 2010.04.14 02:36:11.
