data_PCOD8188994
_publ_section_title
;
Structure prediction by ZEFSAII (Michael W. Deem and Ramdas Pophale) SiO2 
 PCOD8188994
Probable space group: I M M 2
;
_chemical_formula_sum "Si O2"
_cell_formula_units_Z 64
_cell_length_a 8.842152
_cell_length_b 28.937453
_cell_length_c 12.595214
_cell_angle_alpha 90.000000
_cell_angle_beta 90.000000
_cell_angle_gamma 90.000000
_cell_volume 3222.729319
_symmetry_space_group_name_H-M "I M M 2"
_symmetry_group_IT_number 44
_symmetry_cell_setting 'orthorhombic'
loop_
_space_group_symop_operation_xyz
x,y,z
-x,-y,z
-x,y,z
x,-y,z
1/2+x,1/2+y,1/2+z
1/2-x,1/2-y,1/2+z
1/2-x,1/2+y,1/2+z
1/2+x,1/2-y,1/2+z
loop_
_atom_site_type_symbol
_atom_site_label
_atom_site_fract_x
_atom_site_fract_y
_atom_site_fract_z
Si Si1 0.670746 0.950060 0.450690
Si Si2 0.320434 0.946902 0.061644
Si Si3 0.171182 0.675116 0.062087
Si Si4 0.320850 0.113514 0.260057
Si Si5 0.325784 0.395551 0.365802
Si Si6 0.672105 0.586067 0.132073
Si Si7 0.674730 0.198463 0.795045
Si Si8 0.676942 0.299294 0.850977
O O1 0.500000 0.937942 0.485954
O O2 0.731692 0.912487 0.367029
O O3 0.781134 0.955395 0.553749
O O4 0.673613 0.000000 0.393404
O O5 0.500000 0.947522 0.062242
O O6 0.258735 0.915437 0.159069
O O7 0.259814 0.000000 0.069957
O O8 0.266607 0.923032 0.953644
O O9 0.205140 0.623030 0.094032
O O10 0.195762 0.704321 0.168679
O O11 0.000000 0.679115 0.018431
O O12 0.287730 0.689986 0.972622
O O13 0.500000 0.116905 0.252775
O O14 0.253956 0.165270 0.267340
O O15 0.500000 0.393032 0.400594
O O16 0.305547 0.424752 0.256584
O O17 0.269067 0.343144 0.347529
O O18 0.500000 0.602346 0.112476
O O19 0.500000 0.189722 0.824926
O O20 0.737265 0.247179 0.836811
O O21 0.500000 0.302037 0.829084
#
# Coordination Sequence:
#
# PCOD8188994 Si02
#       8
#     8   8   8   8   8   8   8   8
#     4  10  20  34  55  83 113 146 186 232 285 347
#     4  10  22  41  64  88 119 163 210 253 300 361
#     4  10  19  35  57  79 109 150 190 234 288 347
#     4  10  21  38  59  84 115 154 199 246 294 350
#     4  10  22  39  60  86 118 154 197 249 303 354
#     4  10  20  35  55  81 112 146 185 236 293 346
#     4   9  21  39  58  83 116 156 200 245 296 356
#     4  11  22  36  57  87 120 153 194 246 301 359
#
# _framework density 19.858944000000001
#
# number of rings (size 3 to 8) (size 9 to 14) (size 15 to 20)
#    0.000    2.000    1.250    1.875    0.000    7.000 
#    0.000    5.000    0.000    2.250    0.000    0.000 
#    0.000    0.000    0.000    0.000    0.000    0.000 
#
# Total GULP energy -396629.874081 kJ/mol
# GULP energy per Si atom -12394.683565 kJ/mol
# Density = 1.981374 g / cm^3
# Si number density = 19.858944 Si / 1000 Ang^3
#
#
#
# Elastic Constant Matrix: (Units=GPa)
#
#
# Indices 1 2 3 4 5 6 
#
# 1 39.9457 20.4757 28.3024 0.0004 0.0000 -0.0001
# 2 20.4757 98.1721 39.5775 0.0009 0.0016 0.0004
# 3 28.3024 39.5775 103.8065 0.0026 0.0035 0.0007
# 4 0.0004 0.0009 0.0026 22.7057 0.0002 0.0002
# 5 0.0000 0.0016 0.0035 0.0002 27.9562 0.0010
# 6 -0.0001 0.0004 0.0007 0.0002 0.0010 27.2023
#
#
#
# Elastic Compliance Matrix: (Units=1/GPa)
#
#
# Indices 1 2 3 4 5 6 
#
# 1 0.032154 -0.003748 -0.007338 0.000000 0.000001 0.000000
# 2 -0.003748 0.012473 -0.003734 0.000000 0.000000 0.000000
# 3 -0.007338 -0.003734 0.013057 -0.000001 -0.000001 0.000000
# 4 0.000000 0.000000 -0.000001 0.044042 0.000000 0.000000
# 5 0.000001 0.000000 -0.000001 0.000000 0.035770 -0.000001
# 6 0.000000 0.000000 0.000000 0.000000 -0.000001 0.036762
#
#
# Mechanical properties :
#
#
# Convention : Reuss Voigt Hill
#
# Bulk Modulus (GPa) = 35.65605 46.51504 41.08554
# Shear Modulus (GPa) = 23.44711 25.81074 24.62893
#
# Velocity S-wave (km/s) = 3.43983 3.60905 3.52546
# Velocity P-wave (km/s) = 5.81122 6.39066 6.10782
#
# Compressibility (1/GPa) = 0.02804573
#
# Stress axis : x y z
#
# Youngs Moduli (GPa) = 31.10018 80.17223 76.58516
#
# Poissons Ratio (x) = 0.30051 0.56195
# Poissons Ratio (y) = 0.11657 0.28594
# Poissons Ratio (z) = 0.22820 0.29933
#
# Static dielectric constant tensor:
#      x y z
#    x 3.482900 0.000000 0.000000 
#    y 0.000000 3.750520 0.000000 
#    z 0.000000 0.000000 3.791800 
# 
# 
# High freq. dielectric constant tensor:
#      x y z
#    x 1.767540 0.000000 0.000000 
#    y 0.000000 1.775190 0.000000 
#    z 0.000000 0.000000 1.775750 
# 
# From -- ./inp_files/11524.got.cif
#   From: 2010.03.12/outbox.cif.g09.slc.cpg/sg44_6_cif.got.tgz:11524.got - 2010.04.14 02:36:11.
