data_PCOD8188326
_publ_section_title
;
Structure prediction by ZEFSAII (Michael W. Deem and Ramdas Pophale) SiO2 
 PCOD8188326
Probable space group: I M M 2
;
_chemical_formula_sum "Si O2"
_cell_formula_units_Z 48
_cell_length_a 8.779308
_cell_length_b 16.506592
_cell_length_c 18.395400
_cell_angle_alpha 90.000000
_cell_angle_beta 90.000000
_cell_angle_gamma 90.000000
_cell_volume 2665.796160
_symmetry_space_group_name_H-M "I M M 2"
_symmetry_group_IT_number 44
_symmetry_cell_setting 'orthorhombic'
loop_
_space_group_symop_operation_xyz
x,y,z
-x,-y,z
-x,y,z
x,-y,z
1/2+x,1/2+y,1/2+z
1/2-x,1/2-y,1/2+z
1/2-x,1/2+y,1/2+z
1/2+x,1/2-y,1/2+z
loop_
_atom_site_type_symbol
_atom_site_label
_atom_site_fract_x
_atom_site_fract_y
_atom_site_fract_z
Si Si1 0.676865 0.092346 0.441740
Si Si2 0.821937 0.000000 0.792735
Si Si3 0.321556 0.159861 0.726440
Si Si4 0.823406 0.180561 0.572829
Si Si5 0.173473 0.674792 0.473724
Si Si6 0.823252 0.739107 0.844580
Si Si7 0.672632 0.000000 0.944391
O O1 0.500000 0.105044 0.462013
O O2 0.776565 0.115633 0.511655
O O3 0.720501 0.148987 0.372883
O O4 0.712317 0.000000 0.419714
O O5 0.754887 0.079449 0.756267
O O6 0.787916 0.000000 0.877805
O O7 0.000000 0.000000 0.779246
O O8 0.500000 0.150595 0.734714
O O9 0.279745 0.169548 0.642717
O O10 0.267437 0.239039 0.771336
O O11 0.790034 0.271397 0.544113
O O12 0.000000 0.167507 0.592503
O O13 0.283513 0.696575 0.407271
O O14 0.199450 0.580153 0.493463
O O15 0.000000 0.691352 0.448193
O O16 0.000000 0.746171 0.825974
O O17 0.500000 0.000000 0.913281
#
# Coordination Sequence:
#
# PCOD8188326 Si02
#       7
#     8   4   8   8   8   8   4
#     4   9  19  36  57  81 109 141 179 223 273 323
#     4  12  24  36  54  84 112 139 174 221 270 320
#     4  12  24  38  55  77 110 149 180 218 270 327
#     4  10  21  36  54  79 110 145 181 221 266 321
#     4   9  18  33  54  79 109 142 178 217 265 319
#     4  10  19  33  55  80 107 140 181 225 267 318
#     4  10  18  32  56  84 112 141 172 213 262 322
#
# _framework density 18.005879
#
# number of rings (size 3 to 8) (size 9 to 14) (size 15 to 20)
#    0.000    1.833    1.667    3.250    1.167    1.667 
#    0.000    0.000    1.833    0.000    0.000    0.000 
#    0.000    0.000    0.000    0.000    0.000    0.000 
#
# Total GULP energy -297613.994964 kJ/mol
# GULP energy per Si atom -12400.583124 kJ/mol
# Density = 1.796490 g / cm^3
# Si number density = 18.005879 Si / 1000 Ang^3
#
#
#
# Elastic Constant Matrix: (Units=GPa)
#
#
# Indices 1 2 3 4 5 6 
#
# 1 101.5195 40.8316 39.5012 0.0000 0.0000 0.0000
# 2 40.8316 146.2252 45.2446 0.0000 0.0000 0.0000
# 3 39.5012 45.2446 75.0463 0.0000 0.0000 0.0000
# 4 0.0000 0.0000 0.0000 19.1651 0.0000 0.0000
# 5 0.0000 0.0000 0.0000 0.0000 30.8271 0.0000
# 6 0.0000 0.0000 0.0000 0.0000 0.0000 22.7828
#
#
#
# Elastic Compliance Matrix: (Units=1/GPa)
#
#
# Indices 1 2 3 4 5 6 
#
# 1 0.012772 -0.001827 -0.005621 0.000000 0.000000 0.000000
# 2 -0.001827 0.008668 -0.004264 0.000000 0.000000 0.000000
# 3 -0.005621 -0.004264 0.018855 0.000000 0.000000 0.000000
# 4 0.000000 0.000000 0.000000 0.052178 0.000000 0.000000
# 5 0.000000 0.000000 0.000000 0.000000 0.032439 0.000000
# 6 0.000000 0.000000 0.000000 0.000000 0.000000 0.043893
#
#
# Mechanical properties :
#
#
# Convention : Reuss Voigt Hill
#
# Bulk Modulus (GPa) = 59.27658 63.77175 61.52416
# Shear Modulus (GPa) = 25.27106 27.70258 26.48682
#
# Velocity S-wave (km/s) = 3.75038 3.92666 3.83954
# Velocity P-wave (km/s) = 7.19347 7.48681 7.34160
#
# Compressibility (1/GPa) = 0.01687007
#
# Stress axis : x y z
#
# Youngs Moduli (GPa) = 78.29329 115.36076 53.03684
#
# Poissons Ratio (x) = 0.21079 0.29813
# Poissons Ratio (y) = 0.14306 0.22617
# Poissons Ratio (z) = 0.44011 0.49194
#
# Static dielectric constant tensor:
#      x y z
#    x 3.424590 0.000000 0.000000 
#    y 0.000000 3.967260 0.000000 
#    z 0.000000 0.000000 3.162610 
# 
# 
# High freq. dielectric constant tensor:
#      x y z
#    x 1.706710 0.000000 0.000000 
#    y 0.000000 1.704310 0.000000 
#    z 0.000000 0.000000 1.672000 
# 
# From -- ./inp_files/16202.got.cif
#   From: 2010.03.12/outbox.cif.g09.slc.cpg/sg44_9_cif.got.tgz:16202.got - 2010.04.14 02:36:11.
