data_PCOD8188302
_publ_section_title
;
Structure prediction by ZEFSAII (Michael W. Deem and Ramdas Pophale) SiO2 
 PCOD8188302
Probable space group: I M M 2
;
_chemical_formula_sum "Si O2"
_cell_formula_units_Z 64
_cell_length_a 9.376249
_cell_length_b 27.151421
_cell_length_c 12.911053
_cell_angle_alpha 90.000000
_cell_angle_beta 90.000000
_cell_angle_gamma 90.000000
_cell_volume 3286.876300
_symmetry_space_group_name_H-M "I M M 2"
_symmetry_group_IT_number 44
_symmetry_cell_setting 'orthorhombic'
loop_
_space_group_symop_operation_xyz
x,y,z
-x,-y,z
-x,y,z
x,-y,z
1/2+x,1/2+y,1/2+z
1/2-x,1/2-y,1/2+z
1/2-x,1/2+y,1/2+z
1/2+x,1/2-y,1/2+z
loop_
_atom_site_type_symbol
_atom_site_label
_atom_site_fract_x
_atom_site_fract_y
_atom_site_fract_z
Si Si1 0.330597 0.624989 0.278350
Si Si2 0.163560 0.557680 0.874077
Si Si3 0.668966 0.284259 0.950503
Si Si4 0.164479 0.056576 0.966079
Si Si5 0.657431 0.205295 0.098842
Si Si6 0.669000 0.612790 0.046257
Si Si7 0.170560 0.599675 0.654654
Si Si8 0.157457 0.765541 0.796683
O O1 0.500000 0.627936 0.273785
O O2 0.277180 0.588722 0.369144
O O3 0.278661 0.605914 0.165238
O O4 0.272120 0.679980 0.301726
O O5 0.180627 0.500000 0.856537
O O6 0.220746 0.583856 0.769419
O O7 0.000000 0.572538 0.895158
O O8 0.255829 0.572826 0.973529
O O9 0.500000 0.283268 0.939462
O O10 0.744682 0.278874 0.840325
O O11 0.730815 0.233587 0.003155
O O12 0.718570 0.333296 0.008408
O O13 0.000000 0.069948 0.990059
O O14 0.179880 0.000000 0.932729
O O15 0.258216 0.065321 0.068136
O O16 0.500000 0.187839 0.065836
O O17 0.732938 0.155089 0.136198
O O18 0.643970 0.250162 0.178351
O O19 0.500000 0.605731 0.035856
O O20 0.000000 0.594524 0.647162
O O21 0.000000 0.765273 0.848570
#
# Coordination Sequence:
#
# PCOD8188302 Si02
#       8
#     8   8   8   8   8   8   8   8
#     4   9  18  35  57  80 109 146 185 225 271 326
#     4  10  22  39  57  80 111 145 185 236 286 329
#     4  10  19  32  50  77 111 140 170 217 266 308
#     4  10  21  36  55  80 109 140 178 230 283 324
#     4   9  17  31  52  76 103 137 171 203 255 315
#     4  10  20  36  58  82 111 147 187 228 272 331
#     4  10  20  36  58  81 107 142 184 225 271 334
#     4  10  18  32  54  76 102 141 181 212 254 318
#
# _framework density 19.471374000000001
#
# number of rings (size 3 to 8) (size 9 to 14) (size 15 to 20)
#    0.000    2.250    1.250    1.875    0.000    3.500 
#    0.000    3.750    0.000    0.000    0.000    0.000 
#    0.000    0.000    0.000    0.000    0.000    0.000 
#
# Total GULP energy -396574.900734 kJ/mol
# GULP energy per Si atom -12392.965648 kJ/mol
# Density = 1.942706 g / cm^3
# Si number density = 19.471374 Si / 1000 Ang^3
#
#
#
# Elastic Constant Matrix: (Units=GPa)
#
#
# Indices 1 2 3 4 5 6 
#
# 1 28.5849 16.8343 24.5904 0.0000 -0.0001 0.0000
# 2 16.8343 79.4253 14.5806 -0.0003 0.0000 0.0001
# 3 24.5904 14.5806 87.5615 -0.0012 0.0002 0.0003
# 4 0.0000 -0.0003 -0.0012 37.4602 0.0001 0.0001
# 5 -0.0001 0.0000 0.0002 0.0001 24.8014 -0.0001
# 6 0.0000 0.0001 0.0003 0.0001 -0.0001 25.4167
#
#
#
# Elastic Compliance Matrix: (Units=1/GPa)
#
#
# Indices 1 2 3 4 5 6 
#
# 1 0.051095 -0.008454 -0.012942 0.000000 0.000000 0.000000
# 2 -0.008454 0.014386 -0.000021 0.000000 0.000000 0.000000
# 3 -0.012942 -0.000021 0.015059 0.000000 0.000000 0.000000
# 4 0.000000 0.000000 0.000000 0.026695 0.000000 0.000000
# 5 0.000000 0.000000 0.000000 0.000000 0.040320 0.000000
# 6 0.000000 0.000000 0.000000 0.000000 0.000000 0.039344
#
#
# Mechanical properties :
#
#
# Convention : Reuss Voigt Hill
#
# Bulk Modulus (GPa) = 26.52089 34.17581 30.34835
# Shear Modulus (GPa) = 20.63537 26.84006 23.73772
#
# Velocity S-wave (km/s) = 3.25896 3.71676 3.49536
# Velocity P-wave (km/s) = 5.27362 6.00075 5.64890
#
# Compressibility (1/GPa) = 0.03770613
#
# Stress axis : x y z
#
# Youngs Moduli (GPa) = 19.57127 69.51110 66.40721
#
# Poissons Ratio (x) = 0.58764 0.85942
# Poissons Ratio (y) = 0.16545 0.00142
# Poissons Ratio (z) = 0.25328 0.00149
#
# Static dielectric constant tensor:
#      x y z
#    x 3.236330 0.000000 0.000000 
#    y 0.000000 3.629900 0.000000 
#    z 0.000000 0.000000 3.592840 
# 
# 
# High freq. dielectric constant tensor:
#      x y z
#    x 1.718800 0.000000 0.000000 
#    y 0.000000 1.768120 0.000000 
#    z 0.000000 0.000000 1.765600 
# 
# From -- ./inp_files/11498.got.cif
#   From: 2010.03.12/outbox.cif.g09.slc.cpg/sg44_6_cif.got.tgz:11498.got - 2010.04.14 02:36:11.
