data_PCOD8188765
_publ_section_title
;
Structure prediction by ZEFSAII (Michael W. Deem and Ramdas Pophale) SiO2 
 PCOD8188765
Probable space group: I M M 2
;
_chemical_formula_sum "Si O2"
_cell_formula_units_Z 64
_cell_length_a 28.946026
_cell_length_b 9.259471
_cell_length_c 12.061241
_cell_angle_alpha 90.000000
_cell_angle_beta 90.000000
_cell_angle_gamma 90.000000
_cell_volume 3232.712772
_symmetry_space_group_name_H-M "I M M 2"
_symmetry_group_IT_number 44
_symmetry_cell_setting 'orthorhombic'
loop_
_space_group_symop_operation_xyz
x,y,z
-x,-y,z
-x,y,z
x,-y,z
1/2+x,1/2+y,1/2+z
1/2-x,1/2-y,1/2+z
1/2-x,1/2+y,1/2+z
1/2+x,1/2-y,1/2+z
loop_
_atom_site_type_symbol
_atom_site_label
_atom_site_fract_x
_atom_site_fract_y
_atom_site_fract_z
Si Si1 0.448637 0.670371 0.650190
Si Si2 0.166972 0.336152 0.839676
Si Si3 0.949794 0.660437 0.689332
Si Si4 0.804219 0.837944 0.445903
Si Si5 0.847038 0.171582 0.217023
Si Si6 0.219287 0.828458 0.014598
Si Si7 0.630595 0.339917 0.140746
Si Si8 0.568574 0.160895 0.434927
O O1 0.500000 0.712536 0.702648
O O2 0.444671 0.500000 0.644854
O O3 0.400980 0.729344 0.709742
O O4 0.448852 0.726981 0.525114
O O5 0.185156 0.500000 0.824621
O O6 0.157490 0.270872 0.719380
O O7 0.123445 0.330683 0.920932
O O8 0.204913 0.235456 0.895740
O O9 0.926745 0.500000 0.681923
O O10 0.920966 0.779722 0.624185
O O11 0.954435 0.702857 0.818416
O O12 0.000000 0.658890 0.633943
O O13 0.820780 0.771157 0.327566
O O14 0.770541 0.738480 0.521319
O O15 0.850202 0.847071 0.517888
O O16 0.783244 0.000000 0.430270
O O17 0.815267 0.223082 0.112951
O O18 0.848625 0.000000 0.220999
O O19 0.221896 0.000000 0.010271
O O20 0.629867 0.500000 0.194827
O O21 0.553663 0.000000 0.472160
#
# Coordination Sequence:
#
# PCOD8188765 Si02
#       8
#     8   8   8   8   8   8   8   8
#     4  10  19  32  54  82 111 147 190 232 280 341
#     4  10  20  35  56  81 114 153 187 224 285 347
#     4   9  18  33  53  78 112 155 196 235 288 349
#     4  10  23  42  60  81 115 156 193 238 293 350
#     4   9  20  40  60  82 117 153 187 236 295 348
#     4  11  22  37  61  89 114 144 187 237 287 348
#     4  10  21  36  56  83 115 147 192 244 283 331
#     4   9  17  30  49  76 111 147 180 221 275 337
#
# _framework density 19.797612999999998
#
# number of rings (size 3 to 8) (size 9 to 14) (size 15 to 20)
#    0.000    2.250    1.250    2.250    1.750    4.000 
#    0.000    1.875    0.000    2.250    0.000    0.000 
#    0.000    0.000    0.000    0.000    0.000    0.000 
#
# Total GULP energy -396434.916426 kJ/mol
# GULP energy per Si atom -12388.591138 kJ/mol
# Density = 1.975255 g / cm^3
# Si number density = 19.797613 Si / 1000 Ang^3
#
#
#
# Elastic Constant Matrix: (Units=GPa)
#
#
# Indices 1 2 3 4 5 6 
#
# 1 114.6300 38.9258 39.6714 0.0000 0.0000 0.0000
# 2 38.9258 74.6545 34.4586 0.0000 0.0000 0.0000
# 3 39.6714 34.4586 71.1207 0.0000 0.0000 0.0000
# 4 0.0000 0.0000 0.0000 16.9678 0.0000 0.0000
# 5 0.0000 0.0000 0.0000 0.0000 -9.5782 0.0000
# 6 0.0000 0.0000 0.0000 0.0000 0.0000 27.1619
#
#
#
# Elastic Compliance Matrix: (Units=1/GPa)
#
#
# Indices 1 2 3 4 5 6 
#
# 1 0.011655 -0.003962 -0.004581 0.000000 0.000000 0.000000
# 2 -0.003962 0.018601 -0.006802 0.000000 0.000000 0.000000
# 3 -0.004581 -0.006802 0.019912 0.000000 0.000000 0.000000
# 4 0.000000 0.000000 0.000000 0.058935 0.000000 0.000000
# 5 0.000000 0.000000 0.000000 0.000000 -0.104403 0.000000
# 6 0.000000 0.000000 0.000000 0.000000 0.000000 0.036816
#
#
# Mechanical properties :
#
#
# Convention : Reuss Voigt Hill
#
# Bulk Modulus (GPa) = 51.34548 54.05742 52.70145
# Shear Modulus (GPa) = 63.53368 16.73358 40.13363
#
# Velocity S-wave (km/s) = 5.67109 2.91044 4.50732
# Velocity P-wave (km/s) = 8.29899 6.21760 7.33252
#
# Compressibility (1/GPa) = 0.01947591
#
# Stress axis : x y z
#
# Youngs Moduli (GPa) = 85.80207 53.76144 50.22172
#
# Poissons Ratio (x) = 0.21302 0.23008
# Poissons Ratio (y) = 0.33998 0.34161
# Poissons Ratio (z) = 0.39308 0.36569
#
# Static dielectric constant tensor:
#      x y z
#    x 4.059030 0.000000 0.000000 
#    y 0.000000 3.549540 0.000000 
#    z 0.000000 0.000000 3.308010 
# 
# 
# High freq. dielectric constant tensor:
#      x y z
#    x 1.785230 0.000000 0.000000 
#    y 0.000000 1.757330 0.000000 
#    z 0.000000 0.000000 1.740720 
# 
# From -- ./inp_files/11553.got.cif
#   From: 2010.03.12/outbox.cif.g09.slc.cpg/sg44_6_cif.got.tgz:11553.got - 2010.04.14 02:36:11.
