data_PCOD8188135
_publ_section_title
;
Structure prediction by ZEFSAII (Michael W. Deem and Ramdas Pophale) SiO2 
 PCOD8188135
Probable space group: I M M 2
;
_chemical_formula_sum "Si O2"
_cell_formula_units_Z 64
_cell_length_a 20.974892
_cell_length_b 8.950512
_cell_length_c 19.830345
_cell_angle_alpha 90.000000
_cell_angle_beta 90.000000
_cell_angle_gamma 90.000000
_cell_volume 3722.870096
_symmetry_space_group_name_H-M "I M M 2"
_symmetry_group_IT_number 44
_symmetry_cell_setting 'orthorhombic'
loop_
_space_group_symop_operation_xyz
x,y,z
-x,-y,z
-x,y,z
x,-y,z
1/2+x,1/2+y,1/2+z
1/2-x,1/2-y,1/2+z
1/2-x,1/2+y,1/2+z
1/2+x,1/2-y,1/2+z
loop_
_atom_site_type_symbol
_atom_site_label
_atom_site_fract_x
_atom_site_fract_y
_atom_site_fract_z
Si Si1 0.187315 0.322675 0.354390
Si Si2 0.189689 0.175461 0.932740
Si Si3 0.228010 0.676809 0.210430
Si Si4 0.371908 0.325102 0.216437
Si Si5 0.263921 0.324713 0.576035
Si Si6 0.627984 0.324117 0.068029
Si Si7 0.429949 0.321512 0.351838
Si Si8 0.071537 0.326204 0.443566
O O1 0.189992 0.500000 0.357985
O O2 0.248549 0.255877 0.394188
O O3 0.187484 0.272651 0.275895
O O4 0.122020 0.264099 0.388653
O O5 0.123889 0.242135 0.902657
O O6 0.190912 0.000000 0.919180
O O7 0.191028 0.211358 0.012185
O O8 0.225084 0.500000 0.198690
O O9 0.299848 0.735431 0.222109
O O10 0.202258 0.756228 0.142518
O O11 0.368158 0.500000 0.227729
O O12 0.400222 0.286817 0.142548
O O13 0.414999 0.258623 0.276445
O O14 0.253802 0.500000 0.585726
O O15 0.196313 0.251606 0.559390
O O16 0.636885 0.500000 0.058419
O O17 0.578948 0.261071 0.013631
O O18 0.500000 0.261677 0.373099
O O19 0.430069 0.500000 0.352523
O O20 0.084048 0.500000 0.458018
O O21 0.000000 0.298638 0.416065
#
# Coordination Sequence:
#
# PCOD8188135 Si02
#       8
#     8   8   8   8   8   8   8   8
#     4   9  15  28  49  67  87 121 162 202 238 281
#     4   9  15  25  44  66  88 121 157 189 232 277
#     4   9  16  28  48  69  91 120 157 197 239 281
#     4   8  14  24  38  61  90 119 148 183 226 273
#     4  10  18  29  47  70  98 125 155 195 241 286
#     4  10  19  30  46  69  98 129 161 193 235 286
#     4   9  15  23  38  63  92 119 151 190 226 268
#     4  10  20  33  49  70  95 128 167 203 244 292
#
# _framework density 17.191037000000001
#
# number of rings (size 3 to 8) (size 9 to 14) (size 15 to 20)
#    0.000    2.750    2.500    1.500    0.000    0.750 
#    0.000    1.875    0.000    0.750    0.000    0.000 
#    0.000   11.500    0.000    0.000    0.000    0.000 
#
# Total GULP energy -396566.723919 kJ/mol
# GULP energy per Si atom -12392.710122 kJ/mol
# Density = 1.715191 g / cm^3
# Si number density = 17.191037 Si / 1000 Ang^3
#
#
#
# Elastic Constant Matrix: (Units=GPa)
#
#
# Indices 1 2 3 4 5 6 
#
# 1 117.3530 20.4199 80.0980 0.0000 0.0000 0.0000
# 2 20.4199 34.3150 29.6679 0.0000 0.0000 0.0000
# 3 80.0980 29.6679 142.6718 0.0000 0.0000 0.0000
# 4 0.0000 0.0000 0.0000 23.5132 0.0000 0.0000
# 5 0.0000 0.0000 0.0000 0.0000 25.1843 0.0000
# 6 0.0000 0.0000 0.0000 0.0000 0.0000 10.6580
#
#
#
# Elastic Compliance Matrix: (Units=1/GPa)
#
#
# Indices 1 2 3 4 5 6 
#
# 1 0.013912 -0.001860 -0.007423 0.000000 0.000000 0.000000
# 2 -0.001860 0.035778 -0.006395 0.000000 0.000000 0.000000
# 3 -0.007423 -0.006395 0.012507 0.000000 0.000000 0.000000
# 4 0.000000 0.000000 0.000000 0.042529 0.000000 0.000000
# 5 0.000000 0.000000 0.000000 0.000000 0.039707 0.000000
# 6 0.000000 0.000000 0.000000 0.000000 0.000000 0.093826
#
#
# Mechanical properties :
#
#
# Convention : Reuss Voigt Hill
#
# Bulk Modulus (GPa) = 32.42748 61.63459 47.03104
# Shear Modulus (GPa) = 17.86372 22.81473 20.33923
#
# Velocity S-wave (km/s) = 3.22705 3.64693 3.44340
# Velocity P-wave (km/s) = 5.72618 7.32558 6.57469
#
# Compressibility (1/GPa) = 0.03083804
#
# Stress axis : x y z
#
# Youngs Moduli (GPa) = 71.88150 27.95002 79.95779
#
# Poissons Ratio (x) = 0.05200 0.59356
# Poissons Ratio (y) = 0.13373 0.51136
# Poissons Ratio (z) = 0.53361 0.17875
#
# Static dielectric constant tensor:
#      x y z
#    x 3.214960 0.000000 0.000000 
#    y 0.000000 2.800120 0.000000 
#    z 0.000000 0.000000 3.510320 
# 
# 
# High freq. dielectric constant tensor:
#      x y z
#    x 1.639030 0.000000 0.000000 
#    y 0.000000 1.615760 0.000000 
#    z 0.000000 0.000000 1.673610 
# 
# From -- ./inp_files/23320.got.cif
#   From: 2010.03.12/outbox.cif.g09.slc.cpg/sg44_12_cif.got.tgz:23320.got - 2010.04.14 02:36:11.
