data_PCOD8188464
_publ_section_title
;
Structure prediction by ZEFSAII (Michael W. Deem and Ramdas Pophale) SiO2 
 PCOD8188464
Probable space group: I M M 2
;
_chemical_formula_sum "Si O2"
_cell_formula_units_Z 64
_cell_length_a 9.286648
_cell_length_b 22.540852
_cell_length_c 15.399312
_cell_angle_alpha 90.000000
_cell_angle_beta 90.000000
_cell_angle_gamma 90.000000
_cell_volume 3223.521937
_symmetry_space_group_name_H-M "I M M 2"
_symmetry_group_IT_number 44
_symmetry_cell_setting 'orthorhombic'
loop_
_space_group_symop_operation_xyz
x,y,z
-x,-y,z
-x,y,z
x,-y,z
1/2+x,1/2+y,1/2+z
1/2-x,1/2-y,1/2+z
1/2-x,1/2+y,1/2+z
1/2+x,1/2-y,1/2+z
loop_
_atom_site_type_symbol
_atom_site_label
_atom_site_fract_x
_atom_site_fract_y
_atom_site_fract_z
Si Si1 0.667163 0.433588 0.678090
Si Si2 0.840221 0.429729 0.509058
Si Si3 0.334588 0.229740 0.617187
Si Si4 0.158940 0.600282 0.189907
Si Si5 0.331941 0.684179 0.763763
Si Si6 0.828268 0.182155 0.456495
Si Si7 0.335301 0.065890 0.500032
Si Si8 0.841177 0.930562 0.851568
O O1 0.500000 0.432761 0.652212
O O2 0.713351 0.500000 0.708474
O O3 0.754097 0.411850 0.594568
O O4 0.702338 0.386186 0.753447
O O5 0.849497 0.500000 0.500296
O O6 0.758943 0.401683 0.425993
O O7 0.000000 0.402047 0.513477
O O8 0.500000 0.244007 0.591413
O O9 0.323732 0.168992 0.668921
O O10 0.265028 0.278455 0.683172
O O11 0.242923 0.225456 0.527981
O O12 0.182173 0.562109 0.103630
O O13 0.278638 0.581274 0.257311
O O14 0.000000 0.587653 0.229003
O O15 0.500000 0.696381 0.757252
O O16 0.281113 0.704451 0.859859
O O17 0.773742 0.114365 0.462659
O O18 0.000000 0.182256 0.468381
O O19 0.500000 0.084400 0.477050
O O20 0.299721 0.000000 0.462895
O O21 0.000000 0.901921 0.856896
O O22 0.852102 0.000000 0.868716
#
# Coordination Sequence:
#
# PCOD8188464 Si02
#       8
#     8   8   8   8   8   8   8   8
#     4   9  17  32  55  80 106 137 174 216 265 325
#     4   9  17  30  47  68  99 137 173 212 260 313
#     4   9  19  39  59  74 104 149 187 224 274 332
#     4   9  17  30  49  70  96 136 182 225 267 316
#     4   9  19  37  60  82 109 146 183 221 276 337
#     4  10  20  35  57  85 114 143 183 237 283 323
#     4   9  18  33  53  78 111 151 187 219 269 336
#     4  10  19  29  44  69 102 138 176 221 272 323
#
# _framework density 19.854061000000002
#
# number of rings (size 3 to 8) (size 9 to 14) (size 15 to 20)
#    0.000    2.750    0.000    2.250    0.000    5.500 
#    2.250    4.375    0.000    1.500    0.000    0.000 
#    0.000    0.000    0.000    0.000    0.000    0.000 
#
# Total GULP energy -396607.758145 kJ/mol
# GULP energy per Si atom -12393.992442 kJ/mol
# Density = 1.980887 g / cm^3
# Si number density = 19.854061 Si / 1000 Ang^3
#
#
#
# Elastic Constant Matrix: (Units=GPa)
#
#
# Indices 1 2 3 4 5 6 
#
# 1 95.7402 19.4759 54.4499 0.0000 0.0000 0.0000
# 2 19.4759 67.6547 41.1107 0.0000 0.0000 0.0000
# 3 54.4499 41.1107 126.3901 -0.0001 0.0001 0.0000
# 4 0.0000 0.0000 -0.0001 21.3962 0.0000 0.0000
# 5 0.0000 0.0000 0.0001 0.0000 28.3778 0.0000
# 6 0.0000 0.0000 0.0000 0.0000 0.0000 17.4602
#
#
#
# Elastic Compliance Matrix: (Units=1/GPa)
#
#
# Indices 1 2 3 4 5 6 
#
# 1 0.013846 -0.000450 -0.005818 0.000000 0.000000 0.000000
# 2 -0.000450 0.018437 -0.005803 0.000000 0.000000 0.000000
# 3 -0.005818 -0.005803 0.012306 0.000000 0.000000 0.000000
# 4 0.000000 0.000000 0.000000 0.046737 0.000000 0.000000
# 5 0.000000 0.000000 0.000000 0.000000 0.035239 0.000000
# 6 0.000000 0.000000 0.000000 0.000000 0.000000 0.057273
#
#
# Mechanical properties :
#
#
# Convention : Reuss Voigt Hill
#
# Bulk Modulus (GPa) = 48.91068 57.76201 53.33634
# Shear Modulus (GPa) = 23.27796 25.09676 24.18736
#
# Velocity S-wave (km/s) = 3.42783 3.55922 3.49414
# Velocity P-wave (km/s) = 6.35258 6.78581 6.57276
#
# Compressibility (1/GPa) = 0.02044543
#
# Stress axis : x y z
#
# Youngs Moduli (GPa) = 72.22530 54.23958 81.26049
#
# Poissons Ratio (x) = 0.02442 0.47280
# Poissons Ratio (y) = 0.03252 0.47155
# Poissons Ratio (z) = 0.42023 0.31475
#
# Static dielectric constant tensor:
#      x y z
#    x 3.624410 0.000000 0.000000 
#    y 0.000000 3.576210 0.000000 
#    z 0.000000 0.000000 3.600440 
# 
# 
# High freq. dielectric constant tensor:
#      x y z
#    x 1.761390 0.000000 0.000000 
#    y 0.000000 1.754130 0.000000 
#    z 0.000000 0.000000 1.771730 
# 
# From -- ./inp_files/16788.got.cif
#   From: 2010.03.12/outbox.cif.g09.slc.cpg/sg44_9_cif.got.tgz:16788.got - 2010.04.14 02:36:11.
