data_PCOD8188244
_publ_section_title
;
Structure prediction by ZEFSAII (Michael W. Deem and Ramdas Pophale) SiO2 
 PCOD8188244
Probable space group: I M M 2
;
_chemical_formula_sum "Si O2"
_cell_formula_units_Z 48
_cell_length_a 13.243582
_cell_length_b 20.144919
_cell_length_c 11.881930
_cell_angle_alpha 90.000000
_cell_angle_beta 90.000000
_cell_angle_gamma 90.000000
_cell_volume 3169.990640
_symmetry_space_group_name_H-M "I M M 2"
_symmetry_group_IT_number 44
_symmetry_cell_setting 'orthorhombic'
loop_
_space_group_symop_operation_xyz
x,y,z
-x,-y,z
-x,y,z
x,-y,z
1/2+x,1/2+y,1/2+z
1/2-x,1/2-y,1/2+z
1/2-x,1/2+y,1/2+z
1/2+x,1/2-y,1/2+z
loop_
_atom_site_type_symbol
_atom_site_label
_atom_site_fract_x
_atom_site_fract_y
_atom_site_fract_z
Si Si1 0.116535 0.924563 0.227450
Si Si2 0.615317 0.306666 0.883325
Si Si3 0.617496 0.924748 0.871644
Si Si4 0.617500 0.263017 0.130395
Si Si5 0.235504 0.359810 0.553131
Si Si6 0.249086 0.311371 0.320000
O O1 0.137897 0.880796 0.338703
O O2 0.181377 0.898640 0.123217
O O3 0.000000 0.919573 0.190706
O O4 0.146806 0.000000 0.256751
O O5 0.500000 0.286100 0.860306
O O6 0.682872 0.255373 0.813326
O O7 0.637931 0.303943 0.016152
O O8 0.500000 0.908248 0.864355
O O9 0.677682 0.874644 0.788379
O O10 0.640786 0.000000 0.835692
O O11 0.654683 0.911771 0.000240
O O12 0.500000 0.249679 0.150508
O O13 0.674451 0.192578 0.129018
O O14 0.659002 0.307247 0.233129
O O15 0.290110 0.321543 0.448103
#
# Coordination Sequence:
#
# PCOD8188244 Si02
#       6
#     8   8   8   8   8   8
#     4  10  19  31  49  72  99 129 159 197 243 286
#     4   9  17  31  49  69  94 124 161 200 230 278
#     4   9  17  30  49  72  96 122 156 197 240 287
#     4  10  18  31  50  71  98 127 160 199 238 284
#     4   9  18  30  48  72  98 123 156 198 244 283
#     4   9  18  29  47  71  96 124 157 192 243 283
#
# _framework density 15.141999999999999
#
# number of rings (size 3 to 8) (size 9 to 14) (size 15 to 20)
#    1.000    1.667    1.667    1.500    0.000    0.667 
#    0.000    0.833    0.000    1.500    0.000    0.000 
#    0.000    0.000    0.000    0.000    0.000    0.000 
#
# Total GULP energy -297394.099424 kJ/mol
# GULP energy per Si atom -12391.420809 kJ/mol
# Density = 1.510754 g / cm^3
# Si number density = 15.142000 Si / 1000 Ang^3
#
#
#
# Elastic Constant Matrix: (Units=GPa)
#
#
# Indices 1 2 3 4 5 6 
#
# 1 67.8105 49.8371 39.9056 0.0000 0.0000 0.0000
# 2 49.8371 114.4282 39.9423 0.0003 0.0001 0.0000
# 3 39.9056 39.9423 57.5855 0.0007 0.0001 0.0001
# 4 0.0000 0.0003 0.0007 22.5975 0.0001 0.0001
# 5 0.0000 0.0001 0.0001 0.0001 28.1874 0.0000
# 6 0.0000 0.0000 0.0001 0.0001 0.0000 19.6893
#
#
#
# Elastic Compliance Matrix: (Units=1/GPa)
#
#
# Indices 1 2 3 4 5 6 
#
# 1 0.028989 -0.007407 -0.014952 0.000001 0.000000 0.000000
# 2 -0.007407 0.013423 -0.004178 0.000000 0.000000 0.000000
# 3 -0.014952 -0.004178 0.030624 -0.000001 0.000000 0.000000
# 4 0.000001 0.000000 -0.000001 0.044253 0.000000 0.000000
# 5 0.000000 0.000000 0.000000 0.000000 0.035477 0.000000
# 6 0.000000 0.000000 0.000000 0.000000 0.000000 0.050789
#
#
# Mechanical properties :
#
#
# Convention : Reuss Voigt Hill
#
# Bulk Modulus (GPa) = 50.08852 55.46604 52.77728
# Shear Modulus (GPa) = 18.99097 21.43746 20.21422
#
# Velocity S-wave (km/s) = 3.54530 3.76674 3.65770
# Velocity P-wave (km/s) = 7.06469 7.45841 7.26422
#
# Compressibility (1/GPa) = 0.01996465
#
# Stress axis : x y z
#
# Youngs Moduli (GPa) = 34.49540 74.49711 32.65366
#
# Poissons Ratio (x) = 0.55179 0.48822
# Poissons Ratio (y) = 0.25550 0.13642
# Poissons Ratio (z) = 0.51576 0.31124
#
# Static dielectric constant tensor:
#      x y z
#    x 2.794750 0.000000 0.000000 
#    y 0.000000 2.950390 0.000000 
#    z 0.000000 0.000000 2.705940 
# 
# 
# High freq. dielectric constant tensor:
#      x y z
#    x 1.573770 0.000000 0.000000 
#    y 0.000000 1.582740 0.000000 
#    z 0.000000 0.000000 1.557880 
# 
# From -- ./inp_files/12369.got.cif
#   From: 2010.03.12/outbox.cif.g09.slc.cpg/sg44_7_cif.got.tgz:12369.got - 2010.04.14 02:36:11.
