data_PCOD8188053
_publ_section_title
;
Structure prediction by ZEFSAII (Michael W. Deem and Ramdas Pophale) SiO2 
 PCOD8188053
Probable space group: I M M 2
;
_chemical_formula_sum "Si O2"
_cell_formula_units_Z 64
_cell_length_a 18.531233
_cell_length_b 8.878969
_cell_length_c 26.502586
_cell_angle_alpha 90.000000
_cell_angle_beta 90.000000
_cell_angle_gamma 90.000000
_cell_volume 4360.688944
_symmetry_space_group_name_H-M "I M M 2"
_symmetry_group_IT_number 44
_symmetry_cell_setting 'orthorhombic'
loop_
_space_group_symop_operation_xyz
x,y,z
-x,-y,z
-x,y,z
x,-y,z
1/2+x,1/2+y,1/2+z
1/2-x,1/2-y,1/2+z
1/2-x,1/2+y,1/2+z
1/2+x,1/2-y,1/2+z
loop_
_atom_site_type_symbol
_atom_site_label
_atom_site_fract_x
_atom_site_fract_y
_atom_site_fract_z
Si Si1 0.920443 0.822288 0.485010
Si Si2 0.835654 0.822010 0.094737
Si Si3 0.717313 0.676409 0.444707
Si Si4 0.214566 0.175994 0.541093
Si Si5 0.667366 0.678063 0.888270
Si Si6 0.079097 0.824020 0.997044
Si Si7 0.082822 0.825772 0.289240
Si Si8 0.917309 0.323457 0.185455
O O1 0.870690 0.783709 0.534103
O O2 0.884933 0.762368 0.433002
O O3 0.000000 0.749793 0.492333
O O4 0.927369 0.000000 0.479456
O O5 0.753043 0.765193 0.086785
O O6 0.884539 0.760010 0.048348
O O7 0.865594 0.759614 0.146707
O O8 0.834820 0.000000 0.096945
O O9 0.734001 0.500000 0.453026
O O10 0.750268 0.776901 0.488658
O O11 0.754520 0.737756 0.393401
O O12 0.630557 0.705196 0.448152
O O13 0.226103 0.000000 0.550517
O O14 0.679454 0.500000 0.891270
O O15 0.632763 0.726436 0.835387
O O16 0.000000 0.749067 0.988517
O O17 0.069229 0.000000 0.005312
O O18 0.105369 0.726673 0.241366
O O19 0.000000 0.796948 0.304795
O O20 0.095290 0.000000 0.275754
O O21 0.906181 0.500000 0.180043
O O22 0.000000 0.275945 0.174731
#
# Coordination Sequence:
#
# PCOD8188053 Si02
#       8
#     8   8   8   8   8   8   8   8
#     4   8  13  22  38  59  80 104 135 166 195 231
#     4  10  18  28  43  59  78 107 140 169 199 240
#     4   9  16  25  38  56  78 104 133 165 200 239
#     4   9  16  26  40  57  79 105 133 168 204 236
#     4   9  16  26  41  58  78 106 137 168 199 233
#     4   8  14  24  38  56  76 100 132 165 193 225
#     4   9  17  29  44  60  78 104 139 172 200 235
#     4  10  20  31  42  59  83 107 133 169 208 240
#
# _framework density 14.67658
#
# number of rings (size 3 to 8) (size 9 to 14) (size 15 to 20)
#    0.000    3.000    0.000    3.750    0.000    3.250 
#    0.000    0.000    0.000   19.875    0.000    0.000 
#    0.000    1.000    0.000    9.750    0.000    2.750 
#
# Total GULP energy -396492.593872 kJ/mol
# GULP energy per Si atom -12390.393558 kJ/mol
# Density = 1.464318 g / cm^3
# Si number density = 14.676580 Si / 1000 Ang^3
#
#
#
# Elastic Constant Matrix: (Units=GPa)
#
#
# Indices 1 2 3 4 5 6 
#
# 1 108.6684 32.1360 56.8064 0.0000 0.0000 0.0000
# 2 32.1360 40.4413 31.7313 0.0000 0.0000 0.0000
# 3 56.8064 31.7313 79.3333 0.0000 0.0000 0.0000
# 4 0.0000 0.0000 0.0000 21.6535 0.0000 0.0000
# 5 0.0000 0.0000 0.0000 0.0000 27.3663 0.0000
# 6 0.0000 0.0000 0.0000 0.0000 0.0000 18.1241
#
#
#
# Elastic Compliance Matrix: (Units=1/GPa)
#
#
# Indices 1 2 3 4 5 6 
#
# 1 0.015433 -0.005236 -0.008956 0.000000 0.000000 0.000000
# 2 -0.005236 0.037813 -0.011375 0.000000 0.000000 0.000000
# 3 -0.008956 -0.011375 0.023568 0.000000 0.000000 0.000000
# 4 0.000000 0.000000 0.000000 0.046182 0.000000 0.000000
# 5 0.000000 0.000000 0.000000 0.000000 0.036541 0.000000
# 6 0.000000 0.000000 0.000000 0.000000 0.000000 0.055175
#
#
# Mechanical properties :
#
#
# Convention : Reuss Voigt Hill
#
# Bulk Modulus (GPa) = 38.94231 52.19891 45.57061
# Shear Modulus (GPa) = 18.22119 20.61340 19.41730
#
# Velocity S-wave (km/s) = 3.52734 3.75174 3.64127
# Velocity P-wave (km/s) = 6.57120 7.37637 6.98540
#
# Compressibility (1/GPa) = 0.02567901
#
# Stress axis : x y z
#
# Youngs Moduli (GPa) = 64.79805 26.44595 42.43069
#
# Poissons Ratio (x) = 0.13847 0.38002
# Poissons Ratio (y) = 0.33928 0.48265
# Poissons Ratio (z) = 0.58034 0.30082
#
# Static dielectric constant tensor:
#      x y z
#    x 3.299560 0.000000 0.000000 
#    y 0.000000 2.766400 0.000000 
#    z 0.000000 0.000000 2.713750 
# 
# 
# High freq. dielectric constant tensor:
#      x y z
#    x 1.555070 0.000000 0.000000 
#    y 0.000000 1.553850 0.000000 
#    z 0.000000 0.000000 1.526700 
# 
# From -- ./inp_files/25236.got.cif
#   From: 2010.03.12/outbox.cif.g09.slc.cpg/sg44_13_cif.got.tgz:25236.got - 2010.04.14 02:36:11.
