data_PCOD8188224
_publ_section_title
;
Structure prediction by ZEFSAII (Michael W. Deem and Ramdas Pophale) SiO2 
 PCOD8188224
Probable space group: I M M 2
;
_chemical_formula_sum "Si O2"
_cell_formula_units_Z 64
_cell_length_a 8.826172
_cell_length_b 20.721654
_cell_length_c 19.753709
_cell_angle_alpha 90.000000
_cell_angle_beta 90.000000
_cell_angle_gamma 90.000000
_cell_volume 3612.812776
_symmetry_space_group_name_H-M "I M M 2"
_symmetry_group_IT_number 44
_symmetry_cell_setting 'orthorhombic'
loop_
_space_group_symop_operation_xyz
x,y,z
-x,-y,z
-x,y,z
x,-y,z
1/2+x,1/2+y,1/2+z
1/2-x,1/2-y,1/2+z
1/2-x,1/2+y,1/2+z
1/2+x,1/2-y,1/2+z
loop_
_atom_site_type_symbol
_atom_site_label
_atom_site_fract_x
_atom_site_fract_y
_atom_site_fract_z
Si Si1 0.320285 0.120169 0.963080
Si Si2 0.678834 0.682020 0.110009
Si Si3 0.178132 0.236155 0.322066
Si Si4 0.678671 0.189379 0.192620
Si Si5 0.679057 0.375907 0.325816
Si Si6 0.322926 0.265205 0.971326
Si Si7 0.673971 0.072995 0.695964
Si Si8 0.179593 0.429167 0.605154
O O1 0.500000 0.118036 0.951593
O O2 0.241024 0.093088 0.895480
O O3 0.259482 0.192653 0.975547
O O4 0.267056 0.078699 0.027461
O O5 0.500000 0.668974 0.113532
O O6 0.721653 0.745766 0.152545
O O7 0.764544 0.620212 0.138235
O O8 0.740742 0.691464 0.032883
O O9 0.242093 0.187747 0.265835
O O10 0.256440 0.304871 0.312738
O O11 0.214693 0.206281 0.396710
O O12 0.000000 0.246218 0.313112
O O13 0.500000 0.183842 0.202867
O O14 0.745437 0.127353 0.152604
O O15 0.500000 0.371935 0.327675
O O16 0.730558 0.421032 0.264590
O O17 0.500000 0.260135 0.984381
O O18 0.500000 0.090190 0.711390
O O19 0.691312 0.000000 0.668982
O O20 0.232915 0.500000 0.630743
O O21 0.000000 0.423072 0.606289
#
# Coordination Sequence:
#
# PCOD8188224 Si02
#       8
#     8   8   8   8   8   8   8   8
#     4   9  16  30  50  73 104 141 179 212 247 296
#     4  10  18  32  55  78 101 132 172 219 263 303
#     4  10  19  32  53  78 105 136 173 214 259 307
#     4  10  18  30  52  80 107 136 174 219 260 300
#     4  11  21  33  50  75 106 139 174 210 254 306
#     4   8  15  29  50  75 101 132 167 209 256 305
#     4  11  24  39  53  73 103 138 175 214 258 311
#     4   9  17  30  51  78 107 142 181 214 251 305
#
# _framework density 17.714728999999998
#
# number of rings (size 3 to 8) (size 9 to 14) (size 15 to 20)
#    0.000    2.250    2.500    2.625    0.000    1.500 
#    0.000    5.000    0.000    1.875    0.000    3.500 
#    0.000    0.000    0.000    0.000    0.000    0.000 
#
# Total GULP energy -396690.638162 kJ/mol
# GULP energy per Si atom -12396.582443 kJ/mol
# Density = 1.767441 g / cm^3
# Si number density = 17.714729 Si / 1000 Ang^3
#
#
#
# Elastic Constant Matrix: (Units=GPa)
#
#
# Indices 1 2 3 4 5 6 
#
# 1 62.8254 33.9178 43.2366 0.0000 0.0000 0.0000
# 2 33.9178 97.9988 60.8515 0.0000 0.0000 0.0000
# 3 43.2366 60.8515 133.6200 0.0000 0.0000 0.0000
# 4 0.0000 0.0000 0.0000 25.2487 0.0000 0.0000
# 5 0.0000 0.0000 0.0000 0.0000 28.5198 0.0000
# 6 0.0000 0.0000 0.0000 0.0000 0.0000 17.2861
#
#
#
# Elastic Compliance Matrix: (Units=1/GPa)
#
#
# Indices 1 2 3 4 5 6 
#
# 1 0.021760 -0.004405 -0.005035 0.000000 0.000000 0.000000
# 2 -0.004405 0.015119 -0.005460 0.000000 0.000000 0.000000
# 3 -0.005035 -0.005460 0.011600 0.000000 0.000000 0.000000
# 4 0.000000 0.000000 0.000000 0.039606 0.000000 0.000000
# 5 0.000000 0.000000 0.000000 0.000000 0.035063 0.000000
# 6 0.000000 0.000000 0.000000 0.000000 0.000000 0.057850
#
#
# Mechanical properties :
#
#
# Convention : Reuss Voigt Hill
#
# Bulk Modulus (GPa) = 53.53570 63.38399 58.45984
# Shear Modulus (GPa) = 23.03881 24.64015 23.83948
#
# Velocity S-wave (km/s) = 3.61022 3.73358 3.67242
# Velocity P-wave (km/s) = 6.90397 7.37863 7.14525
#
# Compressibility (1/GPa) = 0.01867913
#
# Stress axis : x y z
#
# Youngs Moduli (GPa) = 45.95501 66.14160 86.20883
#
# Poissons Ratio (x) = 0.29134 0.43408
# Poissons Ratio (y) = 0.20242 0.47070
# Poissons Ratio (z) = 0.23139 0.36114
#
# Static dielectric constant tensor:
#      x y z
#    x 3.053980 0.000000 0.000000 
#    y 0.000000 3.170040 0.000000 
#    z 0.000000 0.000000 3.609080 
# 
# 
# High freq. dielectric constant tensor:
#      x y z
#    x 1.662150 0.000000 0.000000 
#    y 0.000000 1.658820 0.000000 
#    z 0.000000 0.000000 1.694490 
# 
# From -- ./inp_files/22301.got.cif
#   From: 2010.03.12/outbox.cif.g09.slc.cpg/sg44_12_cif.got.tgz:22301.got - 2010.04.14 02:36:11.
