data_PCOD8188958
_publ_section_title
;
Structure prediction by ZEFSAII (Michael W. Deem and Ramdas Pophale) SiO2 
 PCOD8188958
Probable space group: I M M 2
;
_chemical_formula_sum "Si O2"
_cell_formula_units_Z 64
_cell_length_a 9.468129
_cell_length_b 14.518504
_cell_length_c 24.031752
_cell_angle_alpha 90.000000
_cell_angle_beta 90.000000
_cell_angle_gamma 90.000000
_cell_volume 3303.478378
_symmetry_space_group_name_H-M "I M M 2"
_symmetry_group_IT_number 44
_symmetry_cell_setting 'orthorhombic'
loop_
_space_group_symop_operation_xyz
x,y,z
-x,-y,z
-x,y,z
x,-y,z
1/2+x,1/2+y,1/2+z
1/2-x,1/2-y,1/2+z
1/2-x,1/2+y,1/2+z
1/2+x,1/2-y,1/2+z
loop_
_atom_site_type_symbol
_atom_site_label
_atom_site_fract_x
_atom_site_fract_y
_atom_site_fract_z
Si Si1 0.665225 0.740174 0.814320
Si Si2 0.664282 0.607102 0.910079
Si Si3 0.334775 0.259826 0.201733
Si Si4 0.842527 0.303852 0.008026
Si Si5 0.161325 0.401941 0.627581
Si Si6 0.735329 0.396817 0.508026
Si Si7 0.838675 0.401941 0.388472
Si Si8 0.664282 0.607102 0.105974
O O1 0.500000 0.751999 0.801110
O O2 0.692397 0.644757 0.847463
O O3 0.750000 0.750000 0.758026
O O4 0.730747 0.819682 0.853970
O O5 0.500000 0.622698 0.925973
O O6 0.704977 0.500000 0.911318
O O7 0.759274 0.662174 0.953724
O O8 0.500000 0.248001 0.214943
O O9 0.269253 0.180318 0.162082
O O10 0.307603 0.355243 0.168589
O O11 0.866055 0.192492 0.008026
O O12 0.759274 0.337826 0.062329
O O13 0.000000 0.346781 0.008026
O O14 0.234690 0.500000 0.643140
O O15 0.166991 0.385910 0.561781
O O16 0.000000 0.405565 0.645331
O O17 0.660955 0.500000 0.508026
O O18 0.833009 0.385910 0.454272
O O19 0.765310 0.500000 0.372912
O O20 0.000000 0.405565 0.370721
O O21 0.500000 0.622698 0.090080
O O22 0.704977 0.500000 0.104734
#
# Coordination Sequence:
#
# PCOD8188958 Si02
#       8
#     8   8   8   8   8   8   8   8
#     4  10  21  37  57  82 113 149 193 238 282 336
#     4  10  22  41  63  85 114 156 201 240 284 345
#     4  10  21  37  57  82 113 149 193 238 282 336
#     4  12  24  37  59  91 124 151 185 238 297 350
#     4   9  17  31  55  85 111 140 182 232 282 335
#     4  10  19  34  57  85 117 149 183 225 284 354
#     4   9  17  31  55  85 111 140 182 232 282 335
#     4  10  22  41  63  85 114 156 201 240 284 345
#
# _framework density 19.373519000000002
#
# number of rings (size 3 to 8) (size 9 to 14) (size 15 to 20)
#    0.000    2.000    2.500    1.125    0.000    6.750 
#    0.000    0.000    0.000    0.000    0.000    0.000 
#    0.000    0.000    0.000    0.000    0.000    0.000 
#
# Total GULP energy -396442.646691 kJ/mol
# GULP energy per Si atom -12388.832709 kJ/mol
# Density = 1.932942 g / cm^3
# Si number density = 19.373519 Si / 1000 Ang^3
#
#
#
# Elastic Constant Matrix: (Units=GPa)
#
#
# Indices 1 2 3 4 5 6 
#
# 1 71.1293 41.2228 47.8760 0.0000 0.0000 0.0000
# 2 41.2228 154.6798 67.8721 0.0000 0.0000 0.0000
# 3 47.8760 67.8721 145.5309 0.0000 0.0000 0.0000
# 4 0.0000 0.0000 0.0000 23.9549 0.0000 0.0000
# 5 0.0000 0.0000 0.0000 0.0000 26.5374 0.0000
# 6 0.0000 0.0000 0.0000 0.0000 0.0000 12.1066
#
#
#
# Elastic Compliance Matrix: (Units=1/GPa)
#
#
# Indices 1 2 3 4 5 6 
#
# 1 0.019056 -0.002927 -0.004904 0.000000 0.000000 0.000000
# 2 -0.002927 0.008578 -0.003038 0.000000 0.000000 0.000000
# 3 -0.004904 -0.003038 0.009901 0.000000 0.000000 0.000000
# 4 0.000000 0.000000 0.000000 0.041745 0.000000 0.000000
# 5 0.000000 0.000000 0.000000 0.000000 0.037683 0.000000
# 6 0.000000 0.000000 0.000000 0.000000 0.000000 0.082599
#
#
# Mechanical properties :
#
#
# Convention : Reuss Voigt Hill
#
# Bulk Modulus (GPa) = 63.29749 76.14242 69.71995
# Shear Modulus (GPa) = 22.06874 26.81108 24.43991
#
# Velocity S-wave (km/s) = 3.37874 3.72412 3.55563
# Velocity P-wave (km/s) = 6.92563 7.60787 7.27475
#
# Compressibility (1/GPa) = 0.01579841
#
# Stress axis : x y z
#
# Youngs Moduli (GPa) = 52.47747 116.57934 100.99595
#
# Poissons Ratio (x) = 0.34119 0.49528
# Poissons Ratio (y) = 0.15358 0.30680
# Poissons Ratio (z) = 0.25735 0.35413
#
# Static dielectric constant tensor:
#      x y z
#    x 3.126780 0.000000 0.000000 
#    y 0.000000 4.174400 0.000000 
#    z 0.000000 0.000000 3.435870 
# 
# 
# High freq. dielectric constant tensor:
#      x y z
#    x 1.715030 0.000000 0.000000 
#    y 0.000000 1.777090 0.000000 
#    z 0.000000 0.000000 1.749240 
# 
# From -- ./inp_files/25127.got.cif
#   From: 2010.03.12/outbox.cif.g09.slc.cpg/sg44_13_cif.got.tgz:25127.got - 2010.04.14 02:36:11.
