data_PCOD8188401
_publ_section_title
;
Structure prediction by ZEFSAII (Michael W. Deem and Ramdas Pophale) SiO2 
 PCOD8188401
Probable space group: I M M 2
;
_chemical_formula_sum "Si O2"
_cell_formula_units_Z 64
_cell_length_a 18.722643
_cell_length_b 14.388770
_cell_length_c 11.856123
_cell_angle_alpha 90.000000
_cell_angle_beta 90.000000
_cell_angle_gamma 90.000000
_cell_volume 3193.989787
_symmetry_space_group_name_H-M "I M M 2"
_symmetry_group_IT_number 44
_symmetry_cell_setting 'orthorhombic'
loop_
_space_group_symop_operation_xyz
x,y,z
-x,-y,z
-x,y,z
x,-y,z
1/2+x,1/2+y,1/2+z
1/2-x,1/2-y,1/2+z
1/2-x,1/2+y,1/2+z
1/2+x,1/2-y,1/2+z
loop_
_atom_site_type_symbol
_atom_site_label
_atom_site_fract_x
_atom_site_fract_y
_atom_site_fract_z
Si Si1 0.657014 0.606998 0.321300
Si Si2 0.280430 0.601389 0.703036
Si Si3 0.365219 0.898767 0.086485
Si Si4 0.666298 0.737770 0.528647
Si Si5 0.081015 0.397855 0.131230
Si Si6 0.081574 0.197509 0.609588
Si Si7 0.179538 0.367199 0.336723
Si Si8 0.192655 0.177647 0.427530
O O1 0.631228 0.500000 0.335030
O O2 0.640743 0.666935 0.432736
O O3 0.612307 0.658515 0.225356
O O4 0.741165 0.607433 0.293526
O O5 0.303356 0.500000 0.656965
O O6 0.198073 0.620372 0.674363
O O7 0.328679 0.679493 0.643957
O O8 0.287203 0.596883 0.839814
O O9 0.417277 0.810591 0.100756
O O10 0.401849 0.000000 0.112742
O O11 0.332762 0.908217 0.961084
O O12 0.610212 0.820868 0.544831
O O13 0.742087 0.785351 0.502599
O O14 0.085417 0.500000 0.073075
O O15 0.123834 0.406480 0.247807
O O16 0.000000 0.371760 0.161451
O O17 0.127777 0.150032 0.509688
O O18 0.000000 0.165437 0.596211
O O19 0.168115 0.257574 0.341417
#
# Coordination Sequence:
#
# PCOD8188401 Si02
#       8
#     8   8   8   8   8   8   8   8
#     4  11  22  39  66  91 114 155 210 262 305 354
#     4  11  20  36  63  97 122 150 198 257 311 359
#     4  10  19  35  61  93 125 153 192 248 307 364
#     4  11  21  39  66  89 125 156 199 257 311 355
#     4  11  24  39  58  89 128 166 202 242 298 367
#     4  11  24  40  58  85 124 165 205 247 297 360
#     4  10  18  35  62  93 121 153 195 248 300 357
#     4  10  21  37  62  89 122 158 200 248 304 357
#
# _framework density 20.037635000000002
#
# number of rings (size 3 to 8) (size 9 to 14) (size 15 to 20)
#    0.000    1.375    5.000    3.750    0.000    4.000 
#    0.000    0.625    0.000    1.875    0.000    0.000 
#    0.000    0.000    0.000    0.000    0.000    0.000 
#
# Total GULP energy -396591.434852 kJ/mol
# GULP energy per Si atom -12393.482339 kJ/mol
# Density = 1.999203 g / cm^3
# Si number density = 20.037635 Si / 1000 Ang^3
#
#
#
# Elastic Constant Matrix: (Units=GPa)
#
#
# Indices 1 2 3 4 5 6 
#
# 1 105.3466 41.0251 57.6434 0.0000 0.0000 0.0000
# 2 41.0251 97.0948 43.4940 0.0000 0.0000 0.0000
# 3 57.6434 43.4940 119.2426 0.0000 0.0000 0.0000
# 4 0.0000 0.0000 0.0000 7.6679 0.0000 0.0000
# 5 0.0000 0.0000 0.0000 0.0000 10.4009 0.0000
# 6 0.0000 0.0000 0.0000 0.0000 0.0000 7128.9419
#
#
#
# Elastic Compliance Matrix: (Units=1/GPa)
#
#
# Indices 1 2 3 4 5 6 
#
# 1 0.013782 -0.003393 -0.005425 0.000000 0.000000 0.000000
# 2 -0.003393 0.013146 -0.003155 0.000000 0.000000 0.000000
# 3 -0.005425 -0.003155 0.012159 0.000000 0.000000 0.000000
# 4 0.000000 0.000000 0.000000 0.130413 0.000000 0.000000
# 5 0.000000 0.000000 0.000000 0.000000 0.096145 0.000000
# 6 0.000000 0.000000 0.000000 0.000000 0.000000 0.000140
#
#
# Mechanical properties :
#
#
# Convention : Reuss Voigt Hill
#
# Bulk Modulus (GPa) = 66.04093 67.33433 66.68763
# Shear Modulus (GPa) = 16.96185 1441.37025 729.16605
#
# Velocity S-wave (km/s) = 2.91262 26.84945 19.09681
# Velocity P-wave (km/s) = 6.65892 31.54152 22.79483
#
# Compressibility (1/GPa) = 0.01514212
#
# Stress axis : x y z
#
# Youngs Moduli (GPa) = 72.55697 76.06790 82.24105
#
# Poissons Ratio (x) = 0.25812 0.44614
# Poissons Ratio (y) = 0.24621 0.25945
# Poissons Ratio (z) = 0.39361 0.23997
#
# Static dielectric constant tensor:
#      x y z
#    x 3.352650 0.000000 0.000000 
#    y 0.000000 4.159850 0.000000 
#    z 0.000000 0.000000 3.629540 
# 
# 
# High freq. dielectric constant tensor:
#      x y z
#    x 1.747160 0.000000 0.000000 
#    y 0.000000 1.796700 0.000000 
#    z 0.000000 0.000000 1.782210 
# 
# From -- ./inp_files/14012.got.cif
#   From: 2010.03.12/outbox.cif.g09.slc.cpg/sg44_8_cif.got.tgz:14012.got - 2010.04.14 02:36:11.
