data_PCOD8188212
_publ_section_title
;
Structure prediction by ZEFSAII (Michael W. Deem and Ramdas Pophale) SiO2 
 PCOD8188212
Probable space group: I M M 2
;
_chemical_formula_sum "Si O2"
_cell_formula_units_Z 56
_cell_length_a 9.889142
_cell_length_b 12.158225
_cell_length_c 27.424002
_cell_angle_alpha 90.000000
_cell_angle_beta 90.000000
_cell_angle_gamma 90.000000
_cell_volume 3297.308796
_symmetry_space_group_name_H-M "I M M 2"
_symmetry_group_IT_number 44
_symmetry_cell_setting 'orthorhombic'
loop_
_space_group_symop_operation_xyz
x,y,z
-x,-y,z
-x,y,z
x,-y,z
1/2+x,1/2+y,1/2+z
1/2-x,1/2-y,1/2+z
1/2-x,1/2+y,1/2+z
1/2+x,1/2-y,1/2+z
loop_
_atom_site_type_symbol
_atom_site_label
_atom_site_fract_x
_atom_site_fract_y
_atom_site_fract_z
Si Si1 0.849203 0.375665 0.920620
Si Si2 0.158473 0.737216 0.600918
Si Si3 0.341430 0.000000 0.068996
Si Si4 0.851623 0.372131 0.280366
Si Si5 0.340981 0.807878 0.888402
Si Si6 0.152485 0.375846 0.035100
Si Si7 0.339166 0.000000 0.958898
Si Si8 0.343625 0.371866 0.196402
O O1 0.831902 0.500000 0.902220
O O2 0.736872 0.305956 0.893188
O O3 0.000000 0.333055 0.907733
O O4 0.825625 0.369063 0.977900
O O5 0.201098 0.608226 0.599752
O O6 0.238639 0.795523 0.558010
O O7 0.198706 0.793888 0.651627
O O8 0.000000 0.752235 0.590136
O O9 0.278565 0.000000 0.013945
O O10 0.500000 0.000000 0.061048
O O11 0.864042 0.500000 0.270793
O O12 0.802967 0.353957 0.335394
O O13 0.742552 0.326010 0.241986
O O14 0.000000 0.317659 0.271588
O O15 0.500000 0.786526 0.893699
O O16 0.288331 0.892345 0.929751
O O17 0.178394 0.500000 0.053539
O O18 0.000000 0.339831 0.049361
O O19 0.500000 0.000000 0.958537
O O20 0.500000 0.356130 0.209913
O O21 0.313789 0.500000 0.183584
#
# Coordination Sequence:
#
# PCOD8188212 Si02
#       8
#     8   8   4   8   8   8   4   8
#     4   9  19  34  48  66  98 135 166 199 240 288
#     4  10  19  32  50  73  99 130 168 207 243 286
#     4   9  18  30  47  71 101 135 167 199 238 287
#     4   9  17  31  50  74 100 125 155 198 252 305
#     4  10  18  30  51  75  99 127 162 203 247 296
#     4   9  18  32  49  70  98 130 163 201 247 294
#     4   9  16  28  47  75 105 129 157 199 250 295
#     4   9  18  31  48  71  97 123 158 208 257 295
#
# _framework density 16.983547000000002
#
# number of rings (size 3 to 8) (size 9 to 14) (size 15 to 20)
#    0.000    2.714    0.714    2.143    0.000    4.000 
#    0.000    3.571    1.571    2.571    0.000    0.000 
#    0.000    0.000    0.000    0.000    0.000    0.000 
#
# Total GULP energy -347095.703156 kJ/mol
# GULP energy per Si atom -12396.275113 kJ/mol
# Density = 1.694489 g / cm^3
# Si number density = 16.983547 Si / 1000 Ang^3
#
#
#
# Elastic Constant Matrix: (Units=GPa)
#
#
# Indices 1 2 3 4 5 6 
#
# 1 53.9177 36.8514 35.9497 0.0000 0.0000 0.0000
# 2 36.8514 79.1374 40.2188 0.0000 0.0000 0.0000
# 3 35.9497 40.2188 85.2782 0.0000 0.0000 0.0000
# 4 0.0000 0.0000 0.0000 19.7660 0.0000 0.0000
# 5 0.0000 0.0000 0.0000 0.0000 27.7784 0.0000
# 6 0.0000 0.0000 0.0000 0.0000 0.0000 22.1746
#
#
#
# Elastic Compliance Matrix: (Units=1/GPa)
#
#
# Indices 1 2 3 4 5 6 
#
# 1 0.031072 -0.010275 -0.008253 0.000000 0.000000 0.000000
# 2 -0.010275 0.020017 -0.005109 0.000000 0.000000 0.000000
# 3 -0.008253 -0.005109 0.017615 0.000000 0.000000 0.000000
# 4 0.000000 0.000000 0.000000 0.050592 0.000000 0.000000
# 5 0.000000 0.000000 0.000000 0.000000 0.035999 0.000000
# 6 0.000000 0.000000 0.000000 0.000000 0.000000 0.045097
#
#
# Mechanical properties :
#
#
# Convention : Reuss Voigt Hill
#
# Bulk Modulus (GPa) = 46.66210 49.37479 48.01845
# Shear Modulus (GPa) = 19.62252 20.96470 20.29361
#
# Velocity S-wave (km/s) = 3.40278 3.51723 3.46048
# Velocity P-wave (km/s) = 6.55539 6.75498 6.65593
#
# Compressibility (1/GPa) = 0.02143067
#
# Stress axis : x y z
#
# Youngs Moduli (GPa) = 32.18337 49.95649 56.77010
#
# Poissons Ratio (x) = 0.51330 0.46851
# Poissons Ratio (y) = 0.33068 0.29005
# Poissons Ratio (z) = 0.26560 0.25523
#
# Static dielectric constant tensor:
#      x y z
#    x 3.167390 0.000000 0.000000 
#    y 0.000000 3.329770 0.000000 
#    z 0.000000 0.000000 3.118440 
# 
# 
# High freq. dielectric constant tensor:
#      x y z
#    x 1.644300 0.000000 0.000000 
#    y 0.000000 1.643290 0.000000 
#    z 0.000000 0.000000 1.647420 
# 
# From -- ./inp_files/25483.got.cif
#   From: 2010.03.12/outbox.cif.g09.slc.cpg/sg44_13_cif.got.tgz:25483.got - 2010.04.14 02:36:11.
