data_PCOD8188052
_publ_section_title
;
Structure prediction by ZEFSAII (Michael W. Deem and Ramdas Pophale) SiO2 
 PCOD8188052
Probable space group: I M M 2
;
_chemical_formula_sum "Si O2"
_cell_formula_units_Z 64
_cell_length_a 26.613630
_cell_length_b 8.664789
_cell_length_c 18.355105
_cell_angle_alpha 90.000000
_cell_angle_beta 90.000000
_cell_angle_gamma 90.000000
_cell_volume 4232.714534
_symmetry_space_group_name_H-M "I M M 2"
_symmetry_group_IT_number 44
_symmetry_cell_setting 'orthorhombic'
loop_
_space_group_symop_operation_xyz
x,y,z
-x,-y,z
-x,y,z
x,-y,z
1/2+x,1/2+y,1/2+z
1/2-x,1/2-y,1/2+z
1/2-x,1/2+y,1/2+z
1/2+x,1/2-y,1/2+z
loop_
_atom_site_type_symbol
_atom_site_label
_atom_site_fract_x
_atom_site_fract_y
_atom_site_fract_z
Si Si1 0.260109 0.676534 0.448820
Si Si2 0.556167 0.682258 0.298725
Si Si3 0.791680 0.322193 0.590845
Si Si4 0.351175 0.682114 0.205836
Si Si5 0.555823 0.819086 0.451640
Si Si6 0.650829 0.180710 0.538653
Si Si7 0.760792 0.678582 0.795476
Si Si8 0.704027 0.823132 0.677383
O O1 0.264434 0.500000 0.423165
O O2 0.212185 0.698491 0.503462
O O3 0.311095 0.720167 0.490299
O O4 0.251153 0.782992 0.379386
O O5 0.500000 0.743673 0.279799
O O6 0.556554 0.500000 0.303462
O O7 0.595371 0.739093 0.237640
O O8 0.574316 0.743840 0.376709
O O9 0.779902 0.500000 0.611730
O O10 0.844377 0.269269 0.627533
O O11 0.752226 0.205905 0.626924
O O12 0.350703 0.500000 0.193398
O O13 0.307456 0.725810 0.263197
O O14 0.500000 0.759839 0.473331
O O15 0.594307 0.773609 0.515840
O O16 0.555537 0.000000 0.438552
O O17 0.656506 0.219137 0.625305
O O18 0.662162 0.000000 0.524871
O O19 0.773345 0.500000 0.787484
O O20 0.709673 0.719812 0.750260
O O21 0.702010 0.000000 0.702368
#
# Coordination Sequence:
#
# PCOD8188052 Si02
#       8
#     8   8   8   8   8   8   8   8
#     4  10  19  29  41  58  80 106 134 163 196 234
#     4   9  18  30  41  56  79 106 136 167 196 226
#     4   9  17  28  41  57  78 102 129 162 197 234
#     4  10  18  28  43  59  78 106 136 165 197 233
#     4   9  17  28  41  58  80 105 134 167 199 229
#     4   9  17  28  42  59  79 106 136 165 197 232
#     4  11  20  28  40  58  81 106 133 165 197 233
#     4   9  16  27  41  56  77 103 132 163 195 233
#
# _framework density 15.12032
#
# number of rings (size 3 to 8) (size 9 to 14) (size 15 to 20)
#    0.000    2.500    0.000    4.875    0.000    5.500 
#    0.000    0.000    0.000    0.000    0.000    0.000 
#    0.000    1.000    0.000    4.250    0.000    2.625 
#
# Total GULP energy -396551.416194 kJ/mol
# GULP energy per Si atom -12392.231756 kJ/mol
# Density = 1.508591 g / cm^3
# Si number density = 15.120320 Si / 1000 Ang^3
#
#
#
# Elastic Constant Matrix: (Units=GPa)
#
#
# Indices 1 2 3 4 5 6 
#
# 1 76.0005 17.2485 43.7039 0.0000 0.0000 0.0000
# 2 17.2485 34.9489 21.0689 0.0000 0.0000 0.0000
# 3 43.7039 21.0689 85.6639 0.0000 0.0000 0.0000
# 4 0.0000 0.0000 0.0000 24.2953 0.0000 0.0000
# 5 0.0000 0.0000 0.0000 0.0000 26.9372 0.0000
# 6 0.0000 0.0000 0.0000 0.0000 0.0000 14.1542
#
#
#
# Elastic Compliance Matrix: (Units=1/GPa)
#
#
# Indices 1 2 3 4 5 6 
#
# 1 0.019126 -0.004176 -0.008731 0.000000 0.000000 0.000000
# 2 -0.004176 0.034506 -0.006356 0.000000 0.000000 0.000000
# 3 -0.008731 -0.006356 0.017691 0.000000 0.000000 0.000000
# 4 0.000000 0.000000 0.000000 0.041160 0.000000 0.000000
# 5 0.000000 0.000000 0.000000 0.000000 0.037123 0.000000
# 6 0.000000 0.000000 0.000000 0.000000 0.000000 0.070650
#
#
# Mechanical properties :
#
#
# Convention : Reuss Voigt Hill
#
# Bulk Modulus (GPa) = 30.49027 40.07287 35.28157
# Shear Modulus (GPa) = 18.53806 20.71681 19.62744
#
# Velocity S-wave (km/s) = 3.50528 3.70554 3.60680
# Velocity P-wave (km/s) = 6.04909 6.69838 6.38200
#
# Compressibility (1/GPa) = 0.03279735
#
# Stress axis : x y z
#
# Youngs Moduli (GPa) = 52.28462 28.98044 56.52599
#
# Poissons Ratio (x) = 0.12103 0.49351
# Poissons Ratio (y) = 0.21835 0.35929
# Poissons Ratio (z) = 0.45648 0.18420
#
# Static dielectric constant tensor:
#      x y z
#    x 3.046680 0.000000 0.000000 
#    y 0.000000 2.939220 0.000000 
#    z 0.000000 0.000000 3.127790 
# 
# 
# High freq. dielectric constant tensor:
#      x y z
#    x 1.542430 0.000000 0.000000 
#    y 0.000000 1.590030 0.000000 
#    z 0.000000 0.000000 1.568910 
# 
# From -- ./inp_files/20924.got.cif
#   From: 2010.03.12/outbox.cif.g09.slc.cpg/sg44_11_cif.got.tgz:20924.got - 2010.04.14 02:36:11.
