data_PCOD8188822
_publ_section_title
;
Structure prediction by ZEFSAII (Michael W. Deem and Ramdas Pophale) SiO2 
 PCOD8188822
Probable space group: I M M 2
;
_chemical_formula_sum "Si O2"
_cell_formula_units_Z 64
_cell_length_a 20.381221
_cell_length_b 8.954596
_cell_length_c 19.486018
_cell_angle_alpha 90.000000
_cell_angle_beta 90.000000
_cell_angle_gamma 90.000000
_cell_volume 3556.307408
_symmetry_space_group_name_H-M "I M M 2"
_symmetry_group_IT_number 44
_symmetry_cell_setting 'orthorhombic'
loop_
_space_group_symop_operation_xyz
x,y,z
-x,-y,z
-x,y,z
x,-y,z
1/2+x,1/2+y,1/2+z
1/2-x,1/2-y,1/2+z
1/2-x,1/2+y,1/2+z
1/2+x,1/2-y,1/2+z
loop_
_atom_site_type_symbol
_atom_site_label
_atom_site_fract_x
_atom_site_fract_y
_atom_site_fract_z
Si Si1 0.118583 0.826466 0.619500
Si Si2 0.230275 0.828777 0.982412
Si Si3 0.381710 0.826716 0.980491
Si Si4 0.772630 0.327520 0.119561
Si Si5 0.187182 0.824751 0.833315
Si Si6 0.925194 0.328839 0.753547
Si Si7 0.073326 0.829609 0.348451
Si Si8 0.692848 0.324046 0.754560
O O1 0.094118 0.764139 0.546753
O O2 0.195656 0.796987 0.629485
O O3 0.080086 0.738635 0.677823
O O4 0.101052 0.000000 0.624144
O O5 0.305697 0.792910 0.965609
O O6 0.189369 0.790352 0.914323
O O7 0.221691 0.000000 0.004495
O O8 0.204084 0.728060 0.044768
O O9 0.422389 0.773320 0.915221
O O10 0.395338 0.000000 0.993732
O O11 0.790408 0.500000 0.126408
O O12 0.811652 0.237335 0.177418
O O13 0.118233 0.763498 0.806947
O O14 0.246792 0.747578 0.794533
O O15 0.192311 0.000000 0.817793
O O16 0.901360 0.500000 0.751810
O O17 0.000000 0.316498 0.778585
O O18 0.124974 0.777591 0.291017
O O19 0.000000 0.813391 0.317748
O O20 0.088139 0.000000 0.370363
O O21 0.703375 0.500000 0.752489
#
# Coordination Sequence:
#
# PCOD8188822 Si02
#       8
#     8   8   8   8   8   8   8   8
#     4  10  20  34  53  78 109 147 186 224 268 321
#     4   9  19  34  54  81 112 141 175 223 273 324
#     4  10  19  33  53  78 110 146 184 225 270 322
#     4  10  20  33  54  83 112 140 178 226 273 324
#     4  11  21  36  58  84 111 141 181 227 273 325
#     4  11  24  39  55  79 111 147 186 226 271 324
#     4  10  22  38  54  77 110 148 188 227 271 326
#     4  11  21  34  57  82 109 145 183 227 276 322
#
# _framework density 17.996196000000001
#
# number of rings (size 3 to 8) (size 9 to 14) (size 15 to 20)
#    0.000    1.750    2.500    2.250    0.000    4.750 
#    0.000    0.000    0.000    0.750    0.000    1.750 
#    0.000    0.000    0.000    0.000    0.000    0.000 
#
# Total GULP energy -396942.427821 kJ/mol
# GULP energy per Si atom -12404.450869 kJ/mol
# Density = 1.795524 g / cm^3
# Si number density = 17.996196 Si / 1000 Ang^3
#
#
#
# Elastic Constant Matrix: (Units=GPa)
#
#
# Indices 1 2 3 4 5 6 
#
# 1 78.3660 36.1888 52.9244 0.0000 0.0000 0.0000
# 2 36.1888 91.8657 58.9089 0.0000 0.0000 0.0000
# 3 52.9244 58.9089 117.2115 0.0000 0.0000 0.0000
# 4 0.0000 0.0000 0.0000 35.9355 0.0000 0.0000
# 5 0.0000 0.0000 0.0000 0.0000 23.4368 0.0000
# 6 0.0000 0.0000 0.0000 0.0000 0.0000 15.7604
#
#
#
# Elastic Compliance Matrix: (Units=1/GPa)
#
#
# Indices 1 2 3 4 5 6 
#
# 1 0.018871 -0.002907 -0.007060 0.000000 0.000000 0.000000
# 2 -0.002907 0.016510 -0.006985 0.000000 0.000000 0.000000
# 3 -0.007060 -0.006985 0.015230 0.000000 0.000000 0.000000
# 4 0.000000 0.000000 0.000000 0.027828 0.000000 0.000000
# 5 0.000000 0.000000 0.000000 0.000000 0.042668 0.000000
# 6 0.000000 0.000000 0.000000 0.000000 0.000000 0.063450
#
#
# Mechanical properties :
#
#
# Convention : Reuss Voigt Hill
#
# Bulk Modulus (GPa) = 59.85462 64.83195 62.34328
# Shear Modulus (GPa) = 22.31862 24.32130 23.31996
#
# Velocity S-wave (km/s) = 3.52545 3.68022 3.60367
# Velocity P-wave (km/s) = 7.06424 7.35950 7.21338
#
# Compressibility (1/GPa) = 0.01670715
#
# Stress axis : x y z
#
# Youngs Moduli (GPa) = 52.99204 60.57058 65.66029
#
# Poissons Ratio (x) = 0.17606 0.46355
# Poissons Ratio (y) = 0.15403 0.45864
# Poissons Ratio (z) = 0.37412 0.42309
#
# Static dielectric constant tensor:
#      x y z
#    x 3.154370 0.000000 0.000000 
#    y 0.000000 3.438550 0.000000 
#    z 0.000000 0.000000 3.410050 
# 
# 
# High freq. dielectric constant tensor:
#      x y z
#    x 1.670310 0.000000 0.000000 
#    y 0.000000 1.711280 0.000000 
#    z 0.000000 0.000000 1.699120 
# 
# From -- ./inp_files/20776.got.cif
#   From: 2010.03.12/outbox.cif.g09.slc.cpg/sg44_11_cif.got.tgz:20776.got - 2010.04.14 02:36:11.
