data_PCOD8188614
_publ_section_title
;
Structure prediction by ZEFSAII (Michael W. Deem and Ramdas Pophale) SiO2 
 PCOD8188614
Probable space group: I M M 2
;
_chemical_formula_sum "Si O2"
_cell_formula_units_Z 64
_cell_length_a 14.336233
_cell_length_b 8.869114
_cell_length_c 27.951611
_cell_angle_alpha 90.000000
_cell_angle_beta 90.000000
_cell_angle_gamma 90.000000
_cell_volume 3554.038529
_symmetry_space_group_name_H-M "I M M 2"
_symmetry_group_IT_number 44
_symmetry_cell_setting 'orthorhombic'
loop_
_space_group_symop_operation_xyz
x,y,z
-x,-y,z
-x,y,z
x,-y,z
1/2+x,1/2+y,1/2+z
1/2-x,1/2-y,1/2+z
1/2-x,1/2+y,1/2+z
1/2+x,1/2-y,1/2+z
loop_
_atom_site_type_symbol
_atom_site_label
_atom_site_fract_x
_atom_site_fract_y
_atom_site_fract_z
Si Si1 0.786841 0.326003 0.703760
Si Si2 0.892629 0.323489 0.887169
Si Si3 0.892599 0.672296 0.608592
Si Si4 0.893452 0.824857 0.787842
Si Si5 0.606201 0.322934 0.010653
Si Si6 0.778922 0.177642 0.971396
Si Si7 0.104431 0.827099 0.153622
Si Si8 0.891508 0.673519 0.055106
O O1 0.810137 0.500000 0.715633
O O2 0.834125 0.276047 0.654259
O O3 0.824163 0.221202 0.745663
O O4 0.675797 0.298461 0.697392
O O5 0.874127 0.500000 0.891472
O O6 0.865249 0.269831 0.834321
O O7 0.828106 0.238607 0.924346
O O8 0.000000 0.283184 0.898317
O O9 0.870091 0.500000 0.594350
O O10 0.863863 0.776951 0.564286
O O11 0.000000 0.693671 0.622297
O O12 0.000000 0.789014 0.772614
O O13 0.880318 0.000000 0.799513
O O14 0.500000 0.271086 0.000435
O O15 0.617891 0.500000 0.004985
O O16 0.673434 0.241061 0.972859
O O17 0.775559 0.000000 0.968601
O O18 0.833677 0.226788 0.018555
O O19 0.131875 0.723513 0.108876
O O20 0.000000 0.789548 0.172007
O O21 0.111998 0.000000 0.136270
O O22 0.862654 0.500000 0.048515
O O23 0.000000 0.698465 0.043813
#
# Coordination Sequence:
#
# PCOD8188614 Si02
#       8
#     8   8   8   8   8   8   8   8
#     4  10  19  31  50  74 100 135 175 211 251 302
#     4  10  21  38  59  81 106 134 164 203 253 309
#     4   9  17  29  46  71 103 136 172 213 256 305
#     4  10  21  36  54  78 106 132 161 203 256 311
#     4  10  21  36  53  74 103 139 178 219 260 302
#     4  12  23  34  53  78 105 138 174 212 255 306
#     4   9  18  32  49  72 104 140 177 216 257 300
#     4  10  20  33  50  75 107 140 175 215 258 306
#
# _framework density 18.007684000000001
#
# number of rings (size 3 to 8) (size 9 to 14) (size 15 to 20)
#    0.000    2.000    0.000    4.125    0.000    7.000 
#    0.000    1.250    0.000    0.750    0.000    1.750 
#    0.000    0.000    0.000    0.000    0.000    0.000 
#
# Total GULP energy -396908.903297 kJ/mol
# GULP energy per Si atom -12403.403228 kJ/mol
# Density = 1.796670 g / cm^3
# Si number density = 18.007684 Si / 1000 Ang^3
#
#
#
# Elastic Constant Matrix: (Units=GPa)
#
#
# Indices 1 2 3 4 5 6 
#
# 1 97.5926 47.3886 63.9576 0.0000 0.0000 0.0000
# 2 47.3886 94.1161 48.0402 0.0000 0.0000 0.0000
# 3 63.9576 48.0402 83.2250 0.0000 0.0000 0.0000
# 4 0.0000 0.0000 0.0000 34.6480 0.0000 0.0000
# 5 0.0000 0.0000 0.0000 0.0000 30.1872 0.0000
# 6 0.0000 0.0000 0.0000 0.0000 0.0000 26.2066
#
#
#
# Elastic Compliance Matrix: (Units=1/GPa)
#
#
# Indices 1 2 3 4 5 6 
#
# 1 0.021372 -0.003371 -0.014478 0.000000 0.000000 0.000000
# 2 -0.003371 0.015595 -0.006412 0.000000 0.000000 0.000000
# 3 -0.014478 -0.006412 0.026843 0.000000 0.000000 0.000000
# 4 0.000000 0.000000 0.000000 0.028862 0.000000 0.000000
# 5 0.000000 0.000000 0.000000 0.000000 0.033127 0.000000
# 6 0.000000 0.000000 0.000000 0.000000 0.000000 0.038158
#
#
# Mechanical properties :
#
#
# Convention : Reuss Voigt Hill
#
# Bulk Modulus (GPa) = 65.40816 65.96739 65.68778
# Shear Modulus (GPa) = 22.98062 25.91150 24.44606
#
# Velocity S-wave (km/s) = 3.57621 3.79742 3.68847
# Velocity P-wave (km/s) = 7.31120 7.47928 7.39571
#
# Compressibility (1/GPa) = 0.01528861
#
# Stress axis : x y z
#
# Youngs Moduli (GPa) = 46.79040 64.12266 37.25340
#
# Poissons Ratio (x) = 0.21614 0.53937
# Poissons Ratio (y) = 0.15772 0.23886
# Poissons Ratio (z) = 0.67745 0.41113
#
# Static dielectric constant tensor:
#      x y z
#    x 3.567140 0.000000 0.000000 
#    y 0.000000 3.385360 0.000000 
#    z 0.000000 0.000000 3.138270 
# 
# 
# High freq. dielectric constant tensor:
#      x y z
#    x 1.702970 0.000000 0.000000 
#    y 0.000000 1.704540 0.000000 
#    z 0.000000 0.000000 1.673340 
# 
# From -- ./inp_files/25133.got.cif
#   From: 2010.03.12/outbox.cif.g09.slc.cpg/sg44_13_cif.got.tgz:25133.got - 2010.04.14 02:36:11.
