data_PCOD8188776
_publ_section_title
;
Structure prediction by ZEFSAII (Michael W. Deem and Ramdas Pophale) SiO2 
 PCOD8188776
Probable space group: I M M 2
;
_chemical_formula_sum "Si O2"
_cell_formula_units_Z 46
_cell_length_a 11.631692
_cell_length_b 12.051053
_cell_length_c 17.946342
_cell_angle_alpha 90.000000
_cell_angle_beta 90.000000
_cell_angle_gamma 90.000000
_cell_volume 2515.612998
_symmetry_space_group_name_H-M "I M M 2"
_symmetry_group_IT_number 44
_symmetry_cell_setting 'orthorhombic'
loop_
_space_group_symop_operation_xyz
x,y,z
-x,-y,z
-x,y,z
x,-y,z
1/2+x,1/2+y,1/2+z
1/2-x,1/2-y,1/2+z
1/2-x,1/2+y,1/2+z
1/2+x,1/2-y,1/2+z
loop_
_atom_site_type_symbol
_atom_site_label
_atom_site_fract_x
_atom_site_fract_y
_atom_site_fract_z
Si Si1 0.500000 0.260792 0.108950
Si Si2 0.500000 0.131662 0.956147
Si Si3 0.197915 0.374166 0.678651
Si Si4 0.623881 0.627777 0.562049
Si Si5 0.500000 0.500000 0.173227
Si Si6 0.873240 0.000000 0.819859
Si Si7 0.748952 0.180094 0.913234
Si Si8 0.632468 0.125316 0.343950
O O1 0.390029 0.215619 0.150310
O O2 0.500000 0.394406 0.117817
O O3 0.500000 0.216722 0.024946
O O4 0.612213 0.161302 0.907186
O O5 0.500000 0.000000 0.978405
O O6 0.162072 0.500000 0.654530
O O7 0.319680 0.340881 0.641634
O O8 0.202382 0.366139 0.767117
O O9 0.500000 0.690472 0.553290
O O10 0.596301 0.500000 0.560904
O O11 0.713140 0.650249 0.496244
O O12 0.388090 0.500000 0.229307
O O13 0.807153 0.891395 0.847825
O O14 0.000000 0.000000 0.857874
O O15 0.792067 0.305490 0.902200
O O16 0.500000 0.168157 0.335357
O O17 0.630627 0.000000 0.373607
#
# Coordination Sequence:
#
# PCOD8188776 Si02
#       8
#     4   4   8   8   2   4   8   8
#     4  12  20  38  58  88 120 145 199 240 305 366
#     4  12  24  40  60  88 119 163 204 261 316 357
#     4  10  19  34  59  86 112 146 190 245 292 350
#     4  10  19  32  54  86 114 141 182 240 301 346
#     4  10  26  38  60  94 112 164 192 258 316 362
#     4  10  20  35  61  90 118 145 194 261 308 355
#     4  12  21  37  58  86 119 153 202 250 309 361
#     4  10  21  37  59  86 117 157 202 244 298 365
#
# _framework density 18.285800999999999
#
# number of rings (size 3 to 8) (size 9 to 14) (size 15 to 20)
#    0.261    1.043    4.348    3.391    0.000    0.000 
#    3.130    0.000    0.000    0.000    0.000    0.000 
#    0.000    0.000    0.000    0.000    0.000    0.000 
#
# Total GULP energy -285045.082331 kJ/mol
# GULP energy per Si atom -12393.264449 kJ/mol
# Density = 1.824418 g / cm^3
# Si number density = 18.285801 Si / 1000 Ang^3
#
#
#
# Elastic Constant Matrix: (Units=GPa)
#
#
# Indices 1 2 3 4 5 6 
#
# 1 138.2076 40.6387 35.1625 0.0000 0.0000 0.0000
# 2 40.6387 87.3225 25.2268 0.0000 0.0000 0.0000
# 3 35.1625 25.2268 51.1781 0.0000 0.0000 0.0000
# 4 0.0000 0.0000 0.0000 21.2245 0.0000 0.0000
# 5 0.0000 0.0000 0.0000 0.0000 28.7678 0.0000
# 6 0.0000 0.0000 0.0000 0.0000 0.0000 26.2475
#
#
#
# Elastic Compliance Matrix: (Units=1/GPa)
#
#
# Indices 1 2 3 4 5 6 
#
# 1 0.009364 -0.002914 -0.004997 0.000000 0.000000 0.000000
# 2 -0.002914 0.014260 -0.005027 0.000000 0.000000 0.000000
# 3 -0.004997 -0.005027 0.025451 0.000000 0.000000 0.000000
# 4 0.000000 0.000000 0.000000 0.047115 0.000000 0.000000
# 5 0.000000 0.000000 0.000000 0.000000 0.034761 0.000000
# 6 0.000000 0.000000 0.000000 0.000000 0.000000 0.038099
#
#
# Mechanical properties :
#
#
# Convention : Reuss Voigt Hill
#
# Bulk Modulus (GPa) = 43.10633 53.19604 48.15118
# Shear Modulus (GPa) = 24.67197 26.95997 25.81597
#
# Velocity S-wave (km/s) = 3.67719 3.84391 3.76147
# Velocity P-wave (km/s) = 6.45397 6.98967 6.72716
#
# Compressibility (1/GPa) = 0.02319845
#
# Stress axis : x y z
#
# Youngs Moduli (GPa) = 106.79547 70.12489 39.29158
#
# Poissons Ratio (x) = 0.20435 0.19634
# Poissons Ratio (y) = 0.31122 0.19752
# Poissons Ratio (z) = 0.53366 0.35252
#
# Static dielectric constant tensor:
#      x y z
#    x 3.512110 0.000000 0.000000 
#    y 0.000000 3.345610 0.000000 
#    z 0.000000 0.000000 3.220760 
# 
# 
# High freq. dielectric constant tensor:
#      x y z
#    x 1.709160 0.000000 0.000000 
#    y 0.000000 1.695030 0.000000 
#    z 0.000000 0.000000 1.691950 
# 
# From -- ./inp_files/21290.got.cif
#   From: 2010.03.12/outbox.cif.g09.slc.cpg/sg44_11_cif.got.tgz:21290.got - 2010.04.14 02:36:11.
