data_PCOD8188037
_publ_section_title
;
Structure prediction by ZEFSAII (Michael W. Deem and Ramdas Pophale) SiO2 
 PCOD8188037
Probable space group: I M M 2
;
_chemical_formula_sum "Si O2"
_cell_formula_units_Z 64
_cell_length_a 9.265364
_cell_length_b 18.297162
_cell_length_c 26.182838
_cell_angle_alpha 90.000000
_cell_angle_beta 90.000000
_cell_angle_gamma 90.000000
_cell_volume 4438.773020
_symmetry_space_group_name_H-M "I M M 2"
_symmetry_group_IT_number 44
_symmetry_cell_setting 'orthorhombic'
loop_
_space_group_symop_operation_xyz
x,y,z
-x,-y,z
-x,y,z
x,-y,z
1/2+x,1/2+y,1/2+z
1/2-x,1/2-y,1/2+z
1/2-x,1/2+y,1/2+z
1/2+x,1/2-y,1/2+z
loop_
_atom_site_type_symbol
_atom_site_label
_atom_site_fract_x
_atom_site_fract_y
_atom_site_fract_z
Si Si1 0.168859 0.915541 0.866250
Si Si2 0.329554 0.165591 0.272523
Si Si3 0.669424 0.415883 0.569745
Si Si4 0.667268 0.916695 0.169467
Si Si5 0.659310 0.285895 0.923407
Si Si6 0.168180 0.083571 0.359909
Si Si7 0.830848 0.835183 0.969388
Si Si8 0.336857 0.205322 0.815706
O O1 0.213295 0.887744 0.922586
O O2 0.257473 0.872514 0.822651
O O3 0.000000 0.902338 0.856651
O O4 0.211023 0.000000 0.862138
O O5 0.500000 0.174250 0.282176
O O6 0.294099 0.134482 0.216855
O O7 0.266956 0.107965 0.312932
O O8 0.252755 0.244537 0.276245
O O9 0.500000 0.405179 0.576636
O O10 0.709506 0.500000 0.559719
O O11 0.745690 0.386700 0.620758
O O12 0.728660 0.370391 0.521465
O O13 0.500000 0.912514 0.155676
O O14 0.712860 0.000000 0.182499
O O15 0.500000 0.283144 0.947655
O O16 0.706025 0.369440 0.910998
O O17 0.765464 0.246003 0.962795
O O18 0.662316 0.245651 0.869411
O O19 0.000000 0.096234 0.345098
O O20 0.201557 0.000000 0.373162
O O21 0.000000 0.825362 0.972193
O O22 0.500000 0.193033 0.795479
#
# Coordination Sequence:
#
# PCOD8188037 Si02
#       8
#     8   8   8   8   8   8   8   8
#     4   9  16  26  41  60  82 108 136 165 198 235
#     4  10  18  28  42  58  78 105 136 167 199 236
#     4   9  17  28  41  57  77 102 133 166 196 228
#     4   9  18  30  41  56  79 104 131 165 201 234
#     4   8  15  26  38  54  76 102 131 161 193 231
#     4   9  17  28  41  58  81 107 134 164 197 234
#     4   9  16  26  40  57  78 105 135 165 196 230
#     4   9  17  28  40  56  79 105 134 166 198 235
#
# _framework density 14.418399000000001
#
# number of rings (size 3 to 8) (size 9 to 14) (size 15 to 20)
#    0.000    3.000    0.000    2.250    0.000    7.000 
#    0.000    1.250    0.000    2.250    0.000    0.000 
#    0.000    1.000    0.000    5.500    0.000    3.750 
#
# Total GULP energy -396703.829450 kJ/mol
# GULP energy per Si atom -12396.994670 kJ/mol
# Density = 1.438558 g / cm^3
# Si number density = 14.418399 Si / 1000 Ang^3
#
#
#
# Elastic Constant Matrix: (Units=GPa)
#
#
# Indices 1 2 3 4 5 6 
#
# 1 60.4429 47.7000 43.6062 0.0000 0.0000 0.0000
# 2 47.7000 109.3156 55.0503 0.0000 0.0000 0.0000
# 3 43.6062 55.0503 80.5031 0.0000 0.0000 0.0000
# 4 0.0000 0.0000 0.0000 23.1744 0.0000 0.0000
# 5 0.0000 0.0000 0.0000 0.0000 22.0165 0.0000
# 6 0.0000 0.0000 0.0000 0.0000 0.0000 23.4253
#
#
#
# Elastic Compliance Matrix: (Units=1/GPa)
#
#
# Indices 1 2 3 4 5 6 
#
# 1 0.030901 -0.007709 -0.011466 0.000000 0.000000 0.000000
# 2 -0.007709 0.015876 -0.006681 0.000000 0.000000 0.000000
# 3 -0.011466 -0.006681 0.023201 0.000000 0.000000 0.000000
# 4 0.000000 0.000000 0.000000 0.043151 0.000000 0.000000
# 5 0.000000 0.000000 0.000000 0.000000 0.045421 0.000000
# 6 0.000000 0.000000 0.000000 0.000000 0.000000 0.042689
#
#
# Mechanical properties :
#
#
# Convention : Reuss Voigt Hill
#
# Bulk Modulus (GPa) = 54.74717 60.33051 57.53884
# Shear Modulus (GPa) = 19.30209 20.65024 19.97616
#
# Velocity S-wave (km/s) = 3.66281 3.78857 3.72622
# Velocity P-wave (km/s) = 7.47937 7.81481 7.64893
#
# Compressibility (1/GPa) = 0.01826578
#
# Stress axis : x y z
#
# Youngs Moduli (GPa) = 32.36172 62.98789 43.10129
#
# Poissons Ratio (x) = 0.48559 0.49421
# Poissons Ratio (y) = 0.24949 0.28794
# Poissons Ratio (z) = 0.37107 0.42080
#
# Static dielectric constant tensor:
#      x y z
#    x 2.888080 0.000000 0.000000 
#    y 0.000000 2.938630 0.000000 
#    z 0.000000 0.000000 2.647870 
# 
# 
# High freq. dielectric constant tensor:
#      x y z
#    x 1.557020 0.000000 0.000000 
#    y 0.000000 1.542240 0.000000 
#    z 0.000000 0.000000 1.515210 
# 
# From -- ./inp_files/25222.got.cif
#   From: 2010.03.12/outbox.cif.g09.slc.cpg/sg44_13_cif.got.tgz:25222.got - 2010.04.14 02:36:11.
