data_PCOD8188522
_publ_section_title
;
Structure prediction by ZEFSAII (Michael W. Deem and Ramdas Pophale) SiO2 
 PCOD8188522
Probable space group: I M M 2
;
_chemical_formula_sum "Si O2"
_cell_formula_units_Z 56
_cell_length_a 8.697528
_cell_length_b 13.595220
_cell_length_c 29.082777
_cell_angle_alpha 90.000000
_cell_angle_beta 90.000000
_cell_angle_gamma 90.000000
_cell_volume 3438.887342
_symmetry_space_group_name_H-M "I M M 2"
_symmetry_group_IT_number 44
_symmetry_cell_setting 'orthorhombic'
loop_
_space_group_symop_operation_xyz
x,y,z
-x,-y,z
-x,y,z
x,-y,z
1/2+x,1/2+y,1/2+z
1/2-x,1/2-y,1/2+z
1/2-x,1/2+y,1/2+z
1/2+x,1/2-y,1/2+z
loop_
_atom_site_type_symbol
_atom_site_label
_atom_site_fract_x
_atom_site_fract_y
_atom_site_fract_z
Si Si1 0.821809 0.885049 0.020930
Si Si2 0.680219 0.793179 0.108205
Si Si3 0.319741 0.112174 0.652700
Si Si4 0.319797 0.612531 0.334649
Si Si5 0.680153 0.387870 0.695356
Si Si6 0.818857 0.792847 0.740031
Si Si7 0.672713 0.883263 0.927528
O O1 0.721180 0.824108 0.056790
O O2 0.000000 0.863341 0.029360
O O3 0.783266 0.000000 0.026616
O O4 0.775723 0.847161 0.970235
O O5 0.500000 0.803583 0.116815
O O6 0.730977 0.680527 0.116273
O O7 0.768154 0.864436 0.143499
O O8 0.500000 0.132878 0.648722
O O9 0.266700 0.136267 0.704319
O O10 0.278760 0.000000 0.640945
O O11 0.500000 0.619135 0.343225
O O12 0.269261 0.500000 0.325778
O O13 0.267679 0.676785 0.291075
O O14 0.238574 0.658470 0.379606
O O15 0.500000 0.366740 0.699370
O O16 0.720525 0.500000 0.707167
O O17 0.770516 0.320019 0.731653
O O18 0.000000 0.805818 0.732941
O O19 0.500000 0.844464 0.934534
O O20 0.679119 0.000000 0.924910
#
# Coordination Sequence:
#
# PCOD8188522 Si02
#       7
#     8   8   8   8   8   8   8
#     4  10  19  31  47  66  92 124 153 184 224 270
#     4  11  21  31  47  69  92 119 152 189 226 267
#     4  10  20  33  48  66  91 122 154 188 225 267
#     4   9  17  29  44  64  92 123 151 180 220 269
#     4  10  20  33  47  64  90 122 154 189 228 270
#     4  10  19  30  47  69  92 120 154 190 226 267
#     4   9  17  28  43  65  91 118 150 186 222 263
#
# _framework density 16.284337000000001
#
# number of rings (size 3 to 8) (size 9 to 14) (size 15 to 20)
#    0.000    2.143    0.000    6.000    0.000    8.286 
#    0.000    1.429    0.000    0.000    0.000    1.000 
#    0.000    3.429    0.000    0.000    0.000    0.000 
#
# Total GULP energy -347241.218060 kJ/mol
# GULP energy per Si atom -12401.472074 kJ/mol
# Density = 1.624727 g / cm^3
# Si number density = 16.284337 Si / 1000 Ang^3
#
#
#
# Elastic Constant Matrix: (Units=GPa)
#
#
# Indices 1 2 3 4 5 6 
#
# 1 51.5473 22.9476 22.0269 0.0000 0.0000 0.0000
# 2 22.9476 71.6490 38.3136 0.0000 0.0000 0.0000
# 3 22.0269 38.3136 112.2088 0.0000 0.0000 0.0000
# 4 0.0000 0.0000 0.0000 22.1174 0.0000 0.0000
# 5 0.0000 0.0000 0.0000 0.0000 31.1397 0.0000
# 6 0.0000 0.0000 0.0000 0.0000 0.0000 21.0313
#
#
#
# Elastic Compliance Matrix: (Units=1/GPa)
#
#
# Indices 1 2 3 4 5 6 
#
# 1 0.023170 -0.006103 -0.002464 0.000000 0.000000 0.000000
# 2 -0.006103 0.018682 -0.005181 0.000000 0.000000 0.000000
# 3 -0.002464 -0.005181 0.011165 0.000000 0.000000 0.000000
# 4 0.000000 0.000000 0.000000 0.045213 0.000000 0.000000
# 5 0.000000 0.000000 0.000000 0.000000 0.032113 0.000000
# 6 0.000000 0.000000 0.000000 0.000000 0.000000 0.047548
#
#
# Mechanical properties :
#
#
# Convention : Reuss Voigt Hill
#
# Bulk Modulus (GPa) = 39.18519 44.66460 41.92489
# Shear Modulus (GPa) = 23.37602 24.99880 24.18741
#
# Velocity S-wave (km/s) = 3.79290 3.92234 3.85816
# Velocity P-wave (km/s) = 6.58003 6.92824 6.75638
#
# Compressibility (1/GPa) = 0.02551985
#
# Stress axis : x y z
#
# Youngs Moduli (GPa) = 43.15993 53.52743 89.56753
#
# Poissons Ratio (x) = 0.32667 0.22073
# Poissons Ratio (y) = 0.26340 0.46404
# Poissons Ratio (z) = 0.10636 0.27732
#
# Static dielectric constant tensor:
#      x y z
#    x 3.183230 0.000000 0.000000 
#    y 0.000000 2.919760 0.000000 
#    z 0.000000 0.000000 3.105170 
# 
# 
# High freq. dielectric constant tensor:
#      x y z
#    x 1.643360 0.000000 0.000000 
#    y 0.000000 1.594180 0.000000 
#    z 0.000000 0.000000 1.622480 
# 
# From -- ./inp_files/27235.got.cif
#   From: 2010.03.12/outbox.cif.g09.slc.cpg/sg44_14_cif.got.tgz:27235.got - 2010.04.14 02:36:11.
