data_PCOD8188551
_publ_section_title
;
Structure prediction by ZEFSAII (Michael W. Deem and Ramdas Pophale) SiO2 
 PCOD8188551
Probable space group: I M M 2
;
_chemical_formula_sum "Si O2"
_cell_formula_units_Z 56
_cell_length_a 18.549730
_cell_length_b 9.450264
_cell_length_c 17.381456
_cell_angle_alpha 90.000000
_cell_angle_beta 90.000000
_cell_angle_gamma 90.000000
_cell_volume 3046.966554
_symmetry_space_group_name_H-M "I M M 2"
_symmetry_group_IT_number 44
_symmetry_cell_setting 'orthorhombic'
loop_
_space_group_symop_operation_xyz
x,y,z
-x,-y,z
-x,y,z
x,-y,z
1/2+x,1/2+y,1/2+z
1/2-x,1/2-y,1/2+z
1/2-x,1/2+y,1/2+z
1/2+x,1/2-y,1/2+z
loop_
_atom_site_type_symbol
_atom_site_label
_atom_site_fract_x
_atom_site_fract_y
_atom_site_fract_z
Si Si1 0.415902 0.159770 0.427870
Si Si2 0.192622 0.335045 0.357370
Si Si3 0.080590 0.832113 0.639539
Si Si4 0.810038 0.165620 0.514704
Si Si5 0.081900 0.331531 0.230531
Si Si6 0.341257 0.165927 0.579089
Si Si7 0.652012 0.665001 0.295128
O O1 0.500000 0.159776 0.442070
O O2 0.379753 0.228395 0.503428
O O3 0.396837 0.254538 0.355783
O O4 0.387143 0.000000 0.413820
O O5 0.187167 0.500000 0.378074
O O6 0.195960 0.249457 0.435885
O O7 0.124080 0.283604 0.307433
O O8 0.263660 0.303437 0.306933
O O9 0.118694 0.784433 0.560267
O O10 0.127708 0.778287 0.711617
O O11 0.000000 0.767092 0.641997
O O12 0.077125 0.000000 0.642039
O O13 0.743470 0.199677 0.571948
O O14 0.811545 0.000000 0.494271
O O15 0.082112 0.500000 0.226061
O O16 0.123771 0.267281 0.156232
O O17 0.000000 0.273032 0.233422
O O18 0.356144 0.000000 0.582152
O O19 0.635132 0.500000 0.304318
#
# Coordination Sequence:
#
# PCOD8188551 Si02
#       7
#     8   8   8   8   8   8   8
#     4  10  19  30  48  76 106 132 162 204 251 300
#     4  10  20  33  51  77 104 131 168 208 249 301
#     4   9  18  32  51  75  99 128 171 214 246 288
#     4  10  19  33  54  75  98 132 170 207 250 298
#     4   9  17  30  50  75 101 130 167 213 256 291
#     4   9  16  29  49  73  99 127 164 205 247 293
#     4  10  19  33  52  73 102 135 168 205 248 298
#
# _framework density 18.378934000000001
#
# number of rings (size 3 to 8) (size 9 to 14) (size 15 to 20)
#    0.000    2.429    1.429    1.714    0.000    6.571 
#    0.000    0.714    0.000    4.286    0.000    0.000 
#    0.000    0.000    0.000    0.000    0.000    0.000 
#
# Total GULP energy -347142.673473 kJ/mol
# GULP energy per Si atom -12397.952624 kJ/mol
# Density = 1.833710 g / cm^3
# Si number density = 18.378934 Si / 1000 Ang^3
#
#
#
# Elastic Constant Matrix: (Units=GPa)
#
#
# Indices 1 2 3 4 5 6 
#
# 1 127.3086 27.1934 64.7606 0.0000 0.0000 0.0000
# 2 27.1934 27.4956 33.0745 0.0000 0.0000 0.0000
# 3 64.7606 33.0745 103.0602 0.0000 0.0000 0.0000
# 4 0.0000 0.0000 0.0000 24.8993 0.0000 0.0000
# 5 0.0000 0.0000 0.0000 0.0000 36.9411 0.0000
# 6 0.0000 0.0000 0.0000 0.0000 0.0000 17.0861
#
#
#
# Elastic Compliance Matrix: (Units=1/GPa)
#
#
# Indices 1 2 3 4 5 6 
#
# 1 0.011879 -0.004511 -0.006017 0.000000 0.000000 0.000000
# 2 -0.004511 0.060950 -0.016726 0.000000 0.000000 0.000000
# 3 -0.006017 -0.016726 0.018852 0.000000 0.000000 0.000000
# 4 0.000000 0.000000 0.000000 0.040162 0.000000 0.000000
# 5 0.000000 0.000000 0.000000 0.000000 0.027070 0.000000
# 6 0.000000 0.000000 0.000000 0.000000 0.000000 0.058527
#
#
# Mechanical properties :
#
#
# Convention : Reuss Voigt Hill
#
# Bulk Modulus (GPa) = 26.90068 56.43573 41.66820
# Shear Modulus (GPa) = 17.58464 24.64103 21.11283
#
# Velocity S-wave (km/s) = 3.09655 3.66556 3.39300
# Velocity P-wave (km/s) = 5.23959 6.97771 6.17016
#
# Compressibility (1/GPa) = 0.03717378
#
# Stress axis : x y z
#
# Youngs Moduli (GPa) = 84.18045 16.40680 53.04537
#
# Poissons Ratio (x) = 0.07401 0.31917
# Poissons Ratio (y) = 0.37972 0.88724
# Poissons Ratio (z) = 0.50651 0.27442
#
# Static dielectric constant tensor:
#      x y z
#    x 3.662800 0.000000 0.000000 
#    y 0.000000 2.952370 0.000000 
#    z 0.000000 0.000000 3.496890 
# 
# 
# High freq. dielectric constant tensor:
#      x y z
#    x 1.728060 0.000000 0.000000 
#    y 0.000000 1.653630 0.000000 
#    z 0.000000 0.000000 1.722790 
# 
# From -- ./inp_files/14326.got.cif
#   From: 2010.03.12/outbox.cif.g09.slc.cpg/sg44_8_cif.got.tgz:14326.got - 2010.04.14 02:36:11.
