data_PCOD8188036
_publ_section_title
;
Structure prediction by ZEFSAII (Michael W. Deem and Ramdas Pophale) SiO2 
 PCOD8188036
Probable space group: I M M 2
;
_chemical_formula_sum "Si O2"
_cell_formula_units_Z 64
_cell_length_a 8.910120
_cell_length_b 18.444739
_cell_length_c 26.526640
_cell_angle_alpha 90.000000
_cell_angle_beta 90.000000
_cell_angle_gamma 90.000000
_cell_volume 4359.516350
_symmetry_space_group_name_H-M "I M M 2"
_symmetry_group_IT_number 44
_symmetry_cell_setting 'orthorhombic'
loop_
_space_group_symop_operation_xyz
x,y,z
-x,-y,z
-x,y,z
x,-y,z
1/2+x,1/2+y,1/2+z
1/2-x,1/2-y,1/2+z
1/2-x,1/2+y,1/2+z
1/2+x,1/2-y,1/2+z
loop_
_atom_site_type_symbol
_atom_site_label
_atom_site_fract_x
_atom_site_fract_y
_atom_site_fract_z
Si Si1 0.820179 0.580683 0.776570
Si Si2 0.327107 0.082790 0.763648
Si Si3 0.174055 0.584247 0.073027
Si Si4 0.835565 0.799667 0.820597
Si Si5 0.320323 0.651352 0.168920
Si Si6 0.675948 0.583053 0.968373
Si Si7 0.177463 0.660640 0.876562
Si Si8 0.164172 0.289676 0.718623
O O1 0.757192 0.500000 0.767557
O O2 0.768070 0.608389 0.831255
O O3 0.754215 0.633610 0.731938
O O4 0.000000 0.583196 0.774296
O O5 0.500000 0.098765 0.752033
O O6 0.275830 0.133211 0.810550
O O7 0.236467 0.097356 0.712326
O O8 0.300253 0.000000 0.780016
O O9 0.200616 0.500000 0.084360
O O10 0.261414 0.629391 0.114790
O O11 0.000000 0.604786 0.074486
O O12 0.240353 0.606121 0.019272
O O13 0.780010 0.744811 0.864666
O O14 0.851904 0.751502 0.771216
O O15 0.000000 0.831209 0.834549
O O16 0.500000 0.650157 0.170248
O O17 0.256685 0.733534 0.179964
O O18 0.500000 0.592965 0.976785
O O19 0.716071 0.500000 0.954125
O O20 0.732283 0.637025 0.925572
O O21 0.000000 0.652282 0.885768
O O22 0.000000 0.307533 0.696557
#
# Coordination Sequence:
#
# PCOD8188036 Si02
#       8
#     8   8   8   8   8   8   8   8
#     4   8  12  19  35  58  81 105 133 162 190 223
#     4  10  19  28  39  58  83 109 138 170 202 239
#     4  10  20  32  44  58  77 101 133 173 208 238
#     4   8  15  27  41  57  78 105 136 168 201 239
#     4  10  18  28  42  57  78 108 137 167 204 244
#     4  10  20  31  42  59  83 109 137 167 200 240
#     4   9  16  27  43  61  81 107 139 171 203 237
#     4   7  12  22  34  52  77 102 129 160 192 228
#
# _framework density 14.680528000000001
#
# number of rings (size 3 to 8) (size 9 to 14) (size 15 to 20)
#    0.000    3.000    0.000    4.500    0.000    5.000 
#    0.000    0.000    0.000    0.000    0.000    0.000 
#    0.000    1.000    0.000    5.250    0.000    2.625 
#
# Total GULP energy -396480.457804 kJ/mol
# GULP energy per Si atom -12390.014306 kJ/mol
# Density = 1.464711 g / cm^3
# Si number density = 14.680528 Si / 1000 Ang^3
#
#
#
# Elastic Constant Matrix: (Units=GPa)
#
#
# Indices 1 2 3 4 5 6 
#
# 1 56.7083 38.6422 33.1493 0.0000 0.0000 0.0000
# 2 38.6422 103.6683 53.6683 0.0000 0.0000 0.0000
# 3 33.1493 53.6683 77.8547 0.0000 0.0000 0.0000
# 4 0.0000 0.0000 0.0000 26.6991 0.0000 0.0000
# 5 0.0000 0.0000 0.0000 0.0000 22.8406 0.0000
# 6 0.0000 0.0000 0.0000 0.0000 0.0000 15.9219
#
#
#
# Elastic Compliance Matrix: (Units=1/GPa)
#
#
# Indices 1 2 3 4 5 6 
#
# 1 0.025737 -0.006096 -0.006757 0.000000 0.000000 0.000000
# 2 -0.006096 0.016442 -0.008739 0.000000 0.000000 0.000000
# 3 -0.006757 -0.008739 0.021745 0.000000 0.000000 0.000000
# 4 0.000000 0.000000 0.000000 0.037454 0.000000 0.000000
# 5 0.000000 0.000000 0.000000 0.000000 0.043782 0.000000
# 6 0.000000 0.000000 0.000000 0.000000 0.000000 0.062807
#
#
# Mechanical properties :
#
#
# Convention : Reuss Voigt Hill
#
# Bulk Modulus (GPa) = 48.20963 54.35010 51.27987
# Shear Modulus (GPa) = 19.37499 20.61042 19.99270
#
# Velocity S-wave (km/s) = 3.63681 3.75097 3.69433
# Velocity P-wave (km/s) = 7.10955 7.47409 7.29409
#
# Compressibility (1/GPa) = 0.02074274
#
# Stress axis : x y z
#
# Youngs Moduli (GPa) = 38.85384 60.81841 45.98684
#
# Poissons Ratio (x) = 0.37074 0.31071
# Poissons Ratio (y) = 0.23684 0.40187
# Poissons Ratio (z) = 0.26252 0.53149
#
# Static dielectric constant tensor:
#      x y z
#    x 2.730510 0.000000 0.000000 
#    y 0.000000 3.110840 0.000000 
#    z 0.000000 0.000000 2.696930 
# 
# 
# High freq. dielectric constant tensor:
#      x y z
#    x 1.550160 0.000000 0.000000 
#    y 0.000000 1.554430 0.000000 
#    z 0.000000 0.000000 1.530470 
# 
# From -- ./inp_files/25237.got.cif
#   From: 2010.03.12/outbox.cif.g09.slc.cpg/sg44_13_cif.got.tgz:25237.got - 2010.04.14 02:36:11.
