data_PCOD8188684
_publ_section_title
;
Structure prediction by ZEFSAII (Michael W. Deem and Ramdas Pophale) SiO2 
 PCOD8188684
Probable space group: I M M 2
;
_chemical_formula_sum "Si O2"
_cell_formula_units_Z 56
_cell_length_a 22.502005
_cell_length_b 9.360430
_cell_length_c 14.429028
_cell_angle_alpha 90.000000
_cell_angle_beta 90.000000
_cell_angle_gamma 90.000000
_cell_volume 3039.163697
_symmetry_space_group_name_H-M "I M M 2"
_symmetry_group_IT_number 44
_symmetry_cell_setting 'orthorhombic'
loop_
_space_group_symop_operation_xyz
x,y,z
-x,-y,z
-x,y,z
x,-y,z
1/2+x,1/2+y,1/2+z
1/2-x,1/2-y,1/2+z
1/2-x,1/2+y,1/2+z
1/2+x,1/2-y,1/2+z
loop_
_atom_site_type_symbol
_atom_site_label
_atom_site_fract_x
_atom_site_fract_y
_atom_site_fract_z
Si Si1 0.111703 0.331570 0.303940
Si Si2 0.715455 0.835421 0.472931
Si Si3 0.645869 0.333524 0.974816
Si Si4 0.500000 0.833310 0.678963
Si Si5 0.115001 0.167449 0.873961
Si Si6 0.782196 0.331831 0.181875
Si Si7 0.848291 0.832179 0.678345
Si Si8 0.000000 0.170200 0.986077
O O1 0.114540 0.500000 0.321314
O O2 0.105783 0.254608 0.402954
O O3 0.056673 0.290917 0.239416
O O4 0.170203 0.267624 0.253481
O O5 0.784681 0.801275 0.457174
O O6 0.675540 0.739892 0.406531
O O7 0.697150 0.796270 0.577723
O O8 0.701737 0.000000 0.451368
O O9 0.631541 0.500000 0.962149
O O10 0.627779 0.278135 0.078534
O O11 0.500000 0.742322 0.585598
O O12 0.500000 0.000000 0.651927
O O13 0.107373 0.202222 0.763616
O O14 0.057473 0.223671 0.928599
O O15 0.123107 0.000000 0.889206
O O16 0.781267 0.500000 0.196584
O O17 0.716901 0.265452 0.200540
O O18 0.837851 0.000000 0.665295
O O19 0.000000 0.000000 0.997295
#
# Coordination Sequence:
#
# PCOD8188684 Si02
#       8
#     8   8   8   4   8   8   8   4
#     4  10  19  32  51  73  97 129 169 206 242 290
#     4   9  17  30  49  74 102 129 161 201 245 299
#     4   9  18  32  50  74 102 129 159 201 251 297
#     4  10  22  38  55  74  98 134 173 204 243 302
#     4  10  19  32  50  71  98 132 168 206 248 292
#     4   8  14  26  46  70  95 125 158 194 240 293
#     4   8  15  29  48  69  95 127 160 193 237 296
#     4  10  22  36  51  76 104 128 163 214 257 288
#
# _framework density 18.426120999999998
#
# number of rings (size 3 to 8) (size 9 to 14) (size 15 to 20)
#    0.000    2.857    0.000    3.429    0.000    4.000 
#    0.000    2.143    0.000    3.429    0.000    0.000 
#    0.000    0.000    0.000    0.000    0.000    0.000 
#
# Total GULP energy -347052.979532 kJ/mol
# GULP energy per Si atom -12394.749269 kJ/mol
# Density = 1.838418 g / cm^3
# Si number density = 18.426121 Si / 1000 Ang^3
#
#
#
# Elastic Constant Matrix: (Units=GPa)
#
#
# Indices 1 2 3 4 5 6 
#
# 1 66.5375 27.9921 65.2994 0.0000 0.0000 0.0000
# 2 27.9921 34.4828 44.6698 0.0000 0.0000 0.0000
# 3 65.2994 44.6698 159.0559 0.0000 0.0000 0.0000
# 4 0.0000 0.0000 0.0000 26.0227 0.0000 0.0000
# 5 0.0000 0.0000 0.0000 0.0000 30.0834 0.0000
# 6 0.0000 0.0000 0.0000 0.0000 0.0000 18.1805
#
#
#
# Elastic Compliance Matrix: (Units=1/GPa)
#
#
# Indices 1 2 3 4 5 6 
#
# 1 0.028184 -0.012402 -0.008088 0.000000 0.000000 0.000000
# 2 -0.012402 0.051041 -0.009243 0.000000 0.000000 0.000000
# 3 -0.008088 -0.009243 0.012203 0.000000 0.000000 0.000000
# 4 0.000000 0.000000 0.000000 0.038428 0.000000 0.000000
# 5 0.000000 0.000000 0.000000 0.000000 0.033241 0.000000
# 6 0.000000 0.000000 0.000000 0.000000 0.000000 0.055004
#
#
# Mechanical properties :
#
#
# Convention : Reuss Voigt Hill
#
# Bulk Modulus (GPa) = 31.28614 59.55540 45.42077
# Shear Modulus (GPa) = 17.34787 22.99833 20.17310
#
# Velocity S-wave (km/s) = 3.07169 3.53673 3.31238
# Velocity P-wave (km/s) = 5.44026 7.00495 6.27159
#
# Compressibility (1/GPa) = 0.03196304
#
# Stress axis : x y z
#
# Youngs Moduli (GPa) = 35.48159 19.59213 81.94497
#
# Poissons Ratio (x) = 0.24297 0.66275
# Poissons Ratio (y) = 0.44003 0.75743
# Poissons Ratio (z) = 0.28696 0.18109
#
# Static dielectric constant tensor:
#      x y z
#    x 3.378160 0.000000 0.000000 
#    y 0.000000 2.981210 0.000000 
#    z 0.000000 0.000000 3.613980 
# 
# 
# High freq. dielectric constant tensor:
#      x y z
#    x 1.698690 0.000000 0.000000 
#    y 0.000000 1.674690 0.000000 
#    z 0.000000 0.000000 1.731690 
# 
# From -- ./inp_files/14670.got.cif
#   From: 2010.03.12/outbox.cif.g09.slc.cpg/sg44_8_cif.got.tgz:14670.got - 2010.04.14 02:36:11.
