data_PCOD8188067
_publ_section_title
;
Structure prediction by ZEFSAII (Michael W. Deem and Ramdas Pophale) SiO2 
 PCOD8188067
Probable space group: I M M 2
;
_chemical_formula_sum "Si O2"
_cell_formula_units_Z 56
_cell_length_a 9.001111
_cell_length_b 29.325343
_cell_length_c 13.767284
_cell_angle_alpha 90.000000
_cell_angle_beta 90.000000
_cell_angle_gamma 90.000000
_cell_volume 3634.021474
_symmetry_space_group_name_H-M "I M M 2"
_symmetry_group_IT_number 44
_symmetry_cell_setting 'orthorhombic'
loop_
_space_group_symop_operation_xyz
x,y,z
-x,-y,z
-x,y,z
x,-y,z
1/2+x,1/2+y,1/2+z
1/2-x,1/2-y,1/2+z
1/2-x,1/2+y,1/2+z
1/2+x,1/2-y,1/2+z
loop_
_atom_site_type_symbol
_atom_site_label
_atom_site_fract_x
_atom_site_fract_y
_atom_site_fract_z
Si Si1 0.171391 0.400588 0.266300
Si Si2 0.677520 0.401352 0.058976
Si Si3 0.326585 0.727498 0.782111
Si Si4 0.175361 0.319784 0.950994
Si Si5 0.825404 0.229378 0.061302
Si Si6 0.672291 0.181343 0.894997
Si Si7 0.672472 0.500000 0.058145
Si Si8 0.333139 0.000000 0.751812
O O1 0.262188 0.393707 0.167464
O O2 0.231574 0.365609 0.347385
O O3 0.187014 0.452302 0.310408
O O4 0.000000 0.388748 0.242401
O O5 0.500000 0.397297 0.061740
O O6 0.731788 0.451356 0.017396
O O7 0.744829 0.365311 0.985431
O O8 0.500000 0.715596 0.792182
O O9 0.231530 0.691034 0.842623
O O10 0.270873 0.724251 0.671514
O O11 0.293281 0.778384 0.819152
O O12 0.000000 0.327253 0.950752
O O13 0.225030 0.278779 0.022007
O O14 0.000000 0.224553 0.053338
O O15 0.755124 0.189328 0.996654
O O16 0.500000 0.178154 0.919949
O O17 0.500000 0.500000 0.042171
O O18 0.706750 0.500000 0.171765
O O19 0.500000 0.000000 0.705466
#
# Coordination Sequence:
#
# PCOD8188067 Si02
#       8
#     8   8   8   8   8   8   4   4
#     4   9  16  27  42  62  88 116 143 174 209 247
#     4  10  18  28  43  63  87 115 143 172 206 248
#     4   9  17  30  44  59  82 112 141 172 209 249
#     4  10  19  30  44  64  87 111 140 174 210 250
#     4   9  18  31  45  61  85 113 142 176 211 246
#     4   9  17  28  43  62  85 111 140 172 210 253
#     4   8  16  28  40  58  85 112 139 170 205 244
#     4   8  14  24  40  60  83 112 143 170 205 250
#
# _framework density 15.409926
#
# number of rings (size 3 to 8) (size 9 to 14) (size 15 to 20)
#    0.000    2.857    0.000    1.714    0.000    4.571 
#    0.000    2.857    0.000    0.000    0.000    1.000 
#    0.000    4.571    0.000    0.000    0.000    0.000 
#
# Total GULP energy -346984.049941 kJ/mol
# GULP energy per Si atom -12392.287498 kJ/mol
# Density = 1.537485 g / cm^3
# Si number density = 15.409926 Si / 1000 Ang^3
#
#
#
# Elastic Constant Matrix: (Units=GPa)
#
#
# Indices 1 2 3 4 5 6 
#
# 1 33.3327 33.9614 31.7304 0.0000 0.0000 0.0000
# 2 33.9614 131.9367 62.0933 -0.0002 0.0000 0.0000
# 3 31.7304 62.0933 105.2881 -0.0007 0.0001 0.0000
# 4 0.0000 -0.0002 -0.0007 23.9362 0.0000 0.0000
# 5 0.0000 0.0000 0.0001 0.0000 24.7312 0.0000
# 6 0.0000 0.0000 0.0000 0.0000 0.0000 19.6600
#
#
#
# Elastic Compliance Matrix: (Units=1/GPa)
#
#
# Indices 1 2 3 4 5 6 
#
# 1 0.046881 -0.007500 -0.009705 0.000000 0.000000 0.000000
# 2 -0.007500 0.011691 -0.004635 0.000000 0.000000 0.000000
# 3 -0.009705 -0.004635 0.015156 0.000000 0.000000 0.000000
# 4 0.000000 0.000000 0.000000 0.041778 0.000000 0.000000
# 5 0.000000 0.000000 0.000000 0.000000 0.040435 0.000000
# 6 0.000000 0.000000 0.000000 0.000000 0.000000 0.050865
#
#
# Mechanical properties :
#
#
# Convention : Reuss Voigt Hill
#
# Bulk Modulus (GPa) = 33.27989 58.45862 45.86926
# Shear Modulus (GPa) = 19.19384 23.18362 21.18873
#
# Velocity S-wave (km/s) = 3.53306 3.88295 3.71213
# Velocity P-wave (km/s) = 6.18762 7.62372 6.94290
#
# Compressibility (1/GPa) = 0.03004817
#
# Stress axis : x y z
#
# Youngs Moduli (GPa) = 21.33078 85.53549 65.98122
#
# Poissons Ratio (x) = 0.64150 0.64037
# Poissons Ratio (y) = 0.15998 0.30579
# Poissons Ratio (z) = 0.20702 0.39642
#
# Static dielectric constant tensor:
#      x y z
#    x 2.951590 0.000000 0.000000 
#    y 0.000000 3.275180 0.000000 
#    z 0.000000 0.000000 2.783220 
# 
# 
# High freq. dielectric constant tensor:
#      x y z
#    x 1.592980 0.000000 0.000000 
#    y 0.000000 1.594620 0.000000 
#    z 0.000000 0.000000 1.556490 
# 
# From -- ./inp_files/17045.got.cif
#   From: 2010.03.12/outbox.cif.g09.slc.cpg/sg44_9_cif.got.tgz:17045.got - 2010.04.14 02:36:11.
