data_PCOD8188763
_publ_section_title
;
Structure prediction by ZEFSAII (Michael W. Deem and Ramdas Pophale) SiO2 
 PCOD8188763
Probable space group: I M M 2
;
_chemical_formula_sum "Si O2"
_cell_formula_units_Z 64
_cell_length_a 20.411010
_cell_length_b 9.056674
_cell_length_c 19.462245
_cell_angle_alpha 90.000000
_cell_angle_beta 90.000000
_cell_angle_gamma 90.000000
_cell_volume 3597.710107
_symmetry_space_group_name_H-M "I M M 2"
_symmetry_group_IT_number 44
_symmetry_cell_setting 'orthorhombic'
loop_
_space_group_symop_operation_xyz
x,y,z
-x,-y,z
-x,y,z
x,-y,z
1/2+x,1/2+y,1/2+z
1/2-x,1/2-y,1/2+z
1/2-x,1/2+y,1/2+z
1/2+x,1/2-y,1/2+z
loop_
_atom_site_type_symbol
_atom_site_label
_atom_site_fract_x
_atom_site_fract_y
_atom_site_fract_z
Si Si1 0.771626 0.325964 0.804160
Si Si2 0.074818 0.330543 0.588675
Si Si3 0.726462 0.672742 0.443086
Si Si4 0.619968 0.327808 0.805570
Si Si5 0.073354 0.668552 0.175153
Si Si6 0.185797 0.826110 0.669218
Si Si7 0.189728 0.326398 0.078033
Si Si8 0.378038 0.830379 0.941126
O O1 0.783476 0.500000 0.807528
O O2 0.798230 0.253076 0.874119
O O3 0.695616 0.284955 0.794088
O O4 0.811588 0.257809 0.741355
O O5 0.097952 0.500000 0.599599
O O6 0.118684 0.221111 0.633157
O O7 0.080864 0.288795 0.508490
O O8 0.000000 0.309055 0.611841
O O9 0.712033 0.500000 0.436440
O O10 0.686840 0.738355 0.507011
O O11 0.802540 0.707726 0.456088
O O12 0.608357 0.500000 0.806960
O O13 0.577644 0.261785 0.744370
O O14 0.594473 0.264407 0.877908
O O15 0.089853 0.500000 0.194254
O O16 0.124807 0.724476 0.118586
O O17 0.000000 0.685153 0.145027
O O18 0.247024 0.778708 0.622100
O O19 0.185741 0.000000 0.682821
O O20 0.190586 0.500000 0.062214
O O21 0.386751 0.000000 0.920460
#
# Coordination Sequence:
#
# PCOD8188763 Si02
#       8
#     8   8   8   8   8   8   8   8
#     4  10  20  34  54  80 111 142 176 220 271 322
#     4  10  21  37  55  77 108 146 185 222 267 324
#     4  10  19  32  54  81 109 139 175 221 270 317
#     4  10  20  32  50  77 109 142 178 221 266 313
#     4  10  21  37  55  75 105 146 185 219 261 318
#     4  11  21  34  56  82 109 140 180 228 273 316
#     4  10  20  34  54  80 107 138 178 223 270 318
#     4   9  18  32  50  74 106 143 183 217 254 315
#
# _framework density 17.789093999999999
#
# number of rings (size 3 to 8) (size 9 to 14) (size 15 to 20)
#    0.000    2.000    2.500    1.500    0.000    4.000 
#    0.000    1.250    0.000    0.750    0.000    1.750 
#    0.000    0.000    0.000    0.000    0.000    0.000 
#
# Total GULP energy -396941.235179 kJ/mol
# GULP energy per Si atom -12404.413599 kJ/mol
# Density = 1.774860 g / cm^3
# Si number density = 17.789094 Si / 1000 Ang^3
#
#
#
# Elastic Constant Matrix: (Units=GPa)
#
#
# Indices 1 2 3 4 5 6 
#
# 1 78.3593 32.7148 47.1811 0.0000 0.0000 0.0000
# 2 32.7148 73.3065 53.8491 0.0000 0.0000 0.0000
# 3 47.1811 53.8491 122.8136 0.0000 0.0000 0.0000
# 4 0.0000 0.0000 0.0000 37.0009 0.0000 0.0000
# 5 0.0000 0.0000 0.0000 0.0000 23.5470 0.0000
# 6 0.0000 0.0000 0.0000 0.0000 0.0000 22.2671
#
#
#
# Elastic Compliance Matrix: (Units=1/GPa)
#
#
# Indices 1 2 3 4 5 6 
#
# 1 0.017445 -0.004222 -0.004851 0.000000 0.000000 0.000000
# 2 -0.004222 0.021144 -0.007649 0.000000 0.000000 0.000000
# 3 -0.004851 -0.007649 0.013360 0.000000 0.000000 0.000000
# 4 0.000000 0.000000 0.000000 0.027026 0.000000 0.000000
# 5 0.000000 0.000000 0.000000 0.000000 0.042468 0.000000
# 6 0.000000 0.000000 0.000000 0.000000 0.000000 0.044909
#
#
# Mechanical properties :
#
#
# Convention : Reuss Voigt Hill
#
# Bulk Modulus (GPa) = 54.03766 60.21881 57.12823
# Shear Modulus (GPa) = 24.27599 25.94531 25.11065
#
# Velocity S-wave (km/s) = 3.69813 3.82317 3.76117
# Velocity P-wave (km/s) = 6.97694 7.30848 7.14463
#
# Compressibility (1/GPa) = 0.01850561
#
# Stress axis : x y z
#
# Youngs Moduli (GPa) = 57.32274 47.29398 74.85238
#
# Poissons Ratio (x) = 0.19968 0.36308
# Poissons Ratio (y) = 0.24203 0.57254
# Poissons Ratio (z) = 0.27805 0.36175
#
# Static dielectric constant tensor:
#      x y z
#    x 3.095420 0.000000 0.000000 
#    y 0.000000 3.267050 0.000000 
#    z 0.000000 0.000000 3.285530 
# 
# 
# High freq. dielectric constant tensor:
#      x y z
#    x 1.662110 0.000000 0.000000 
#    y 0.000000 1.692880 0.000000 
#    z 0.000000 0.000000 1.690240 
# 
# From -- ./inp_files/20717.got.cif
#   From: 2010.03.12/outbox.cif.g09.slc.cpg/sg44_11_cif.got.tgz:20717.got - 2010.04.14 02:36:11.
