data_PCOD8188565
_publ_section_title
;
Structure prediction by ZEFSAII (Michael W. Deem and Ramdas Pophale) SiO2 
 PCOD8188565
Probable space group: I M M 2
;
_chemical_formula_sum "Si O2"
_cell_formula_units_Z 56
_cell_length_a 9.222265
_cell_length_b 18.142191
_cell_length_c 20.586662
_cell_angle_alpha 90.000000
_cell_angle_beta 90.000000
_cell_angle_gamma 90.000000
_cell_volume 3444.397509
_symmetry_space_group_name_H-M "I M M 2"
_symmetry_group_IT_number 44
_symmetry_cell_setting 'orthorhombic'
loop_
_space_group_symop_operation_xyz
x,y,z
-x,-y,z
-x,y,z
x,-y,z
1/2+x,1/2+y,1/2+z
1/2-x,1/2-y,1/2+z
1/2-x,1/2+y,1/2+z
1/2+x,1/2-y,1/2+z
loop_
_atom_site_type_symbol
_atom_site_label
_atom_site_fract_x
_atom_site_fract_y
_atom_site_fract_z
Si Si1 0.666956 0.413780 0.365810
Si Si2 0.169955 0.338162 0.250112
Si Si3 0.331313 0.915722 0.615708
Si Si4 0.669111 0.584564 0.631892
Si Si5 0.167835 0.163834 0.999670
Si Si6 0.335719 0.789982 0.192366
Si Si7 0.163444 0.791023 0.555312
O O1 0.500000 0.397557 0.347399
O O2 0.696487 0.500000 0.371446
O O3 0.771979 0.380407 0.312387
O O4 0.709040 0.378187 0.434304
O O5 0.205277 0.388838 0.188156
O O6 0.249636 0.259343 0.244532
O O7 0.000000 0.323523 0.257555
O O8 0.500000 0.905539 0.600664
O O9 0.243920 0.869281 0.562003
O O10 0.281576 0.000000 0.609658
O O11 0.500000 0.596505 0.645967
O O12 0.715305 0.500000 0.639342
O O13 0.708432 0.610114 0.559133
O O14 0.758450 0.630933 0.685157
O O15 0.000000 0.185578 0.002416
O O16 0.257539 0.239882 0.002354
O O17 0.500000 0.801398 0.216678
O O18 0.330467 0.749536 0.123821
O O19 0.000000 0.805377 0.532030
#
# Coordination Sequence:
#
# PCOD8188565 Si02
#       7
#     8   8   8   8   8   8   8
#     4  10  20  32  46  66  92 122 155 187 218 256
#     4  10  19  31  46  64  89 121 155 188 222 262
#     4   9  17  29  45  65  89 117 148 182 222 268
#     4   9  16  27  45  68  92 118 149 185 224 265
#     4   9  17  30  46  63  88 123 156 183 215 260
#     4   9  17  29  44  63  88 117 149 185 226 269
#     4   9  17  28  43  64  88 114 146 185 226 264
#
# _framework density 16.258285999999998
#
# number of rings (size 3 to 8) (size 9 to 14) (size 15 to 20)
#    0.000    2.714    0.000    2.143    0.000    7.714 
#    0.000    0.000    0.000    2.571    0.000    1.000 
#    0.000    1.143    0.000    0.000    0.000    0.000 
#
# Total GULP energy -347223.752889 kJ/mol
# GULP energy per Si atom -12400.848317 kJ/mol
# Density = 1.622128 g / cm^3
# Si number density = 16.258286 Si / 1000 Ang^3
#
#
#
# Elastic Constant Matrix: (Units=GPa)
#
#
# Indices 1 2 3 4 5 6 
#
# 1 94.8677 72.8653 41.5685 0.0000 0.0000 0.0000
# 2 72.8653 143.2354 49.3823 0.0000 0.0000 0.0000
# 3 41.5685 49.3823 55.5035 0.0000 0.0000 0.0000
# 4 0.0000 0.0000 0.0000 27.4957 0.0000 0.0000
# 5 0.0000 0.0000 0.0000 0.0000 22.0123 0.0000
# 6 0.0000 0.0000 0.0000 0.0000 0.0000 27.4310
#
#
#
# Elastic Compliance Matrix: (Units=1/GPa)
#
#
# Indices 1 2 3 4 5 6 
#
# 1 0.019697 -0.007117 -0.008419 0.000000 0.000000 0.000000
# 2 -0.007117 0.012642 -0.005918 0.000000 0.000000 0.000000
# 3 -0.008419 -0.005918 0.029587 0.000000 0.000000 0.000000
# 4 0.000000 0.000000 0.000000 0.036369 0.000000 0.000000
# 5 0.000000 0.000000 0.000000 0.000000 0.045429 0.000000
# 6 0.000000 0.000000 0.000000 0.000000 0.000000 0.036455
#
#
# Mechanical properties :
#
#
# Convention : Reuss Voigt Hill
#
# Bulk Modulus (GPa) = 52.58161 69.02654 60.80407
# Shear Modulus (GPa) = 21.79338 24.04050 22.91694
#
# Velocity S-wave (km/s) = 3.66518 3.84951 3.75848
# Velocity P-wave (km/s) = 7.09388 7.89346 7.50432
#
# Compressibility (1/GPa) = 0.01901806
#
# Stress axis : x y z
#
# Youngs Moduli (GPa) = 50.77011 79.09918 33.79825
#
# Poissons Ratio (x) = 0.56297 0.28455
# Poissons Ratio (y) = 0.36134 0.20001
# Poissons Ratio (z) = 0.42744 0.46809
#
# Static dielectric constant tensor:
#      x y z
#    x 3.155250 0.000000 0.000000 
#    y 0.000000 3.162230 0.000000 
#    z 0.000000 0.000000 2.763540 
# 
# 
# High freq. dielectric constant tensor:
#      x y z
#    x 1.632240 0.000000 0.000000 
#    y 0.000000 1.627100 0.000000 
#    z 0.000000 0.000000 1.584410 
# 
# From -- ./inp_files/23209.got.cif
#   From: 2010.03.12/outbox.cif.g09.slc.cpg/sg44_12_cif.got.tgz:23209.got - 2010.04.14 02:36:11.
