data_PCOD8188320
_publ_section_title
;
Structure prediction by ZEFSAII (Michael W. Deem and Ramdas Pophale) SiO2 
 PCOD8188320
Probable space group: I M M 2
;
_chemical_formula_sum "Si O2"
_cell_formula_units_Z 64
_cell_length_a 16.293721
_cell_length_b 18.701512
_cell_length_c 11.069868
_cell_angle_alpha 90.000000
_cell_angle_beta 90.000000
_cell_angle_gamma 90.000000
_cell_volume 3373.179390
_symmetry_space_group_name_H-M "I M M 2"
_symmetry_group_IT_number 44
_symmetry_cell_setting 'orthorhombic'
loop_
_space_group_symop_operation_xyz
x,y,z
-x,-y,z
-x,y,z
x,-y,z
1/2+x,1/2+y,1/2+z
1/2-x,1/2-y,1/2+z
1/2-x,1/2+y,1/2+z
1/2+x,1/2-y,1/2+z
loop_
_atom_site_type_symbol
_atom_site_label
_atom_site_fract_x
_atom_site_fract_y
_atom_site_fract_z
Si Si1 0.903979 0.282492 0.428040
Si Si2 0.689320 0.288624 0.141439
Si Si3 0.090370 0.582762 0.798343
Si Si4 0.338246 0.080389 0.043771
Si Si5 0.095238 0.191161 0.879484
Si Si6 0.648446 0.418734 0.563503
Si Si7 0.190058 0.811963 0.257951
Si Si8 0.308322 0.829338 0.461271
O O1 0.873039 0.231810 0.535618
O O2 0.879654 0.365208 0.449734
O O3 0.867516 0.254270 0.300578
O O4 0.000000 0.275736 0.419581
O O5 0.637745 0.324340 0.249668
O O6 0.733555 0.215259 0.178382
O O7 0.765771 0.338249 0.093082
O O8 0.087735 0.500000 0.820598
O O9 0.144740 0.604006 0.682632
O O10 0.122446 0.614063 0.925708
O O11 0.000000 0.614202 0.773317
O O12 0.241979 0.080180 0.020706
O O13 0.374075 0.000000 0.022722
O O14 0.150701 0.250456 0.947867
O O15 0.000000 0.215235 0.862798
O O16 0.096278 0.118530 0.957303
O O17 0.616469 0.500000 0.584855
O O18 0.638325 0.372480 0.686582
O O19 0.231291 0.845970 0.375067
#
# Coordination Sequence:
#
# PCOD8188320 Si02
#       8
#     8   8   8   8   8   8   8   8
#     4  11  21  33  54  85 118 148 181 231 285 333
#     4  10  19  36  57  78 109 146 194 229 271 338
#     4  10  19  30  50  85 120 147 182 230 281 338
#     4  10  18  32  55  84 116 151 187 225 276 339
#     4  11  22  36  56  85 112 144 190 242 289 330
#     4  11  21  38  61  83 111 149 192 240 285 334
#     4  10  19  35  54  82 113 142 187 233 274 337
#     4  10  18  33  58  79 110 151 184 224 279 340
#
# _framework density 18.973196999999999
#
# number of rings (size 3 to 8) (size 9 to 14) (size 15 to 20)
#    0.000    1.625    3.750    3.375    0.000    1.500 
#    0.000    0.625    0.000    1.500    0.000    0.000 
#    0.000    0.000    0.000    0.000    0.000    0.000 
#
# Total GULP energy -396527.917154 kJ/mol
# GULP energy per Si atom -12391.497411 kJ/mol
# Density = 1.893001 g / cm^3
# Si number density = 18.973197 Si / 1000 Ang^3
#
#
#
# Elastic Constant Matrix: (Units=GPa)
#
#
# Indices 1 2 3 4 5 6 
#
# 1 83.7393 29.9163 34.4768 0.0000 0.0000 0.0000
# 2 29.9163 97.1576 47.0776 0.0000 0.0000 0.0000
# 3 34.4768 47.0776 75.8372 0.0000 0.0000 0.0000
# 4 0.0000 0.0000 0.0000 34.4203 0.0000 0.0000
# 5 0.0000 0.0000 0.0000 0.0000 25.6101 0.0000
# 6 0.0000 0.0000 0.0000 0.0000 0.0000 22.2191
#
#
#
# Elastic Compliance Matrix: (Units=1/GPa)
#
#
# Indices 1 2 3 4 5 6 
#
# 1 0.014926 -0.001871 -0.005624 0.000000 0.000000 0.000000
# 2 -0.001871 0.014955 -0.008433 0.000000 0.000000 0.000000
# 3 -0.005624 -0.008433 0.020978 0.000000 0.000000 0.000000
# 4 0.000000 0.000000 0.000000 0.029053 0.000000 0.000000
# 5 0.000000 0.000000 0.000000 0.000000 0.039047 0.000000
# 6 0.000000 0.000000 0.000000 0.000000 0.000000 0.045006
#
#
# Mechanical properties :
#
#
# Convention : Reuss Voigt Hill
#
# Bulk Modulus (GPa) = 52.62433 53.29728 52.96080
# Shear Modulus (GPa) = 24.73355 26.13413 25.43384
#
# Velocity S-wave (km/s) = 3.61446 3.71539 3.66528
# Velocity P-wave (km/s) = 6.72425 6.82329 6.77395
#
# Compressibility (1/GPa) = 0.01900262
#
# Stress axis : x y z
#
# Youngs Moduli (GPa) = 66.99848 66.86821 47.66895
#
# Poissons Ratio (x) = 0.12509 0.26810
# Poissons Ratio (y) = 0.12533 0.40200
# Poissons Ratio (z) = 0.37681 0.56390
#
# Static dielectric constant tensor:
#      x y z
#    x 3.577570 0.000000 0.000000 
#    y 0.000000 3.451370 0.000000 
#    z 0.000000 0.000000 3.584120 
# 
# 
# High freq. dielectric constant tensor:
#      x y z
#    x 1.740140 0.000000 0.000000 
#    y 0.000000 1.716940 0.000000 
#    z 0.000000 0.000000 1.721890 
# 
# From -- ./inp_files/13474.got.cif
#   From: 2010.03.12/outbox.cif.g09.slc.cpg/sg44_7_cif.got.tgz:13474.got - 2010.04.14 02:36:11.
