data_PCOD8188828
_publ_section_title
;
Structure prediction by ZEFSAII (Michael W. Deem and Ramdas Pophale) SiO2 
 PCOD8188828
Probable space group: I M M 2
;
_chemical_formula_sum "Si O2"
_cell_formula_units_Z 64
_cell_length_a 9.084298
_cell_length_b 24.932763
_cell_length_c 15.141034
_cell_angle_alpha 90.000000
_cell_angle_beta 90.000000
_cell_angle_gamma 90.000000
_cell_volume 3429.393464
_symmetry_space_group_name_H-M "I M M 2"
_symmetry_group_IT_number 44
_symmetry_cell_setting 'orthorhombic'
loop_
_space_group_symop_operation_xyz
x,y,z
-x,-y,z
-x,y,z
x,-y,z
1/2+x,1/2+y,1/2+z
1/2-x,1/2-y,1/2+z
1/2-x,1/2+y,1/2+z
1/2+x,1/2-y,1/2+z
loop_
_atom_site_type_symbol
_atom_site_label
_atom_site_fract_x
_atom_site_fract_y
_atom_site_fract_z
Si Si1 0.172798 0.386795 0.978650
Si Si2 0.170516 0.438321 0.164540
Si Si3 0.672790 0.353609 0.282026
Si Si4 0.331692 0.278497 0.955923
Si Si5 0.831934 0.246293 0.253229
Si Si6 0.671045 0.671423 0.477556
Si Si7 0.826260 0.061631 0.311193
Si Si8 0.827945 0.858995 0.164014
O O1 0.240459 0.328250 0.993394
O O2 0.246021 0.417160 0.897434
O O3 0.000000 0.381582 0.961004
O O4 0.208945 0.420885 0.065475
O O5 0.215008 0.500000 0.175420
O O6 0.262928 0.405745 0.235997
O O7 0.000000 0.428450 0.184906
O O8 0.500000 0.352722 0.267950
O O9 0.736948 0.299628 0.238811
O O10 0.716370 0.356812 0.385893
O O11 0.500000 0.283872 0.986785
O O12 0.318372 0.277535 0.850830
O O13 0.264269 0.224576 0.995810
O O14 0.765981 0.199701 0.190718
O O15 0.000000 0.261424 0.230250
O O16 0.500000 0.687956 0.475260
O O17 0.704548 0.631184 0.559800
O O18 0.764097 0.093436 0.225045
O O19 0.000000 0.069889 0.324759
O O20 0.785534 0.000000 0.295459
O O21 0.000000 0.856912 0.183463
#
# Coordination Sequence:
#
# PCOD8188828 Si02
#       8
#     8   8   8   8   8   8   8   8
#     4  11  22  36  56  81 111 145 182 224 275 332
#     4  10  23  42  60  77 102 144 194 230 270 336
#     4  10  21  36  55  83 114 139 178 235 286 321
#     4  10  19  33  53  81 114 145 183 223 267 322
#     4   9  17  32  54  77 109 149 184 215 259 327
#     4   9  19  35  55  80 114 150 184 223 271 327
#     4  10  20  36  58  83 112 147 187 228 270 320
#     4   9  17  33  55  80 111 149 188 220 261 324
#
# _framework density 18.662192000000001
#
# number of rings (size 3 to 8) (size 9 to 14) (size 15 to 20)
#    0.000    2.250    1.250    1.500    1.750    3.000 
#    0.000    1.250    0.000    2.250    0.000    0.000 
#    0.000    0.000    0.000    0.000    0.000    0.000 
#
# Total GULP energy -396798.513093 kJ/mol
# GULP energy per Si atom -12399.953534 kJ/mol
# Density = 1.861972 g / cm^3
# Si number density = 18.662192 Si / 1000 Ang^3
#
#
#
# Elastic Constant Matrix: (Units=GPa)
#
#
# Indices 1 2 3 4 5 6 
#
# 1 66.1026 59.0724 44.3269 0.0000 0.0000 0.0000
# 2 59.0724 138.6649 76.1941 0.0000 0.0000 0.0000
# 3 44.3269 76.1941 112.5647 -0.0001 0.0000 -0.0001
# 4 0.0000 0.0000 -0.0001 28.2937 0.0000 0.0000
# 5 0.0000 0.0000 0.0000 0.0000 25.2260 0.0000
# 6 0.0000 0.0000 -0.0001 0.0000 0.0000 24.7574
#
#
#
# Elastic Compliance Matrix: (Units=1/GPa)
#
#
# Indices 1 2 3 4 5 6 
#
# 1 0.025677 -0.008570 -0.004310 0.000000 0.000000 0.000000
# 2 -0.008570 0.014343 -0.006334 0.000000 0.000000 0.000000
# 3 -0.004310 -0.006334 0.014868 0.000000 0.000000 0.000000
# 4 0.000000 0.000000 0.000000 0.035344 0.000000 0.000000
# 5 0.000000 0.000000 0.000000 0.000000 0.039642 0.000000
# 6 0.000000 0.000000 0.000000 0.000000 0.000000 0.040392
#
#
# Mechanical properties :
#
#
# Convention : Reuss Voigt Hill
#
# Bulk Modulus (GPa) = 60.75359 75.16877 67.96118
# Shear Modulus (GPa) = 23.34478 24.83801 24.09139
#
# Velocity S-wave (km/s) = 3.54066 3.65214 3.59684
# Velocity P-wave (km/s) = 7.02425 7.62563 7.33111
#
# Compressibility (1/GPa) = 0.01645993
#
# Stress axis : x y z
#
# Youngs Moduli (GPa) = 38.94511 69.72098 67.25692
#
# Poissons Ratio (x) = 0.59753 0.28990
# Poissons Ratio (y) = 0.33377 0.42598
# Poissons Ratio (z) = 0.16786 0.44159
#
# Static dielectric constant tensor:
#      x y z
#    x 3.354540 0.000000 0.000000 
#    y 0.000000 3.454300 0.000000 
#    z 0.000000 0.000000 3.513420 
# 
# 
# High freq. dielectric constant tensor:
#      x y z
#    x 1.712090 0.000000 0.000000 
#    y 0.000000 1.717330 0.000000 
#    z 0.000000 0.000000 1.730530 
# 
# From -- ./inp_files/16813.got.cif
#   From: 2010.03.12/outbox.cif.g09.slc.cpg/sg44_9_cif.got.tgz:16813.got - 2010.04.14 02:36:11.
