data_PCOD8188729
_publ_section_title
;
Structure prediction by ZEFSAII (Michael W. Deem and Ramdas Pophale) SiO2 
 PCOD8188729
Probable space group: I M M 2
;
_chemical_formula_sum "Si O2"
_cell_formula_units_Z 48
_cell_length_a 15.695432
_cell_length_b 18.405297
_cell_length_c 8.909261
_cell_angle_alpha 90.000000
_cell_angle_beta 90.000000
_cell_angle_gamma 90.000000
_cell_volume 2573.699188
_symmetry_space_group_name_H-M "I M M 2"
_symmetry_group_IT_number 44
_symmetry_cell_setting 'orthorhombic'
loop_
_space_group_symop_operation_xyz
x,y,z
-x,-y,z
-x,y,z
x,-y,z
1/2+x,1/2+y,1/2+z
1/2-x,1/2-y,1/2+z
1/2-x,1/2+y,1/2+z
1/2+x,1/2-y,1/2+z
loop_
_atom_site_type_symbol
_atom_site_label
_atom_site_fract_x
_atom_site_fract_y
_atom_site_fract_z
Si Si1 0.403162 0.916416 0.170300
Si Si2 0.909396 0.150504 0.374243
Si Si3 0.906099 0.083483 0.688387
Si Si4 0.404624 0.182416 0.889081
Si Si5 0.768015 0.334323 0.833649
Si Si6 0.745405 0.315494 0.188392
O O1 0.500000 0.902780 0.223006
O O2 0.341011 0.893781 0.306559
O O3 0.387966 0.000000 0.128195
O O4 0.379287 0.867681 0.028384
O O5 0.910357 0.094242 0.509946
O O6 0.901015 0.233183 0.438377
O O7 0.824928 0.135576 0.274521
O O8 0.000000 0.142928 0.284432
O O9 0.827216 0.130016 0.752029
O O10 0.000000 0.105566 0.755195
O O11 0.886829 0.000000 0.724737
O O12 0.500000 0.162392 0.831945
O O13 0.337099 0.165538 0.758578
O O14 0.789186 0.262592 0.739897
O O15 0.758016 0.318686 0.010132
#
# Coordination Sequence:
#
# PCOD8188729 Si02
#       6
#     8   8   8   8   8   8
#     4  10  21  36  53  74 103 141 180 217 264 319
#     4   8  15  29  50  73  97 126 162 206 253 303
#     4   9  17  29  46  70  99 130 164 201 244 297
#     4   9  18  35  56  76 100 132 171 214 263 319
#     4  10  19  32  52  77 106 136 172 214 259 309
#     4  10  20  33  53  80 105 133 171 214 261 313
#
# _framework density 18.650198
#
# number of rings (size 3 to 8) (size 9 to 14) (size 15 to 20)
#    0.000    2.667    0.000    3.000    0.000    6.000 
#    0.000    0.000    0.000    5.000    0.000    0.000 
#    0.000    2.667    0.000    0.000    0.000    0.000 
#
# Total GULP energy -297328.400127 kJ/mol
# GULP energy per Si atom -12388.683339 kJ/mol
# Density = 1.860775 g / cm^3
# Si number density = 18.650198 Si / 1000 Ang^3
#
#
#
# Elastic Constant Matrix: (Units=GPa)
#
#
# Indices 1 2 3 4 5 6 
#
# 1 151.8268 44.2602 34.5126 0.0000 0.0000 0.0000
# 2 44.2602 50.6195 13.8074 0.0000 0.0000 0.0000
# 3 34.5126 13.8074 46.9407 0.0000 0.0000 0.0000
# 4 0.0000 0.0000 0.0000 15.0271 0.0000 0.0000
# 5 0.0000 0.0000 0.0000 0.0000 28.3925 0.0000
# 6 0.0000 0.0000 0.0000 0.0000 0.0000 27.2059
#
#
#
# Elastic Compliance Matrix: (Units=1/GPa)
#
#
# Indices 1 2 3 4 5 6 
#
# 1 0.009856 -0.007220 -0.005122 0.000000 0.000000 0.000000
# 2 -0.007220 0.026768 -0.002565 0.000000 0.000000 0.000000
# 3 -0.005122 -0.002565 0.025824 0.000000 0.000000 0.000000
# 4 0.000000 0.000000 0.000000 0.066547 0.000000 0.000000
# 5 0.000000 0.000000 0.000000 0.000000 0.035221 0.000000
# 6 0.000000 0.000000 0.000000 0.000000 0.000000 0.036757
#
#
# Mechanical properties :
#
#
# Convention : Reuss Voigt Hill
#
# Bulk Modulus (GPa) = 30.64445 48.28304 39.46375
# Shear Modulus (GPa) = 20.68978 24.57888 22.63433
#
# Velocity S-wave (km/s) = 3.33432 3.63421 3.48749
# Velocity P-wave (km/s) = 5.59378 6.59962 6.11741
#
# Compressibility (1/GPa) = 0.03263233
#
# Stress axis : x y z
#
# Youngs Moduli (GPa) = 101.46394 37.35784 38.72331
#
# Poissons Ratio (x) = 0.26973 0.19836
# Poissons Ratio (y) = 0.73260 0.09933
# Poissons Ratio (z) = 0.51975 0.09583
#
# Static dielectric constant tensor:
#      x y z
#    x 4.138100 0.000000 0.000000 
#    y 0.000000 3.348410 0.000000 
#    z 0.000000 0.000000 2.900800 
# 
# 
# High freq. dielectric constant tensor:
#      x y z
#    x 1.758130 0.000000 0.000000 
#    y 0.000000 1.717330 0.000000 
#    z 0.000000 0.000000 1.668320 
# 
# From -- ./inp_files/7088.got.cif
#   From: 2010.03.12/outbox.cif.g09.slc.cpg/sg44_4_cif.got.tgz:7088.got - 2010.04.14 02:36:11.
