data_PCOD8188558
_publ_section_title
;
Structure prediction by ZEFSAII (Michael W. Deem and Ramdas Pophale) SiO2 
 PCOD8188558
Probable space group: I M M 2
;
_chemical_formula_sum "Si O2"
_cell_formula_units_Z 64
_cell_length_a 8.798469
_cell_length_b 33.332037
_cell_length_c 11.701478
_cell_angle_alpha 90.000000
_cell_angle_beta 90.000000
_cell_angle_gamma 90.000000
_cell_volume 3431.702917
_symmetry_space_group_name_H-M "I M M 2"
_symmetry_group_IT_number 44
_symmetry_cell_setting 'orthorhombic'
loop_
_space_group_symop_operation_xyz
x,y,z
-x,-y,z
-x,y,z
x,-y,z
1/2+x,1/2+y,1/2+z
1/2-x,1/2-y,1/2+z
1/2-x,1/2+y,1/2+z
1/2+x,1/2-y,1/2+z
loop_
_atom_site_type_symbol
_atom_site_label
_atom_site_fract_x
_atom_site_fract_y
_atom_site_fract_z
Si Si1 0.173620 0.665930 0.262400
Si Si2 0.323294 0.817945 0.156129
Si Si3 0.175775 0.228095 0.612047
Si Si4 0.177956 0.175654 0.397354
Si Si5 0.679048 0.375291 0.479144
Si Si6 0.674283 0.888339 0.541397
Si Si7 0.328771 0.545860 0.164916
Si Si8 0.320630 0.954723 0.907515
O O1 0.232989 0.709096 0.218864
O O2 0.266128 0.649768 0.369941
O O3 0.192943 0.634813 0.160228
O O4 0.000000 0.670894 0.301557
O O5 0.500000 0.828912 0.147994
O O6 0.288538 0.775004 0.098824
O O7 0.274068 0.814221 0.286538
O O8 0.228193 0.852315 0.093458
O O9 0.224709 0.208367 0.492330
O O10 0.000000 0.219652 0.637551
O O11 0.227719 0.132064 0.442056
O O12 0.000000 0.176061 0.369415
O O13 0.500000 0.379020 0.475108
O O14 0.746466 0.420487 0.486414
O O15 0.500000 0.891217 0.502174
O O16 0.745226 0.932062 0.560650
O O17 0.500000 0.562325 0.183449
O O18 0.331985 0.500000 0.128387
O O19 0.234719 0.552886 0.279610
O O20 0.500000 0.949104 0.909861
O O21 0.274769 0.000000 0.948079
#
# Coordination Sequence:
#
# PCOD8188558 Si02
#       8
#     8   8   8   8   8   8   8   8
#     4  10  20  34  55  82 113 148 188 232 280 336
#     4  11  24  41  59  83 114 150 194 239 287 341
#     4   9  21  39  59  83 112 148 187 235 287 337
#     4  10  21  39  59  81 110 146 191 236 284 336
#     4  12  24  37  57  85 118 155 195 237 288 345
#     4  10  19  33  55  80 109 149 187 227 279 334
#     4  10  19  30  49  81 117 150 184 227 280 337
#     4  10  20  35  56  83 117 154 191 236 291 348
#
# _framework density 18.649632
#
# number of rings (size 3 to 8) (size 9 to 14) (size 15 to 20)
#    0.000    1.750    1.250    3.375    1.750    4.000 
#    0.000    0.000    0.000    0.750    0.000    0.000 
#    0.000    0.000    0.000    0.000    0.000    0.000 
#
# Total GULP energy -396888.639743 kJ/mol
# GULP energy per Si atom -12402.769992 kJ/mol
# Density = 1.860718 g / cm^3
# Si number density = 18.649632 Si / 1000 Ang^3
#
#
#
# Elastic Constant Matrix: (Units=GPa)
#
#
# Indices 1 2 3 4 5 6 
#
# 1 96.9208 50.1251 30.2467 0.0004 0.0000 0.0000
# 2 50.1251 114.2456 42.0248 0.0010 0.0001 0.0001
# 3 30.2467 42.0248 70.4014 0.0022 0.0001 0.0003
# 4 0.0004 0.0010 0.0022 24.7598 0.0001 0.0001
# 5 0.0000 0.0001 0.0001 0.0001 31.9368 0.0003
# 6 0.0000 0.0001 0.0003 0.0001 0.0003 31.7551
#
#
#
# Elastic Compliance Matrix: (Units=1/GPa)
#
#
# Indices 1 2 3 4 5 6 
#
# 1 0.013814 -0.004969 -0.002969 0.000000 0.000000 0.000000
# 2 -0.004969 0.013003 -0.005627 0.000000 0.000000 0.000000
# 3 -0.002969 -0.005627 0.018839 -0.000001 0.000000 0.000000
# 4 0.000000 0.000000 -0.000001 0.040388 0.000000 0.000000
# 5 0.000000 0.000000 0.000000 0.000000 0.031312 0.000000
# 6 0.000000 0.000000 0.000000 0.000000 0.000000 0.031491
#
#
# Mechanical properties :
#
#
# Convention : Reuss Voigt Hill
#
# Bulk Modulus (GPa) = 53.97776 58.48453 56.23114
# Shear Modulus (GPa) = 27.44960 28.30172 27.87566
#
# Velocity S-wave (km/s) = 3.84064 3.89980 3.87033
# Velocity P-wave (km/s) = 6.97662 7.19066 7.08445
#
# Compressibility (1/GPa) = 0.01852615
#
# Stress axis : x y z
#
# Youngs Moduli (GPa) = 72.39061 76.90500 53.08173
#
# Poissons Ratio (x) = 0.38212 0.15759
# Poissons Ratio (y) = 0.35969 0.29870
# Poissons Ratio (z) = 0.21492 0.43276
#
# Static dielectric constant tensor:
#      x y z
#    x 3.547210 0.000000 0.000000 
#    y 0.000000 3.628280 0.000000 
#    z 0.000000 0.000000 3.193230 
# 
# 
# High freq. dielectric constant tensor:
#      x y z
#    x 1.739510 0.000000 0.000000 
#    y 0.000000 1.729060 0.000000 
#    z 0.000000 0.000000 1.694630 
# 
# From -- ./inp_files/11528.got.cif
#   From: 2010.03.12/outbox.cif.g09.slc.cpg/sg44_6_cif.got.tgz:11528.got - 2010.04.14 02:36:11.
