data_PCOD8188743
_publ_section_title
;
Structure prediction by ZEFSAII (Michael W. Deem and Ramdas Pophale) SiO2 
 PCOD8188743
Probable space group: I M M 2
;
_chemical_formula_sum "Si O2"
_cell_formula_units_Z 56
_cell_length_a 9.048897
_cell_length_b 14.396637
_cell_length_c 22.722484
_cell_angle_alpha 90.000000
_cell_angle_beta 90.000000
_cell_angle_gamma 90.000000
_cell_volume 2960.141731
_symmetry_space_group_name_H-M "I M M 2"
_symmetry_group_IT_number 44
_symmetry_cell_setting 'orthorhombic'
loop_
_space_group_symop_operation_xyz
x,y,z
-x,-y,z
-x,y,z
x,-y,z
1/2+x,1/2+y,1/2+z
1/2-x,1/2-y,1/2+z
1/2-x,1/2+y,1/2+z
1/2+x,1/2-y,1/2+z
loop_
_atom_site_type_symbol
_atom_site_label
_atom_site_fract_x
_atom_site_fract_y
_atom_site_fract_z
Si Si1 0.668430 0.107778 0.331530
Si Si2 0.826178 0.204682 0.434668
Si Si3 0.825565 0.396128 0.261680
Si Si4 0.675136 0.898165 0.892305
Si Si5 0.327221 0.104622 0.196431
Si Si6 0.675547 0.777286 0.654777
Si Si7 0.675027 0.106166 0.542997
O O1 0.500000 0.140886 0.342426
O O2 0.781662 0.165095 0.371204
O O3 0.715408 0.124217 0.264115
O O4 0.682096 0.000000 0.348086
O O5 0.780177 0.314449 0.436108
O O6 0.740778 0.150295 0.484571
O O7 0.000000 0.191679 0.443712
O O8 0.783841 0.500000 0.241628
O O9 0.760344 0.376848 0.326885
O O10 0.758740 0.326161 0.213413
O O11 0.000000 0.383405 0.262290
O O12 0.500000 0.902518 0.886413
O O13 0.732725 0.000000 0.914563
O O14 0.500000 0.119239 0.186734
O O15 0.239596 0.173295 0.153035
O O16 0.281410 0.000000 0.179218
O O17 0.500000 0.773261 0.654798
O O18 0.732345 0.834949 0.598552
O O19 0.500000 0.109881 0.537682
O O20 0.729386 0.000000 0.549600
#
# Coordination Sequence:
#
# PCOD8188743 Si02
#       7
#     8   8   8   8   8   8   8
#     4   9  18  33  52  74 104 141 172 200 248 314
#     4  11  21  32  51  78 103 131 174 223 259 289
#     4   8  13  24  46  75 102 125 153 196 251 306
#     4   8  15  28  46  71 102 129 154 194 251 307
#     4   9  19  35  53  75 105 139 170 201 248 311
#     4  10  19  32  53  78 100 127 169 216 254 292
#     4  10  22  39  55  72 100 138 173 205 251 312
#
# _framework density 18.918013999999999
#
# number of rings (size 3 to 8) (size 9 to 14) (size 15 to 20)
#    0.000    2.714    0.000    3.857    0.000    6.571 
#    0.000    2.143    0.000    5.571    0.000    8.000 
#    0.000    0.000    0.000    0.000    0.000    0.000 
#
# Total GULP energy -347077.040131 kJ/mol
# GULP energy per Si atom -12395.608576 kJ/mol
# Density = 1.887496 g / cm^3
# Si number density = 18.918014 Si / 1000 Ang^3
#
#
#
# Elastic Constant Matrix: (Units=GPa)
#
#
# Indices 1 2 3 4 5 6 
#
# 1 10.9779 25.5617 19.8422 0.0000 0.0000 0.0000
# 2 25.5617 145.7010 67.4352 0.0000 0.0000 0.0000
# 3 19.8422 67.4352 72.5307 0.0000 0.0000 0.0000
# 4 0.0000 0.0000 0.0000 35.3966 0.0000 0.0000
# 5 0.0000 0.0000 0.0000 0.0000 19.1693 0.0000
# 6 0.0000 0.0000 0.0000 0.0000 0.0000 24.1853
#
#
#
# Elastic Compliance Matrix: (Units=1/GPa)
#
#
# Indices 1 2 3 4 5 6 
#
# 1 0.202428 -0.017348 -0.039248 0.000000 0.000000 0.000000
# 2 -0.017348 0.013534 -0.007838 0.000000 0.000000 0.000000
# 3 -0.039248 -0.007838 0.031811 0.000000 0.000000 0.000000
# 4 0.000000 0.000000 0.000000 0.028251 0.000000 0.000000
# 5 0.000000 0.000000 0.000000 0.000000 0.052167 0.000000
# 6 0.000000 0.000000 0.000000 0.000000 0.000000 0.041347
#
#
# Mechanical properties :
#
#
# Convention : Reuss Voigt Hill
#
# Bulk Modulus (GPa) = 8.41008 50.54307 29.47658
# Shear Modulus (GPa) = 9.29294 23.50830 16.40062
#
# Velocity S-wave (km/s) = 2.21876 3.52894 2.94756
# Velocity P-wave (km/s) = 3.31949 6.58631 5.21529
#
# Compressibility (1/GPa) = 0.11890494
#
# Stress axis : x y z
#
# Youngs Moduli (GPa) = 4.94003 73.88540 31.43519
#
# Poissons Ratio (x) = 1.28179 1.23378
# Poissons Ratio (y) = 0.08570 0.24638
# Poissons Ratio (z) = 0.19389 0.57909
#
# Static dielectric constant tensor:
#      x y z
#    x 3.034980 0.000000 0.000000 
#    y 0.000000 3.801790 0.000000 
#    z 0.000000 0.000000 3.421700 
# 
# 
# High freq. dielectric constant tensor:
#      x y z
#    x 1.696030 0.000000 0.000000 
#    y 0.000000 1.752320 0.000000 
#    z 0.000000 0.000000 1.719250 
# 
# From -- ./inp_files/23070.got.cif
#   From: 2010.03.12/outbox.cif.g09.slc.cpg/sg44_12_cif.got.tgz:23070.got - 2010.04.14 02:36:11.
