data_PCOD8188866
_publ_section_title
;
Structure prediction by ZEFSAII (Michael W. Deem and Ramdas Pophale) SiO2 
 PCOD8188866
Probable space group: I M M 2
;
_chemical_formula_sum "Si O2"
_cell_formula_units_Z 32
_cell_length_a 9.164751
_cell_length_b 7.900613
_cell_length_c 23.527275
_cell_angle_alpha 90.000000
_cell_angle_beta 90.000000
_cell_angle_gamma 90.000000
_cell_volume 1703.542951
_symmetry_space_group_name_H-M "I M M 2"
_symmetry_group_IT_number 44
_symmetry_cell_setting 'orthorhombic'
loop_
_space_group_symop_operation_xyz
x,y,z
-x,-y,z
-x,y,z
x,-y,z
1/2+x,1/2+y,1/2+z
1/2-x,1/2-y,1/2+z
1/2-x,1/2+y,1/2+z
1/2+x,1/2-y,1/2+z
loop_
_atom_site_type_symbol
_atom_site_label
_atom_site_fract_x
_atom_site_fract_y
_atom_site_fract_z
Si Si1 0.670410 0.500000 0.986550
Si Si2 0.161558 0.309064 0.674498
Si Si3 0.671281 0.500000 0.854016
Si Si4 0.161196 0.686690 0.073075
Si Si5 0.328820 0.309251 0.294381
O O1 0.500000 0.500000 0.999900
O O2 0.705314 0.500000 0.920565
O O3 0.742973 0.331005 0.015076
O O4 0.158099 0.500000 0.697144
O O5 0.265137 0.304318 0.619869
O O6 0.216601 0.198774 0.727833
O O7 0.000000 0.248339 0.655616
O O8 0.500000 0.500000 0.840820
O O9 0.738524 0.672203 0.829598
O O10 0.148913 0.500000 0.100896
O O11 0.000000 0.758362 0.058111
O O12 0.500000 0.267427 0.300818
O O13 0.293616 0.500000 0.316107
#
# Coordination Sequence:
#
# PCOD8188866 Si02
#       5
#     4   8   4   8   8
#     4   9  19  37  59  79 107 155 202 239 288 351
#     4  10  19  33  55  83 116 155 195 236 285 350
#     4  11  23  39  61  89 121 157 200 251 300 349
#     4   9  19  33  52  81 108 141 185 234 292 339
#     4  10  21  38  61  88 118 158 202 243 293 356
#
# _framework density 18.784379999999999
#
# number of rings (size 3 to 8) (size 9 to 14) (size 15 to 20)
#    0.750    1.500    1.250    1.875    0.000    5.000 
#    0.000    1.250    0.000    1.500    0.000    0.000 
#    0.000    0.000    0.000    0.000    0.000    0.000 
#
# Total GULP energy -198270.559596 kJ/mol
# GULP energy per Si atom -12391.909975 kJ/mol
# Density = 1.874163 g / cm^3
# Si number density = 18.784380 Si / 1000 Ang^3
#
#
#
# Elastic Constant Matrix: (Units=GPa)
#
#
# Indices 1 2 3 4 5 6 
#
# 1 130.4188 42.7480 81.6441 0.0000 0.0000 0.0000
# 2 42.7480 94.3501 47.3393 0.0000 0.0000 0.0000
# 3 81.6441 47.3393 124.0773 0.0000 0.0000 0.0000
# 4 0.0000 0.0000 0.0000 27.4545 0.0000 0.0000
# 5 0.0000 0.0000 0.0000 0.0000 33.0304 0.0000
# 6 0.0000 0.0000 0.0000 0.0000 0.0000 26.0375
#
#
#
# Elastic Compliance Matrix: (Units=1/GPa)
#
#
# Indices 1 2 3 4 5 6 
#
# 1 0.013345 -0.002029 -0.008007 0.000000 0.000000 0.000000
# 2 -0.002029 0.013417 -0.003784 0.000000 0.000000 0.000000
# 3 -0.008007 -0.003784 0.014772 0.000000 0.000000 0.000000
# 4 0.000000 0.000000 0.000000 0.036424 0.000000 0.000000
# 5 0.000000 0.000000 0.000000 0.000000 0.030275 0.000000
# 6 0.000000 0.000000 0.000000 0.000000 0.000000 0.038406
#
#
# Mechanical properties :
#
#
# Convention : Reuss Voigt Hill
#
# Bulk Modulus (GPa) = 71.97385 76.92325 74.44855
# Shear Modulus (GPa) = 27.94698 29.11213 28.52955
#
# Velocity S-wave (km/s) = 3.86136 3.94103 3.90140
# Velocity P-wave (km/s) = 7.63407 7.85802 7.74686
#
# Compressibility (1/GPa) = 0.01389393
#
# Stress axis : x y z
#
# Youngs Moduli (GPa) = 74.93285 74.53477 67.69574
#
# Poissons Ratio (x) = 0.15122 0.54206
# Poissons Ratio (y) = 0.15203 0.25615
# Poissons Ratio (z) = 0.60001 0.28202
#
# Static dielectric constant tensor:
#      x y z
#    x 3.477930 0.000000 0.000000 
#    y 0.000000 3.301970 0.000000 
#    z 0.000000 0.000000 3.207710 
# 
# 
# High freq. dielectric constant tensor:
#      x y z
#    x 1.732170 0.000000 0.000000 
#    y 0.000000 1.715740 0.000000 
#    z 0.000000 0.000000 1.715080 
# 
# From -- ./inp_files/24562.got.cif
#   From: 2010.03.12/outbox.cif.g09.slc.cpg/sg44_13_cif.got.tgz:24562.got - 2010.04.14 02:36:11.
