data_PCOD8188613
_publ_section_title
;
Structure prediction by ZEFSAII (Michael W. Deem and Ramdas Pophale) SiO2 
 PCOD8188613
Probable space group: I M M 2
;
_chemical_formula_sum "Si O2"
_cell_formula_units_Z 64
_cell_length_a 8.861123
_cell_length_b 30.229851
_cell_length_c 14.234941
_cell_angle_alpha 90.000000
_cell_angle_beta 90.000000
_cell_angle_gamma 90.000000
_cell_volume 3813.119738
_symmetry_space_group_name_H-M "I M M 2"
_symmetry_group_IT_number 44
_symmetry_cell_setting 'orthorhombic'
loop_
_space_group_symop_operation_xyz
x,y,z
-x,-y,z
-x,y,z
x,-y,z
1/2+x,1/2+y,1/2+z
1/2-x,1/2-y,1/2+z
1/2-x,1/2+y,1/2+z
1/2+x,1/2-y,1/2+z
loop_
_atom_site_type_symbol
_atom_site_label
_atom_site_fract_x
_atom_site_fract_y
_atom_site_fract_z
Si Si1 0.176571 0.049752 0.667600
Si Si2 0.677952 0.270805 0.796275
Si Si3 0.322338 0.801854 0.119391
Si Si4 0.672999 0.365626 0.482286
Si Si5 0.178910 0.951485 0.880670
Si Si6 0.677603 0.713403 0.009133
Si Si7 0.827974 0.178810 0.786939
Si Si8 0.822513 0.365526 0.121909
O O1 0.238559 0.054169 0.774500
O O2 0.263851 0.084628 0.600491
O O3 0.000000 0.060589 0.663613
O O4 0.208310 0.000000 0.630675
O O5 0.500000 0.263473 0.789750
O O6 0.735350 0.305799 0.718921
O O7 0.726897 0.285077 0.900335
O O8 0.761950 0.226499 0.766073
O O9 0.500000 0.801751 0.136522
O O10 0.277059 0.846215 0.063933
O O11 0.269342 0.758237 0.061574
O O12 0.500000 0.369429 0.516967
O O13 0.739918 0.413397 0.450508
O O14 0.684500 0.331981 0.395851
O O15 0.000000 0.946634 0.875638
O O16 0.226000 0.000000 0.919725
O O17 0.500000 0.707904 0.019320
O O18 0.755477 0.670261 0.050920
O O19 0.732022 0.143835 0.727791
O O20 0.000000 0.177459 0.751096
O O21 0.000000 0.363716 0.113359
#
# Coordination Sequence:
#
# PCOD8188613 Si02
#       8
#     8   8   8   8   8   8   8   8
#     4   9  17  32  53  74 101 137 172 207 252 303
#     4  11  22  37  53  72  98 131 173 217 253 291
#     4  11  22  35  51  73 102 135 168 206 253 306
#     4  10  19  31  50  74 100 135 174 210 246 294
#     4   8  14  27  48  73  99 130 169 208 247 294
#     4  10  22  37  52  71  99 133 172 211 252 302
#     4  11  20  31  49  72 102 137 173 209 248 297
#     4  12  23  32  49  75 105 139 174 210 251 301
#
# _framework density 16.784158000000001
#
# number of rings (size 3 to 8) (size 9 to 14) (size 15 to 20)
#    0.000    1.750    3.750    3.000    0.000    2.250 
#    0.000    0.000    0.000    0.375    0.000    0.875 
#    0.000    3.000    0.000    0.000    0.000    0.000 
#
# Total GULP energy -396740.514633 kJ/mol
# GULP energy per Si atom -12398.141082 kJ/mol
# Density = 1.674596 g / cm^3
# Si number density = 16.784158 Si / 1000 Ang^3
#
#
#
# Elastic Constant Matrix: (Units=GPa)
#
#
# Indices 1 2 3 4 5 6 
#
# 1 46.2066 32.6196 28.3349 0.0002 0.0000 0.0000
# 2 32.6196 103.4513 29.3581 -0.0009 0.0001 0.0000
# 3 28.3349 29.3581 72.0265 -0.0031 0.0001 0.0000
# 4 0.0002 -0.0009 -0.0031 24.8704 0.0000 0.0000
# 5 0.0000 0.0001 0.0001 0.0000 22.5799 -0.0002
# 6 0.0000 0.0000 0.0000 0.0000 -0.0002 24.0067
#
#
#
# Elastic Compliance Matrix: (Units=1/GPa)
#
#
# Indices 1 2 3 4 5 6 
#
# 1 0.033105 -0.007625 -0.009916 -0.000002 0.000000 0.000000
# 2 -0.007625 0.012687 -0.002172 0.000000 0.000000 0.000000
# 3 -0.009916 -0.002172 0.018670 0.000002 0.000000 0.000000
# 4 -0.000002 0.000000 0.000002 0.040208 0.000000 0.000000
# 5 0.000000 0.000000 0.000000 0.000000 0.044287 0.000000
# 6 0.000000 0.000000 0.000000 0.000000 0.000000 0.041655
#
#
# Mechanical properties :
#
#
# Convention : Reuss Voigt Hill
#
# Bulk Modulus (GPa) = 39.93955 44.70106 42.32031
# Shear Modulus (GPa) = 20.97478 23.04953 22.01215
#
# Velocity S-wave (km/s) = 3.53891 3.70981 3.62537
# Velocity P-wave (km/s) = 6.36759 6.71126 6.54168
#
# Compressibility (1/GPa) = 0.02503784
#
# Stress axis : x y z
#
# Youngs Moduli (GPa) = 30.20703 78.82209 53.56266
#
# Poissons Ratio (x) = 0.60098 0.53110
# Poissons Ratio (y) = 0.23031 0.11632
# Poissons Ratio (z) = 0.29952 0.17118
#
# Static dielectric constant tensor:
#      x y z
#    x 3.021860 0.000000 0.000000 
#    y 0.000000 3.458880 0.000000 
#    z 0.000000 0.000000 3.013700 
# 
# 
# High freq. dielectric constant tensor:
#      x y z
#    x 1.638880 0.000000 0.000000 
#    y 0.000000 1.644090 0.000000 
#    z 0.000000 0.000000 1.618840 
# 
# From -- ./inp_files/17097.got.cif
#   From: 2010.03.12/outbox.cif.g09.slc.cpg/sg44_9_cif.got.tgz:17097.got - 2010.04.14 02:36:11.
