data_PCOD8188321
_publ_section_title
;
Structure prediction by ZEFSAII (Michael W. Deem and Ramdas Pophale) SiO2 
 PCOD8188321
Probable space group: I M M 2
;
_chemical_formula_sum "Si O2"
_cell_formula_units_Z 56
_cell_length_a 20.669916
_cell_length_b 14.114428
_cell_length_c 9.757258
_cell_angle_alpha 90.000000
_cell_angle_beta 90.000000
_cell_angle_gamma 90.000000
_cell_volume 2846.621879
_symmetry_space_group_name_H-M "I M M 2"
_symmetry_group_IT_number 44
_symmetry_cell_setting 'orthorhombic'
loop_
_space_group_symop_operation_xyz
x,y,z
-x,-y,z
-x,y,z
x,-y,z
1/2+x,1/2+y,1/2+z
1/2-x,1/2-y,1/2+z
1/2-x,1/2+y,1/2+z
1/2+x,1/2-y,1/2+z
loop_
_atom_site_type_symbol
_atom_site_label
_atom_site_fract_x
_atom_site_fract_y
_atom_site_fract_z
Si Si1 0.072191 0.211915 0.738150
Si Si2 0.350145 0.893325 0.211224
Si Si3 0.373933 0.394162 0.747496
Si Si4 0.929277 0.246168 0.047828
Si Si5 0.265625 0.396371 0.527066
Si Si6 0.831179 0.111326 0.544133
Si Si7 0.298319 0.194737 0.473176
O O1 0.089790 0.321447 0.705561
O O2 0.121589 0.141014 0.665992
O O3 0.000000 0.192949 0.682524
O O4 0.075871 0.193066 0.900883
O O5 0.309422 0.886747 0.070827
O O6 0.301982 0.865363 0.335125
O O7 0.376385 0.000000 0.233569
O O8 0.402692 0.500000 0.756764
O O9 0.426546 0.329618 0.670382
O O10 0.306692 0.392944 0.666475
O O11 0.360897 0.353760 0.899675
O O12 0.867045 0.316560 0.056019
O O13 0.000000 0.297725 0.057671
O O14 0.276129 0.500000 0.454020
O O15 0.286562 0.306699 0.434438
O O16 0.760466 0.158187 0.567181
O O17 0.821634 0.000000 0.545629
#
# Coordination Sequence:
#
# PCOD8188321 Si02
#       7
#     8   8   8   8   8   8   8
#     4  10  22  38  53  80 118 152 185 233 290 344
#     4  10  18  32  56  80 107 146 189 234 277 334
#     4   9  18  32  53  79 107 141 187 232 274 332
#     4   9  20  35  53  76 108 148 188 224 275 339
#     4   9  16  29  51  79 109 142 182 230 282 333
#     4  11  21  34  56  86 115 146 187 238 295 347
#     4  10  18  32  56  79 114 146 184 236 289 330
#
# _framework density 19.672440000000002
#
# number of rings (size 3 to 8) (size 9 to 14) (size 15 to 20)
#    0.000    2.286    2.857    0.429    0.000    2.000 
#    0.000    5.000    0.000    1.286    0.000    4.000 
#    0.000    6.857    0.000    0.000    0.000    0.000 
#
# Total GULP energy -346978.133539 kJ/mol
# GULP energy per Si atom -12392.076198 kJ/mol
# Density = 1.962767 g / cm^3
# Si number density = 19.672440 Si / 1000 Ang^3
#
#
#
# Elastic Constant Matrix: (Units=GPa)
#
#
# Indices 1 2 3 4 5 6 
#
# 1 143.2064 32.0080 26.1801 0.0000 0.0000 0.0000
# 2 32.0080 90.7584 15.3585 0.0000 0.0000 0.0000
# 3 26.1801 15.3585 48.4993 0.0000 0.0000 0.0000
# 4 0.0000 0.0000 0.0000 26.5492 0.0000 0.0000
# 5 0.0000 0.0000 0.0000 0.0000 20.8416 0.0000
# 6 0.0000 0.0000 0.0000 0.0000 0.0000 17.9289
#
#
#
# Elastic Compliance Matrix: (Units=1/GPa)
#
#
# Indices 1 2 3 4 5 6 
#
# 1 0.008162 -0.002254 -0.003692 0.000000 0.000000 0.000000
# 2 -0.002254 0.012264 -0.002667 0.000000 0.000000 0.000000
# 3 -0.003692 -0.002667 0.023456 0.000000 0.000000 0.000000
# 4 0.000000 0.000000 0.000000 0.037666 0.000000 0.000000
# 5 0.000000 0.000000 0.000000 0.000000 0.047981 0.000000
# 6 0.000000 0.000000 0.000000 0.000000 0.000000 0.055776
#
#
# Mechanical properties :
#
#
# Convention : Reuss Voigt Hill
#
# Bulk Modulus (GPa) = 37.51413 47.72860 42.62136
# Shear Modulus (GPa) = 23.64998 26.99176 25.32087
#
# Velocity S-wave (km/s) = 3.47102 3.70815 3.59154
# Velocity P-wave (km/s) = 5.93083 6.53056 6.23791
#
# Compressibility (1/GPa) = 0.02665662
#
# Stress axis : x y z
#
# Youngs Moduli (GPa) = 122.52541 81.53666 42.63217
#
# Poissons Ratio (x) = 0.18375 0.15740
# Poissons Ratio (y) = 0.27612 0.11371
# Poissons Ratio (z) = 0.45236 0.21749
#
# Static dielectric constant tensor:
#      x y z
#    x 3.671250 0.000000 0.000000 
#    y 0.000000 3.595260 0.000000 
#    z 0.000000 0.000000 3.344960 
# 
# 
# High freq. dielectric constant tensor:
#      x y z
#    x 1.766730 0.000000 0.000000 
#    y 0.000000 1.751060 0.000000 
#    z 0.000000 0.000000 1.738620 
# 
# From -- ./inp_files/8916.got.cif
#   From: 2010.03.12/outbox.cif.g09.slc.cpg/sg44_5_cif.got.tgz:8916.got - 2010.04.14 02:36:11.
