data_PCOD8188680
_publ_section_title
;
Structure prediction by ZEFSAII (Michael W. Deem and Ramdas Pophale) SiO2 
 PCOD8188680
Probable space group: I M M 2
;
_chemical_formula_sum "Si O2"
_cell_formula_units_Z 40
_cell_length_a 18.769256
_cell_length_b 8.534606
_cell_length_c 13.551948
_cell_angle_alpha 90.000000
_cell_angle_beta 90.000000
_cell_angle_gamma 90.000000
_cell_volume 2170.862223
_symmetry_space_group_name_H-M "I M M 2"
_symmetry_group_IT_number 44
_symmetry_cell_setting 'orthorhombic'
loop_
_space_group_symop_operation_xyz
x,y,z
-x,-y,z
-x,y,z
x,-y,z
1/2+x,1/2+y,1/2+z
1/2-x,1/2-y,1/2+z
1/2-x,1/2+y,1/2+z
1/2+x,1/2-y,1/2+z
loop_
_atom_site_type_symbol
_atom_site_label
_atom_site_fract_x
_atom_site_fract_y
_atom_site_fract_z
Si Si1 0.000000 0.812279 0.836401
Si Si2 0.352506 0.684556 0.023535
Si Si3 0.143912 0.815147 0.929043
Si Si4 0.288685 0.816092 0.835612
Si Si5 0.283752 0.683829 0.626157
Si Si6 0.500000 0.314339 0.113373
O O1 0.930500 0.742466 0.891886
O O2 0.000000 0.748886 0.724802
O O3 0.000000 0.000000 0.838744
O O4 0.344014 0.500000 0.039785
O O5 0.295280 0.770720 0.092289
O O6 0.430067 0.745749 0.056411
O O7 0.342881 0.727979 0.908774
O O8 0.208364 0.757309 0.859002
O O9 0.139115 0.000000 0.921091
O O10 0.159925 0.765361 0.041692
O O11 0.307725 0.774867 0.723778
O O12 0.296333 0.000000 0.854865
O O13 0.286242 0.500000 0.646892
O O14 0.500000 0.500000 0.116329
#
# Coordination Sequence:
#
# PCOD8188680 Si02
#       6
#     4   8   8   8   8   4
#     4   9  14  26  47  71  96 124 155 197 248 297
#     4  10  19  33  52  76 102 131 168 213 258 308
#     4   8  16  28  46  71  97 121 157 202 244 291
#     4  10  19  33  51  73  99 132 170 210 253 301
#     4  10  19  32  49  74 103 133 168 208 252 304
#     4   9  18  30  50  77 102 128 165 209 258 311
#
# _framework density 18.425858000000002
#
# number of rings (size 3 to 8) (size 9 to 14) (size 15 to 20)
#    0.000    2.600    0.000    4.200    0.000    3.200 
#    0.000    3.000    0.000    3.600    0.000   23.800 
#    0.000    0.000    0.000    0.000    0.000    0.000 
#
# Total GULP energy -247979.423206 kJ/mol
# GULP energy per Si atom -12398.971160 kJ/mol
# Density = 1.838392 g / cm^3
# Si number density = 18.425858 Si / 1000 Ang^3
#
#
#
# Elastic Constant Matrix: (Units=GPa)
#
#
# Indices 1 2 3 4 5 6 
#
# 1 146.5989 12.2889 74.8116 0.0000 0.0000 0.0000
# 2 12.2889 25.6702 6.5400 0.0000 0.0000 0.0000
# 3 74.8116 6.5400 144.7480 0.0000 0.0000 0.0000
# 4 0.0000 0.0000 0.0000 28.7209 0.0000 0.0000
# 5 0.0000 0.0000 0.0000 0.0000 25.4510 0.0000
# 6 0.0000 0.0000 0.0000 0.0000 0.0000 19.9922
#
#
#
# Elastic Compliance Matrix: (Units=1/GPa)
#
#
# Indices 1 2 3 4 5 6 
#
# 1 0.009541 -0.003350 -0.004780 0.000000 0.000000 0.000000
# 2 -0.003350 0.040585 -0.000102 0.000000 0.000000 0.000000
# 3 -0.004780 -0.000102 0.009384 0.000000 0.000000 0.000000
# 4 0.000000 0.000000 0.000000 0.034818 0.000000 0.000000
# 5 0.000000 0.000000 0.000000 0.000000 0.039291 0.000000
# 6 0.000000 0.000000 0.000000 0.000000 0.000000 0.050019
#
#
# Mechanical properties :
#
#
# Convention : Reuss Voigt Hill
#
# Bulk Modulus (GPa) = 23.23098 56.03312 39.63205
# Shear Modulus (GPa) = 23.31519 29.72460 26.51989
#
# Velocity S-wave (km/s) = 3.56104 4.02082 3.79789
# Velocity P-wave (km/s) = 5.43536 7.21333 6.38652
#
# Compressibility (1/GPa) = 0.04304597
#
# Stress axis : x y z
#
# Youngs Moduli (GPa) = 104.80550 24.63937 106.56757
#
# Poissons Ratio (x) = 0.08254 0.50940
# Poissons Ratio (y) = 0.35109 0.01091
# Poissons Ratio (z) = 0.50098 0.00252
#
# Static dielectric constant tensor:
#      x y z
#    x 3.601350 0.000000 0.000000 
#    y 0.000000 3.099180 0.000000 
#    z 0.000000 0.000000 3.516380 
# 
# 
# High freq. dielectric constant tensor:
#      x y z
#    x 1.704220 0.000000 0.000000 
#    y 0.000000 1.688220 0.000000 
#    z 0.000000 0.000000 1.723740 
# 
# From -- ./inp_files/14207.got.cif
#   From: 2010.03.12/outbox.cif.g09.slc.cpg/sg44_8_cif.got.tgz:14207.got - 2010.04.14 02:36:11.
