data_PCOD8188767
_publ_section_title
;
Structure prediction by ZEFSAII (Michael W. Deem and Ramdas Pophale) SiO2 
 PCOD8188767
Probable space group: I M M 2
;
_chemical_formula_sum "Si O2"
_cell_formula_units_Z 64
_cell_length_a 9.185109
_cell_length_b 15.692350
_cell_length_c 22.859002
_cell_angle_alpha 90.000000
_cell_angle_beta 90.000000
_cell_angle_gamma 90.000000
_cell_volume 3294.803860
_symmetry_space_group_name_H-M "I M M 2"
_symmetry_group_IT_number 44
_symmetry_cell_setting 'orthorhombic'
loop_
_space_group_symop_operation_xyz
x,y,z
-x,-y,z
-x,y,z
x,-y,z
1/2+x,1/2+y,1/2+z
1/2-x,1/2-y,1/2+z
1/2-x,1/2+y,1/2+z
1/2+x,1/2-y,1/2+z
loop_
_atom_site_type_symbol
_atom_site_label
_atom_site_fract_x
_atom_site_fract_y
_atom_site_fract_z
Si Si1 0.169308 0.683695 0.423590
Si Si2 0.665224 0.407180 0.858279
Si Si3 0.158055 0.096972 0.011050
Si Si4 0.169393 0.402498 0.096221
Si Si5 0.332305 0.759092 0.796036
Si Si6 0.329405 0.848358 0.465210
Si Si7 0.830929 0.402582 0.622966
Si Si8 0.329637 0.728238 0.180826
O O1 0.248745 0.602084 0.451120
O O2 0.196414 0.685200 0.354193
O O3 0.244998 0.759836 0.459233
O O4 0.000000 0.683207 0.438309
O O5 0.500000 0.383023 0.878109
O O6 0.670998 0.500000 0.828249
O O7 0.715958 0.337893 0.810779
O O8 0.767425 0.410241 0.915040
O O9 0.246866 0.132505 0.066218
O O10 0.000000 0.143914 0.006331
O O11 0.128267 0.000000 0.023998
O O12 0.212378 0.500000 0.112681
O O13 0.260023 0.334427 0.133297
O O14 0.000000 0.386623 0.109274
O O15 0.203494 0.389252 0.027894
O O16 0.500000 0.763967 0.776396
O O17 0.234204 0.795634 0.744259
O O18 0.500000 0.835124 0.454687
O O19 0.785233 0.500000 0.642587
O O20 0.796261 0.329355 0.670845
O O21 0.000000 0.402777 0.606876
O O22 0.500000 0.710015 0.180804
#
# Coordination Sequence:
#
# PCOD8188767 Si02
#       8
#     8   8   8   8   8   8   8   8
#     4  10  20  35  55  78 105 140 178 213 261 324
#     4   9  18  33  53  79 111 144 176 211 256 315
#     4  10  20  33  52  81 111 136 169 216 267 317
#     4  10  22  39  57  78 107 144 183 222 269 327
#     4   9  20  37  54  73 101 140 182 219 259 314
#     4  10  19  32  54  83 111 138 172 216 266 319
#     4   9  19  36  56  80 113 149 181 215 262 325
#     4  11  23  37  56  81 107 140 184 232 276 315
#
# _framework density 19.424524000000002
#
# number of rings (size 3 to 8) (size 9 to 14) (size 15 to 20)
#    0.000    2.250    0.000    3.375    0.000    8.750 
#    0.000    0.625    0.000    0.750    0.000    0.000 
#    0.000    0.000    0.000    0.000    0.000    0.000 
#
# Total GULP energy -396613.357849 kJ/mol
# GULP energy per Si atom -12394.167433 kJ/mol
# Density = 1.938031 g / cm^3
# Si number density = 19.424524 Si / 1000 Ang^3
#
#
#
# Elastic Constant Matrix: (Units=GPa)
#
#
# Indices 1 2 3 4 5 6 
#
# 1 101.3061 30.1655 54.3581 0.0000 0.0000 0.0000
# 2 30.1655 56.2650 25.9346 0.0000 0.0000 0.0000
# 3 54.3581 25.9346 88.4088 0.0000 0.0000 0.0000
# 4 0.0000 0.0000 0.0000 18.5409 0.0000 0.0000
# 5 0.0000 0.0000 0.0000 0.0000 34.1932 0.0000
# 6 0.0000 0.0000 0.0000 0.0000 0.0000 26.6193
#
#
#
# Elastic Compliance Matrix: (Units=1/GPa)
#
#
# Indices 1 2 3 4 5 6 
#
# 1 0.015692 -0.004586 -0.008303 0.000000 0.000000 0.000000
# 2 -0.004586 0.021892 -0.003602 0.000000 0.000000 0.000000
# 3 -0.008303 -0.003602 0.017473 0.000000 0.000000 0.000000
# 4 0.000000 0.000000 0.000000 0.053935 0.000000 0.000000
# 5 0.000000 0.000000 0.000000 0.000000 0.029246 0.000000
# 6 0.000000 0.000000 0.000000 0.000000 0.000000 0.037567
#
#
# Mechanical properties :
#
#
# Convention : Reuss Voigt Hill
#
# Bulk Modulus (GPa) = 45.30099 51.87738 48.58918
# Shear Modulus (GPa) = 23.13275 24.90544 24.01910
#
# Velocity S-wave (km/s) = 3.45469 3.58462 3.52025
# Velocity P-wave (km/s) = 6.26780 6.62554 6.44915
#
# Compressibility (1/GPa) = 0.02207457
#
# Stress axis : x y z
#
# Youngs Moduli (GPa) = 63.72846 45.67856 57.23175
#
# Poissons Ratio (x) = 0.20947 0.47518
# Poissons Ratio (y) = 0.29224 0.20618
# Poissons Ratio (z) = 0.52912 0.16456
#
# Static dielectric constant tensor:
#      x y z
#    x 3.808590 0.000000 0.000000 
#    y 0.000000 3.642330 0.000000 
#    z 0.000000 0.000000 3.360760 
# 
# 
# High freq. dielectric constant tensor:
#      x y z
#    x 1.763070 0.000000 0.000000 
#    y 0.000000 1.751740 0.000000 
#    z 0.000000 0.000000 1.742020 
# 
# From -- ./inp_files/23269.got.cif
#   From: 2010.03.12/outbox.cif.g09.slc.cpg/sg44_12_cif.got.tgz:23269.got - 2010.04.14 02:36:11.
