data_PCOD8188715
_publ_section_title
;
Structure prediction by ZEFSAII (Michael W. Deem and Ramdas Pophale) SiO2 
 PCOD8188715
Probable space group: I M M 2
;
_chemical_formula_sum "Si O2"
_cell_formula_units_Z 56
_cell_length_a 8.969155
_cell_length_b 24.762177
_cell_length_c 14.197783
_cell_angle_alpha 90.000000
_cell_angle_beta 90.000000
_cell_angle_gamma 90.000000
_cell_volume 3153.268025
_symmetry_space_group_name_H-M "I M M 2"
_symmetry_group_IT_number 44
_symmetry_cell_setting 'orthorhombic'
loop_
_space_group_symop_operation_xyz
x,y,z
-x,-y,z
-x,y,z
x,-y,z
1/2+x,1/2+y,1/2+z
1/2-x,1/2-y,1/2+z
1/2-x,1/2+y,1/2+z
1/2+x,1/2-y,1/2+z
loop_
_atom_site_type_symbol
_atom_site_label
_atom_site_fract_x
_atom_site_fract_y
_atom_site_fract_z
Si Si1 0.675843 0.000000 0.823680
Si Si2 0.332933 0.783746 0.457435
Si Si3 0.664385 0.660397 0.434341
Si Si4 0.328455 0.603534 0.623819
Si Si5 0.326820 0.115298 0.767729
Si Si6 0.177527 0.500000 0.538161
Si Si7 0.824957 0.315943 0.753624
Si Si8 0.324597 0.707120 0.151009
O O1 0.724353 0.947557 0.762898
O O2 0.500000 0.000000 0.837905
O O3 0.742284 0.000000 0.930704
O O4 0.500000 0.797160 0.493644
O O5 0.324569 0.723566 0.418074
O O6 0.291392 0.818502 0.365351
O O7 0.218431 0.793421 0.541444
O O8 0.500000 0.639859 0.401439
O O9 0.688694 0.648502 0.543413
O O10 0.794095 0.632395 0.374968
O O11 0.500000 0.587692 0.642396
O O12 0.236609 0.551280 0.594762
O O13 0.259372 0.631321 0.715751
O O14 0.500000 0.122246 0.745585
O O15 0.236684 0.152007 0.695637
O O16 0.000000 0.500000 0.539889
O O17 0.763387 0.260557 0.704694
O O18 0.000000 0.320872 0.732349
O O19 0.500000 0.705104 0.160441
#
# Coordination Sequence:
#
# PCOD8188715 Si02
#       8
#     4   8   8   8   8   4   8   8
#     4   9  20  35  53  80 109 142 185 227 264 324
#     4  10  20  37  55  78 112 150 187 224 270 327
#     4  10  19  32  51  80 116 146 179 225 268 321
#     4  11  22  35  54  82 115 147 186 228 276 326
#     4  11  21  35  55  79 110 148 188 225 273 329
#     4  11  21  37  57  80 113 148 187 225 274 332
#     4  10  21  36  55  78 111 149 185 225 274 331
#     4  11  22  36  54  82 114 145 183 228 280 330
#
# _framework density 17.759353000000001
#
# number of rings (size 3 to 8) (size 9 to 14) (size 15 to 20)
#    0.000    1.571    4.286    1.500    0.000    2.286 
#    0.000    1.429    0.000    0.857    0.000    2.000 
#    0.000    0.000    0.000    0.000    0.000    0.000 
#
# Total GULP energy -347167.860612 kJ/mol
# GULP energy per Si atom -12398.852165 kJ/mol
# Density = 1.771893 g / cm^3
# Si number density = 17.759353 Si / 1000 Ang^3
#
#
#
# Elastic Constant Matrix: (Units=GPa)
#
#
# Indices 1 2 3 4 5 6 
#
# 1 66.4394 35.1683 30.9110 -0.0002 0.0000 0.0000
# 2 35.1683 91.4018 33.5699 -0.0003 0.0000 0.0000
# 3 30.9110 33.5699 71.2280 -0.0011 0.0001 0.0002
# 4 -0.0002 -0.0003 -0.0011 26.2791 0.0000 0.0001
# 5 0.0000 0.0000 0.0001 0.0000 32.3484 -0.0001
# 6 0.0000 0.0000 0.0002 0.0001 -0.0001 27.5128
#
#
#
# Elastic Compliance Matrix: (Units=1/GPa)
#
#
# Indices 1 2 3 4 5 6 
#
# 1 0.021092 -0.005749 -0.006444 0.000000 0.000000 0.000000
# 2 -0.005749 0.014798 -0.004479 0.000000 0.000000 0.000000
# 3 -0.006444 -0.004479 0.018947 0.000001 0.000000 0.000000
# 4 0.000000 0.000000 0.000001 0.038053 0.000000 0.000000
# 5 0.000000 0.000000 0.000000 0.000000 0.030913 0.000000
# 6 0.000000 0.000000 0.000000 0.000000 0.000000 0.036347
#
#
# Mechanical properties :
#
#
# Convention : Reuss Voigt Hill
#
# Bulk Modulus (GPa) = 46.52740 47.59639 47.06190
# Shear Modulus (GPa) = 24.91781 25.85607 25.38694
#
# Velocity S-wave (km/s) = 3.74984 3.81978 3.78497
# Velocity P-wave (km/s) = 6.70851 6.80538 6.75712
#
# Compressibility (1/GPa) = 0.02149271
#
# Stress axis : x y z
#
# Youngs Moduli (GPa) = 47.41026 67.57733 52.77846
#
# Poissons Ratio (x) = 0.38849 0.34011
# Poissons Ratio (y) = 0.27256 0.23642
# Poissons Ratio (z) = 0.30552 0.30271
#
# Static dielectric constant tensor:
#      x y z
#    x 3.289750 0.000000 0.000000 
#    y 0.000000 3.324810 0.000000 
#    z 0.000000 0.000000 3.173690 
# 
# 
# High freq. dielectric constant tensor:
#      x y z
#    x 1.685810 0.000000 0.000000 
#    y 0.000000 1.678620 0.000000 
#    z 0.000000 0.000000 1.674690 
# 
# From -- ./inp_files/16527.got.cif
#   From: 2010.03.12/outbox.cif.g09.slc.cpg/sg44_9_cif.got.tgz:16527.got - 2010.04.14 02:36:11.
