data_PCOD8188977
_publ_section_title
;
Structure prediction by ZEFSAII (Michael W. Deem and Ramdas Pophale) SiO2 
 PCOD8188977
Probable space group: I M M 2
;
_chemical_formula_sum "Si O2"
_cell_formula_units_Z 64
_cell_length_a 16.027415
_cell_length_b 22.607238
_cell_length_c 9.229288
_cell_angle_alpha 90.000000
_cell_angle_beta 90.000000
_cell_angle_gamma 90.000000
_cell_volume 3344.099471
_symmetry_space_group_name_H-M "I M M 2"
_symmetry_group_IT_number 44
_symmetry_cell_setting 'orthorhombic'
loop_
_space_group_symop_operation_xyz
x,y,z
-x,-y,z
-x,y,z
x,-y,z
1/2+x,1/2+y,1/2+z
1/2-x,1/2-y,1/2+z
1/2-x,1/2+y,1/2+z
1/2+x,1/2-y,1/2+z
loop_
_atom_site_type_symbol
_atom_site_label
_atom_site_fract_x
_atom_site_fract_y
_atom_site_fract_z
Si Si1 0.827441 0.641262 0.048870
Si Si2 0.757057 0.566408 0.515645
Si Si3 0.598219 0.332240 0.822836
Si Si4 0.407483 0.229208 0.322264
Si Si5 0.904574 0.432150 0.301814
Si Si6 0.224818 0.933147 0.341737
Si Si7 0.839772 0.821819 0.004053
Si Si8 0.303420 0.263081 0.055875
O O1 0.883439 0.614424 0.175926
O O2 0.751206 0.680841 0.111630
O O3 0.882688 0.681049 0.942010
O O4 0.791237 0.585839 0.961414
O O5 0.726862 0.500000 0.478144
O O6 0.844701 0.580741 0.438425
O O7 0.770530 0.574828 0.687020
O O8 0.682017 0.610086 0.466482
O O9 0.500000 0.340371 0.835689
O O10 0.640679 0.395185 0.853523
O O11 0.624338 0.310635 0.663997
O O12 0.628291 0.283781 0.938866
O O13 0.500000 0.215437 0.266684
O O14 0.406554 0.295502 0.391208
O O15 0.345520 0.227796 0.187044
O O16 0.892888 0.500000 0.248098
O O17 0.000000 0.421287 0.350996
O O18 0.197353 0.000000 0.370128
O O19 0.755626 0.784296 0.978847
#
# Coordination Sequence:
#
# PCOD8188977 Si02
#       8
#     8   8   8   8   8   8   8   8
#     4  10  20  35  54  76 103 139 179 215 258 318
#     4   9  18  34  55  76 100 133 173 213 258 316
#     4  10  20  34  53  79 108 134 170 219 265 308
#     4  11  21  33  51  75 103 132 167 213 260 303
#     4  10  20  34  52  76 106 137 174 222 268 309
#     4   9  18  34  56  78 103 138 176 213 259 318
#     4  10  19  35  53  74 101 135 171 208 253 309
#     4  10  20  35  53  73 102 138 172 208 255 314
#
# _framework density 19.138186000000001
#
# number of rings (size 3 to 8) (size 9 to 14) (size 15 to 20)
#    0.000    2.125    0.000    5.250    0.000    1.250 
#    0.000    6.250    0.000    4.125    0.000    0.000 
#    0.000    0.000    0.000    0.000    0.000    0.000 
#
# Total GULP energy -396746.076729 kJ/mol
# GULP energy per Si atom -12398.314898 kJ/mol
# Density = 1.909463 g / cm^3
# Si number density = 19.138186 Si / 1000 Ang^3
#
#
#
# Elastic Constant Matrix: (Units=GPa)
#
#
# Indices 1 2 3 4 5 6 
#
# 1 105.8659 29.2368 35.2202 0.0000 0.0000 0.0000
# 2 29.2368 80.1318 26.3748 0.0000 0.0000 0.0000
# 3 35.2202 26.3748 58.9920 0.0000 0.0000 0.0000
# 4 0.0000 0.0000 0.0000 33.4687 0.0000 0.0000
# 5 0.0000 0.0000 0.0000 0.0000 23.6671 0.0000
# 6 0.0000 0.0000 0.0000 0.0000 0.0000 22.0479
#
#
#
# Elastic Compliance Matrix: (Units=1/GPa)
#
#
# Indices 1 2 3 4 5 6 
#
# 1 0.012169 -0.002402 -0.006191 0.000000 0.000000 0.000000
# 2 -0.002402 0.015107 -0.005320 0.000000 0.000000 0.000000
# 3 -0.006191 -0.005320 0.023026 0.000000 0.000000 0.000000
# 4 0.000000 0.000000 0.000000 0.029879 0.000000 0.000000
# 5 0.000000 0.000000 0.000000 0.000000 0.042253 0.000000
# 6 0.000000 0.000000 0.000000 0.000000 0.000000 0.045356
#
#
# Mechanical properties :
#
#
# Convention : Reuss Voigt Hill
#
# Bulk Modulus (GPa) = 44.49312 47.40593 45.94953
# Shear Modulus (GPa) = 24.61737 26.11393 25.36565
#
# Velocity S-wave (km/s) = 3.59039 3.69791 3.64455
# Velocity P-wave (km/s) = 6.36291 6.56177 6.46311
#
# Compressibility (1/GPa) = 0.02247538
#
# Stress axis : x y z
#
# Youngs Moduli (GPa) = 82.17532 66.19480 43.42833
#
# Poissons Ratio (x) = 0.15901 0.26888
# Poissons Ratio (y) = 0.19740 0.23104
# Poissons Ratio (z) = 0.50878 0.35216
#
# Static dielectric constant tensor:
#      x y z
#    x 3.371160 0.000000 0.000000 
#    y 0.000000 3.681650 0.000000 
#    z 0.000000 0.000000 3.439300 
# 
# 
# High freq. dielectric constant tensor:
#      x y z
#    x 1.731400 0.000000 0.000000 
#    y 0.000000 1.750790 0.000000 
#    z 0.000000 0.000000 1.740740 
# 
# From -- ./inp_files/7530.got.cif
#   From: 2010.03.12/outbox.cif.g09.slc.cpg/sg44_4_cif.got.tgz:7530.got - 2010.04.14 02:36:11.
