data_PCOD8188145
_publ_section_title
;
Structure prediction by ZEFSAII (Michael W. Deem and Ramdas Pophale) SiO2 
 PCOD8188145
Probable space group: I M M 2
;
_chemical_formula_sum "Si O2"
_cell_formula_units_Z 64
_cell_length_a 13.989339
_cell_length_b 9.180962
_cell_length_c 28.876520
_cell_angle_alpha 90.000000
_cell_angle_beta 90.000000
_cell_angle_gamma 90.000000
_cell_volume 3708.772877
_symmetry_space_group_name_H-M "I M M 2"
_symmetry_group_IT_number 44
_symmetry_cell_setting 'orthorhombic'
loop_
_space_group_symop_operation_xyz
x,y,z
-x,-y,z
-x,y,z
x,-y,z
1/2+x,1/2+y,1/2+z
1/2-x,1/2-y,1/2+z
1/2-x,1/2+y,1/2+z
1/2+x,1/2-y,1/2+z
loop_
_atom_site_type_symbol
_atom_site_label
_atom_site_fract_x
_atom_site_fract_y
_atom_site_fract_z
Si Si1 0.607780 0.332532 0.070380
Si Si2 0.107486 0.332415 0.191381
Si Si3 0.605868 0.672698 0.332931
Si Si4 0.886707 0.835450 0.101091
Si Si5 0.889005 0.829679 0.936244
Si Si6 0.789920 0.831025 0.743436
Si Si7 0.113141 0.335367 0.660742
Si Si8 0.208210 0.669167 0.017724
O O1 0.500000 0.285056 0.056050
O O2 0.609295 0.500000 0.086340
O O3 0.648726 0.239699 0.113349
O O4 0.678365 0.307431 0.026911
O O5 0.110334 0.500000 0.175126
O O6 0.148247 0.236118 0.149192
O O7 0.176453 0.306852 0.235516
O O8 0.000000 0.286547 0.205867
O O9 0.500000 0.732153 0.320159
O O10 0.602361 0.500000 0.334542
O O11 0.635157 0.725715 0.384248
O O12 0.681437 0.728402 0.294435
O O13 0.851755 0.742753 0.058135
O O14 0.000000 0.833530 0.100017
O O15 0.847071 0.000000 0.098123
O O16 0.000000 0.798026 0.948077
O O17 0.867373 0.000000 0.942546
O O18 0.818595 0.740769 0.969139
O O19 0.849280 0.746720 0.705331
O O20 0.817820 0.000000 0.739082
O O21 0.151436 0.500000 0.661033
O O22 0.000000 0.328082 0.662325
O O23 0.181189 0.500000 0.016296
#
# Coordination Sequence:
#
# PCOD8188145 Si02
#       8
#     8   8   8   8   8   8   8   8
#     4   9  19  35  50  64  88 124 161 191 221 266
#     4   9  18  31  45  65  95 126 156 193 231 263
#     4   8  15  29  49  71  92 116 150 188 223 268
#     4  10  20  32  46  66  94 128 160 187 222 272
#     4   9  18  33  51  70  94 123 151 181 224 278
#     4  10  18  29  49  71  90 121 161 192 223 268
#     4  10  20  31  44  68 100 126 149 185 232 274
#     4  11  21  31  48  72  93 117 152 193 234 271
#
# _framework density 17.256381000000001
#
# number of rings (size 3 to 8) (size 9 to 14) (size 15 to 20)
#    0.000    2.500    0.000    3.375    0.000    8.250 
#    0.000    0.625    0.000    1.500    0.000    1.750 
#    0.000    0.000    0.000    0.000    0.000    0.000 
#
# Total GULP energy -396738.434272 kJ/mol
# GULP energy per Si atom -12398.076071 kJ/mol
# Density = 1.721710 g / cm^3
# Si number density = 17.256381 Si / 1000 Ang^3
#
#
#
# Elastic Constant Matrix: (Units=GPa)
#
#
# Indices 1 2 3 4 5 6 
#
# 1 56.6557 36.8943 71.4919 0.0000 0.0000 0.0000
# 2 36.8943 75.8491 53.3123 0.0000 0.0000 0.0000
# 3 71.4919 53.3123 141.6165 0.0000 0.0000 0.0000
# 4 0.0000 0.0000 0.0000 23.1107 0.0000 0.0000
# 5 0.0000 0.0000 0.0000 0.0000 29.8787 0.0000
# 6 0.0000 0.0000 0.0000 0.0000 0.0000 19.4780
#
#
#
# Elastic Compliance Matrix: (Units=1/GPa)
#
#
# Indices 1 2 3 4 5 6 
#
# 1 0.053252 -0.009529 -0.023296 0.000000 0.000000 0.000000
# 2 -0.009529 0.019633 -0.002581 0.000000 0.000000 0.000000
# 3 -0.023296 -0.002581 0.019793 0.000000 0.000000 0.000000
# 4 0.000000 0.000000 0.000000 0.043270 0.000000 0.000000
# 5 0.000000 0.000000 0.000000 0.000000 0.033469 0.000000
# 6 0.000000 0.000000 0.000000 0.000000 0.000000 0.051340
#
#
# Mechanical properties :
#
#
# Convention : Reuss Voigt Hill
#
# Bulk Modulus (GPa) = 45.72957 66.39094 56.06025
# Shear Modulus (GPa) = 16.73049 21.98834 19.35942
#
# Velocity S-wave (km/s) = 3.11710 3.57349 3.35307
# Velocity P-wave (km/s) = 6.28591 7.45541 6.89550
#
# Compressibility (1/GPa) = 0.02186769
#
# Stress axis : x y z
#
# Youngs Moduli (GPa) = 18.77872 50.93536 50.52237
#
# Poissons Ratio (x) = 0.48534 1.17696
# Poissons Ratio (y) = 0.17893 0.13038
# Poissons Ratio (z) = 0.43747 0.13144
#
# Static dielectric constant tensor:
#      x y z
#    x 3.357500 0.000000 0.000000 
#    y 0.000000 3.244200 0.000000 
#    z 0.000000 0.000000 3.259210 
# 
# 
# High freq. dielectric constant tensor:
#      x y z
#    x 1.666440 0.000000 0.000000 
#    y 0.000000 1.658670 0.000000 
#    z 0.000000 0.000000 1.649620 
# 
# From -- ./inp_files/25183.got.cif
#   From: 2010.03.12/outbox.cif.g09.slc.cpg/sg44_13_cif.got.tgz:25183.got - 2010.04.14 02:36:11.
