data_PCOD8188934
_publ_section_title
;
Structure prediction by ZEFSAII (Michael W. Deem and Ramdas Pophale) SiO2 
 PCOD8188934
Probable space group: I M M 2
;
_chemical_formula_sum "Si O2"
_cell_formula_units_Z 40
_cell_length_a 25.749354
_cell_length_b 8.827930
_cell_length_c 9.170838
_cell_angle_alpha 90.000000
_cell_angle_beta 90.000000
_cell_angle_gamma 90.000000
_cell_volume 2084.655235
_symmetry_space_group_name_H-M "I M M 2"
_symmetry_group_IT_number 44
_symmetry_cell_setting 'orthorhombic'
loop_
_space_group_symop_operation_xyz
x,y,z
-x,-y,z
-x,y,z
x,-y,z
1/2+x,1/2+y,1/2+z
1/2-x,1/2-y,1/2+z
1/2-x,1/2+y,1/2+z
1/2+x,1/2-y,1/2+z
loop_
_atom_site_type_symbol
_atom_site_label
_atom_site_fract_x
_atom_site_fract_y
_atom_site_fract_z
Si Si1 0.205926 0.673692 0.471990
Si Si2 0.111057 0.819255 0.958671
Si Si3 0.500000 0.667326 0.131574
Si Si4 0.798056 0.676126 0.135378
Si Si5 0.500000 0.334634 0.477179
Si Si6 0.604265 0.824964 0.151031
O O1 0.223738 0.500000 0.494457
O O2 0.207333 0.719544 0.303608
O O3 0.244710 0.783207 0.556457
O O4 0.148105 0.699675 0.530043
O O5 0.054853 0.754177 0.017988
O O6 0.123439 0.754544 0.799121
O O7 0.108169 0.000000 0.944799
O O8 0.154863 0.772179 0.070891
O O9 0.500000 0.500000 0.059648
O O10 0.500000 0.651877 0.303797
O O11 0.551753 0.755725 0.082567
O O12 0.810223 0.500000 0.112741
O O13 0.500000 0.500000 0.550714
O O14 0.594579 0.000000 0.186339
#
# Coordination Sequence:
#
# PCOD8188934 Si02
#       6
#     8   8   4   8   4   8
#     4  10  23  40  56  78 108 141 179 225 275 327
#     4  10  19  34  56  82 112 143 179 223 269 318
#     4   9  17  31  52  81 114 146 182 222 266 315
#     4  11  23  38  56  79 107 140 180 224 273 329
#     4   7  14  29  50  75 104 138 172 210 254 303
#     4  10  19  34  57  83 111 145 184 223 268 321
#
# _framework density 19.187825
#
# number of rings (size 3 to 8) (size 9 to 14) (size 15 to 20)
#    0.000    2.200    0.000    4.500    0.000    6.400 
#    0.000    2.500    0.000    3.600    0.000    0.000 
#    0.000    0.000    0.000    0.000    0.000    0.000 
#
# Total GULP energy -247954.818751 kJ/mol
# GULP energy per Si atom -12397.740938 kJ/mol
# Density = 1.914415 g / cm^3
# Si number density = 19.187825 Si / 1000 Ang^3
#
#
#
# Elastic Constant Matrix: (Units=GPa)
#
#
# Indices 1 2 3 4 5 6 
#
# 1 138.6511 50.1192 55.6996 0.0000 0.0000 0.0000
# 2 50.1192 93.4449 42.0383 0.0000 0.0000 0.0000
# 3 55.6996 42.0383 98.1519 0.0000 0.0000 0.0000
# 4 0.0000 0.0000 0.0000 22.3454 0.0000 0.0000
# 5 0.0000 0.0000 0.0000 0.0000 25.8464 0.0000
# 6 0.0000 0.0000 0.0000 0.0000 0.0000 33.7976
#
#
#
# Elastic Compliance Matrix: (Units=1/GPa)
#
#
# Indices 1 2 3 4 5 6 
#
# 1 0.010215 -0.003556 -0.004274 0.000000 0.000000 0.000000
# 2 -0.003556 0.014494 -0.004190 0.000000 0.000000 0.000000
# 3 -0.004274 -0.004190 0.014408 0.000000 0.000000 0.000000
# 4 0.000000 0.000000 0.000000 0.044752 0.000000 0.000000
# 5 0.000000 0.000000 0.000000 0.000000 0.038690 0.000000
# 6 0.000000 0.000000 0.000000 0.000000 0.000000 0.029588
#
#
# Mechanical properties :
#
#
# Convention : Reuss Voigt Hill
#
# Bulk Modulus (GPa) = 66.32336 69.55134 67.93735
# Shear Modulus (GPa) = 27.59226 28.55725 28.07475
#
# Velocity S-wave (km/s) = 3.79622 3.86203 3.82927
# Velocity P-wave (km/s) = 7.33863 7.49756 7.41852
#
# Compressibility (1/GPa) = 0.01507764
#
# Stress axis : x y z
#
# Youngs Moduli (GPa) = 97.89939 68.99620 69.40668
#
# Poissons Ratio (x) = 0.24535 0.29661
# Poissons Ratio (y) = 0.34813 0.29078
# Poissons Ratio (z) = 0.41838 0.28906
#
# Static dielectric constant tensor:
#      x y z
#    x 3.883480 0.000000 0.000000 
#    y 0.000000 3.560110 0.000000 
#    z 0.000000 0.000000 3.236940 
# 
# 
# High freq. dielectric constant tensor:
#      x y z
#    x 1.768870 0.000000 0.000000 
#    y 0.000000 1.746490 0.000000 
#    z 0.000000 0.000000 1.717750 
# 
# From -- ./inp_files/4673.got.cif
#   From: 2010.03.12/outbox.cif.g09.slc.cpg/sg44_3_cif.got.tgz:4673.got - 2010.04.14 02:36:11.
