data_PCOD8188095
_publ_section_title
;
Structure prediction by ZEFSAII (Michael W. Deem and Ramdas Pophale) SiO2 
 PCOD8188095
Probable space group: I M M 2
;
_chemical_formula_sum "Si O2"
_cell_formula_units_Z 64
_cell_length_a 9.181123
_cell_length_b 20.910555
_cell_length_c 19.751132
_cell_angle_alpha 90.000000
_cell_angle_beta 90.000000
_cell_angle_gamma 90.000000
_cell_volume 3791.869279
_symmetry_space_group_name_H-M "I M M 2"
_symmetry_group_IT_number 44
_symmetry_cell_setting 'orthorhombic'
loop_
_space_group_symop_operation_xyz
x,y,z
-x,-y,z
-x,y,z
x,-y,z
1/2+x,1/2+y,1/2+z
1/2-x,1/2-y,1/2+z
1/2-x,1/2+y,1/2+z
1/2+x,1/2-y,1/2+z
loop_
_atom_site_type_symbol
_atom_site_label
_atom_site_fract_x
_atom_site_fract_y
_atom_site_fract_z
Si Si1 0.670583 0.190896 0.275090
Si Si2 0.171164 0.816011 0.851798
Si Si3 0.674029 0.929843 0.355521
Si Si4 0.668802 0.134149 0.638877
Si Si5 0.829328 0.771410 0.998153
Si Si6 0.830352 0.372556 0.991276
Si Si7 0.829321 0.734070 0.629670
Si Si8 0.830161 0.572192 0.277511
O O1 0.500000 0.192118 0.290238
O O2 0.735801 0.253915 0.312486
O O3 0.736680 0.125348 0.306003
O O4 0.704290 0.190465 0.195210
O O5 0.207223 0.812279 0.931630
O O6 0.244074 0.880446 0.825847
O O7 0.000000 0.821193 0.838668
O O8 0.500000 0.930124 0.353927
O O9 0.735631 0.916219 0.431622
O O10 0.732234 0.000000 0.333299
O O11 0.500000 0.155879 0.640526
O O12 0.703004 0.099832 0.566514
O O13 0.767012 0.196415 0.646890
O O14 0.706022 0.085342 0.698716
O O15 0.769995 0.699649 0.986143
O O16 0.000000 0.772019 0.014560
O O17 0.745848 0.798738 0.064243
O O18 0.000000 0.368862 0.976710
O O19 0.000000 0.740235 0.616203
O O20 0.780788 0.500000 0.293754
O O21 0.000000 0.581777 0.291605
#
# Coordination Sequence:
#
# PCOD8188095 Si02
#       8
#     8   8   8   8   8   8   8   8
#     4   9  16  27  43  67  96 124 156 197 240 277
#     4  10  18  32  53  71  93 127 166 207 245 289
#     4   9  15  23  39  65  95 124 154 190 233 279
#     4   9  17  29  45  66  97 131 162 191 230 287
#     4   9  17  30  49  70  95 124 157 200 247 287
#     4   8  13  23  39  62  91 122 153 186 223 271
#     4  10  18  28  46  70  98 126 157 200 244 283
#     4  10  21  34  47  69 103 134 161 203 254 299
#
# _framework density 16.878219000000001
#
# number of rings (size 3 to 8) (size 9 to 14) (size 15 to 20)
#    0.000    2.750    2.500    1.125    0.000    1.250 
#    0.000    2.500    0.000    0.750    0.000    1.750 
#    0.000   13.250    0.000    0.000    0.000    0.000 
#
# Total GULP energy -396570.836295 kJ/mol
# GULP energy per Si atom -12392.838634 kJ/mol
# Density = 1.683980 g / cm^3
# Si number density = 16.878219 Si / 1000 Ang^3
#
#
#
# Elastic Constant Matrix: (Units=GPa)
#
#
# Indices 1 2 3 4 5 6 
#
# 1 36.6358 29.4045 42.3385 0.0000 0.0000 0.0000
# 2 29.4045 119.9338 77.8490 0.0000 0.0000 0.0000
# 3 42.3385 77.8490 132.2974 0.0000 0.0000 0.0000
# 4 0.0000 0.0000 0.0000 23.9002 0.0000 0.0000
# 5 0.0000 0.0000 0.0000 0.0000 24.1566 0.0000
# 6 0.0000 0.0000 0.0000 0.0000 0.0000 16.7023
#
#
#
# Elastic Compliance Matrix: (Units=1/GPa)
#
#
# Indices 1 2 3 4 5 6 
#
# 1 0.043832 -0.002656 -0.012465 0.000000 0.000000 0.000000
# 2 -0.002656 0.013652 -0.007183 0.000000 0.000000 0.000000
# 3 -0.012465 -0.007183 0.015775 0.000000 0.000000 0.000000
# 4 0.000000 0.000000 0.000000 0.041841 0.000000 0.000000
# 5 0.000000 0.000000 0.000000 0.000000 0.041397 0.000000
# 6 0.000000 0.000000 0.000000 0.000000 0.000000 0.059872
#
#
# Mechanical properties :
#
#
# Convention : Reuss Voigt Hill
#
# Bulk Modulus (GPa) = 34.90256 65.33901 50.12078
# Shear Modulus (GPa) = 18.48256 22.23682 20.35969
#
# Velocity S-wave (km/s) = 3.31275 3.63366 3.47691
# Velocity P-wave (km/s) = 5.94612 7.51004 6.77337
#
# Compressibility (1/GPa) = 0.02865119
#
# Stress axis : x y z
#
# Youngs Moduli (GPa) = 22.81434 73.25073 63.39254
#
# Poissons Ratio (x) = 0.19452 0.79017
# Poissons Ratio (y) = 0.06059 0.45537
# Poissons Ratio (z) = 0.28437 0.52619
#
# Static dielectric constant tensor:
#      x y z
#    x 2.803410 0.000000 0.000000 
#    y 0.000000 3.098060 0.000000 
#    z 0.000000 0.000000 3.431180 
# 
# 
# High freq. dielectric constant tensor:
#      x y z
#    x 1.609330 0.000000 0.000000 
#    y 0.000000 1.624590 0.000000 
#    z 0.000000 0.000000 1.663230 
# 
# From -- ./inp_files/23415.got.cif
#   From: 2010.03.12/outbox.cif.g09.slc.cpg/sg44_12_cif.got.tgz:23415.got - 2010.04.14 02:36:11.
