data_PCOD8188491
_publ_section_title
;
Structure prediction by ZEFSAII (Michael W. Deem and Ramdas Pophale) SiO2 
 PCOD8188491
Probable space group: I M M 2
;
_chemical_formula_sum "Si O2"
_cell_formula_units_Z 64
_cell_length_a 27.707704
_cell_length_b 8.893334
_cell_length_c 14.780713
_cell_angle_alpha 90.000000
_cell_angle_beta 90.000000
_cell_angle_gamma 90.000000
_cell_volume 3642.172633
_symmetry_space_group_name_H-M "I M M 2"
_symmetry_group_IT_number 44
_symmetry_cell_setting 'orthorhombic'
loop_
_space_group_symop_operation_xyz
x,y,z
-x,-y,z
-x,y,z
x,-y,z
1/2+x,1/2+y,1/2+z
1/2-x,1/2-y,1/2+z
1/2-x,1/2+y,1/2+z
1/2+x,1/2-y,1/2+z
loop_
_atom_site_type_symbol
_atom_site_label
_atom_site_fract_x
_atom_site_fract_y
_atom_site_fract_z
Si Si1 0.638303 0.321610 0.837390
Si Si2 0.358602 0.678569 0.283821
Si Si3 0.946319 0.178630 0.662885
Si Si4 0.217189 0.674849 0.657180
Si Si5 0.329340 0.324673 0.646672
Si Si6 0.169746 0.675875 0.962134
Si Si7 0.280716 0.324008 0.972742
Si Si8 0.053569 0.821040 0.460055
O O1 0.635938 0.500000 0.838218
O O2 0.640151 0.267038 0.733421
O O3 0.686846 0.270852 0.888834
O O4 0.591663 0.252626 0.888338
O O5 0.357218 0.500000 0.284738
O O6 0.406101 0.740875 0.231862
O O7 0.310561 0.739181 0.236254
O O8 0.361039 0.739084 0.386044
O O9 0.934160 0.236274 0.561385
O O10 0.000000 0.235165 0.691497
O O11 0.945572 0.000000 0.663306
O O12 0.205074 0.500000 0.665533
O O13 0.273666 0.707667 0.669319
O O14 0.200104 0.735402 0.560096
O O15 0.337532 0.500000 0.626405
O O16 0.347706 0.231327 0.560493
O O17 0.160285 0.500000 0.953315
O O18 0.225879 0.717771 0.949002
O O19 0.286334 0.500000 0.993964
O O20 0.000000 0.767098 0.431837
O O21 0.056374 0.000000 0.459064
#
# Coordination Sequence:
#
# PCOD8188491 Si02
#       8
#     8   8   8   8   8   8   8   8
#     4   9  15  25  44  66  89 118 151 185 223 270
#     4  11  20  30  49  72  93 122 158 192 235 290
#     4   8  15  28  46  70  97 120 147 188 233 278
#     4  10  19  30  44  66  97 127 156 192 230 270
#     4   9  18  32  47  64  90 126 163 195 228 269
#     4  10  20  33  47  65  92 123 157 198 237 273
#     4   9  17  30  47  67  92 124 158 189 226 273
#     4   8  13  22  39  66  96 118 138 175 228 275
#
# _framework density 17.571929000000001
#
# number of rings (size 3 to 8) (size 9 to 14) (size 15 to 20)
#    0.000    2.750    0.000    3.375    0.000    5.000 
#    0.000    0.625    0.000    2.250    0.000    3.500 
#    0.000    1.000    0.000    0.000    0.000    0.000 
#
# Total GULP energy -396725.393845 kJ/mol
# GULP energy per Si atom -12397.668558 kJ/mol
# Density = 1.753193 g / cm^3
# Si number density = 17.571929 Si / 1000 Ang^3
#
#
#
# Elastic Constant Matrix: (Units=GPa)
#
#
# Indices 1 2 3 4 5 6 
#
# 1 82.8202 21.0687 70.7686 0.0000 0.0000 0.0000
# 2 21.0687 40.0686 33.6088 0.0000 0.0000 0.0000
# 3 70.7686 33.6088 152.4037 0.0000 0.0000 0.0000
# 4 0.0000 0.0000 0.0000 25.4944 0.0000 0.0000
# 5 0.0000 0.0000 0.0000 0.0000 28.9593 0.0000
# 6 0.0000 0.0000 0.0000 0.0000 0.0000 11.7597
#
#
#
# Elastic Compliance Matrix: (Units=1/GPa)
#
#
# Indices 1 2 3 4 5 6 
#
# 1 0.020389 -0.003410 -0.008716 0.000000 0.000000 0.000000
# 2 -0.003410 0.031192 -0.005295 0.000000 0.000000 0.000000
# 3 -0.008716 -0.005295 0.011776 0.000000 0.000000 0.000000
# 4 0.000000 0.000000 0.000000 0.039224 0.000000 0.000000
# 5 0.000000 0.000000 0.000000 0.000000 0.034531 0.000000
# 6 0.000000 0.000000 0.000000 0.000000 0.000000 0.085036
#
#
# Mechanical properties :
#
#
# Convention : Reuss Voigt Hill
#
# Bulk Modulus (GPa) = 35.06894 58.46499 46.76696
# Shear Modulus (GPa) = 18.76195 23.23243 20.99719
#
# Velocity S-wave (km/s) = 3.27115 3.64006 3.46052
# Velocity P-wave (km/s) = 5.85388 7.14218 6.52988
#
# Compressibility (1/GPa) = 0.02851527
#
# Stress axis : x y z
#
# Youngs Moduli (GPa) = 49.04511 32.05974 84.91618
#
# Poissons Ratio (x) = 0.10934 0.74011
# Poissons Ratio (y) = 0.16727 0.44962
# Poissons Ratio (z) = 0.42746 0.16975
#
# Static dielectric constant tensor:
#      x y z
#    x 3.355600 0.000000 0.000000 
#    y 0.000000 2.943200 0.000000 
#    z 0.000000 0.000000 3.501020 
# 
# 
# High freq. dielectric constant tensor:
#      x y z
#    x 1.659500 0.000000 0.000000 
#    y 0.000000 1.645110 0.000000 
#    z 0.000000 0.000000 1.684630 
# 
# From -- ./inp_files/19690.got.cif
#   From: 2010.03.12/outbox.cif.g09.slc.cpg/sg44_10_cif.got.tgz:19690.got - 2010.04.14 02:36:11.
