data_PCOD8188352
_publ_section_title
;
Structure prediction by ZEFSAII (Michael W. Deem and Ramdas Pophale) SiO2 
 PCOD8188352
Probable space group: I M M 2
;
_chemical_formula_sum "Si O2"
_cell_formula_units_Z 40
_cell_length_a 11.605572
_cell_length_b 9.047331
_cell_length_c 20.197886
_cell_angle_alpha 90.000000
_cell_angle_beta 90.000000
_cell_angle_gamma 90.000000
_cell_volume 2120.766948
_symmetry_space_group_name_H-M "I M M 2"
_symmetry_group_IT_number 44
_symmetry_cell_setting 'orthorhombic'
loop_
_space_group_symop_operation_xyz
x,y,z
-x,-y,z
-x,y,z
x,-y,z
1/2+x,1/2+y,1/2+z
1/2-x,1/2-y,1/2+z
1/2-x,1/2+y,1/2+z
1/2+x,1/2-y,1/2+z
loop_
_atom_site_type_symbol
_atom_site_label
_atom_site_fract_x
_atom_site_fract_y
_atom_site_fract_z
Si Si1 0.266011 0.175207 0.917750
Si Si2 0.128725 0.825005 0.790008
Si Si3 0.131544 0.826753 0.048268
Si Si4 0.226767 0.174986 0.653986
Si Si5 0.000000 0.824582 0.432772
Si Si6 0.500000 0.674518 0.082949
O O1 0.179405 0.226220 0.860023
O O2 0.385599 0.256091 0.900817
O O3 0.285656 0.000000 0.917153
O O4 0.211473 0.228927 0.987429
O O5 0.214445 0.774627 0.730606
O O6 0.000000 0.757491 0.781456
O O7 0.118026 0.000000 0.787038
O O8 0.164955 0.749262 0.117484
O O9 0.000000 0.785604 0.031380
O O10 0.146429 0.000000 0.057919
O O11 0.112961 0.237207 0.618068
O O12 0.240766 0.000000 0.647176
O O13 0.000000 0.771347 0.508219
O O14 0.000000 0.000000 0.423723
O O15 0.500000 0.500000 0.089148
#
# Coordination Sequence:
#
# PCOD8188352 Si02
#       6
#     8   8   8   8   4   4
#     4  10  20  35  56  81 106 137 179 222 262 312
#     4   9  17  32  57  83 105 133 175 226 268 305
#     4  10  21  36  53  76 109 143 174 213 265 319
#     4  10  18  33  57  82 104 132 175 222 264 310
#     4  11  21  35  55  79 109 142 173 214 268 319
#     4   9  16  29  53  81 105 126 163 216 264 309
#
# _framework density 18.861101000000001
#
# number of rings (size 3 to 8) (size 9 to 14) (size 15 to 20)
#    0.000    2.200    3.000    0.900    0.000    2.800 
#    1.800    1.500    0.000    3.000    0.000    0.000 
#    0.000    0.000    0.000    0.000    0.000    0.000 
#
# Total GULP energy -247957.119858 kJ/mol
# GULP energy per Si atom -12397.855993 kJ/mol
# Density = 1.881817 g / cm^3
# Si number density = 18.861101 Si / 1000 Ang^3
#
#
#
# Elastic Constant Matrix: (Units=GPa)
#
#
# Indices 1 2 3 4 5 6 
#
# 1 117.3020 35.5249 49.7119 0.0000 0.0000 0.0000
# 2 35.5249 32.0192 27.1839 0.0000 0.0000 0.0000
# 3 49.7119 27.1839 123.5834 0.0000 0.0000 0.0000
# 4 0.0000 0.0000 0.0000 22.8834 0.0000 0.0000
# 5 0.0000 0.0000 0.0000 0.0000 32.7200 0.0000
# 6 0.0000 0.0000 0.0000 0.0000 0.0000 25.3619
#
#
#
# Elastic Compliance Matrix: (Units=1/GPa)
#
#
# Indices 1 2 3 4 5 6 
#
# 1 0.013498 -0.012747 -0.002626 0.000000 0.000000 0.000000
# 2 -0.012747 0.050440 -0.005968 0.000000 0.000000 0.000000
# 3 -0.002626 -0.005968 0.010461 0.000000 0.000000 0.000000
# 4 0.000000 0.000000 0.000000 0.043700 0.000000 0.000000
# 5 0.000000 0.000000 0.000000 0.000000 0.030562 0.000000
# 6 0.000000 0.000000 0.000000 0.000000 0.000000 0.039429
#
#
# Mechanical properties :
#
#
# Convention : Reuss Voigt Hill
#
# Bulk Modulus (GPa) = 31.52741 55.30510 43.41626
# Shear Modulus (GPa) = 20.71740 26.89200 23.80470
#
# Velocity S-wave (km/s) = 3.31784 3.78006 3.55647
# Velocity P-wave (km/s) = 5.60618 6.95973 6.31930
#
# Compressibility (1/GPa) = 0.03171843
#
# Stress axis : x y z
#
# Youngs Moduli (GPa) = 74.08409 19.82558 95.59671
#
# Poissons Ratio (x) = 0.25271 0.25103
# Poissons Ratio (y) = 0.94433 0.57048
# Poissons Ratio (z) = 0.19454 0.11831
#
# Static dielectric constant tensor:
#      x y z
#    x 3.516630 0.000000 0.000000 
#    y 0.000000 3.021530 0.000000 
#    z 0.000000 0.000000 3.601180 
# 
# 
# High freq. dielectric constant tensor:
#      x y z
#    x 1.736530 0.000000 0.000000 
#    y 0.000000 1.690470 0.000000 
#    z 0.000000 0.000000 1.737110 
# 
# From -- ./inp_files/22764.got.cif
#   From: 2010.03.12/outbox.cif.g09.slc.cpg/sg44_12_cif.got.tgz:22764.got - 2010.04.14 02:36:11.
