data_PCOD8188779
_publ_section_title
;
Structure prediction by ZEFSAII (Michael W. Deem and Ramdas Pophale) SiO2 
 PCOD8188779
Probable space group: I M M 2
;
_chemical_formula_sum "Si O2"
_cell_formula_units_Z 48
_cell_length_a 8.966345
_cell_length_b 15.478284
_cell_length_c 18.480455
_cell_angle_alpha 90.000000
_cell_angle_beta 90.000000
_cell_angle_gamma 90.000000
_cell_volume 2564.784709
_symmetry_space_group_name_H-M "I M M 2"
_symmetry_group_IT_number 44
_symmetry_cell_setting 'orthorhombic'
loop_
_space_group_symop_operation_xyz
x,y,z
-x,-y,z
-x,y,z
x,-y,z
1/2+x,1/2+y,1/2+z
1/2-x,1/2-y,1/2+z
1/2-x,1/2+y,1/2+z
1/2+x,1/2-y,1/2+z
loop_
_atom_site_type_symbol
_atom_site_label
_atom_site_fract_x
_atom_site_fract_y
_atom_site_fract_z
Si Si1 0.674620 0.596786 0.968800
Si Si2 0.664025 0.349041 0.815444
Si Si3 0.335727 0.840903 0.800705
Si Si4 0.175971 0.267834 0.693980
Si Si5 0.329647 0.404284 0.431642
Si Si6 0.177115 0.757460 0.041420
O O1 0.500000 0.620864 0.974199
O O2 0.704572 0.500000 0.998248
O O3 0.725969 0.598317 0.884283
O O4 0.769642 0.663285 0.015929
O O5 0.500000 0.384152 0.791774
O O6 0.648950 0.250155 0.842994
O O7 0.775402 0.349012 0.745956
O O8 0.500000 0.876327 0.778868
O O9 0.237930 0.822724 0.728023
O O10 0.257581 0.906323 0.855593
O O11 0.248842 0.282362 0.616776
O O12 0.000000 0.263429 0.686931
O O13 0.500000 0.382592 0.412966
O O14 0.312785 0.500000 0.466319
O O15 0.268467 0.332279 0.486644
O O16 0.000000 0.756480 0.050268
#
# Coordination Sequence:
#
# PCOD8188779 Si02
#       6
#     8   8   8   8   8   8
#     4  10  20  35  57  83 110 142 179 218 263 319
#     4   8  16  32  53  78 106 135 174 216 261 313
#     4   9  17  32  54  79 105 135 175 217 262 313
#     4  10  19  32  55  79 104 143 182 220 268 317
#     4  10  21  36  56  82 109 141 181 221 265 319
#     4  11  21  35  55  78 111 146 177 221 270 317
#
# _framework density 18.715021
#
# number of rings (size 3 to 8) (size 9 to 14) (size 15 to 20)
#    1.000    1.333    1.667    2.000    0.000    2.000 
#    0.000    1.667    0.000   10.000    0.000    0.000 
#    0.000    0.000    0.000    0.000    0.000    0.000 
#
# Total GULP energy -297340.221573 kJ/mol
# GULP energy per Si atom -12389.175899 kJ/mol
# Density = 1.867242 g / cm^3
# Si number density = 18.715021 Si / 1000 Ang^3
#
#
#
# Elastic Constant Matrix: (Units=GPa)
#
#
# Indices 1 2 3 4 5 6 
#
# 1 93.5776 13.7046 34.0382 0.0000 0.0000 0.0000
# 2 13.7046 58.3901 5.2559 0.0000 0.0000 0.0000
# 3 34.0382 5.2559 72.3831 0.0000 0.0000 0.0000
# 4 0.0000 0.0000 0.0000 10.4719 0.0000 0.0000
# 5 0.0000 0.0000 0.0000 0.0000 34.7214 0.0000
# 6 0.0000 0.0000 0.0000 0.0000 0.0000 19.0006
#
#
#
# Elastic Compliance Matrix: (Units=1/GPa)
#
#
# Indices 1 2 3 4 5 6 
#
# 1 0.013263 -0.002568 -0.006051 0.000000 0.000000 0.000000
# 2 -0.002568 0.017736 -0.000080 0.000000 0.000000 0.000000
# 3 -0.006051 -0.000080 0.016666 0.000000 0.000000 0.000000
# 4 0.000000 0.000000 0.000000 0.095494 0.000000 0.000000
# 5 0.000000 0.000000 0.000000 0.000000 0.028801 0.000000
# 6 0.000000 0.000000 0.000000 0.000000 0.000000 0.052630
#
#
# Mechanical properties :
#
#
# Convention : Reuss Voigt Hill
#
# Bulk Modulus (GPa) = 33.03828 36.70536 34.87182
# Shear Modulus (GPa) = 19.83513 24.26225 22.04869
#
# Velocity S-wave (km/s) = 3.25907 3.60447 3.43611
# Velocity P-wave (km/s) = 5.64391 6.08098 5.86651
#
# Compressibility (1/GPa) = 0.03026792
#
# Stress axis : x y z
#
# Youngs Moduli (GPa) = 75.39588 56.38185 60.00069
#
# Poissons Ratio (x) = 0.14481 0.36304
# Poissons Ratio (y) = 0.19364 0.00481
# Poissons Ratio (z) = 0.45619 0.00452
#
# Static dielectric constant tensor:
#      x y z
#    x 3.383550 0.000000 0.000000 
#    y 0.000000 3.202190 0.000000 
#    z 0.000000 0.000000 3.249860 
# 
# 
# High freq. dielectric constant tensor:
#      x y z
#    x 1.726800 0.000000 0.000000 
#    y 0.000000 1.699710 0.000000 
#    z 0.000000 0.000000 1.713580 
# 
# From -- ./inp_files/23159.got.cif
#   From: 2010.03.12/outbox.cif.g09.slc.cpg/sg44_12_cif.got.tgz:23159.got - 2010.04.14 02:36:11.
