data_PCOD8188312
_publ_section_title
;
Structure prediction by ZEFSAII (Michael W. Deem and Ramdas Pophale) SiO2 
 PCOD8188312
Probable space group: I M M 2
;
_chemical_formula_sum "Si O2"
_cell_formula_units_Z 48
_cell_length_a 10.360780
_cell_length_b 8.898060
_cell_length_c 28.177483
_cell_angle_alpha 90.000000
_cell_angle_beta 90.000000
_cell_angle_gamma 90.000000
_cell_volume 2597.705886
_symmetry_space_group_name_H-M "I M M 2"
_symmetry_group_IT_number 44
_symmetry_cell_setting 'orthorhombic'
loop_
_space_group_symop_operation_xyz
x,y,z
-x,-y,z
-x,y,z
x,-y,z
1/2+x,1/2+y,1/2+z
1/2-x,1/2-y,1/2+z
1/2-x,1/2+y,1/2+z
1/2+x,1/2-y,1/2+z
loop_
_atom_site_type_symbol
_atom_site_label
_atom_site_fract_x
_atom_site_fract_y
_atom_site_fract_z
Si Si1 0.741066 0.679015 0.506940
Si Si2 0.765835 0.175688 0.717485
Si Si3 0.500000 0.826513 0.666865
Si Si4 0.500000 0.678396 0.566053
Si Si5 0.500000 0.178878 0.054315
Si Si6 0.349095 0.672186 0.406057
Si Si7 0.000000 0.321556 0.662429
Si Si8 0.849064 0.674329 0.809785
O O1 0.737385 0.500000 0.508668
O O2 0.625893 0.743540 0.539473
O O3 0.874682 0.743443 0.527517
O O4 0.725881 0.731903 0.452506
O O5 0.625093 0.214317 0.697626
O O6 0.871680 0.262143 0.686964
O O7 0.768736 0.231629 0.771583
O O8 0.796844 0.000000 0.715696
O O9 0.500000 0.727403 0.620138
O O10 0.500000 0.000000 0.651853
O O11 0.500000 0.500000 0.564241
O O12 0.500000 0.235422 0.108339
O O13 0.500000 0.000000 0.052976
O O14 0.500000 0.688705 0.416912
O O15 0.313894 0.500000 0.394476
O O16 0.305238 0.773400 0.361915
O O17 0.000000 0.500000 0.666477
O O18 0.817171 0.500000 0.803789
O O19 0.000000 0.707965 0.801942
#
# Coordination Sequence:
#
# PCOD8188312 Si02
#       8
#     8   8   4   4   4   8   4   8
#     4   9  16  29  49  76 105 136 175 216 257 311
#     4  11  22  38  58  79 108 146 183 223 271 323
#     4  10  24  40  53  78 113 145 183 225 269 324
#     4  10  18  32  55  78 101 138 183 220 261 310
#     4   9  18  29  46  75 110 138 167 216 268 307
#     4   9  16  29  51  76 101 133 176 218 259 312
#     4  11  21  35  56  85 112 141 185 229 268 317
#     4  10  20  34  54  81 109 134 173 225 272 322
#
# _framework density 18.477841000000002
#
# number of rings (size 3 to 8) (size 9 to 14) (size 15 to 20)
#    0.000    2.167    1.667    2.250    0.000    3.333 
#    0.000    1.667    0.000    5.000    0.000    0.000 
#    0.000    0.000    0.000    0.000    0.000    0.000 
#
# Total GULP energy -297652.092155 kJ/mol
# GULP energy per Si atom -12402.170506 kJ/mol
# Density = 1.843578 g / cm^3
# Si number density = 18.477841 Si / 1000 Ang^3
#
#
#
# Elastic Constant Matrix: (Units=GPa)
#
#
# Indices 1 2 3 4 5 6 
#
# 1 133.2838 34.8463 75.3180 0.0000 0.0000 0.0000
# 2 34.8463 52.4264 42.2645 0.0000 0.0000 0.0000
# 3 75.3180 42.2645 161.4757 0.0000 0.0000 0.0000
# 4 0.0000 0.0000 0.0000 29.4848 0.0000 0.0000
# 5 0.0000 0.0000 0.0000 0.0000 6.4172 0.0000
# 6 0.0000 0.0000 0.0000 0.0000 0.0000 9.8300
#
#
#
# Elastic Compliance Matrix: (Units=1/GPa)
#
#
# Indices 1 2 3 4 5 6 
#
# 1 0.010797 -0.003950 -0.004002 0.000000 0.000000 0.000000
# 2 -0.003950 0.025621 -0.004863 0.000000 0.000000 0.000000
# 3 -0.004002 -0.004863 0.009333 0.000000 0.000000 0.000000
# 4 0.000000 0.000000 0.000000 0.033916 0.000000 0.000000
# 5 0.000000 0.000000 0.000000 0.000000 0.155830 0.000000
# 6 0.000000 0.000000 0.000000 0.000000 0.000000 0.101729
#
#
# Mechanical properties :
#
#
# Convention : Reuss Voigt Hill
#
# Bulk Modulus (GPa) = 49.70473 72.44928 61.07701
# Shear Modulus (GPa) = 13.52948 22.13023 17.82986
#
# Velocity S-wave (km/s) = 2.70886 3.46448 3.10971
# Velocity P-wave (km/s) = 6.06151 7.43622 6.78378
#
# Compressibility (1/GPa) = 0.02011881
#
# Stress axis : x y z
#
# Youngs Moduli (GPa) = 92.61670 39.03105 107.15060
#
# Poissons Ratio (x) = 0.15417 0.42885
# Poissons Ratio (y) = 0.36584 0.52112
# Poissons Ratio (z) = 0.37068 0.18983
#
# Static dielectric constant tensor:
#      x y z
#    x 3.474120 0.000000 0.000000 
#    y 0.000000 3.154200 0.000000 
#    z 0.000000 0.000000 3.559980 
# 
# 
# High freq. dielectric constant tensor:
#      x y z
#    x 1.705570 0.000000 0.000000 
#    y 0.000000 1.692020 0.000000 
#    z 0.000000 0.000000 1.733960 
# 
# From -- ./inp_files/27017.got.cif
#   From: 2010.03.12/outbox.cif.g09.slc.cpg/sg44_14_cif.got.tgz:27017.got - 2010.04.14 02:36:11.
