data_PCOD8188732
_publ_section_title
;
Structure prediction by ZEFSAII (Michael W. Deem and Ramdas Pophale) SiO2 
 PCOD8188732
Probable space group: I M M 2
;
_chemical_formula_sum "Si O2"
_cell_formula_units_Z 40
_cell_length_a 8.954438
_cell_length_b 26.027666
_cell_length_c 9.199612
_cell_angle_alpha 90.000000
_cell_angle_beta 90.000000
_cell_angle_gamma 90.000000
_cell_volume 2144.090289
_symmetry_space_group_name_H-M "I M M 2"
_symmetry_group_IT_number 44
_symmetry_cell_setting 'orthorhombic'
loop_
_space_group_symop_operation_xyz
x,y,z
-x,-y,z
-x,y,z
x,-y,z
1/2+x,1/2+y,1/2+z
1/2-x,1/2-y,1/2+z
1/2-x,1/2+y,1/2+z
1/2+x,1/2-y,1/2+z
loop_
_atom_site_type_symbol
_atom_site_label
_atom_site_fract_x
_atom_site_fract_y
_atom_site_fract_z
Si Si1 0.826723 0.799002 0.706130
Si Si2 0.165899 0.500000 0.379373
Si Si3 0.820880 0.390269 0.702002
Si Si4 0.837070 0.500000 0.724142
Si Si5 0.323566 0.795830 0.396859
Si Si6 0.174431 0.897324 0.896310
O O1 0.741202 0.795789 0.556295
O O2 0.765829 0.754301 0.811710
O O3 0.795298 0.853719 0.778033
O O4 0.000000 0.790197 0.674057
O O5 0.150692 0.500000 0.551144
O O6 0.254983 0.550761 0.330000
O O7 0.000000 0.500000 0.308629
O O8 0.759004 0.445589 0.765442
O O9 0.767640 0.346355 0.811568
O O10 0.750777 0.379073 0.545350
O O11 0.000000 0.392558 0.683696
O O12 0.000000 0.500000 0.797349
O O13 0.500000 0.795537 0.409680
O O14 0.000000 0.906037 0.925711
#
# Coordination Sequence:
#
# PCOD8188732 Si02
#       6
#     8   4   8   4   8   8
#     4  10  22  37  52  75 106 137 173 219 266 312
#     4   9  17  31  52  77 104 136 174 212 252 303
#     4   9  17  31  52  77 104 135 175 219 258 301
#     4   7  12  25  46  71  98 126 158 204 252 289
#     4  10  21  36  54  76 102 138 181 219 260 311
#     4  10  19  32  52  78 107 138 172 212 261 312
#
# _framework density 18.655929
#
# number of rings (size 3 to 8) (size 9 to 14) (size 15 to 20)
#    0.000    2.600    0.000    3.300    0.000    3.200 
#    0.000    1.000    0.000    1.200    0.000    0.000 
#    0.000    0.000    0.000    0.000    0.000    0.000 
#
# Total GULP energy -247907.440334 kJ/mol
# GULP energy per Si atom -12395.372017 kJ/mol
# Density = 1.861347 g / cm^3
# Si number density = 18.655929 Si / 1000 Ang^3
#
#
#
# Elastic Constant Matrix: (Units=GPa)
#
#
# Indices 1 2 3 4 5 6 
#
# 1 54.3502 46.8305 37.8414 0.0016 0.0003 -0.0005
# 2 46.8305 162.5467 62.5107 -0.0013 -0.0006 0.0006
# 3 37.8414 62.5107 102.7074 0.0075 0.0017 -0.0014
# 4 0.0016 -0.0013 0.0075 24.7346 0.0010 -0.0003
# 5 0.0003 -0.0006 0.0017 0.0010 30.0781 -0.0003
# 6 -0.0005 0.0006 -0.0014 -0.0003 -0.0003 19.7815
#
#
#
# Elastic Compliance Matrix: (Units=1/GPa)
#
#
# Indices 1 2 3 4 5 6 
#
# 1 0.027887 -0.005331 -0.007030 0.000000 0.000000 0.000000
# 2 -0.005331 0.009051 -0.003545 0.000002 0.000000 -0.000001
# 3 -0.007030 -0.003545 0.014484 -0.000004 -0.000001 0.000001
# 4 0.000000 0.000002 -0.000004 0.040429 -0.000001 0.000001
# 5 0.000000 0.000000 -0.000001 -0.000001 0.033247 0.000001
# 6 0.000000 -0.000001 0.000001 0.000001 0.000001 0.050552
#
#
# Mechanical properties :
#
#
# Convention : Reuss Voigt Hill
#
# Bulk Modulus (GPa) = 50.99212 68.21882 59.60547
# Shear Modulus (GPa) = 23.36459 26.41364 24.88911
#
# Velocity S-wave (km/s) = 3.54276 3.76683 3.65651
# Velocity P-wave (km/s) = 6.64282 7.45419 7.06017
#
# Compressibility (1/GPa) = 0.01961087
#
# Stress axis : x y z
#
# Youngs Moduli (GPa) = 35.85861 110.48386 69.04172
#
# Poissons Ratio (x) = 0.58897 0.48538
# Poissons Ratio (y) = 0.19116 0.24473
# Poissons Ratio (z) = 0.25210 0.39163
#
# Static dielectric constant tensor:
#      x y z
#    x 3.323480 0.000000 0.000000 
#    y 0.000000 4.041220 -0.000010 
#    z 0.000000 -0.000010 3.089990 
# 
# 
# High freq. dielectric constant tensor:
#      x y z
#    x 1.709570 0.000000 0.000000 
#    y 0.000000 1.752240 0.000000 
#    z 0.000000 0.000000 1.695610 
# 
# From -- ./inp_files/4619.got.cif
#   From: 2010.03.12/outbox.cif.g09.slc.cpg/sg44_3_cif.got.tgz:4619.got - 2010.04.14 02:36:11.
