data_PCOD8188308
_publ_section_title
;
Structure prediction by ZEFSAII (Michael W. Deem and Ramdas Pophale) SiO2 
 PCOD8188308
Probable space group: I M M 2
;
_chemical_formula_sum "Si O2"
_cell_formula_units_Z 56
_cell_length_a 8.858383
_cell_length_b 24.701370
_cell_length_c 14.207045
_cell_angle_alpha 90.000000
_cell_angle_beta 90.000000
_cell_angle_gamma 90.000000
_cell_volume 3108.703130
_symmetry_space_group_name_H-M "I M M 2"
_symmetry_group_IT_number 44
_symmetry_cell_setting 'orthorhombic'
loop_
_space_group_symop_operation_xyz
x,y,z
-x,-y,z
-x,y,z
x,-y,z
1/2+x,1/2+y,1/2+z
1/2-x,1/2-y,1/2+z
1/2-x,1/2+y,1/2+z
1/2+x,1/2-y,1/2+z
loop_
_atom_site_type_symbol
_atom_site_label
_atom_site_fract_x
_atom_site_fract_y
_atom_site_fract_z
Si Si1 0.679516 0.500000 0.190670
Si Si2 0.323096 0.110122 0.731842
Si Si3 0.670373 0.784008 0.040620
Si Si4 0.179827 0.000000 0.473704
Si Si5 0.676935 0.185007 0.241592
Si Si6 0.321870 0.293150 0.344724
Si Si7 0.326868 0.392090 0.876502
Si Si8 0.332593 0.661531 0.066008
O O1 0.500000 0.500000 0.197222
O O2 0.744692 0.552004 0.245495
O O3 0.736843 0.500000 0.081707
O O4 0.500000 0.104385 0.749214
O O5 0.255322 0.153255 0.804307
O O6 0.291762 0.130024 0.625704
O O7 0.500000 0.797292 0.005927
O O8 0.718576 0.819812 0.130827
O O9 0.676402 0.724613 0.086295
O O10 0.785966 0.791154 0.955695
O O11 0.241667 0.947941 0.417164
O O12 0.000000 0.000000 0.476233
O O13 0.500000 0.186000 0.257020
O O14 0.742549 0.239349 0.292327
O O15 0.740551 0.129633 0.285494
O O16 0.500000 0.298359 0.330124
O O17 0.500000 0.400356 0.848161
O O18 0.304326 0.346561 0.955854
O O19 0.500000 0.638758 0.093142
#
# Coordination Sequence:
#
# PCOD8188308 Si02
#       8
#     4   8   8   4   8   8   8   8
#     4  11  21  39  61  80 111 150 187 229 284 336
#     4  12  24  36  54  84 117 149 188 230 277 334
#     4  10  20  36  54  78 113 148 185 229 277 334
#     4   9  18  33  55  80 107 146 185 223 272 328
#     4  10  21  35  53  79 113 147 182 227 284 336
#     4  11  22  37  56  81 111 148 188 227 281 341
#     4  10  19  33  54  79 109 145 188 224 270 331
#     4  10  18  32  54  80 112 151 184 223 277 333
#
# _framework density 18.013942
#
# number of rings (size 3 to 8) (size 9 to 14) (size 15 to 20)
#    0.000    1.571    4.286    1.929    0.000    2.286 
#    0.000    0.357    0.000    0.857    0.000    2.000 
#    0.000    0.000    0.000    0.000    0.000    0.000 
#
# Total GULP energy -347171.004523 kJ/mol
# GULP energy per Si atom -12398.964447 kJ/mol
# Density = 1.797294 g / cm^3
# Si number density = 18.013942 Si / 1000 Ang^3
#
#
#
# Elastic Constant Matrix: (Units=GPa)
#
#
# Indices 1 2 3 4 5 6 
#
# 1 69.2140 29.3678 31.4951 0.0000 0.0000 0.0000
# 2 29.3678 89.3072 31.9169 0.0000 0.0000 0.0000
# 3 31.4951 31.9169 70.9533 0.0004 0.0000 0.0001
# 4 0.0000 0.0000 0.0004 31.9541 0.0000 0.0000
# 5 0.0000 0.0000 0.0000 0.0000 31.8156 0.0000
# 6 0.0000 0.0000 0.0001 0.0000 0.0000 27.6643
#
#
#
# Elastic Compliance Matrix: (Units=1/GPa)
#
#
# Indices 1 2 3 4 5 6 
#
# 1 0.019175 -0.003889 -0.006762 0.000000 0.000000 0.000000
# 2 -0.003889 0.014131 -0.004630 0.000000 0.000000 0.000000
# 3 -0.006762 -0.004630 0.019178 0.000000 0.000000 0.000000
# 4 0.000000 0.000000 0.000000 0.031295 0.000000 0.000000
# 5 0.000000 0.000000 0.000000 0.000000 0.031431 0.000000
# 6 0.000000 0.000000 0.000000 0.000000 0.000000 0.036148
#
#
# Mechanical properties :
#
#
# Convention : Reuss Voigt Hill
#
# Bulk Modulus (GPa) = 45.61723 46.11490 45.86606
# Shear Modulus (GPa) = 26.42316 27.39975 26.91146
#
# Velocity S-wave (km/s) = 3.83406 3.90427 3.86932
# Velocity P-wave (km/s) = 6.70658 6.78082 6.74381
#
# Compressibility (1/GPa) = 0.02192154
#
# Stress axis : x y z
#
# Youngs Moduli (GPa) = 52.15098 70.76689 52.14235
#
# Poissons Ratio (x) = 0.27520 0.35260
# Poissons Ratio (y) = 0.20281 0.24143
# Poissons Ratio (z) = 0.35266 0.32767
#
# Static dielectric constant tensor:
#      x y z
#    x 3.175620 0.000000 0.000000 
#    y 0.000000 3.380740 0.000000 
#    z 0.000000 0.000000 3.218430 
# 
# 
# High freq. dielectric constant tensor:
#      x y z
#    x 1.684450 0.000000 0.000000 
#    y 0.000000 1.689940 0.000000 
#    z 0.000000 0.000000 1.686090 
# 
# From -- ./inp_files/16590.got.cif
#   From: 2010.03.12/outbox.cif.g09.slc.cpg/sg44_9_cif.got.tgz:16590.got - 2010.04.14 02:36:11.
