data_PCOD8188768
_publ_section_title
;
Structure prediction by ZEFSAII (Michael W. Deem and Ramdas Pophale) SiO2 
 PCOD8188768
Probable space group: I M M 2
;
_chemical_formula_sum "Si O2"
_cell_formula_units_Z 64
_cell_length_a 9.146681
_cell_length_b 15.775679
_cell_length_c 22.718290
_cell_angle_alpha 90.000000
_cell_angle_beta 90.000000
_cell_angle_gamma 90.000000
_cell_volume 3278.138004
_symmetry_space_group_name_H-M "I M M 2"
_symmetry_group_IT_number 44
_symmetry_cell_setting 'orthorhombic'
loop_
_space_group_symop_operation_xyz
x,y,z
-x,-y,z
-x,y,z
x,-y,z
1/2+x,1/2+y,1/2+z
1/2-x,1/2-y,1/2+z
1/2-x,1/2+y,1/2+z
1/2+x,1/2-y,1/2+z
loop_
_atom_site_type_symbol
_atom_site_label
_atom_site_fract_x
_atom_site_fract_y
_atom_site_fract_z
Si Si1 0.328124 0.098039 0.339320
Si Si2 0.664958 0.405591 0.627692
Si Si3 0.332123 0.300059 0.047591
Si Si4 0.173819 0.740041 0.291025
Si Si5 0.342091 0.097776 0.469993
Si Si6 0.669472 0.095244 0.882456
Si Si7 0.170115 0.253225 0.675911
Si Si8 0.169670 0.855506 0.998432
O O1 0.500000 0.106107 0.325230
O O2 0.238508 0.165599 0.300560
O O3 0.293319 0.129878 0.405537
O O4 0.277138 0.000000 0.327711
O O5 0.500000 0.370757 0.637476
O O6 0.681094 0.500000 0.652727
O O7 0.779165 0.349301 0.663599
O O8 0.700099 0.407893 0.558057
O O9 0.500000 0.279335 0.035738
O O10 0.297608 0.300294 0.116766
O O11 0.282277 0.388978 0.019736
O O12 0.234443 0.237400 0.008465
O O13 0.225602 0.668183 0.337548
O O14 0.237118 0.710243 0.227888
O O15 0.000000 0.745912 0.288439
O O16 0.500000 0.137979 0.488193
O O17 0.366502 0.000000 0.461519
O O18 0.500000 0.110769 0.895727
O O19 0.753486 0.099446 0.943967
O O20 0.694611 0.000000 0.856221
O O21 0.000000 0.253641 0.692522
O O22 0.000000 0.849376 0.983277
#
# Coordination Sequence:
#
# PCOD8188768 Si02
#       8
#     8   8   8   8   8   8   8   8
#     4   9  19  36  57  82 113 146 178 215 263 321
#     4   9  18  33  53  79 110 139 169 209 256 311
#     4  10  20  34  53  78 107 140 177 217 267 322
#     4  11  23  38  57  79 105 142 186 229 272 318
#     4   9  18  33  54  81 110 139 173 214 263 320
#     4  10  22  39  57  80 111 144 180 225 276 328
#     4  10  22  38  54  73 100 137 180 222 264 314
#     4  10  19  32  54  83 112 141 174 213 261 319
#
# _framework density 19.523277
#
# number of rings (size 3 to 8) (size 9 to 14) (size 15 to 20)
#    0.000    2.250    0.000    3.375    0.000    7.500 
#    0.000    1.875    0.000    2.250    0.000    0.000 
#    0.000    0.000    0.000    0.000    0.000    0.000 
#
# Total GULP energy -396651.756525 kJ/mol
# GULP energy per Si atom -12395.367391 kJ/mol
# Density = 1.947884 g / cm^3
# Si number density = 19.523277 Si / 1000 Ang^3
#
#
#
# Elastic Constant Matrix: (Units=GPa)
#
#
# Indices 1 2 3 4 5 6 
#
# 1 73.1986 26.4858 43.4923 0.0000 0.0000 0.0000
# 2 26.4858 51.4927 31.1641 0.0000 0.0000 0.0000
# 3 43.4923 31.1641 88.9191 0.0000 0.0000 0.0000
# 4 0.0000 0.0000 0.0000 15.0853 0.0000 0.0000
# 5 0.0000 0.0000 0.0000 0.0000 35.2588 0.0000
# 6 0.0000 0.0000 0.0000 0.0000 0.0000 27.9344
#
#
#
# Elastic Compliance Matrix: (Units=1/GPa)
#
#
# Indices 1 2 3 4 5 6 
#
# 1 0.020488 -0.005677 -0.008031 0.000000 0.000000 0.000000
# 2 -0.005677 0.026222 -0.006413 0.000000 0.000000 0.000000
# 3 -0.008031 -0.006413 0.017422 0.000000 0.000000 0.000000
# 4 0.000000 0.000000 0.000000 0.066290 0.000000 0.000000
# 5 0.000000 0.000000 0.000000 0.000000 0.028362 0.000000
# 6 0.000000 0.000000 0.000000 0.000000 0.000000 0.035798
#
#
# Mechanical properties :
#
#
# Convention : Reuss Voigt Hill
#
# Bulk Modulus (GPa) = 41.86209 46.21054 44.03632
# Shear Modulus (GPa) = 20.59415 23.15358 21.87387
#
# Velocity S-wave (km/s) = 3.25137 3.44749 3.35087
# Velocity P-wave (km/s) = 5.96523 6.29029 6.12991
#
# Compressibility (1/GPa) = 0.02388796
#
# Stress axis : x y z
#
# Youngs Moduli (GPa) = 48.81003 38.13613 57.39855
#
# Poissons Ratio (x) = 0.21652 0.46097
# Poissons Ratio (y) = 0.27712 0.36811
# Poissons Ratio (z) = 0.39200 0.24457
#
# Static dielectric constant tensor:
#      x y z
#    x 3.526010 0.000000 0.000000 
#    y 0.000000 3.518790 0.000000 
#    z 0.000000 0.000000 3.585200 
# 
# 
# High freq. dielectric constant tensor:
#      x y z
#    x 1.761660 0.000000 0.000000 
#    y 0.000000 1.748210 0.000000 
#    z 0.000000 0.000000 1.758100 
# 
# From -- ./inp_files/23304.got.cif
#   From: 2010.03.12/outbox.cif.g09.slc.cpg/sg44_12_cif.got.tgz:23304.got - 2010.04.14 02:36:11.
