data_PCOD8188553
_publ_section_title
;
Structure prediction by ZEFSAII (Michael W. Deem and Ramdas Pophale) SiO2 
 PCOD8188553
Probable space group: I M M 2
;
_chemical_formula_sum "Si O2"
_cell_formula_units_Z 56
_cell_length_a 27.864323
_cell_length_b 7.731285
_cell_length_c 14.483543
_cell_angle_alpha 90.000000
_cell_angle_beta 90.000000
_cell_angle_gamma 90.000000
_cell_volume 3120.146543
_symmetry_space_group_name_H-M "I M M 2"
_symmetry_group_IT_number 44
_symmetry_cell_setting 'orthorhombic'
loop_
_space_group_symop_operation_xyz
x,y,z
-x,-y,z
-x,y,z
x,-y,z
1/2+x,1/2+y,1/2+z
1/2-x,1/2-y,1/2+z
1/2-x,1/2+y,1/2+z
1/2+x,1/2-y,1/2+z
loop_
_atom_site_type_symbol
_atom_site_label
_atom_site_fract_x
_atom_site_fract_y
_atom_site_fract_z
Si Si1 0.618582 0.304622 0.009500
Si Si2 0.056600 0.500000 0.582926
Si Si3 0.816853 0.807700 0.686924
Si Si4 0.715809 0.308140 0.675464
Si Si5 0.201658 0.794201 0.378731
Si Si6 0.443501 0.000000 0.299535
Si Si7 0.881229 0.195977 0.855162
Si Si8 0.298532 0.195463 0.475851
O O1 0.598042 0.500000 0.991342
O O2 0.654294 0.311133 0.093781
O O3 0.575888 0.171371 0.030886
O O4 0.651594 0.235388 0.925161
O O5 0.071461 0.500000 0.690965
O O6 0.000000 0.500000 0.571035
O O7 0.773254 0.675911 0.678951
O O8 0.850424 0.742557 0.768193
O O9 0.796793 0.000000 0.708502
O O10 0.694360 0.500000 0.663372
O O11 0.698950 0.225418 0.773127
O O12 0.700912 0.195928 0.587160
O O13 0.249344 0.722250 0.432503
O O14 0.205258 0.000000 0.381593
O O15 0.425267 0.830187 0.355054
O O16 0.500000 0.000000 0.308302
O O17 0.846235 0.203798 0.943602
O O18 0.901224 0.000000 0.845198
O O19 0.303322 0.000000 0.441303
#
# Coordination Sequence:
#
# PCOD8188553 Si02
#       8
#     8   4   8   8   8   4   8   8
#     4  10  20  37  55  76 111 153 187 228 281 329
#     4  11  24  38  58  87 111 143 195 238 281 343
#     4  10  19  30  48  76 111 148 188 225 269 327
#     4  11  21  31  48  77 113 152 196 232 267 323
#     4   9  19  33  50  73 110 154 192 229 272 332
#     4  11  24  40  60  85 115 149 189 240 291 337
#     4  11  22  37  57  81 111 153 193 228 280 338
#     4  11  20  34  52  77 115 152 189 231 275 332
#
# _framework density 17.947876000000001
#
# number of rings (size 3 to 8) (size 9 to 14) (size 15 to 20)
#    0.000    1.571    5.000    0.857    2.000    0.571 
#    3.857    1.429    0.000    0.000    0.000    2.000 
#    0.000    3.429    0.000    0.000    0.000    0.000 
#
# Total GULP energy -347049.291111 kJ/mol
# GULP energy per Si atom -12394.617540 kJ/mol
# Density = 1.790703 g / cm^3
# Si number density = 17.947876 Si / 1000 Ang^3
#
#
#
# Elastic Constant Matrix: (Units=GPa)
#
#
# Indices 1 2 3 4 5 6 
#
# 1 85.9902 41.7218 37.4623 0.0000 0.0000 0.0000
# 2 41.7218 84.4772 17.4593 0.0000 0.0000 0.0000
# 3 37.4623 17.4593 111.3864 0.0000 0.0000 0.0000
# 4 0.0000 0.0000 0.0000 21.4008 0.0000 0.0000
# 5 0.0000 0.0000 0.0000 0.0000 27.4401 0.0000
# 6 0.0000 0.0000 0.0000 0.0000 0.0000 27.5147
#
#
#
# Elastic Compliance Matrix: (Units=1/GPa)
#
#
# Indices 1 2 3 4 5 6 
#
# 1 0.017341 -0.007605 -0.004640 0.000000 0.000000 0.000000
# 2 -0.007605 0.015569 0.000117 0.000000 0.000000 0.000000
# 3 -0.004640 0.000117 0.010520 0.000000 0.000000 0.000000
# 4 0.000000 0.000000 0.000000 0.046727 0.000000 0.000000
# 5 0.000000 0.000000 0.000000 0.000000 0.036443 0.000000
# 6 0.000000 0.000000 0.000000 0.000000 0.000000 0.036344
#
#
# Mechanical properties :
#
#
# Convention : Reuss Voigt Hill
#
# Bulk Modulus (GPa) = 52.15345 52.79339 52.47342
# Shear Modulus (GPa) = 25.82752 27.61846 26.72299
#
# Velocity S-wave (km/s) = 3.79757 3.92703 3.86284
# Velocity P-wave (km/s) = 6.95342 7.07395 7.01395
#
# Compressibility (1/GPa) = 0.01917419
#
# Stress axis : x y z
#
# Youngs Moduli (GPa) = 57.66757 64.22861 95.05763
#
# Poissons Ratio (x) = 0.48848 0.44107
# Poissons Ratio (y) = 0.43858 -0.01116
# Poissons Ratio (z) = 0.26758 -0.00754
#
# Static dielectric constant tensor:
#      x y z
#    x 2.977970 0.000000 0.000000 
#    y 0.000000 3.453300 0.000000 
#    z 0.000000 0.000000 3.422570 
# 
# 
# High freq. dielectric constant tensor:
#      x y z
#    x 1.649960 0.000000 0.000000 
#    y 0.000000 1.698620 0.000000 
#    z 0.000000 0.000000 1.690690 
# 
# From -- ./inp_files/19266.got.cif
#   From: 2010.03.12/outbox.cif.g09.slc.cpg/sg44_10_cif.got.tgz:19266.got - 2010.04.14 02:36:11.
