data_PCOD8188912
_publ_section_title
;
Structure prediction by ZEFSAII (Michael W. Deem and Ramdas Pophale) SiO2 
 PCOD8188912
Probable space group: I M M 2
;
_chemical_formula_sum "Si O2"
_cell_formula_units_Z 56
_cell_length_a 9.129576
_cell_length_b 20.015213
_cell_length_c 15.400122
_cell_angle_alpha 90.000000
_cell_angle_beta 90.000000
_cell_angle_gamma 90.000000
_cell_volume 2814.070580
_symmetry_space_group_name_H-M "I M M 2"
_symmetry_group_IT_number 44
_symmetry_cell_setting 'orthorhombic'
loop_
_space_group_symop_operation_xyz
x,y,z
-x,-y,z
-x,y,z
x,-y,z
1/2+x,1/2+y,1/2+z
1/2-x,1/2-y,1/2+z
1/2-x,1/2+y,1/2+z
1/2+x,1/2-y,1/2+z
loop_
_atom_site_type_symbol
_atom_site_label
_atom_site_fract_x
_atom_site_fract_y
_atom_site_fract_z
Si Si1 0.673029 0.925838 0.623120
Si Si2 0.336147 0.103895 0.814518
Si Si3 0.167440 0.752247 0.385652
Si Si4 0.829758 0.705138 0.721190
Si Si5 0.664806 0.925386 0.126105
Si Si6 0.676225 0.216685 0.563547
Si Si7 0.655589 0.573882 0.470382
O O1 0.500000 0.929935 0.625571
O O2 0.730712 0.907247 0.719208
O O3 0.718116 0.863066 0.562285
O O4 0.734331 0.000000 0.594185
O O5 0.500000 0.074943 0.818748
O O6 0.332301 0.179730 0.844135
O O7 0.234744 0.063861 0.879471
O O8 0.257977 0.794833 0.316249
O O9 0.251026 0.751706 0.477825
O O10 0.000000 0.778046 0.397349
O O11 0.818314 0.625938 0.704243
O O12 0.741847 0.749019 0.650244
O O13 0.000000 0.728673 0.722676
O O14 0.500000 0.929428 0.091983
O O15 0.717109 0.000000 0.154695
O O16 0.750544 0.890919 0.045424
O O17 0.500000 0.226570 0.563988
O O18 0.500000 0.612078 0.459372
O O19 0.627889 0.500000 0.506519
#
# Coordination Sequence:
#
# PCOD8188912 Si02
#       7
#     8   8   8   8   8   8   8
#     4   9  18  35  59  84 112 152 202 249 293 348
#     4  10  19  34  55  79 107 144 192 240 288 345
#     4  11  23  39  59  86 116 152 198 246 295 356
#     4  11  22  38  61  88 116 151 193 243 299 353
#     4   9  19  36  56  78 107 147 193 235 279 340
#     4  11  22  39  61  89 122 158 198 247 301 356
#     4  10  20  31  46  76 114 146 178 221 280 343
#
# _framework density 19.899996999999999
#
# number of rings (size 3 to 8) (size 9 to 14) (size 15 to 20)
#    0.000    1.857    1.429    3.000    0.000    7.143 
#    0.000    0.714    0.000    6.857    0.000    0.000 
#    0.000    0.000    0.000    0.000    0.000    0.000 
#
# Total GULP energy -346870.112937 kJ/mol
# GULP energy per Si atom -12388.218319 kJ/mol
# Density = 1.985470 g / cm^3
# Si number density = 19.899997 Si / 1000 Ang^3
#
#
#
# Elastic Constant Matrix: (Units=GPa)
#
#
# Indices 1 2 3 4 5 6 
#
# 1 108.7836 22.3414 35.7981 0.0000 0.0000 0.0000
# 2 22.3414 79.2139 7.1521 -0.0001 0.0000 0.0000
# 3 35.7981 7.1521 75.2053 -0.0002 0.0000 0.0000
# 4 0.0000 -0.0001 -0.0002 18.1540 0.0000 0.0000
# 5 0.0000 0.0000 0.0000 0.0000 31.6342 0.0000
# 6 0.0000 0.0000 0.0000 0.0000 0.0000 16.2184
#
#
#
# Elastic Compliance Matrix: (Units=1/GPa)
#
#
# Indices 1 2 3 4 5 6 
#
# 1 0.011471 -0.002766 -0.005197 0.000000 0.000000 0.000000
# 2 -0.002766 0.013400 0.000042 0.000000 0.000000 0.000000
# 3 -0.005197 0.000042 0.015767 0.000000 0.000000 0.000000
# 4 0.000000 0.000000 0.000000 0.055084 0.000000 0.000000
# 5 0.000000 0.000000 0.000000 0.000000 0.031611 0.000000
# 6 0.000000 0.000000 0.000000 0.000000 0.000000 0.061658
#
#
# Mechanical properties :
#
#
# Convention : Reuss Voigt Hill
#
# Bulk Modulus (GPa) = 40.32872 43.75398 42.04135
# Shear Modulus (GPa) = 23.46326 26.39542 24.92934
#
# Velocity S-wave (km/s) = 3.43747 3.64593 3.54323
# Velocity P-wave (km/s) = 6.00538 6.30543 6.15723
#
# Compressibility (1/GPa) = 0.02479622
#
# Stress axis : x y z
#
# Youngs Moduli (GPa) = 87.17726 74.62493 63.42452
#
# Poissons Ratio (x) = 0.20641 0.32963
# Poissons Ratio (y) = 0.24113 -0.00268
# Poissons Ratio (z) = 0.45307 -0.00315
#
# Static dielectric constant tensor:
#      x y z
#    x 3.891400 0.000000 0.000000 
#    y 0.000000 3.906790 0.000000 
#    z 0.000000 0.000000 3.524430 
# 
# 
# High freq. dielectric constant tensor:
#      x y z
#    x 1.770850 0.000000 0.000000 
#    y 0.000000 1.781360 0.000000 
#    z 0.000000 0.000000 1.758710 
# 
# From -- ./inp_files/16427.got.cif
#   From: 2010.03.12/outbox.cif.g09.slc.cpg/sg44_9_cif.got.tgz:16427.got - 2010.04.14 02:36:11.
