data_PCOD8188648
_publ_section_title
;
Structure prediction by ZEFSAII (Michael W. Deem and Ramdas Pophale) SiO2 
 PCOD8188648
Probable space group: I M M 2
;
_chemical_formula_sum "Si O2"
_cell_formula_units_Z 64
_cell_length_a 24.989095
_cell_length_b 8.831973
_cell_length_c 15.244638
_cell_angle_alpha 90.000000
_cell_angle_beta 90.000000
_cell_angle_gamma 90.000000
_cell_volume 3364.537529
_symmetry_space_group_name_H-M "I M M 2"
_symmetry_group_IT_number 44
_symmetry_cell_setting 'orthorhombic'
loop_
_space_group_symop_operation_xyz
x,y,z
-x,-y,z
-x,y,z
x,-y,z
1/2+x,1/2+y,1/2+z
1/2-x,1/2-y,1/2+z
1/2-x,1/2+y,1/2+z
1/2+x,1/2-y,1/2+z
loop_
_atom_site_type_symbol
_atom_site_label
_atom_site_fract_x
_atom_site_fract_y
_atom_site_fract_z
Si Si1 0.607026 0.321575 0.095630
Si Si2 0.713929 0.179036 0.127468
Si Si3 0.438150 0.823827 0.270743
Si Si4 0.846929 0.180271 0.292193
Si Si5 0.866304 0.173606 0.913997
Si Si6 0.763572 0.826250 0.805110
Si Si7 0.168554 0.820954 0.096953
Si Si8 0.558762 0.679534 0.914407
O O1 0.611589 0.500000 0.103795
O O2 0.665680 0.255784 0.074955
O O3 0.582021 0.261788 0.185073
O O4 0.570625 0.270325 0.014014
O O5 0.709310 0.229249 0.228345
O O6 0.770367 0.238605 0.089308
O O7 0.708039 0.000000 0.121602
O O8 0.500000 0.784717 0.287010
O O9 0.405843 0.774374 0.356756
O O10 0.428673 0.000000 0.254690
O O11 0.793709 0.256724 0.331813
O O12 0.855858 0.229953 0.190604
O O13 0.897378 0.243878 0.346652
O O14 0.840213 0.000000 0.300257
O O15 0.804230 0.185655 0.886029
O O16 0.885970 0.000000 0.907404
O O17 0.867229 0.235871 0.014834
O O18 0.756025 0.000000 0.775358
O O19 0.171008 0.000000 0.092309
O O20 0.500000 0.742488 0.888825
O O21 0.559566 0.500000 0.908105
#
# Coordination Sequence:
#
# PCOD8188648 Si02
#       8
#     8   8   8   8   8   8   8   8
#     4  11  21  34  54  82 112 145 183 224 274 330
#     4  10  19  33  54  79 112 147 180 220 268 323
#     4  11  24  40  57  79 109 146 187 229 275 327
#     4   9  18  35  57  79 109 146 185 230 276 323
#     4  10  20  35  55  80 111 146 183 224 272 325
#     4  10  19  31  51  79 111 144 180 221 269 327
#     4   8  17  33  53  79 111 144 177 220 273 323
#     4   9  19  35  55  80 109 144 189 235 276 323
#
# _framework density 19.021930999999999
#
# number of rings (size 3 to 8) (size 9 to 14) (size 15 to 20)
#    0.000    2.250    1.250    2.625    1.750    2.000 
#    0.000    4.375    0.000    4.125    0.000    0.000 
#    0.000    0.000    0.000    0.000    0.000    0.000 
#
# Total GULP energy -396714.908450 kJ/mol
# GULP energy per Si atom -12397.340889 kJ/mol
# Density = 1.897864 g / cm^3
# Si number density = 19.021931 Si / 1000 Ang^3
#
#
#
# Elastic Constant Matrix: (Units=GPa)
#
#
# Indices 1 2 3 4 5 6 
#
# 1 126.4616 39.0229 57.9734 0.0000 0.0000 0.0000
# 2 39.0229 56.5474 32.0422 0.0000 0.0000 0.0000
# 3 57.9734 32.0422 105.0647 0.0000 0.0000 0.0000
# 4 0.0000 0.0000 0.0000 12.4780 0.0000 0.0000
# 5 0.0000 0.0000 0.0000 0.0000 30.3915 0.0000
# 6 0.0000 0.0000 0.0000 0.0000 0.0000 24.7923
#
#
#
# Elastic Compliance Matrix: (Units=1/GPa)
#
#
# Indices 1 2 3 4 5 6 
#
# 1 0.011802 -0.005385 -0.004870 0.000000 0.000000 0.000000
# 2 -0.005385 0.023836 -0.004298 0.000000 0.000000 0.000000
# 3 -0.004870 -0.004298 0.013516 0.000000 0.000000 0.000000
# 4 0.000000 0.000000 0.000000 0.080141 0.000000 0.000000
# 5 0.000000 0.000000 0.000000 0.000000 0.032904 0.000000
# 6 0.000000 0.000000 0.000000 0.000000 0.000000 0.040335
#
#
# Mechanical properties :
#
#
# Convention : Reuss Voigt Hill
#
# Bulk Modulus (GPa) = 49.88038 60.68342 55.28190
# Shear Modulus (GPa) = 20.98012 24.13470 22.55741
#
# Velocity S-wave (km/s) = 3.32466 3.56586 3.44737
# Velocity P-wave (km/s) = 6.40448 6.99463 6.70605
#
# Compressibility (1/GPa) = 0.02004796
#
# Stress axis : x y z
#
# Youngs Moduli (GPa) = 84.73451 41.95379 73.98735
#
# Poissons Ratio (x) = 0.22591 0.36030
# Poissons Ratio (y) = 0.45627 0.31800
# Poissons Ratio (z) = 0.41264 0.18032
#
# Static dielectric constant tensor:
#      x y z
#    x 3.656190 0.000000 0.000000 
#    y 0.000000 3.301560 0.000000 
#    z 0.000000 0.000000 3.634000 
# 
# 
# High freq. dielectric constant tensor:
#      x y z
#    x 1.736740 0.000000 0.000000 
#    y 0.000000 1.718530 0.000000 
#    z 0.000000 0.000000 1.739240 
# 
# From -- ./inp_files/19493.got.cif
#   From: 2010.03.12/outbox.cif.g09.slc.cpg/sg44_10_cif.got.tgz:19493.got - 2010.04.14 02:36:11.
