data_PCOD8188984
_publ_section_title
;
Structure prediction by ZEFSAII (Michael W. Deem and Ramdas Pophale) SiO2 
 PCOD8188984
Probable space group: I M M 2
;
_chemical_formula_sum "Si O2"
_cell_formula_units_Z 48
_cell_length_a 9.136859
_cell_length_b 10.322474
_cell_length_c 27.960044
_cell_angle_alpha 90.000000
_cell_angle_beta 90.000000
_cell_angle_gamma 90.000000
_cell_volume 2637.051255
_symmetry_space_group_name_H-M "I M M 2"
_symmetry_group_IT_number 44
_symmetry_cell_setting 'orthorhombic'
loop_
_space_group_symop_operation_xyz
x,y,z
-x,-y,z
-x,y,z
x,-y,z
1/2+x,1/2+y,1/2+z
1/2-x,1/2-y,1/2+z
1/2-x,1/2+y,1/2+z
1/2+x,1/2-y,1/2+z
loop_
_atom_site_type_symbol
_atom_site_label
_atom_site_fract_x
_atom_site_fract_y
_atom_site_fract_z
Si Si1 0.670301 0.000000 0.441970
Si Si2 0.332842 0.351209 0.201485
Si Si3 0.672814 0.500000 0.042415
Si Si4 0.326540 0.500000 0.448524
Si Si5 0.327884 0.740991 0.386907
Si Si6 0.829164 0.253826 0.599126
Si Si7 0.174311 0.000000 0.056711
Si Si8 0.171494 0.650018 0.295848
O O1 0.714022 0.124415 0.411228
O O2 0.500000 0.000000 0.455250
O O3 0.759108 0.000000 0.490410
O O4 0.500000 0.334441 0.218161
O O5 0.300876 0.500000 0.187848
O O6 0.299209 0.264921 0.155287
O O7 0.229796 0.303183 0.244413
O O8 0.500000 0.500000 0.037677
O O9 0.725266 0.372849 0.070728
O O10 0.500000 0.500000 0.449982
O O11 0.268454 0.626938 0.421195
O O12 0.265560 0.500000 0.502373
O O13 0.500000 0.727150 0.377800
O O14 0.247320 0.735872 0.336295
O O15 0.733015 0.373697 0.582862
O O16 0.000000 0.280893 0.589382
O O17 0.000000 0.000000 0.058562
O O18 0.213531 0.500000 0.304053
O O19 0.000000 0.673681 0.297756
#
# Coordination Sequence:
#
# PCOD8188984 Si02
#       8
#     4   8   4   4   8   8   4   8
#     4  10  22  36  53  80 113 144 181 226 269 320
#     4   9  17  33  58  82 105 138 180 221 265 322
#     4  10  20  36  59  84 111 145 187 231 277 324
#     4   9  18  33  54  75 100 140 187 222 256 311
#     4  10  19  35  56  77 104 143 184 221 263 317
#     4  10  20  37  58  83 112 146 187 228 270 326
#     4  11  23  37  54  81 116 151 185 227 278 325
#     4  10  20  33  52  82 112 134 170 225 277 321
#
# _framework density 18.202148999999999
#
# number of rings (size 3 to 8) (size 9 to 14) (size 15 to 20)
#    0.000    2.167    1.667    1.750    0.000    4.000 
#    0.000    2.500    0.000    2.000    0.000    0.000 
#    0.000    0.000    0.000    0.000    0.000    0.000 
#
# Total GULP energy -297681.963387 kJ/mol
# GULP energy per Si atom -12403.415141 kJ/mol
# Density = 1.816072 g / cm^3
# Si number density = 18.202149 Si / 1000 Ang^3
#
#
#
# Elastic Constant Matrix: (Units=GPa)
#
#
# Indices 1 2 3 4 5 6 
#
# 1 57.8164 46.0481 53.7300 0.0000 0.0000 0.0000
# 2 46.0481 134.1701 68.7320 0.0000 0.0000 0.0000
# 3 53.7300 68.7320 139.3425 0.0000 0.0000 0.0000
# 4 0.0000 0.0000 0.0000 40.3323 0.0000 0.0000
# 5 0.0000 0.0000 0.0000 0.0000 35.2233 0.0000
# 6 0.0000 0.0000 0.0000 0.0000 0.0000 15.3553
#
#
#
# Elastic Compliance Matrix: (Units=1/GPa)
#
#
# Indices 1 2 3 4 5 6 
#
# 1 0.030041 -0.005856 -0.008695 0.000000 0.000000 0.000000
# 2 -0.005856 0.011115 -0.003224 0.000000 0.000000 0.000000
# 3 -0.008695 -0.003224 0.012120 0.000000 0.000000 0.000000
# 4 0.000000 0.000000 0.000000 0.024794 0.000000 0.000000
# 5 0.000000 0.000000 0.000000 0.000000 0.028390 0.000000
# 6 0.000000 0.000000 0.000000 0.000000 0.000000 0.065124
#
#
# Mechanical properties :
#
#
# Convention : Reuss Voigt Hill
#
# Bulk Modulus (GPa) = 56.41940 74.26103 65.34022
# Shear Modulus (GPa) = 23.46948 29.03677 26.25312
#
# Velocity S-wave (km/s) = 3.59469 3.99838 3.80189
# Velocity P-wave (km/s) = 6.94927 7.88686 7.43286
#
# Compressibility (1/GPa) = 0.01772440
#
# Stress axis : x y z
#
# Youngs Moduli (GPa) = 33.28825 89.96988 82.50906
#
# Poissons Ratio (x) = 0.52685 0.71743
# Poissons Ratio (y) = 0.19493 0.26605
# Poissons Ratio (z) = 0.28944 0.29011
#
# Static dielectric constant tensor:
#      x y z
#    x 3.181490 0.000000 0.000000 
#    y 0.000000 3.239280 0.000000 
#    z 0.000000 0.000000 3.440250 
# 
# 
# High freq. dielectric constant tensor:
#      x y z
#    x 1.692610 0.000000 0.000000 
#    y 0.000000 1.695740 0.000000 
#    z 0.000000 0.000000 1.718810 
# 
# From -- ./inp_files/26991.got.cif
#   From: 2010.03.12/outbox.cif.g09.slc.cpg/sg44_14_cif.got.tgz:26991.got - 2010.04.14 02:36:11.
