data_PCOD8188694
_publ_section_title
;
Structure prediction by ZEFSAII (Michael W. Deem and Ramdas Pophale) SiO2 
 PCOD8188694
Probable space group: I M M 2
;
_chemical_formula_sum "Si O2"
_cell_formula_units_Z 56
_cell_length_a 12.383915
_cell_length_b 24.730808
_cell_length_c 10.299910
_cell_angle_alpha 90.000000
_cell_angle_beta 90.000000
_cell_angle_gamma 90.000000
_cell_volume 3154.493945
_symmetry_space_group_name_H-M "I M M 2"
_symmetry_group_IT_number 44
_symmetry_cell_setting 'orthorhombic'
loop_
_space_group_symop_operation_xyz
x,y,z
-x,-y,z
-x,y,z
x,-y,z
1/2+x,1/2+y,1/2+z
1/2-x,1/2-y,1/2+z
1/2-x,1/2+y,1/2+z
1/2+x,1/2-y,1/2+z
loop_
_atom_site_type_symbol
_atom_site_label
_atom_site_fract_x
_atom_site_fract_y
_atom_site_fract_z
Si Si1 0.232894 0.335079 0.722750
Si Si2 0.874423 0.438389 0.834982
Si Si3 0.877739 0.940313 0.812830
Si Si4 0.699674 0.439938 0.038522
Si Si5 0.624426 0.273728 0.220266
Si Si6 0.621642 0.669316 0.963742
Si Si7 0.374268 0.662671 0.468656
O O1 0.181593 0.395001 0.738010
O O2 0.138546 0.290672 0.712912
O O3 0.305214 0.315255 0.842411
O O4 0.305484 0.329293 0.596490
O O5 0.859182 0.500000 0.781034
O O6 0.819467 0.433121 0.977056
O O7 0.000000 0.424134 0.850942
O O8 0.794933 0.931370 0.693658
O O9 0.854197 0.899145 0.927705
O O10 0.000000 0.931913 0.758936
O O11 0.863147 0.000000 0.872461
O O12 0.653794 0.500000 0.007312
O O13 0.620184 0.395802 0.976840
O O14 0.500000 0.289380 0.219889
O O15 0.671688 0.298721 0.353904
O O16 0.673902 0.303094 0.092553
O O17 0.500000 0.689785 0.938452
O O18 0.500000 0.674342 0.499404
#
# Coordination Sequence:
#
# PCOD8188694 Si02
#       7
#     8   8   8   8   8   8   8
#     4  11  21  33  52  76 101 133 170 209 253 297
#     4   9  19  35  53  73  99 133 173 214 254 295
#     4   9  16  28  49  76 105 135 163 195 247 312
#     4   9  16  28  51  78  99 127 168 206 244 296
#     4  10  20  35  53  71  96 134 175 210 248 297
#     4  10  19  32  50  75 104 131 164 206 251 299
#     4  10  20  34  51  76 108 136 164 204 253 304
#
# _framework density 17.752452000000002
#
# number of rings (size 3 to 8) (size 9 to 14) (size 15 to 20)
#    0.000    2.286    1.429    2.143    0.000    1.429 
#    0.000    0.000    0.000    5.143    0.000    2.000 
#    0.000    0.000    0.000    0.000    0.000    0.000 
#
# Total GULP energy -347029.936102 kJ/mol
# GULP energy per Si atom -12393.926289 kJ/mol
# Density = 1.771205 g / cm^3
# Si number density = 17.752452 Si / 1000 Ang^3
#
#
#
# Elastic Constant Matrix: (Units=GPa)
#
#
# Indices 1 2 3 4 5 6 
#
# 1 57.4609 27.4943 38.4244 0.0000 0.0000 0.0000
# 2 27.4943 106.1746 43.6729 -0.0002 -0.0002 0.0000
# 3 38.4244 43.6729 117.7150 -0.0001 -0.0007 -0.0001
# 4 0.0000 -0.0002 -0.0001 21.1062 -0.0003 0.0000
# 5 0.0000 -0.0002 -0.0007 -0.0003 15.4263 0.0000
# 6 0.0000 0.0000 -0.0001 0.0000 0.0000 23.5800
#
#
#
# Elastic Compliance Matrix: (Units=1/GPa)
#
#
# Indices 1 2 3 4 5 6 
#
# 1 0.023272 -0.003424 -0.006326 0.000000 0.000000 0.000000
# 2 -0.003424 0.011618 -0.003193 0.000000 0.000000 0.000000
# 3 -0.006326 -0.003193 0.011745 0.000000 0.000000 0.000000
# 4 0.000000 0.000000 0.000000 0.047379 0.000001 0.000000
# 5 0.000000 0.000000 0.000000 0.000001 0.064825 0.000000
# 6 0.000000 0.000000 0.000000 0.000000 0.000000 0.042409
#
#
# Mechanical properties :
#
#
# Convention : Reuss Voigt Hill
#
# Bulk Modulus (GPa) = 48.19544 55.61486 51.90515
# Shear Modulus (GPa) = 21.36298 23.47309 22.41804
#
# Velocity S-wave (km/s) = 3.47274 3.64021 3.55746
# Velocity P-wave (km/s) = 6.57932 7.00458 6.79528
#
# Compressibility (1/GPa) = 0.02074885
#
# Stress axis : x y z
#
# Youngs Moduli (GPa) = 42.97051 86.06993 85.14596
#
# Poissons Ratio (x) = 0.29472 0.53863
# Poissons Ratio (y) = 0.14714 0.27185
# Poissons Ratio (z) = 0.27183 0.27480
#
# Static dielectric constant tensor:
#      x y z
#    x 3.083140 0.000000 0.000000 
#    y 0.000000 3.442840 0.000000 
#    z 0.000000 0.000000 3.213890 
# 
# 
# High freq. dielectric constant tensor:
#      x y z
#    x 1.659480 0.000000 0.000000 
#    y 0.000000 1.701490 0.000000 
#    z 0.000000 0.000000 1.676050 
# 
# From -- ./inp_files/12587.got.cif
#   From: 2010.03.12/outbox.cif.g09.slc.cpg/sg44_7_cif.got.tgz:12587.got - 2010.04.14 02:36:11.
