data_PCOD8188905
_publ_section_title
;
Structure prediction by ZEFSAII (Michael W. Deem and Ramdas Pophale) SiO2 
 PCOD8188905
Probable space group: I M M 2
;
_chemical_formula_sum "Si O2"
_cell_formula_units_Z 64
_cell_length_a 19.453131
_cell_length_b 8.960929
_cell_length_c 20.842615
_cell_angle_alpha 90.000000
_cell_angle_beta 90.000000
_cell_angle_gamma 90.000000
_cell_volume 3633.245582
_symmetry_space_group_name_H-M "I M M 2"
_symmetry_group_IT_number 44
_symmetry_cell_setting 'orthorhombic'
loop_
_space_group_symop_operation_xyz
x,y,z
-x,-y,z
-x,y,z
x,-y,z
1/2+x,1/2+y,1/2+z
1/2-x,1/2-y,1/2+z
1/2-x,1/2+y,1/2+z
1/2+x,1/2-y,1/2+z
loop_
_atom_site_type_symbol
_atom_site_label
_atom_site_fract_x
_atom_site_fract_y
_atom_site_fract_z
Si Si1 0.421532 0.827089 0.277350
Si Si2 0.792193 0.176720 0.585581
Si Si3 0.578148 0.673039 0.521320
Si Si4 0.284592 0.174781 0.711190
Si Si5 0.204530 0.323407 0.964102
Si Si6 0.076258 0.671576 0.154816
Si Si7 0.205111 0.176844 0.834051
Si Si8 0.422819 0.174572 0.129606
O O1 0.500000 0.796679 0.297751
O O2 0.373457 0.724899 0.321416
O O3 0.410433 0.780880 0.203475
O O4 0.402623 0.000000 0.287715
O O5 0.752633 0.241565 0.648059
O O6 0.752754 0.232350 0.522185
O O7 0.869705 0.238276 0.584387
O O8 0.794408 0.000000 0.586898
O O9 0.500000 0.702424 0.499271
O O10 0.597772 0.500000 0.516512
O O11 0.626876 0.767183 0.474839
O O12 0.588519 0.724075 0.594236
O O13 0.366272 0.211344 0.708089
O O14 0.252705 0.241366 0.776343
O O15 0.270768 0.000000 0.712047
O O16 0.204140 0.500000 0.957641
O O17 0.233333 0.251387 0.898897
O O18 0.085709 0.500000 0.131987
O O19 0.000000 0.696847 0.184317
O O20 0.209293 0.000000 0.840924
O O21 0.500000 0.220293 0.108992
O O22 0.411711 0.000000 0.120092
#
# Coordination Sequence:
#
# PCOD8188905 Si02
#       8
#     8   8   8   8   8   8   8   8
#     4   9  18  33  51  73 104 139 173 207 248 305
#     4  10  19  34  55  78 103 134 175 219 258 304
#     4  10  20  33  50  76 108 138 172 212 255 305
#     4   9  17  32  52  78 105 131 170 216 257 300
#     4  11  23  38  54  73 103 140 179 216 255 311
#     4   9  16  30  54  79 104 136 172 210 254 304
#     4  11  22  35  52  74 105 138 171 216 262 305
#     4   9  18  32  52  80 110 136 168 213 260 307
#
# _framework density 17.615103999999999
#
# number of rings (size 3 to 8) (size 9 to 14) (size 15 to 20)
#    0.000    2.250    2.500    1.875    0.000    2.750 
#    0.000    2.500    0.000    0.750    0.000    1.750 
#    0.000    0.000    0.000    0.000    0.000    0.000 
#
# Total GULP energy -396786.669133 kJ/mol
# GULP energy per Si atom -12399.583410 kJ/mol
# Density = 1.757501 g / cm^3
# Si number density = 17.615104 Si / 1000 Ang^3
#
#
#
# Elastic Constant Matrix: (Units=GPa)
#
#
# Indices 1 2 3 4 5 6 
#
# 1 111.6630 29.3676 64.8129 0.0000 0.0000 0.0000
# 2 29.3676 47.5269 37.1893 0.0000 0.0000 0.0000
# 3 64.8129 37.1893 122.2660 0.0000 0.0000 0.0000
# 4 0.0000 0.0000 0.0000 25.8292 0.0000 0.0000
# 5 0.0000 0.0000 0.0000 0.0000 24.6822 0.0000
# 6 0.0000 0.0000 0.0000 0.0000 0.0000 25.4068
#
#
#
# Elastic Compliance Matrix: (Units=1/GPa)
#
#
# Indices 1 2 3 4 5 6 
#
# 1 0.013381 -0.003567 -0.006008 0.000000 0.000000 0.000000
# 2 -0.003567 0.028564 -0.006797 0.000000 0.000000 0.000000
# 3 -0.006008 -0.006797 0.013431 0.000000 0.000000 0.000000
# 4 0.000000 0.000000 0.000000 0.038716 0.000000 0.000000
# 5 0.000000 0.000000 0.000000 0.000000 0.040515 0.000000
# 6 0.000000 0.000000 0.000000 0.000000 0.000000 0.039360
#
#
# Mechanical properties :
#
#
# Convention : Reuss Voigt Hill
#
# Bulk Modulus (GPa) = 44.18719 60.46615 52.32667
# Shear Modulus (GPa) = 23.33665 25.18937 24.26301
#
# Velocity S-wave (km/s) = 3.64374 3.78562 3.71536
# Velocity P-wave (km/s) = 6.54536 7.31497 6.94084
#
# Compressibility (1/GPa) = 0.02263099
#
# Stress axis : x y z
#
# Youngs Moduli (GPa) = 74.73257 35.00962 74.45245
#
# Poissons Ratio (x) = 0.12488 0.44733
# Poissons Ratio (y) = 0.26656 0.50607
# Poissons Ratio (z) = 0.44902 0.23797
#
# Static dielectric constant tensor:
#      x y z
#    x 3.417060 0.000000 0.000000 
#    y 0.000000 3.108700 0.000000 
#    z 0.000000 0.000000 3.212660 
# 
# 
# High freq. dielectric constant tensor:
#      x y z
#    x 1.683580 0.000000 0.000000 
#    y 0.000000 1.670960 0.000000 
#    z 0.000000 0.000000 1.657490 
# 
# From -- ./inp_files/20740.got.cif
#   From: 2010.03.12/outbox.cif.g09.slc.cpg/sg44_11_cif.got.tgz:20740.got - 2010.04.14 02:36:11.
