data_PCOD8188831
_publ_section_title
;
Structure prediction by ZEFSAII (Michael W. Deem and Ramdas Pophale) SiO2 
 PCOD8188831
Probable space group: I M M 2
;
_chemical_formula_sum "Si O2"
_cell_formula_units_Z 64
_cell_length_a 33.349423
_cell_length_b 8.749064
_cell_length_c 11.711191
_cell_angle_alpha 90.000000
_cell_angle_beta 90.000000
_cell_angle_gamma 90.000000
_cell_volume 3417.047231
_symmetry_space_group_name_H-M "I M M 2"
_symmetry_group_IT_number 44
_symmetry_cell_setting 'orthorhombic'
loop_
_space_group_symop_operation_xyz
x,y,z
-x,-y,z
-x,y,z
x,-y,z
1/2+x,1/2+y,1/2+z
1/2-x,1/2-y,1/2+z
1/2-x,1/2+y,1/2+z
1/2+x,1/2-y,1/2+z
loop_
_atom_site_type_symbol
_atom_site_label
_atom_site_fract_x
_atom_site_fract_y
_atom_site_fract_z
Si Si1 0.123745 0.180860 0.269690
Si Si2 0.955160 0.324995 0.628413
Si Si3 0.722979 0.676877 0.390062
Si Si4 0.856596 0.817873 0.014526
Si Si5 0.045285 0.180252 0.395249
Si Si6 0.310500 0.821214 0.934262
Si Si7 0.889930 0.677179 0.806459
Si Si8 0.821588 0.174731 0.668864
O O1 0.135024 0.237642 0.143045
O O2 0.078884 0.239225 0.304726
O O3 0.156994 0.242434 0.355145
O O4 0.125051 0.000000 0.276591
O O5 0.951643 0.500000 0.589624
O O6 0.939046 0.228106 0.520907
O O7 0.932536 0.296315 0.747035
O O8 0.000000 0.274450 0.656230
O O9 0.725718 0.500000 0.420750
O O10 0.687191 0.742790 0.470744
O O11 0.766248 0.752274 0.414455
O O12 0.715286 0.703220 0.255454
O O13 0.860270 0.000000 0.001695
O O14 0.890584 0.735108 0.937334
O O15 0.000000 0.246973 0.370356
O O16 0.042974 0.000000 0.390222
O O17 0.311349 0.000000 0.907576
O O18 0.320582 0.792543 0.065657
O O19 0.876431 0.500000 0.799371
O O20 0.860947 0.791106 0.740209
O O21 0.822260 0.000000 0.624742
#
# Coordination Sequence:
#
# PCOD8188831 Si02
#       8
#     8   8   8   8   8   8   8   8
#     4  10  21  36  55  78 104 142 182 217 265 320
#     4   9  18  32  51  76 106 137 168 209 263 318
#     4   8  18  35  52  71 100 136 171 210 259 310
#     4   9  19  37  56  73 103 143 177 212 260 320
#     4   9  18  33  53  78 107 137 174 220 265 311
#     4  11  22  34  52  79 107 134 172 223 264 305
#     4  10  19  33  54  78 102 132 172 216 260 307
#     4  10  20  36  54  73 101 136 171 208 258 313
#
# _framework density 18.729621000000002
#
# number of rings (size 3 to 8) (size 9 to 14) (size 15 to 20)
#    0.000    2.500    0.000    2.625    1.750    4.000 
#    0.000    6.250    0.000    0.750    0.000    0.000 
#    0.000    0.000    0.000    0.000    0.000    0.000 
#
# Total GULP energy -396628.511930 kJ/mol
# GULP energy per Si atom -12394.640998 kJ/mol
# Density = 1.868699 g / cm^3
# Si number density = 18.729621 Si / 1000 Ang^3
#
#
#
# Elastic Constant Matrix: (Units=GPa)
#
#
# Indices 1 2 3 4 5 6 
#
# 1 110.5682 22.4743 71.5710 0.0000 0.0000 0.0000
# 2 22.4743 16.0488 18.6906 0.0000 0.0000 0.0000
# 3 71.5710 18.6906 133.5352 0.0000 0.0000 0.0000
# 4 0.0000 0.0000 0.0000 19.2587 0.0000 0.0000
# 5 0.0000 0.0000 0.0000 0.0000 18.4526 0.0000
# 6 0.0000 0.0000 0.0000 0.0000 0.0000 23.0570
#
#
#
# Elastic Compliance Matrix: (Units=1/GPa)
#
#
# Indices 1 2 3 4 5 6 
#
# 1 0.016486 -0.015288 -0.006696 0.000000 0.000000 0.000000
# 2 -0.015288 0.088622 -0.004210 0.000000 0.000000 0.000000
# 3 -0.006696 -0.004210 0.011667 0.000000 0.000000 0.000000
# 4 0.000000 0.000000 0.000000 0.051925 0.000000 0.000000
# 5 0.000000 0.000000 0.000000 0.000000 0.054193 0.000000
# 6 0.000000 0.000000 0.000000 0.000000 0.000000 0.043371
#
#
# Mechanical properties :
#
#
# Convention : Reuss Voigt Hill
#
# Bulk Modulus (GPa) = 15.53130 53.95823 34.74477
# Shear Modulus (GPa) = 14.70089 21.98142 18.34116
#
# Velocity S-wave (km/s) = 2.80465 3.42953 3.13271
# Velocity P-wave (km/s) = 4.33572 6.67486 5.62815
#
# Compressibility (1/GPa) = 0.06438609
#
# Stress axis : x y z
#
# Youngs Moduli (GPa) = 60.65670 11.28382 85.71211
#
# Poissons Ratio (x) = 0.17251 0.57395
# Poissons Ratio (y) = 0.92734 0.36087
# Poissons Ratio (z) = 0.40617 0.04751
#
# Static dielectric constant tensor:
#      x y z
#    x 3.774410 0.000000 0.000000 
#    y 0.000000 3.284300 0.000000 
#    z 0.000000 0.000000 3.650010 
# 
# 
# High freq. dielectric constant tensor:
#      x y z
#    x 1.727940 0.000000 0.000000 
#    y 0.000000 1.711720 0.000000 
#    z 0.000000 0.000000 1.724670 
# 
# From -- ./inp_files/15111.got.cif
#   From: 2010.03.12/outbox.cif.g09.slc.cpg/sg44_8_cif.got.tgz:15111.got - 2010.04.14 02:36:11.
