data_PCOD8188798
_publ_section_title
;
Structure prediction by ZEFSAII (Michael W. Deem and Ramdas Pophale) SiO2 
 PCOD8188798
Probable space group: I M M 2
;
_chemical_formula_sum "Si O2"
_cell_formula_units_Z 48
_cell_length_a 28.092096
_cell_length_b 9.120818
_cell_length_c 10.418096
_cell_angle_alpha 90.000000
_cell_angle_beta 90.000000
_cell_angle_gamma 90.000000
_cell_volume 2669.354716
_symmetry_space_group_name_H-M "I M M 2"
_symmetry_group_IT_number 44
_symmetry_cell_setting 'orthorhombic'
loop_
_space_group_symop_operation_xyz
x,y,z
-x,-y,z
-x,y,z
x,-y,z
1/2+x,1/2+y,1/2+z
1/2-x,1/2-y,1/2+z
1/2-x,1/2+y,1/2+z
1/2+x,1/2-y,1/2+z
loop_
_atom_site_type_symbol
_atom_site_label
_atom_site_fract_x
_atom_site_fract_y
_atom_site_fract_z
Si Si1 0.296257 0.172789 0.428140
Si Si2 0.853717 0.672698 0.682312
Si Si3 0.358563 0.171754 0.674682
Si Si4 0.552998 0.830538 0.312382
Si Si5 0.053841 0.171264 0.078498
Si Si6 0.804168 0.674181 0.428457
O O1 0.321798 0.232033 0.299745
O O2 0.329234 0.214647 0.548271
O O3 0.247161 0.256046 0.442116
O O4 0.286519 0.000000 0.423769
O O5 0.848655 0.500000 0.679227
O O6 0.908937 0.717677 0.704324
O O7 0.835753 0.735808 0.546878
O O8 0.409384 0.253232 0.676017
O O9 0.329026 0.226455 0.797677
O O10 0.368868 0.000000 0.682262
O O11 0.500000 0.805722 0.256154
O O12 0.561846 0.734961 0.437393
O O13 0.561131 0.000000 0.352212
O O14 0.000000 0.203722 0.125832
O O15 0.064364 0.000000 0.073035
O O16 0.798612 0.500000 0.431912
#
# Coordination Sequence:
#
# PCOD8188798 Si02
#       6
#     8   8   8   8   8   8
#     4  10  19  33  52  72 100 137 175 210 248 297
#     4   9  17  32  51  74 103 131 162 206 253 295
#     4  10  20  35  53  76 105 136 172 211 251 301
#     4   9  16  30  54  77  98 129 167 206 253 304
#     4  10  20  33  52  79 105 129 166 214 258 302
#     4  10  21  34  50  74 105 136 170 211 251 295
#
# _framework density 17.981874000000001
#
# number of rings (size 3 to 8) (size 9 to 14) (size 15 to 20)
#    0.000    2.333    1.667    1.500    0.000    2.333 
#    0.000    1.667    0.000    3.000    0.000    2.333 
#    0.000    0.000    0.000    0.000    0.000    0.000 
#
# Total GULP energy -297586.518445 kJ/mol
# GULP energy per Si atom -12399.438269 kJ/mol
# Density = 1.794095 g / cm^3
# Si number density = 17.981874 Si / 1000 Ang^3
#
#
#
# Elastic Constant Matrix: (Units=GPa)
#
#
# Indices 1 2 3 4 5 6 
#
# 1 143.2141 45.0400 50.2721 0.0000 0.0000 0.0000
# 2 45.0400 41.9790 26.0230 0.0000 0.0000 0.0000
# 3 50.2721 26.0230 102.8171 0.0000 0.0000 0.0000
# 4 0.0000 0.0000 0.0000 9.6814 0.0000 0.0000
# 5 0.0000 0.0000 0.0000 0.0000 9.2275 0.0000
# 6 0.0000 0.0000 0.0000 0.0000 0.0000 32.5571
#
#
#
# Elastic Compliance Matrix: (Units=1/GPa)
#
#
# Indices 1 2 3 4 5 6 
#
# 1 0.011220 -0.010245 -0.002893 0.000000 0.000000 0.000000
# 2 -0.010245 0.037609 -0.004510 0.000000 0.000000 0.000000
# 3 -0.002893 -0.004510 0.012282 0.000000 0.000000 0.000000
# 4 0.000000 0.000000 0.000000 0.103291 0.000000 0.000000
# 5 0.000000 0.000000 0.000000 0.000000 0.108372 0.000000
# 6 0.000000 0.000000 0.000000 0.000000 0.000000 0.030715
#
#
# Mechanical properties :
#
#
# Convention : Reuss Voigt Hill
#
# Bulk Modulus (GPa) = 38.73588 58.96449 48.85018
# Shear Modulus (GPa) = 14.39312 21.40489 17.89901
#
# Velocity S-wave (km/s) = 2.83225 3.45390 3.15841
# Velocity P-wave (km/s) = 5.68189 6.98342 6.36601
#
# Compressibility (1/GPa) = 0.02581586
#
# Stress axis : x y z
#
# Youngs Moduli (GPa) = 89.12659 26.58959 81.42042
#
# Poissons Ratio (x) = 0.27240 0.23555
# Poissons Ratio (y) = 0.91308 0.36717
# Poissons Ratio (z) = 0.25785 0.11991
#
# Static dielectric constant tensor:
#      x y z
#    x 3.552000 0.000000 0.000000 
#    y 0.000000 3.116700 0.000000 
#    z 0.000000 0.000000 3.507590 
# 
# 
# High freq. dielectric constant tensor:
#      x y z
#    x 1.712990 0.000000 0.000000 
#    y 0.000000 1.673650 0.000000 
#    z 0.000000 0.000000 1.683240 
# 
# From -- ./inp_files/4905.got.cif
#   From: 2010.03.12/outbox.cif.g09.slc.cpg/sg44_3_cif.got.tgz:4905.got - 2010.04.14 02:36:11.
