data_PCOD8188597
_publ_section_title
;
Structure prediction by ZEFSAII (Michael W. Deem and Ramdas Pophale) SiO2 
 PCOD8188597
Probable space group: I M M 2
;
_chemical_formula_sum "Si O2"
_cell_formula_units_Z 64
_cell_length_a 14.601594
_cell_length_b 9.138276
_cell_length_c 27.901411
_cell_angle_alpha 90.000000
_cell_angle_beta 90.000000
_cell_angle_gamma 90.000000
_cell_volume 3722.980023
_symmetry_space_group_name_H-M "I M M 2"
_symmetry_group_IT_number 44
_symmetry_cell_setting 'orthorhombic'
loop_
_space_group_symop_operation_xyz
x,y,z
-x,-y,z
-x,y,z
x,-y,z
1/2+x,1/2+y,1/2+z
1/2-x,1/2-y,1/2+z
1/2-x,1/2+y,1/2+z
1/2+x,1/2-y,1/2+z
loop_
_atom_site_type_symbol
_atom_site_label
_atom_site_fract_x
_atom_site_fract_y
_atom_site_fract_z
Si Si1 0.851191 0.662631 0.501030
Si Si2 0.710394 0.673025 0.090619
Si Si3 0.606290 0.670899 0.288469
Si Si4 0.708549 0.173021 0.371210
Si Si5 0.398786 0.673480 0.180912
Si Si6 0.148767 0.162955 0.961393
Si Si7 0.900611 0.832734 0.411649
Si Si8 0.598977 0.167388 0.550684
O O1 0.890662 0.500000 0.510242
O O2 0.852999 0.752718 0.550399
O O3 0.749823 0.653676 0.481320
O O4 0.910393 0.742631 0.460737
O O5 0.697812 0.500000 0.085823
O O6 0.675518 0.730473 0.142293
O O7 0.817440 0.720150 0.084721
O O8 0.500000 0.703697 0.300402
O O9 0.627393 0.500000 0.295926
O O10 0.674302 0.764538 0.321019
O O11 0.629315 0.722554 0.234334
O O12 0.646103 0.243634 0.412716
O O13 0.816025 0.218304 0.378039
O O14 0.694928 0.000000 0.372151
O O15 0.500000 0.735313 0.168120
O O16 0.403347 0.500000 0.180088
O O17 0.109998 0.000000 0.951059
O O18 0.089028 0.241166 0.001896
O O19 0.000000 0.815439 0.385143
O O20 0.882363 0.000000 0.426435
O O21 0.500000 0.183424 0.577401
O O22 0.617778 0.000000 0.535886
#
# Coordination Sequence:
#
# PCOD8188597 Si02
#       8
#     8   8   8   8   8   8   8   8
#     4   9  17  28  42  64  93 120 148 185 224 258
#     4   9  16  28  47  67  88 118 153 186 222 266
#     4   9  18  33  51  69  90 117 149 186 230 279
#     4  10  19  31  49  71  93 118 150 190 232 270
#     4   8  15  29  49  70  88 110 145 185 223 268
#     4   9  17  29  44  62  87 120 154 185 218 259
#     4   9  18  32  48  66  91 125 160 187 215 262
#     4   9  17  28  42  63  92 123 153 185 220 259
#
# _framework density 17.190529999999999
#
# number of rings (size 3 to 8) (size 9 to 14) (size 15 to 20)
#    0.000    3.000    0.000    1.875    0.000    5.250 
#    0.000    1.875    0.000    1.500    0.000    1.750 
#    0.000    0.000    0.000    0.000    0.000    0.000 
#
# Total GULP energy -396545.219276 kJ/mol
# GULP energy per Si atom -12392.038102 kJ/mol
# Density = 1.715140 g / cm^3
# Si number density = 17.190530 Si / 1000 Ang^3
#
#
#
# Elastic Constant Matrix: (Units=GPa)
#
#
# Indices 1 2 3 4 5 6 
#
# 1 101.0008 32.8362 63.9797 0.0000 0.0000 0.0000
# 2 32.8362 66.3759 41.9132 0.0000 0.0000 0.0000
# 3 63.9797 41.9132 124.4705 0.0000 0.0000 0.0000
# 4 0.0000 0.0000 0.0000 23.2802 0.0000 0.0000
# 5 0.0000 0.0000 0.0000 0.0000 22.8292 0.0000
# 6 0.0000 0.0000 0.0000 0.0000 0.0000 12.4699
#
#
#
# Elastic Compliance Matrix: (Units=1/GPa)
#
#
# Indices 1 2 3 4 5 6 
#
# 1 0.015227 -0.003290 -0.006719 0.000000 0.000000 0.000000
# 2 -0.003290 0.019845 -0.004991 0.000000 0.000000 0.000000
# 3 -0.006719 -0.004991 0.013168 0.000000 0.000000 0.000000
# 4 0.000000 0.000000 0.000000 0.042955 0.000000 0.000000
# 5 0.000000 0.000000 0.000000 0.000000 0.043804 0.000000
# 6 0.000000 0.000000 0.000000 0.000000 0.000000 0.080193
#
#
# Mechanical properties :
#
#
# Convention : Reuss Voigt Hill
#
# Bulk Modulus (GPa) = 54.82565 63.25617 59.04091
# Shear Modulus (GPa) = 19.89876 21.92374 20.91125
#
# Velocity S-wave (km/s) = 3.40596 3.57506 3.49153
# Velocity P-wave (km/s) = 6.88691 7.34292 7.11857
#
# Compressibility (1/GPa) = 0.01823964
#
# Stress axis : x y z
#
# Youngs Moduli (GPa) = 65.67444 50.39029 75.93946
#
# Poissons Ratio (x) = 0.16578 0.51023
# Poissons Ratio (y) = 0.21607 0.37904
# Poissons Ratio (z) = 0.44126 0.25152
#
# Static dielectric constant tensor:
#      x y z
#    x 3.268000 0.000000 0.000000 
#    y 0.000000 3.244800 0.000000 
#    z 0.000000 0.000000 3.178780 
# 
# 
# High freq. dielectric constant tensor:
#      x y z
#    x 1.662100 0.000000 0.000000 
#    y 0.000000 1.654740 0.000000 
#    z 0.000000 0.000000 1.636930 
# 
# From -- ./inp_files/27362.got.cif
#   From: 2010.03.12/outbox.cif.g09.slc.cpg/sg44_14_cif.got.tgz:27362.got - 2010.04.14 02:36:11.
