data_PCOD8188718
_publ_section_title
;
Structure prediction by ZEFSAII (Michael W. Deem and Ramdas Pophale) SiO2 
 PCOD8188718
Probable space group: I M M 2
;
_chemical_formula_sum "Si O2"
_cell_formula_units_Z 56
_cell_length_a 14.257304
_cell_length_b 9.181493
_cell_length_c 23.154003
_cell_angle_alpha 90.000000
_cell_angle_beta 90.000000
_cell_angle_gamma 90.000000
_cell_volume 3030.936255
_symmetry_space_group_name_H-M "I M M 2"
_symmetry_group_IT_number 44
_symmetry_cell_setting 'orthorhombic'
loop_
_space_group_symop_operation_xyz
x,y,z
-x,-y,z
-x,y,z
x,-y,z
1/2+x,1/2+y,1/2+z
1/2-x,1/2-y,1/2+z
1/2-x,1/2+y,1/2+z
1/2+x,1/2-y,1/2+z
loop_
_atom_site_type_symbol
_atom_site_label
_atom_site_fract_x
_atom_site_fract_y
_atom_site_fract_z
Si Si1 0.710911 0.669693 0.776730
Si Si2 0.107989 0.327586 0.379323
Si Si3 0.702249 0.171285 0.997538
Si Si4 0.890010 0.166537 0.603380
Si Si5 0.897638 0.172169 0.039095
Si Si6 0.892011 0.834362 0.166006
Si Si7 0.604965 0.832393 0.218183
O O1 0.684689 0.500000 0.784843
O O2 0.671112 0.757152 0.830319
O O3 0.666517 0.737886 0.718037
O O4 0.823491 0.692880 0.771541
O O5 0.115170 0.500000 0.373543
O O6 0.151432 0.273632 0.439846
O O7 0.000000 0.275412 0.375159
O O8 0.659335 0.251303 0.051684
O O9 0.813894 0.211072 0.994796
O O10 0.686925 0.000000 0.006057
O O11 0.860839 0.238512 0.663805
O O12 0.000000 0.181367 0.593489
O O13 0.856885 0.000000 0.604169
O O14 0.874464 0.238812 0.103002
O O15 0.000000 0.231203 0.017338
O O16 0.906217 0.000000 0.047115
O O17 0.000000 0.821682 0.183379
O O18 0.857600 0.000000 0.162486
O O19 0.500000 0.787186 0.238382
O O20 0.607476 0.000000 0.198327
#
# Coordination Sequence:
#
# PCOD8188718 Si02
#       7
#     8   8   8   8   8   8   8
#     4  10  19  32  52  74  96 129 172 210 245 293
#     4  10  22  37  50  69 100 135 170 211 259 305
#     4  10  19  33  53  73  98 136 176 211 250 298
#     4  10  20  32  49  77 109 136 164 204 254 303
#     4   8  14  26  47  75 101 122 153 201 248 292
#     4   8  13  22  40  69  98 118 144 190 242 284
#     4   9  18  33  53  77 104 133 166 204 248 302
#
# _framework density 18.476140000000001
#
# number of rings (size 3 to 8) (size 9 to 14) (size 15 to 20)
#    0.000    2.714    0.000    3.000    0.000    5.714 
#    0.000    0.714    0.000    1.286    0.000    0.000 
#    0.000    0.000    0.000    0.000    0.000    0.000 
#
# Total GULP energy -347022.743469 kJ/mol
# GULP energy per Si atom -12393.669410 kJ/mol
# Density = 1.843409 g / cm^3
# Si number density = 18.476140 Si / 1000 Ang^3
#
#
#
# Elastic Constant Matrix: (Units=GPa)
#
#
# Indices 1 2 3 4 5 6 
#
# 1 109.2951 33.7290 85.4676 0.0000 0.0000 0.0000
# 2 33.7290 33.6874 30.0843 0.0000 0.0000 0.0000
# 3 85.4676 30.0843 90.8890 0.0000 0.0000 0.0000
# 4 0.0000 0.0000 0.0000 27.0061 0.0000 0.0000
# 5 0.0000 0.0000 0.0000 0.0000 33.2241 0.0000
# 6 0.0000 0.0000 0.0000 0.0000 0.0000 18.4562
#
#
#
# Elastic Compliance Matrix: (Units=1/GPa)
#
#
# Indices 1 2 3 4 5 6 
#
# 1 0.036129 -0.008281 -0.031233 0.000000 0.000000 0.000000
# 2 -0.008281 0.044040 -0.006790 0.000000 0.000000 0.000000
# 3 -0.031233 -0.006790 0.042619 0.000000 0.000000 0.000000
# 4 0.000000 0.000000 0.000000 0.037029 0.000000 0.000000
# 5 0.000000 0.000000 0.000000 0.000000 0.030099 0.000000
# 6 0.000000 0.000000 0.000000 0.000000 0.000000 0.054182
#
#
# Mechanical properties :
#
#
# Convention : Reuss Voigt Hill
#
# Bulk Modulus (GPa) = 33.13391 59.15926 46.14659
# Shear Modulus (GPa) = 14.41897 21.37665 17.89781
#
# Velocity S-wave (km/s) = 2.79661 3.40514 3.11577
# Velocity P-wave (km/s) = 5.32920 6.89556 6.16235
#
# Compressibility (1/GPa) = 0.03018056
#
# Stress axis : x y z
#
# Youngs Moduli (GPa) = 27.67883 22.70667 23.46345
#
# Poissons Ratio (x) = 0.18804 0.73282
# Poissons Ratio (y) = 0.22922 0.15931
# Poissons Ratio (z) = 0.86448 0.15418
#
# Static dielectric constant tensor:
#      x y z
#    x 3.827360 0.000000 0.000000 
#    y 0.000000 3.082810 0.000000 
#    z 0.000000 0.000000 3.318210 
# 
# 
# High freq. dielectric constant tensor:
#      x y z
#    x 1.736370 0.000000 0.000000 
#    y 0.000000 1.676010 0.000000 
#    z 0.000000 0.000000 1.698190 
# 
# From -- ./inp_files/23036.got.cif
#   From: 2010.03.12/outbox.cif.g09.slc.cpg/sg44_12_cif.got.tgz:23036.got - 2010.04.14 02:36:11.
