data_PCOD8188009
_publ_section_title
;
Structure prediction by ZEFSAII (Michael W. Deem and Ramdas Pophale) SiO2 
 PCOD8188009
Probable space group: I M M 2
;
_chemical_formula_sum "Si O2"
_cell_formula_units_Z 64
_cell_length_a 25.997843
_cell_length_b 9.332456
_cell_length_c 18.310311
_cell_angle_alpha 90.000000
_cell_angle_beta 90.000000
_cell_angle_gamma 90.000000
_cell_volume 4442.515877
_symmetry_space_group_name_H-M "I M M 2"
_symmetry_group_IT_number 44
_symmetry_cell_setting 'orthorhombic'
loop_
_space_group_symop_operation_xyz
x,y,z
-x,-y,z
-x,y,z
x,-y,z
1/2+x,1/2+y,1/2+z
1/2-x,1/2-y,1/2+z
1/2-x,1/2+y,1/2+z
1/2+x,1/2-y,1/2+z
loop_
_atom_site_type_symbol
_atom_site_label
_atom_site_fract_x
_atom_site_fract_y
_atom_site_fract_z
Si Si1 0.261343 0.831582 0.109080
Si Si2 0.558499 0.167926 0.959418
Si Si3 0.653959 0.667862 0.197157
Si Si4 0.695153 0.657828 0.738538
Si Si5 0.249663 0.833901 0.941767
Si Si6 0.301824 0.161986 0.323810
Si Si7 0.852783 0.334278 0.355911
Si Si8 0.557892 0.663887 0.102861
O O1 0.308600 0.736330 0.136779
O O2 0.209710 0.795543 0.155907
O O3 0.275740 0.000000 0.117887
O O4 0.249367 0.790250 0.026224
O O5 0.500000 0.206954 0.938258
O O6 0.595203 0.222465 0.894188
O O7 0.566362 0.000000 0.971945
O O8 0.575472 0.241924 0.034282
O O9 0.667516 0.500000 0.206319
O O10 0.658147 0.747365 0.275056
O O11 0.595574 0.691693 0.170680
O O12 0.670724 0.500000 0.739207
O O13 0.748154 0.660846 0.782307
O O14 0.653843 0.760425 0.776942
O O15 0.206075 0.739678 0.901671
O O16 0.305817 0.798925 0.909845
O O17 0.235846 0.000000 0.930439
O O18 0.322293 0.000000 0.335829
O O19 0.856771 0.500000 0.338293
O O20 0.500000 0.704661 0.127806
O O21 0.560976 0.500000 0.077028
#
# Coordination Sequence:
#
# PCOD8188009 Si02
#       8
#     8   8   8   8   8   8   8   8
#     4   9  17  28  41  58  81 106 131 162 197 232
#     4   9  17  28  41  57  77 102 133 166 197 229
#     4  10  18  27  41  58  77 105 137 164 193 231
#     4   8  15  26  38  53  74 101 129 156 188 225
#     4   9  16  26  40  57  78 103 130 158 191 232
#     4   9  17  28  40  55  77 102 129 162 195 228
#     4   9  16  25  38  55  75 101 130 159 190 224
#     4   9  18  30  41  56  79 104 131 164 197 227
#
# _framework density 14.406250999999999
#
# number of rings (size 3 to 8) (size 9 to 14) (size 15 to 20)
#    0.000    3.000    0.000    2.250    0.000    6.000 
#    0.000    2.500    0.000    0.000    0.000    0.000 
#    0.000    1.000    0.000    4.750    0.000    2.750 
#
# Total GULP energy -396692.401226 kJ/mol
# GULP energy per Si atom -12396.637538 kJ/mol
# Density = 1.437346 g / cm^3
# Si number density = 14.406251 Si / 1000 Ang^3
#
#
#
# Elastic Constant Matrix: (Units=GPa)
#
#
# Indices 1 2 3 4 5 6 
#
# 1 61.6678 38.1291 43.6763 0.0000 0.0000 0.0000
# 2 38.1291 68.5261 47.0268 0.0000 0.0000 0.0000
# 3 43.6763 47.0268 100.6151 0.0000 0.0000 0.0000
# 4 0.0000 0.0000 0.0000 25.4869 0.0000 0.0000
# 5 0.0000 0.0000 0.0000 0.0000 23.4760 0.0000
# 6 0.0000 0.0000 0.0000 0.0000 0.0000 16.5327
#
#
#
# Elastic Compliance Matrix: (Units=1/GPa)
#
#
# Indices 1 2 3 4 5 6 
#
# 1 0.027804 -0.010582 -0.007124 0.000000 0.000000 0.000000
# 2 -0.010582 0.025511 -0.007330 0.000000 0.000000 0.000000
# 3 -0.007124 -0.007330 0.016457 0.000000 0.000000 0.000000
# 4 0.000000 0.000000 0.000000 0.039236 0.000000 0.000000
# 5 0.000000 0.000000 0.000000 0.000000 0.042597 0.000000
# 6 0.000000 0.000000 0.000000 0.000000 0.000000 0.060486
#
#
# Mechanical properties :
#
#
# Convention : Reuss Voigt Hill
#
# Bulk Modulus (GPa) = 50.75878 54.27483 52.51681
# Shear Modulus (GPa) = 18.60601 19.89757 19.25179
#
# Velocity S-wave (km/s) = 3.59768 3.72045 3.65958
# Velocity P-wave (km/s) = 7.25038 7.49746 7.37496
#
# Compressibility (1/GPa) = 0.01970102
#
# Stress axis : x y z
#
# Youngs Moduli (GPa) = 35.96602 39.19804 60.76324
#
# Poissons Ratio (x) = 0.41479 0.43285
# Poissons Ratio (y) = 0.38059 0.44542
# Poissons Ratio (z) = 0.25621 0.28733
#
# Static dielectric constant tensor:
#      x y z
#    x 2.677060 0.000000 0.000000 
#    y 0.000000 2.935370 0.000000 
#    z 0.000000 0.000000 2.891550 
# 
# 
# High freq. dielectric constant tensor:
#      x y z
#    x 1.514660 0.000000 0.000000 
#    y 0.000000 1.558410 0.000000 
#    z 0.000000 0.000000 1.539630 
# 
# From -- ./inp_files/20854.got.cif
#   From: 2010.03.12/outbox.cif.g09.slc.cpg/sg44_11_cif.got.tgz:20854.got - 2010.04.14 02:36:11.
