data_PCOD8188653
_publ_section_title
;
Structure prediction by ZEFSAII (Michael W. Deem and Ramdas Pophale) SiO2 
 PCOD8188653
Probable space group: I M M 2
;
_chemical_formula_sum "Si O2"
_cell_formula_units_Z 56
_cell_length_a 22.700150
_cell_length_b 9.047807
_cell_length_c 14.239605
_cell_angle_alpha 90.000000
_cell_angle_beta 90.000000
_cell_angle_gamma 90.000000
_cell_volume 2924.623716
_symmetry_space_group_name_H-M "I M M 2"
_symmetry_group_IT_number 44
_symmetry_cell_setting 'orthorhombic'
loop_
_space_group_symop_operation_xyz
x,y,z
-x,-y,z
-x,y,z
x,-y,z
1/2+x,1/2+y,1/2+z
1/2-x,1/2-y,1/2+z
1/2-x,1/2+y,1/2+z
1/2+x,1/2-y,1/2+z
loop_
_atom_site_type_symbol
_atom_site_label
_atom_site_fract_x
_atom_site_fract_y
_atom_site_fract_z
Si Si1 0.108528 0.328356 0.297720
Si Si2 0.721549 0.830518 0.476365
Si Si3 0.656298 0.170443 0.994868
Si Si4 0.500000 0.675290 0.701546
Si Si5 0.115320 0.171709 0.880603
Si Si6 0.780880 0.332183 0.189741
Si Si7 0.849107 0.828094 0.679000
Si Si8 0.000000 0.175581 0.986658
O O1 0.100300 0.500000 0.268633
O O2 0.109732 0.311150 0.410248
O O3 0.169067 0.259523 0.254955
O O4 0.056383 0.233515 0.255690
O O5 0.783352 0.748507 0.464841
O O6 0.673313 0.757681 0.410281
O O7 0.698212 0.817159 0.582511
O O8 0.730388 0.000000 0.446737
O O9 0.670210 0.000000 0.014781
O O10 0.626709 0.242266 0.087697
O O11 0.500000 0.500000 0.703529
O O12 0.500000 0.732519 0.593745
O O13 0.107861 0.193760 0.767947
O O14 0.124404 0.000000 0.905224
O O15 0.057816 0.236486 0.932784
O O16 0.775426 0.500000 0.223385
O O17 0.715997 0.261355 0.203142
O O18 0.842985 0.000000 0.650770
O O19 0.000000 0.000000 0.981182
#
# Coordination Sequence:
#
# PCOD8188653 Si02
#       8
#     8   8   8   4   8   8   8   4
#     4  10  20  36  56  75 101 141 182 214 255 313
#     4  10  19  31  51  81 113 141 174 218 265 314
#     4  10  20  34  54  79 107 140 177 218 265 316
#     4  11  23  37  54  79 108 134 169 219 266 307
#     4  10  19  34  55  76 105 145 182 216 262 317
#     4   8  15  29  49  74 102 133 171 212 255 308
#     4   9  18  33  53  77 107 141 176 217 264 315
#     4   9  20  37  56  81 108 134 171 219 264 311
#
# _framework density 19.147762
#
# number of rings (size 3 to 8) (size 9 to 14) (size 15 to 20)
#    0.000    2.429    0.000    3.643    0.000    4.000 
#    0.000    4.643    0.000    0.857    0.000    0.000 
#    0.000    0.000    0.000    0.000    0.000    0.000 
#
# Total GULP energy -347139.383035 kJ/mol
# GULP energy per Si atom -12397.835108 kJ/mol
# Density = 1.910418 g / cm^3
# Si number density = 19.147762 Si / 1000 Ang^3
#
#
#
# Elastic Constant Matrix: (Units=GPa)
#
#
# Indices 1 2 3 4 5 6 
#
# 1 70.6183 33.5979 60.0079 0.0000 0.0000 0.0000
# 2 33.5979 79.5547 51.5299 0.0000 0.0000 0.0000
# 3 60.0079 51.5299 127.1615 0.0000 0.0000 0.0000
# 4 0.0000 0.0000 0.0000 29.6367 0.0000 0.0000
# 5 0.0000 0.0000 0.0000 0.0000 31.4443 0.0000
# 6 0.0000 0.0000 0.0000 0.0000 0.0000 23.0153
#
#
#
# Elastic Compliance Matrix: (Units=1/GPa)
#
#
# Indices 1 2 3 4 5 6 
#
# 1 0.024490 -0.003874 -0.009987 0.000000 0.000000 0.000000
# 2 -0.003874 0.017656 -0.005327 0.000000 0.000000 0.000000
# 3 -0.009987 -0.005327 0.014736 0.000000 0.000000 0.000000
# 4 0.000000 0.000000 0.000000 0.033742 0.000000 0.000000
# 5 0.000000 0.000000 0.000000 0.000000 0.031802 0.000000
# 6 0.000000 0.000000 0.000000 0.000000 0.000000 0.043449
#
#
# Mechanical properties :
#
#
# Convention : Reuss Voigt Hill
#
# Bulk Modulus (GPa) = 54.03524 63.06734 58.55129
# Shear Modulus (GPa) = 23.76195 25.63253 24.69724
#
# Velocity S-wave (km/s) = 3.52657 3.66275 3.59531
# Velocity P-wave (km/s) = 6.69804 7.13417 6.91954
#
# Compressibility (1/GPa) = 0.01850644
#
# Stress axis : x y z
#
# Youngs Moduli (GPa) = 40.83237 56.63695 67.86273
#
# Poissons Ratio (x) = 0.21940 0.67776
# Poissons Ratio (y) = 0.15818 0.36149
# Poissons Ratio (z) = 0.40780 0.30169
#
# Static dielectric constant tensor:
#      x y z
#    x 3.413440 0.000000 0.000000 
#    y 0.000000 3.311710 0.000000 
#    z 0.000000 0.000000 3.673360 
# 
# 
# High freq. dielectric constant tensor:
#      x y z
#    x 1.723620 0.000000 0.000000 
#    y 0.000000 1.722740 0.000000 
#    z 0.000000 0.000000 1.757810 
# 
# From -- ./inp_files/19216.got.cif
#   From: 2010.03.12/outbox.cif.g09.slc.cpg/sg44_10_cif.got.tgz:19216.got - 2010.04.14 02:36:11.
