data_PCOD8188628
_publ_section_title
;
Structure prediction by ZEFSAII (Michael W. Deem and Ramdas Pophale) SiO2 
 PCOD8188628
Probable space group: I M M 2
;
_chemical_formula_sum "Si O2"
_cell_formula_units_Z 64
_cell_length_a 9.153014
_cell_length_b 15.596597
_cell_length_c 23.156657
_cell_angle_alpha 90.000000
_cell_angle_beta 90.000000
_cell_angle_gamma 90.000000
_cell_volume 3305.748732
_symmetry_space_group_name_H-M "I M M 2"
_symmetry_group_IT_number 44
_symmetry_cell_setting 'orthorhombic'
loop_
_space_group_symop_operation_xyz
x,y,z
-x,-y,z
-x,y,z
x,-y,z
1/2+x,1/2+y,1/2+z
1/2-x,1/2-y,1/2+z
1/2-x,1/2+y,1/2+z
1/2+x,1/2-y,1/2+z
loop_
_atom_site_type_symbol
_atom_site_label
_atom_site_fract_x
_atom_site_fract_y
_atom_site_fract_z
Si Si1 0.657382 0.402222 0.053980
Si Si2 0.829558 0.259878 0.399722
Si Si3 0.828778 0.599854 0.945841
Si Si4 0.832066 0.844523 0.105817
Si Si5 0.667000 0.590198 0.728718
Si Si6 0.328856 0.768541 0.770338
Si Si7 0.331105 0.311082 0.163028
Si Si8 0.329849 0.097761 0.992454
O O1 0.500000 0.355738 0.041204
O O2 0.638027 0.500000 0.039543
O O3 0.694366 0.393027 0.121773
O O4 0.781073 0.368632 0.010141
O O5 0.748382 0.168097 0.403704
O O6 0.796478 0.296947 0.335572
O O7 0.777166 0.333694 0.443953
O O8 0.000000 0.240311 0.406816
O O9 0.785259 0.500000 0.932234
O O10 0.000000 0.611627 0.940368
O O11 0.822663 0.909445 0.159320
O O12 0.739395 0.762344 0.123721
O O13 0.763646 0.888339 0.049737
O O14 0.000000 0.818985 0.093004
O O15 0.500000 0.589540 0.748839
O O16 0.741074 0.500000 0.749263
O O17 0.739390 0.673328 0.758335
O O18 0.500000 0.770528 0.755434
O O19 0.248613 0.829700 0.724022
O O20 0.500000 0.291019 0.175597
O O21 0.500000 0.112048 0.006561
O O22 0.303478 0.000000 0.970264
#
# Coordination Sequence:
#
# PCOD8188628 Si02
#       8
#     8   8   8   8   8   8   8   8
#     4   9  18  33  52  74 101 133 169 208 253 311
#     4  10  21  37  55  74 101 142 186 222 260 310
#     4  10  21  35  53  81 113 140 169 211 263 315
#     4  10  19  31  50  76 105 133 163 204 255 315
#     4   8  14  26  45  69  95 121 151 192 241 291
#     4   9  19  34  51  72  98 131 174 217 253 300
#     4  10  19  32  52  76 102 133 168 209 261 313
#     4  10  21  36  53  75 105 140 179 224 270 312
#
# _framework density 19.360213000000002
#
# number of rings (size 3 to 8) (size 9 to 14) (size 15 to 20)
#    0.000    2.500    0.000    3.000    0.000    7.000 
#    0.000    1.875    0.000    4.125    0.000    0.000 
#    0.000    0.000    0.000    0.000    0.000    0.000 
#
# Total GULP energy -396439.788510 kJ/mol
# GULP energy per Si atom -12388.743391 kJ/mol
# Density = 1.931615 g / cm^3
# Si number density = 19.360213 Si / 1000 Ang^3
#
#
#
# Elastic Constant Matrix: (Units=GPa)
#
#
# Indices 1 2 3 4 5 6 
#
# 1 70.2799 26.2337 32.8637 0.0000 0.0000 0.0000
# 2 26.2337 49.5922 23.8396 0.0000 0.0000 0.0000
# 3 32.8637 23.8396 91.3169 0.0000 0.0000 0.0000
# 4 0.0000 0.0000 0.0000 17.4730 0.0000 0.0000
# 5 0.0000 0.0000 0.0000 0.0000 29.6516 0.0000
# 6 0.0000 0.0000 0.0000 0.0000 0.0000 19.5655
#
#
#
# Elastic Compliance Matrix: (Units=1/GPa)
#
#
# Indices 1 2 3 4 5 6 
#
# 1 0.019506 -0.007940 -0.004947 0.000000 0.000000 0.000000
# 2 -0.007940 0.026291 -0.004006 0.000000 0.000000 0.000000
# 3 -0.004947 -0.004006 0.013777 0.000000 0.000000 0.000000
# 4 0.000000 0.000000 0.000000 0.057231 0.000000 0.000000
# 5 0.000000 0.000000 0.000000 0.000000 0.033725 0.000000
# 6 0.000000 0.000000 0.000000 0.000000 0.000000 0.051110
#
#
# Mechanical properties :
#
#
# Convention : Reuss Voigt Hill
#
# Bulk Modulus (GPa) = 38.77916 41.89589 40.33753
# Shear Modulus (GPa) = 20.48994 21.88816 21.18905
#
# Velocity S-wave (km/s) = 3.25676 3.36605 3.31186
# Velocity P-wave (km/s) = 5.84943 6.06583 5.95861
#
# Compressibility (1/GPa) = 0.02578705
#
# Stress axis : x y z
#
# Youngs Moduli (GPa) = 51.26613 38.03650 72.58460
#
# Poissons Ratio (x) = 0.30202 0.35908
# Poissons Ratio (y) = 0.40707 0.29077
# Poissons Ratio (z) = 0.25361 0.15237
#
# Static dielectric constant tensor:
#      x y z
#    x 3.502110 0.000000 0.000000 
#    y 0.000000 3.603870 0.000000 
#    z 0.000000 0.000000 3.564030 
# 
# 
# High freq. dielectric constant tensor:
#      x y z
#    x 1.738370 0.000000 0.000000 
#    y 0.000000 1.740880 0.000000 
#    z 0.000000 0.000000 1.749570 
# 
# From -- ./inp_files/25142.got.cif
#   From: 2010.03.12/outbox.cif.g09.slc.cpg/sg44_13_cif.got.tgz:25142.got - 2010.04.14 02:36:11.
