data_PCOD8188933
_publ_section_title
;
Structure prediction by ZEFSAII (Michael W. Deem and Ramdas Pophale) SiO2 
 PCOD8188933
Probable space group: I M M 2
;
_chemical_formula_sum "Si O2"
_cell_formula_units_Z 64
_cell_length_a 9.135247
_cell_length_b 24.668036
_cell_length_c 15.117059
_cell_angle_alpha 90.000000
_cell_angle_beta 90.000000
_cell_angle_gamma 90.000000
_cell_volume 3406.608110
_symmetry_space_group_name_H-M "I M M 2"
_symmetry_group_IT_number 44
_symmetry_cell_setting 'orthorhombic'
loop_
_space_group_symop_operation_xyz
x,y,z
-x,-y,z
-x,y,z
x,-y,z
1/2+x,1/2+y,1/2+z
1/2-x,1/2-y,1/2+z
1/2-x,1/2+y,1/2+z
1/2+x,1/2-y,1/2+z
loop_
_atom_site_type_symbol
_atom_site_label
_atom_site_fract_x
_atom_site_fract_y
_atom_site_fract_z
Si Si1 0.667114 0.561720 0.073860
Si Si2 0.169800 0.646723 0.586189
Si Si3 0.826943 0.389512 0.911736
Si Si4 0.173954 0.439405 0.727667
Si Si5 0.171636 0.150241 0.716706
Si Si6 0.168207 0.662729 0.391101
Si Si7 0.331232 0.740757 0.674950
Si Si8 0.834179 0.784808 0.374648
O O1 0.500000 0.572493 0.045077
O O2 0.691693 0.500000 0.103796
O O3 0.709810 0.598534 0.157204
O O4 0.769670 0.573706 0.990881
O O5 0.229687 0.597313 0.645921
O O6 0.190955 0.630626 0.483082
O O7 0.259404 0.701382 0.603390
O O8 0.000000 0.658624 0.607372
O O9 0.768280 0.414704 0.819788
O O10 0.769555 0.328220 0.922058
O O11 0.000000 0.388584 0.915016
O O12 0.238057 0.500000 0.715795
O O13 0.000000 0.441362 0.728514
O O14 0.231422 0.137136 0.814949
O O15 0.249753 0.201867 0.673363
O O16 0.000000 0.162027 0.722565
O O17 0.211499 0.725347 0.407979
O O18 0.000000 0.660319 0.358312
O O19 0.500000 0.750905 0.650997
O O20 0.313460 0.711936 0.769420
O O21 0.000000 0.798308 0.402329
#
# Coordination Sequence:
#
# PCOD8188933 Si02
#       8
#     8   8   8   8   8   8   8   8
#     4  10  23  42  60  79 107 147 192 234 283 342
#     4  10  19  34  56  81 112 151 189 225 272 332
#     4  11  21  33  54  84 115 145 185 232 276 327
#     4   9  18  33  53  79 112 146 181 224 271 321
#     4  10  21  38  60  81 106 144 189 234 283 337
#     4   9  20  36  55  81 115 149 183 230 281 329
#     4  10  20  34  54  82 115 146 180 227 277 328
#     4   9  18  33  50  74 112 150 182 218 269 329
#
# _framework density 18.787016000000001
#
# number of rings (size 3 to 8) (size 9 to 14) (size 15 to 20)
#    0.000    2.250    1.250    2.250    1.750    4.250 
#    0.000    0.625    0.000    1.875    0.000    0.000 
#    0.000    0.000    0.000    0.000    0.000    0.000 
#
# Total GULP energy -396867.175271 kJ/mol
# GULP energy per Si atom -12402.099227 kJ/mol
# Density = 1.874426 g / cm^3
# Si number density = 18.787016 Si / 1000 Ang^3
#
#
#
# Elastic Constant Matrix: (Units=GPa)
#
#
# Indices 1 2 3 4 5 6 
#
# 1 78.4826 48.4834 50.0052 -0.0001 0.0000 0.0000
# 2 48.4834 114.8321 65.9622 0.0001 0.0000 0.0000
# 3 50.0052 65.9622 115.7460 0.0004 -0.0001 0.0000
# 4 -0.0001 0.0001 0.0004 29.3298 0.0000 0.0000
# 5 0.0000 0.0000 -0.0001 0.0000 29.8818 0.0000
# 6 0.0000 0.0000 0.0000 0.0000 0.0000 20.5473
#
#
#
# Elastic Compliance Matrix: (Units=1/GPa)
#
#
# Indices 1 2 3 4 5 6 
#
# 1 0.019339 -0.005004 -0.005503 0.000000 0.000000 0.000000
# 2 -0.005004 0.014241 -0.005954 0.000000 0.000000 0.000000
# 3 -0.005503 -0.005954 0.014410 0.000000 0.000000 0.000000
# 4 0.000000 0.000000 0.000000 0.034095 0.000000 0.000000
# 5 0.000000 0.000000 0.000000 0.000000 0.033465 0.000000
# 6 0.000000 0.000000 0.000000 0.000000 0.000000 0.048668
#
#
# Mechanical properties :
#
#
# Convention : Reuss Voigt Hill
#
# Bulk Modulus (GPa) = 66.36537 70.88470 68.62504
# Shear Modulus (GPa) = 24.73226 25.59245 25.16236
#
# Velocity S-wave (km/s) = 3.63223 3.69486 3.66368
# Velocity P-wave (km/s) = 7.27961 7.48433 7.38268
#
# Compressibility (1/GPa) = 0.01506810
#
# Stress axis : x y z
#
# Youngs Moduli (GPa) = 51.70774 70.21839 69.39463
#
# Poissons Ratio (x) = 0.35138 0.38190
# Poissons Ratio (y) = 0.25875 0.41318
# Poissons Ratio (z) = 0.28457 0.41808
#
# Static dielectric constant tensor:
#      x y z
#    x 3.320320 0.000000 0.000000 
#    y 0.000000 3.408020 0.000000 
#    z 0.000000 0.000000 3.444970 
# 
# 
# High freq. dielectric constant tensor:
#      x y z
#    x 1.718280 0.000000 0.000000 
#    y 0.000000 1.719670 0.000000 
#    z 0.000000 0.000000 1.730170 
# 
# From -- ./inp_files/16821.got.cif
#   From: 2010.03.12/outbox.cif.g09.slc.cpg/sg44_9_cif.got.tgz:16821.got - 2010.04.14 02:36:11.
