data_PCOD8188350
_publ_section_title
;
Structure prediction by ZEFSAII (Michael W. Deem and Ramdas Pophale) SiO2 
 PCOD8188350
Probable space group: I M M 2
;
_chemical_formula_sum "Si O2"
_cell_formula_units_Z 48
_cell_length_a 20.357533
_cell_length_b 9.084465
_cell_length_c 14.523177
_cell_angle_alpha 90.000000
_cell_angle_beta 90.000000
_cell_angle_gamma 90.000000
_cell_volume 2685.877084
_symmetry_space_group_name_H-M "I M M 2"
_symmetry_group_IT_number 44
_symmetry_cell_setting 'orthorhombic'
loop_
_space_group_symop_operation_xyz
x,y,z
-x,-y,z
-x,y,z
x,-y,z
1/2+x,1/2+y,1/2+z
1/2-x,1/2-y,1/2+z
1/2-x,1/2+y,1/2+z
1/2+x,1/2-y,1/2+z
loop_
_atom_site_type_symbol
_atom_site_label
_atom_site_fract_x
_atom_site_fract_y
_atom_site_fract_z
Si Si1 0.194180 0.825828 0.715110
Si Si2 0.073423 0.829936 0.593304
Si Si3 0.621993 0.173619 0.916668
Si Si4 0.186583 0.174413 0.110812
Si Si5 0.075591 0.330501 0.216681
Si Si6 0.730499 0.326453 0.413946
O O1 0.125502 0.775482 0.669830
O O2 0.253887 0.746277 0.665493
O O3 0.192974 0.773761 0.821746
O O4 0.205570 0.000000 0.707095
O O5 0.080829 0.742840 0.498872
O O6 0.000000 0.802730 0.632305
O O7 0.085555 0.000000 0.570989
O O8 0.587769 0.219297 0.821404
O O9 0.695805 0.239001 0.917014
O O10 0.621080 0.000000 0.931147
O O11 0.117228 0.230311 0.147985
O O12 0.191428 0.000000 0.121740
O O13 0.190629 0.224311 0.003982
O O14 0.097062 0.500000 0.204390
O O15 0.000000 0.306493 0.191045
O O16 0.737555 0.500000 0.412006
#
# Coordination Sequence:
#
# PCOD8188350 Si02
#       6
#     8   8   8   8   8   8
#     4  10  19  36  57  74 103 145 181 213 255 313
#     4  10  21  34  51  80 112 139 173 219 268 311
#     4  10  18  33  56  79 106 140 176 213 259 318
#     4  11  21  34  54  81 109 135 173 223 267 306
#     4  10  21  37  56  78 106 144 182 211 254 320
#     4   9  18  33  54  79 105 133 175 219 257 311
#
# _framework density 17.871255999999999
#
# number of rings (size 3 to 8) (size 9 to 14) (size 15 to 20)
#    0.000    2.000    3.333    1.000    0.000    2.000 
#    0.000    2.500    0.000    3.000    0.000    0.000 
#    0.000    0.000    0.000    0.000    0.000    0.000 
#
# Total GULP energy -297608.163463 kJ/mol
# GULP energy per Si atom -12400.340144 kJ/mol
# Density = 1.783058 g / cm^3
# Si number density = 17.871256 Si / 1000 Ang^3
#
#
#
# Elastic Constant Matrix: (Units=GPa)
#
#
# Indices 1 2 3 4 5 6 
#
# 1 116.9831 30.4274 63.4420 0.0000 0.0000 0.0000
# 2 30.4274 36.7595 38.0309 0.0000 0.0000 0.0000
# 3 63.4420 38.0309 145.1412 0.0000 0.0000 0.0000
# 4 0.0000 0.0000 0.0000 24.3918 0.0000 0.0000
# 5 0.0000 0.0000 0.0000 0.0000 32.6207 0.0000
# 6 0.0000 0.0000 0.0000 0.0000 0.0000 17.3856
#
#
#
# Elastic Compliance Matrix: (Units=1/GPa)
#
#
# Indices 1 2 3 4 5 6 
#
# 1 0.012174 -0.006272 -0.003678 0.000000 0.000000 0.000000
# 2 -0.006272 0.040552 -0.007884 0.000000 0.000000 0.000000
# 3 -0.003678 -0.007884 0.010563 0.000000 0.000000 0.000000
# 4 0.000000 0.000000 0.000000 0.040997 0.000000 0.000000
# 5 0.000000 0.000000 0.000000 0.000000 0.030655 0.000000
# 6 0.000000 0.000000 0.000000 0.000000 0.000000 0.057519
#
#
# Mechanical properties :
#
#
# Convention : Reuss Voigt Hill
#
# Bulk Modulus (GPa) = 36.20364 62.52050 49.36207
# Shear Modulus (GPa) = 21.06706 26.01186 23.53946
#
# Velocity S-wave (km/s) = 3.43712 3.81926 3.63322
# Velocity P-wave (km/s) = 6.00448 7.38300 6.72914
#
# Compressibility (1/GPa) = 0.02762153
#
# Stress axis : x y z
#
# Youngs Moduli (GPa) = 82.14075 24.65946 94.66630
#
# Poissons Ratio (x) = 0.15466 0.34818
# Poissons Ratio (y) = 0.51518 0.74638
# Poissons Ratio (z) = 0.30211 0.19442
#
# Static dielectric constant tensor:
#      x y z
#    x 3.388050 0.000000 0.000000 
#    y 0.000000 3.131470 0.000000 
#    z 0.000000 0.000000 3.619630 
# 
# 
# High freq. dielectric constant tensor:
#      x y z
#    x 1.693230 0.000000 0.000000 
#    y 0.000000 1.671920 0.000000 
#    z 0.000000 0.000000 1.694790 
# 
# From -- ./inp_files/16076.got.cif
#   From: 2010.03.12/outbox.cif.g09.slc.cpg/sg44_9_cif.got.tgz:16076.got - 2010.04.14 02:36:11.
