data_PCOD8188883
_publ_section_title
;
Structure prediction by ZEFSAII (Michael W. Deem and Ramdas Pophale) SiO2 
 PCOD8188883
Probable space group: I M M 2
;
_chemical_formula_sum "Si O2"
_cell_formula_units_Z 40
_cell_length_a 7.871158
_cell_length_b 7.677559
_cell_length_c 32.190974
_cell_angle_alpha 90.000000
_cell_angle_beta 90.000000
_cell_angle_gamma 90.000000
_cell_volume 1945.341761
_symmetry_space_group_name_H-M "I M M 2"
_symmetry_group_IT_number 44
_symmetry_cell_setting 'orthorhombic'
loop_
_space_group_symop_operation_xyz
x,y,z
-x,-y,z
-x,y,z
x,-y,z
1/2+x,1/2+y,1/2+z
1/2-x,1/2-y,1/2+z
1/2-x,1/2+y,1/2+z
1/2+x,1/2-y,1/2+z
loop_
_atom_site_type_symbol
_atom_site_label
_atom_site_fract_x
_atom_site_fract_y
_atom_site_fract_z
Si Si1 0.690380 0.000000 0.743721
Si Si2 0.305174 0.797830 0.088581
Si Si3 0.000000 0.795419 0.029739
Si Si4 0.687653 0.202853 0.883566
Si Si5 0.500000 0.708272 0.437243
Si Si6 0.806338 0.000000 0.653390
Si Si7 0.308786 0.807746 0.297688
O O1 0.778145 0.826866 0.760757
O O2 0.500000 0.000000 0.760296
O O3 0.690840 0.000000 0.694004
O O4 0.500000 0.769803 0.072912
O O5 0.266779 0.675445 0.127790
O O6 0.172731 0.737767 0.053134
O O7 0.275652 0.000000 0.101250
O O8 0.000000 0.712555 0.983752
O O9 0.000000 0.000000 0.025254
O O10 0.500000 0.239866 0.902508
O O11 0.691336 0.285006 0.837849
O O12 0.831279 0.280335 0.914124
O O13 0.721594 0.000000 0.877642
O O14 0.500000 0.500000 0.438524
O O15 0.000000 0.000000 0.668332
O O16 0.500000 0.783715 0.313901
O O17 0.277646 0.000000 0.278873
#
# Coordination Sequence:
#
# PCOD8188883 Si02
#       7
#     4   8   4   8   4   4   8
#     4  12  26  40  60  94 126 158 206 263 311 376
#     4   9  19  36  60  87 117 157 198 245 303 366
#     4   9  18  33  57  89 120 155 207 250 303 365
#     4  10  19  33  57  86 118 160 205 250 305 364
#     4   9  18  32  54  88 122 158 204 258 298 364
#     4  10  22  40  62  88 118 156 202 245 309 368
#     4  11  23  40  63  86 117 164 210 254 312 371
#
# _framework density 20.561938999999999
#
# number of rings (size 3 to 8) (size 9 to 14) (size 15 to 20)
#    0.000    2.000    2.000    1.500    1.400    3.200 
#    0.000    6.000    4.400    0.000    0.000    0.000 
#    0.000    0.000    0.000    0.000    0.000    0.000 
#
# Total GULP energy -247970.995019 kJ/mol
# GULP energy per Si atom -12398.549751 kJ/mol
# Density = 2.051514 g / cm^3
# Si number density = 20.561939 Si / 1000 Ang^3
#
#
#
# Elastic Constant Matrix: (Units=GPa)
#
#
# Indices 1 2 3 4 5 6 
#
# 1 133.2990 42.2435 60.8232 0.0000 0.0000 0.0000
# 2 42.2435 96.6596 47.8721 0.0000 0.0000 0.0000
# 3 60.8232 47.8721 138.4351 0.0000 0.0000 0.0000
# 4 0.0000 0.0000 0.0000 -2.5027 0.0000 0.0000
# 5 0.0000 0.0000 0.0000 0.0000 28.8928 0.0000
# 6 0.0000 0.0000 0.0000 0.0000 0.0000 11.9481
#
#
#
# Elastic Compliance Matrix: (Units=1/GPa)
#
#
# Indices 1 2 3 4 5 6 
#
# 1 0.009905 -0.002623 -0.003445 0.000000 0.000000 0.000000
# 2 -0.002623 0.013178 -0.003405 0.000000 0.000000 0.000000
# 3 -0.003445 -0.003405 0.009915 0.000000 0.000000 0.000000
# 4 0.000000 0.000000 0.000000 -0.399569 0.000000 0.000000
# 5 0.000000 0.000000 0.000000 0.000000 0.034611 0.000000
# 6 0.000000 0.000000 0.000000 0.000000 0.000000 0.083695
#
#
# Mechanical properties :
#
#
# Convention : Reuss Voigt Hill
#
# Bulk Modulus (GPa) = 71.15999 74.47459 72.81729
# Shear Modulus (GPa) = -22.25824 22.16463 -0.04680
#
# Velocity S-wave (km/s) = -3.29370 3.28677 -0.15104
# Velocity P-wave (km/s) = 4.49646 7.12054 5.95484
#
# Compressibility (1/GPa) = 0.01405284
#
# Stress axis : x y z
#
# Youngs Moduli (GPa) = 100.95944 75.88381 100.86153
#
# Poissons Ratio (x) = 0.19902 0.34746
# Poissons Ratio (y) = 0.26478 0.34341
# Poissons Ratio (z) = 0.34780 0.25837
#
# Static dielectric constant tensor:
#      x y z
#    x 3.927010 0.000000 0.000000 
#    y 0.000000 3.652840 0.000000 
#    z 0.000000 0.000000 3.542830 
# 
# 
# High freq. dielectric constant tensor:
#      x y z
#    x 1.818610 0.000000 0.000000 
#    y 0.000000 1.797510 0.000000 
#    z 0.000000 0.000000 1.781650 
# 
# From -- ./inp_files/25999.got.cif
#   From: 2010.03.12/outbox.cif.g09.slc.cpg/sg44_13_cif.got.tgz:25999.got - 2010.04.14 02:36:11.
