data_PCOD8188573
_publ_section_title
;
Structure prediction by ZEFSAII (Michael W. Deem and Ramdas Pophale) SiO2 
 PCOD8188573
Probable space group: I M M 2
;
_chemical_formula_sum "Si O2"
_cell_formula_units_Z 64
_cell_length_a 30.275119
_cell_length_b 8.751030
_cell_length_c 14.318061
_cell_angle_alpha 90.000000
_cell_angle_beta 90.000000
_cell_angle_gamma 90.000000
_cell_volume 3793.405241
_symmetry_space_group_name_H-M "I M M 2"
_symmetry_group_IT_number 44
_symmetry_cell_setting 'orthorhombic'
loop_
_space_group_symop_operation_xyz
x,y,z
-x,-y,z
-x,y,z
x,-y,z
1/2+x,1/2+y,1/2+z
1/2-x,1/2-y,1/2+z
1/2-x,1/2+y,1/2+z
1/2+x,1/2-y,1/2+z
loop_
_atom_site_type_symbol
_atom_site_label
_atom_site_fract_x
_atom_site_fract_y
_atom_site_fract_z
Si Si1 0.951531 0.181365 0.594400
Si Si2 0.276837 0.674607 0.515216
Si Si3 0.549096 0.679819 0.884024
Si Si4 0.364490 0.678381 0.191549
Si Si5 0.366468 0.176833 0.828417
Si Si6 0.799554 0.680376 0.826062
Si Si7 0.782811 0.318532 0.214816
Si Si8 0.175779 0.671484 0.522257
O O1 0.943943 0.244724 0.489471
O O2 0.913549 0.240336 0.664952
O O3 0.000000 0.234055 0.630943
O O4 0.949112 0.000000 0.589783
O O5 0.292299 0.500000 0.530554
O O6 0.302605 0.748403 0.428891
O O7 0.285964 0.771962 0.607381
O O8 0.225732 0.682300 0.487497
O O9 0.500000 0.726677 0.848955
O O10 0.554251 0.500000 0.884784
O O11 0.585641 0.746466 0.812628
O O12 0.364117 0.500000 0.216799
O O13 0.345987 0.774300 0.278298
O O14 0.332739 0.705646 0.102795
O O15 0.328131 0.242889 0.761723
O O16 0.371656 0.000000 0.807264
O O17 0.354292 0.212747 0.934875
O O18 0.794814 0.500000 0.833108
O O19 0.759153 0.742801 0.764398
O O20 0.777855 0.500000 0.225915
O O21 0.165957 0.500000 0.559988
#
# Coordination Sequence:
#
# PCOD8188573 Si02
#       8
#     8   8   8   8   8   8   8   8
#     4   8  15  28  46  71 101 131 165 207 253 299
#     4  11  22  38  54  73 101 134 173 218 256 300
#     4   9  17  30  48  72 102 133 169 210 247 294
#     4  11  20  31  51  75 100 137 176 211 250 302
#     4  10  20  33  49  71 103 137 169 207 250 300
#     4  12  24  36  51  73 103 139 174 212 252 300
#     4  11  22  37  53  74 102 135 174 215 256 302
#     4  10  19  31  47  71 104 135 167 210 251 293
#
# _framework density 16.871385
#
# number of rings (size 3 to 8) (size 9 to 14) (size 15 to 20)
#    0.000    1.750    3.750    3.000    0.000    1.750 
#    0.000    0.000    0.000    1.500    0.000    0.875 
#    0.000    5.000    0.000    0.000    0.000    0.000 
#
# Total GULP energy -396723.982849 kJ/mol
# GULP energy per Si atom -12397.624464 kJ/mol
# Density = 1.683298 g / cm^3
# Si number density = 16.871385 Si / 1000 Ang^3
#
#
#
# Elastic Constant Matrix: (Units=GPa)
#
#
# Indices 1 2 3 4 5 6 
#
# 1 105.5862 24.9125 33.2920 0.0000 0.0000 0.0000
# 2 24.9125 49.2990 11.1934 0.0000 0.0000 0.0000
# 3 33.2920 11.1934 50.1416 0.0000 0.0000 0.0000
# 4 0.0000 0.0000 0.0000 23.8686 0.0000 0.0000
# 5 0.0000 0.0000 0.0000 0.0000 26.0198 0.0000
# 6 0.0000 0.0000 0.0000 0.0000 0.0000 23.2008
#
#
#
# Elastic Compliance Matrix: (Units=1/GPa)
#
#
# Indices 1 2 3 4 5 6 
#
# 1 0.012995 -0.004854 -0.007545 0.000000 0.000000 0.000000
# 2 -0.004854 0.023180 -0.001952 0.000000 0.000000 0.000000
# 3 -0.007545 -0.001952 0.025389 0.000000 0.000000 0.000000
# 4 0.000000 0.000000 0.000000 0.041896 0.000000 0.000000
# 5 0.000000 0.000000 0.000000 0.000000 0.038432 0.000000
# 6 0.000000 0.000000 0.000000 0.000000 0.000000 0.043102
#
#
# Mechanical properties :
#
#
# Convention : Reuss Voigt Hill
#
# Bulk Modulus (GPa) = 30.42916 38.20250 34.31583
# Shear Modulus (GPa) = 22.25687 23.65975 22.95831
#
# Velocity S-wave (km/s) = 3.63603 3.74887 3.69288
# Velocity P-wave (km/s) = 5.97518 6.43671 6.21023
#
# Compressibility (1/GPa) = 0.03286321
#
# Stress axis : x y z
#
# Youngs Moduli (GPa) = 76.95247 43.13992 39.38771
#
# Poissons Ratio (x) = 0.20939 0.29717
# Poissons Ratio (y) = 0.37351 0.07688
# Poissons Ratio (z) = 0.58058 0.08421
#
# Static dielectric constant tensor:
#      x y z
#    x 3.425340 0.000000 0.000000 
#    y 0.000000 3.069620 0.000000 
#    z 0.000000 0.000000 3.025820 
# 
# 
# High freq. dielectric constant tensor:
#      x y z
#    x 1.647410 0.000000 0.000000 
#    y 0.000000 1.646550 0.000000 
#    z 0.000000 0.000000 1.621500 
# 
# From -- ./inp_files/17131.got.cif
#   From: 2010.03.12/outbox.cif.g09.slc.cpg/sg44_9_cif.got.tgz:17131.got - 2010.04.14 02:36:11.
