data_PCOD8188734
_publ_section_title
;
Structure prediction by ZEFSAII (Michael W. Deem and Ramdas Pophale) SiO2 
 PCOD8188734
Probable space group: I M M 2
;
_chemical_formula_sum "Si O2"
_cell_formula_units_Z 48
_cell_length_a 31.002851
_cell_length_b 9.296498
_cell_length_c 8.937848
_cell_angle_alpha 90.000000
_cell_angle_beta 90.000000
_cell_angle_gamma 90.000000
_cell_volume 2576.048159
_symmetry_space_group_name_H-M "I M M 2"
_symmetry_group_IT_number 44
_symmetry_cell_setting 'orthorhombic'
loop_
_space_group_symop_operation_xyz
x,y,z
-x,-y,z
-x,y,z
x,-y,z
1/2+x,1/2+y,1/2+z
1/2-x,1/2-y,1/2+z
1/2-x,1/2+y,1/2+z
1/2+x,1/2-y,1/2+z
loop_
_atom_site_type_symbol
_atom_site_label
_atom_site_fract_x
_atom_site_fract_y
_atom_site_fract_z
Si Si1 0.211286 0.834466 0.566510
Si Si2 0.870478 0.169513 0.031882
Si Si3 0.871475 0.167332 0.376978
Si Si4 0.452428 0.838326 0.532745
Si Si5 0.452901 0.838257 0.888170
Si Si6 0.704967 0.166697 0.366888
O O1 0.170045 0.785443 0.470413
O O2 0.253137 0.812723 0.466822
O O3 0.215931 0.729017 0.705213
O O4 0.206654 0.000000 0.619018
O O5 0.863588 0.212350 0.205005
O O6 0.916671 0.227247 0.972378
O O7 0.868266 0.000000 0.005036
O O8 0.833964 0.245071 0.936385
O O9 0.913644 0.242144 0.449100
O O10 0.880504 0.000000 0.387432
O O11 0.500000 0.793680 0.472339
O O12 0.452963 0.833494 0.710467
O O13 0.441101 0.000000 0.478716
O O14 0.500000 0.782578 0.945421
O O15 0.445442 0.000000 0.945883
O O16 0.692047 0.000000 0.352871
#
# Coordination Sequence:
#
# PCOD8188734 Si02
#       6
#     8   8   8   8   8   8
#     4  10  22  39  56  76 104 134 167 212 260 307
#     4  10  19  32  52  78 109 141 174 214 258 305
#     4   9  18  32  51  76 105 137 172 210 254 303
#     4   8  14  26  45  71 104 139 175 215 256 300
#     4   8  14  25  43  70 103 136 170 209 251 295
#     4  11  23  38  57  79 103 134 172 211 257 313
#
# _framework density 18.633191
#
# number of rings (size 3 to 8) (size 9 to 14) (size 15 to 20)
#    0.000    2.667    0.000    3.000    0.000    4.667 
#    0.000    3.333    0.000    1.000    0.000    4.667 
#    0.000    0.000    0.000    0.000    0.000    0.000 
#
# Total GULP energy -297532.911175 kJ/mol
# GULP energy per Si atom -12397.204632 kJ/mol
# Density = 1.859078 g / cm^3
# Si number density = 18.633191 Si / 1000 Ang^3
#
#
#
# Elastic Constant Matrix: (Units=GPa)
#
#
# Indices 1 2 3 4 5 6 
#
# 1 145.7309 70.0369 38.6684 0.0000 0.0000 0.0000
# 2 70.0369 97.1006 45.0968 0.0000 0.0000 0.0000
# 3 38.6684 45.0968 59.5950 0.0000 0.0000 0.0000
# 4 0.0000 0.0000 0.0000 22.5466 0.0000 0.0000
# 5 0.0000 0.0000 0.0000 0.0000 23.9184 0.0000
# 6 0.0000 0.0000 0.0000 0.0000 0.0000 31.6673
#
#
#
# Elastic Compliance Matrix: (Units=1/GPa)
#
#
# Indices 1 2 3 4 5 6 
#
# 1 0.010611 -0.006871 -0.001686 0.000000 0.000000 0.000000
# 2 -0.006871 0.020328 -0.010925 0.000000 0.000000 0.000000
# 3 -0.001686 -0.010925 0.026141 0.000000 0.000000 0.000000
# 4 0.000000 0.000000 0.000000 0.044353 0.000000 0.000000
# 5 0.000000 0.000000 0.000000 0.000000 0.041809 0.000000
# 6 0.000000 0.000000 0.000000 0.000000 0.000000 0.031578
#
#
# Mechanical properties :
#
#
# Convention : Reuss Voigt Hill
#
# Bulk Modulus (GPa) = 55.19501 67.78119 61.48810
# Shear Modulus (GPa) = 22.74571 25.53475 24.14023
#
# Velocity S-wave (km/s) = 3.49766 3.70589 3.60328
# Velocity P-wave (km/s) = 6.78216 7.40048 7.09805
#
# Compressibility (1/GPa) = 0.01811758
#
# Stress axis : x y z
#
# Youngs Moduli (GPa) = 94.23892 49.19310 38.25448
#
# Poissons Ratio (x) = 0.33799 0.06450
# Poissons Ratio (y) = 0.64749 0.41791
# Poissons Ratio (z) = 0.15888 0.53741
#
# Static dielectric constant tensor:
#      x y z
#    x 3.921230 0.000000 0.000000 
#    y 0.000000 3.519030 0.000000 
#    z 0.000000 0.000000 3.094200 
# 
# 
# High freq. dielectric constant tensor:
#      x y z
#    x 1.743980 0.000000 0.000000 
#    y 0.000000 1.722920 0.000000 
#    z 0.000000 0.000000 1.683490 
# 
# From -- ./inp_files/4934.got.cif
#   From: 2010.03.12/outbox.cif.g09.slc.cpg/sg44_3_cif.got.tgz:4934.got - 2010.04.14 02:36:11.
