data_PCOD8188592
_publ_section_title
;
Structure prediction by ZEFSAII (Michael W. Deem and Ramdas Pophale) SiO2 
 PCOD8188592
Probable space group: I M M 2
;
_chemical_formula_sum "Si O2"
_cell_formula_units_Z 64
_cell_length_a 14.353528
_cell_length_b 9.335655
_cell_length_c 28.210455
_cell_angle_alpha 90.000000
_cell_angle_beta 90.000000
_cell_angle_gamma 90.000000
_cell_volume 3780.189275
_symmetry_space_group_name_H-M "I M M 2"
_symmetry_group_IT_number 44
_symmetry_cell_setting 'orthorhombic'
loop_
_space_group_symop_operation_xyz
x,y,z
-x,-y,z
-x,y,z
x,-y,z
1/2+x,1/2+y,1/2+z
1/2-x,1/2-y,1/2+z
1/2-x,1/2+y,1/2+z
1/2+x,1/2-y,1/2+z
loop_
_atom_site_type_symbol
_atom_site_label
_atom_site_fract_x
_atom_site_fract_y
_atom_site_fract_z
Si Si1 0.891470 0.664721 0.425420
Si Si2 0.712886 0.834303 0.283455
Si Si3 0.287507 0.832128 0.017042
Si Si4 0.607219 0.331798 0.203425
Si Si5 0.895589 0.165134 0.332797
Si Si6 0.107318 0.664360 0.877987
Si Si7 0.103841 0.832852 0.970629
Si Si8 0.607672 0.165818 0.108386
O O1 0.863588 0.500000 0.417513
O O2 0.838613 0.731803 0.470755
O O3 0.860895 0.748263 0.378453
O O4 0.000000 0.683703 0.435415
O O5 0.675231 0.733448 0.242440
O O6 0.824113 0.808566 0.289340
O O7 0.665375 0.787491 0.332490
O O8 0.690065 0.000000 0.271403
O O9 0.176743 0.798088 0.012932
O O10 0.329521 0.769544 0.065684
O O11 0.308642 0.000000 0.018047
O O12 0.500000 0.298696 0.217021
O O13 0.625601 0.500000 0.199361
O O14 0.633133 0.259327 0.153846
O O15 0.000000 0.211866 0.316828
O O16 0.893498 0.000000 0.347919
O O17 0.126535 0.500000 0.890821
O O18 0.000000 0.692839 0.865797
O O19 0.138881 0.756590 0.923005
O O20 0.000000 0.780835 0.985767
O O21 0.104062 0.000000 0.959156
O O22 0.500000 0.183522 0.093901
O O23 0.630992 0.000000 0.119504
#
# Coordination Sequence:
#
# PCOD8188592 Si02
#       8
#     8   8   8   8   8   8   8   8
#     4   9  16  26  42  65  92 121 153 187 223 265
#     4  10  19  31  49  69  90 122 160 191 223 270
#     4   9  16  27  45  67  89 115 150 188 220 257
#     4  10  21  35  50  71  97 118 140 181 235 282
#     4   9  18  31  45  65  95 126 156 192 229 263
#     4   9  17  28  42  63  91 120 152 188 221 259
#     4   9  17  28  42  62  90 122 152 182 218 259
#     4   9  17  31  51  70  88 114 147 181 221 271
#
# _framework density 16.93037
#
# number of rings (size 3 to 8) (size 9 to 14) (size 15 to 20)
#    0.000    2.750    0.000    1.875    0.000    3.750 
#    0.000    2.500    0.000    3.750    0.000    3.500 
#    0.000    0.000    0.000    0.000    0.000    0.000 
#
# Total GULP energy -396740.231815 kJ/mol
# GULP energy per Si atom -12398.132244 kJ/mol
# Density = 1.689184 g / cm^3
# Si number density = 16.930370 Si / 1000 Ang^3
#
#
#
# Elastic Constant Matrix: (Units=GPa)
#
#
# Indices 1 2 3 4 5 6 
#
# 1 91.7175 37.7162 73.5416 0.0000 0.0000 0.0000
# 2 37.7162 56.0996 52.9490 0.0000 0.0000 0.0000
# 3 73.5416 52.9490 115.9346 0.0000 0.0000 0.0000
# 4 0.0000 0.0000 0.0000 23.6626 0.0000 0.0000
# 5 0.0000 0.0000 0.0000 0.0000 29.3171 0.0000
# 6 0.0000 0.0000 0.0000 0.0000 0.0000 17.7890
#
#
#
# Elastic Compliance Matrix: (Units=1/GPa)
#
#
# Indices 1 2 3 4 5 6 
#
# 1 0.022455 -0.002905 -0.012917 0.000000 0.000000 0.000000
# 2 -0.002905 0.031707 -0.012638 0.000000 0.000000 0.000000
# 3 -0.012917 -0.012638 0.022592 0.000000 0.000000 0.000000
# 4 0.000000 0.000000 0.000000 0.042261 0.000000 0.000000
# 5 0.000000 0.000000 0.000000 0.000000 0.034110 0.000000
# 6 0.000000 0.000000 0.000000 0.000000 0.000000 0.056214
#
#
# Mechanical properties :
#
#
# Convention : Reuss Voigt Hill
#
# Bulk Modulus (GPa) = 50.42225 65.79616 58.10920
# Shear Modulus (GPa) = 18.32366 20.79006 19.55686
#
# Velocity S-wave (km/s) = 3.29339 3.50805 3.40241
# Velocity P-wave (km/s) = 6.65648 7.44014 7.05919
#
# Compressibility (1/GPa) = 0.01983252
#
# Stress axis : x y z
#
# Youngs Moduli (GPa) = 44.53323 31.53874 44.26387
#
# Poissons Ratio (x) = 0.09161 0.57178
# Poissons Ratio (y) = 0.12936 0.55943
# Poissons Ratio (z) = 0.57526 0.39860
#
# Static dielectric constant tensor:
#      x y z
#    x 3.375580 0.000000 0.000000 
#    y 0.000000 3.059300 0.000000 
#    z 0.000000 0.000000 3.067640 
# 
# 
# High freq. dielectric constant tensor:
#      x y z
#    x 1.658680 0.000000 0.000000 
#    y 0.000000 1.637420 0.000000 
#    z 0.000000 0.000000 1.631410 
# 
# From -- ./inp_files/25094.got.cif
#   From: 2010.03.12/outbox.cif.g09.slc.cpg/sg44_13_cif.got.tgz:25094.got - 2010.04.14 02:36:11.
