data_PCOD8188943
_publ_section_title
;
Structure prediction by ZEFSAII (Michael W. Deem and Ramdas Pophale) SiO2 
 PCOD8188943
Probable space group: I M M 2
;
_chemical_formula_sum "Si O2"
_cell_formula_units_Z 48
_cell_length_a 9.321748
_cell_length_b 7.930865
_cell_length_c 33.907396
_cell_angle_alpha 90.000000
_cell_angle_beta 90.000000
_cell_angle_gamma 90.000000
_cell_volume 2506.757679
_symmetry_space_group_name_H-M "I M M 2"
_symmetry_group_IT_number 44
_symmetry_cell_setting 'orthorhombic'
loop_
_space_group_symop_operation_xyz
x,y,z
-x,-y,z
-x,y,z
x,-y,z
1/2+x,1/2+y,1/2+z
1/2-x,1/2-y,1/2+z
1/2-x,1/2+y,1/2+z
1/2+x,1/2-y,1/2+z
loop_
_atom_site_type_symbol
_atom_site_label
_atom_site_fract_x
_atom_site_fract_y
_atom_site_fract_z
Si Si1 0.828711 0.500000 0.602680
Si Si2 0.670038 0.813870 0.468812
Si Si3 0.338915 0.692085 0.815246
Si Si4 0.329714 0.313344 0.154868
Si Si5 0.659711 0.691921 0.386685
Si Si6 0.171460 0.000000 0.020159
Si Si7 0.662466 0.303842 0.243319
O O1 0.775342 0.667317 0.625725
O O2 0.748667 0.500000 0.561691
O O3 0.000000 0.500000 0.596980
O O4 0.500000 0.797356 0.467068
O O5 0.727053 0.791654 0.423976
O O6 0.727767 0.667528 0.497580
O O7 0.717665 0.000000 0.484175
O O8 0.500000 0.762983 0.811314
O O9 0.339133 0.500000 0.829190
O O10 0.257620 0.797707 0.848335
O O11 0.263065 0.703883 0.773067
O O12 0.500000 0.318073 0.155713
O O13 0.272989 0.500000 0.141624
O O14 0.277223 0.272470 0.199219
O O15 0.500000 0.759843 0.376068
O O16 0.650026 0.500000 0.400621
O O17 0.000000 0.000000 0.025624
O O18 0.500000 0.235428 0.247264
O O19 0.666918 0.500000 0.254086
#
# Coordination Sequence:
#
# PCOD8188943 Si02
#       7
#     4   8   8   8   8   4   8
#     4  10  20  34  56  82 108 142 178 216 272 326
#     4   9  17  32  56  81 106 138 175 220 270 313
#     4  11  24  36  46  71 111 148 179 216 266 324
#     4   8  16  32  54  80 107 135 175 225 268 313
#     4  10  19  34  57  81 102 131 180 232 271 315
#     4  10  20  36  54  80 112 140 176 222 266 320
#     4   9  18  34  56  79 100 130 179 231 272 313
#
# _framework density 19.148242
#
# number of rings (size 3 to 8) (size 9 to 14) (size 15 to 20)
#    0.000    2.500    0.833    2.500    1.167    5.333 
#    0.000    1.667    0.000    2.000    0.000    0.000 
#    0.000    0.000    0.000    0.000    0.000    0.000 
#
# Total GULP energy -297524.643054 kJ/mol
# GULP energy per Si atom -12396.860127 kJ/mol
# Density = 1.910466 g / cm^3
# Si number density = 19.148242 Si / 1000 Ang^3
#
#
#
# Elastic Constant Matrix: (Units=GPa)
#
#
# Indices 1 2 3 4 5 6 
#
# 1 61.3503 25.3143 41.9323 0.0000 0.0000 0.0000
# 2 25.3143 123.6129 68.5119 0.0000 0.0000 0.0000
# 3 41.9323 68.5119 140.4984 0.0000 0.0000 0.0000
# 4 0.0000 0.0000 0.0000 29.1889 0.0000 0.0000
# 5 0.0000 0.0000 0.0000 0.0000 27.1927 0.0000
# 6 0.0000 0.0000 0.0000 0.0000 0.0000 16.2078
#
#
#
# Elastic Compliance Matrix: (Units=1/GPa)
#
#
# Indices 1 2 3 4 5 6 
#
# 1 0.020588 -0.001111 -0.005603 0.000000 0.000000 0.000000
# 2 -0.001111 0.011146 -0.005104 0.000000 0.000000 0.000000
# 3 -0.005603 -0.005104 0.011278 0.000000 0.000000 0.000000
# 4 0.000000 0.000000 0.000000 0.034260 0.000000 0.000000
# 5 0.000000 0.000000 0.000000 0.000000 0.036775 0.000000
# 6 0.000000 0.000000 0.000000 0.000000 0.000000 0.061699
#
#
# Mechanical properties :
#
#
# Convention : Reuss Voigt Hill
#
# Bulk Modulus (GPa) = 51.60608 66.33095 58.96852
# Shear Modulus (GPa) = 24.29092 27.16476 25.72784
#
# Velocity S-wave (km/s) = 3.56557 3.77059 3.66951
# Velocity P-wave (km/s) = 6.63026 7.32615 6.98687
#
# Compressibility (1/GPa) = 0.01937756
#
# Stress axis : x y z
#
# Youngs Moduli (GPa) = 48.57290 89.71911 88.66497
#
# Poissons Ratio (x) = 0.09965 0.49677
# Poissons Ratio (y) = 0.05395 0.45251
# Poissons Ratio (z) = 0.27215 0.45789
#
# Static dielectric constant tensor:
#      x y z
#    x 3.119550 0.000000 0.000000 
#    y 0.000000 3.797930 0.000000 
#    z 0.000000 0.000000 3.431780 
# 
# 
# High freq. dielectric constant tensor:
#      x y z
#    x 1.696740 0.000000 0.000000 
#    y 0.000000 1.757200 0.000000 
#    z 0.000000 0.000000 1.743750 
# 
# From -- ./inp_files/26899.got.cif
#   From: 2010.03.12/outbox.cif.g09.slc.cpg/sg44_14_cif.got.tgz:26899.got - 2010.04.14 02:36:11.
