data_PCOD8188991
_publ_section_title
;
Structure prediction by ZEFSAII (Michael W. Deem and Ramdas Pophale) SiO2 
 PCOD8188991
Probable space group: I M M 2
;
_chemical_formula_sum "Si O2"
_cell_formula_units_Z 48
_cell_length_a 8.911402
_cell_length_b 14.551401
_cell_length_c 20.511375
_cell_angle_alpha 90.000000
_cell_angle_beta 90.000000
_cell_angle_gamma 90.000000
_cell_volume 2659.779406
_symmetry_space_group_name_H-M "I M M 2"
_symmetry_group_IT_number 44
_symmetry_cell_setting 'orthorhombic'
loop_
_space_group_symop_operation_xyz
x,y,z
-x,-y,z
-x,y,z
x,-y,z
1/2+x,1/2+y,1/2+z
1/2-x,1/2-y,1/2+z
1/2-x,1/2+y,1/2+z
1/2+x,1/2-y,1/2+z
loop_
_atom_site_type_symbol
_atom_site_label
_atom_site_fract_x
_atom_site_fract_y
_atom_site_fract_z
Si Si1 0.322028 0.500000 0.674070
Si Si2 0.824045 0.500000 0.815152
Si Si3 0.321036 0.500000 0.213716
Si Si4 0.676662 0.808473 0.376929
Si Si5 0.821667 0.195337 0.754802
Si Si6 0.321192 0.500000 0.066974
Si Si7 0.176849 0.191463 0.511757
Si Si8 0.677490 0.184219 0.133168
O O1 0.500000 0.500000 0.674441
O O2 0.264004 0.500000 0.747788
O O3 0.262535 0.587917 0.634893
O O4 0.777911 0.588033 0.857642
O O5 0.000000 0.500000 0.797639
O O6 0.500000 0.500000 0.211971
O O7 0.260936 0.590894 0.250457
O O8 0.258165 0.500000 0.140327
O O9 0.500000 0.798966 0.384747
O O10 0.739120 0.740387 0.321148
O O11 0.751863 0.777623 0.443912
O O12 0.764485 0.253604 0.693091
O O13 0.000000 0.196453 0.753768
O O14 0.500000 0.500000 0.069170
O O15 0.260315 0.409305 0.030757
O O16 0.222482 0.265007 0.566468
O O17 0.000000 0.187149 0.503692
O O18 0.500000 0.167126 0.137938
#
# Coordination Sequence:
#
# PCOD8188991 Si02
#       8
#     4   4   4   8   8   4   8   8
#     4  12  24  35  54  85 111 135 176 241 292 314
#     4  10  19  35  57  78 108 150 189 221 265 336
#     4   9  14  25  50  83 105 121 169 228 260 293
#     4  10  20  33  51  76 109 148 181 217 266 322
#     4   9  16  29  52  78 104 138 178 219 260 310
#     4   9  15  27  50  82 110 128 160 218 273 307
#     4  10  20  33  54  82 111 143 177 221 269 318
#     4  10  19  36  58  77 104 146 188 219 261 332
#
# _framework density 18.046609
#
# number of rings (size 3 to 8) (size 9 to 14) (size 15 to 20)
#    0.000    2.167    3.333    1.250    0.000    1.333 
#    0.000    0.833    0.000    1.000    0.000    1.750 
#    0.000    0.000    0.000    0.000    0.000    0.000 
#
# Total GULP energy -297607.101972 kJ/mol
# GULP energy per Si atom -12400.295915 kJ/mol
# Density = 1.800553 g / cm^3
# Si number density = 18.046609 Si / 1000 Ang^3
#
#
#
# Elastic Constant Matrix: (Units=GPa)
#
#
# Indices 1 2 3 4 5 6 
#
# 1 33.2256 33.3549 35.5490 0.0000 0.0000 0.0000
# 2 33.3549 156.1837 85.9282 0.0000 0.0000 0.0000
# 3 35.5490 85.9282 171.6154 0.0000 0.0000 0.0000
# 4 0.0000 0.0000 0.0000 30.8736 0.0000 0.0000
# 5 0.0000 0.0000 0.0000 0.0000 28.2261 0.0000
# 6 0.0000 0.0000 0.0000 0.0000 0.0000 9.6061
#
#
#
# Elastic Compliance Matrix: (Units=1/GPa)
#
#
# Indices 1 2 3 4 5 6 
#
# 1 0.042152 -0.005794 -0.005830 0.000000 0.000000 0.000000
# 2 -0.005794 0.009634 -0.003623 0.000000 0.000000 0.000000
# 3 -0.005830 -0.003623 0.008849 0.000000 0.000000 0.000000
# 4 0.000000 0.000000 0.000000 0.032390 0.000000 0.000000
# 5 0.000000 0.000000 0.000000 0.000000 0.035428 0.000000
# 6 0.000000 0.000000 0.000000 0.000000 0.000000 0.104101
#
#
# Mechanical properties :
#
#
# Convention : Reuss Voigt Hill
#
# Bulk Modulus (GPa) = 33.17994 74.52098 53.85046
# Shear Modulus (GPa) = 18.30859 27.48734 22.89796
#
# Velocity S-wave (km/s) = 3.18860 3.90696 3.56592
# Velocity P-wave (km/s) = 5.65525 7.85721 6.84535
#
# Compressibility (1/GPa) = 0.03013870
#
# Stress axis : x y z
#
# Youngs Moduli (GPa) = 23.72355 103.80290 113.00878
#
# Poissons Ratio (x) = 0.60148 0.65887
# Poissons Ratio (y) = 0.13747 0.40946
# Poissons Ratio (z) = 0.13831 0.37611
#
# Static dielectric constant tensor:
#      x y z
#    x 2.866090 0.000000 0.000000 
#    y 0.000000 3.613810 0.000000 
#    z 0.000000 0.000000 3.394380 
# 
# 
# High freq. dielectric constant tensor:
#      x y z
#    x 1.653950 0.000000 0.000000 
#    y 0.000000 1.707700 0.000000 
#    z 0.000000 0.000000 1.701050 
# 
# From -- ./inp_files/20406.got.cif
#   From: 2010.03.12/outbox.cif.g09.slc.cpg/sg44_11_cif.got.tgz:20406.got - 2010.04.14 02:36:11.
