data_PCOD8188505
_publ_section_title
;
Structure prediction by ZEFSAII (Michael W. Deem and Ramdas Pophale) SiO2 
 PCOD8188505
Probable space group: I M M 2
;
_chemical_formula_sum "Si O2"
_cell_formula_units_Z 52
_cell_length_a 17.466154
_cell_length_b 7.719753
_cell_length_c 24.767579
_cell_angle_alpha 90.000000
_cell_angle_beta 90.000000
_cell_angle_gamma 90.000000
_cell_volume 3339.521524
_symmetry_space_group_name_H-M "I M M 2"
_symmetry_group_IT_number 44
_symmetry_cell_setting 'orthorhombic'
loop_
_space_group_symop_operation_xyz
x,y,z
-x,-y,z
-x,y,z
x,-y,z
1/2+x,1/2+y,1/2+z
1/2-x,1/2-y,1/2+z
1/2-x,1/2+y,1/2+z
1/2+x,1/2-y,1/2+z
loop_
_atom_site_type_symbol
_atom_site_label
_atom_site_fract_x
_atom_site_fract_y
_atom_site_fract_z
Si Si1 0.166254 0.297206 0.298790
Si Si2 0.180328 0.500000 0.005876
Si Si3 0.726781 0.806964 0.968297
Si Si4 0.584790 0.205602 0.905112
Si Si5 0.316869 0.308838 0.356647
Si Si6 0.910210 0.500000 0.115587
Si Si7 0.909729 0.500000 0.893936
Si Si8 0.912606 0.806503 0.192757
O O1 0.150236 0.500000 0.291540
O O2 0.116537 0.220273 0.348440
O O3 0.256438 0.261334 0.309391
O O4 0.141429 0.200351 0.244800
O O5 0.233518 0.329198 0.008212
O O6 0.127614 0.500000 0.952951
O O7 0.128083 0.500000 0.057729
O O8 0.640201 0.742941 0.955013
O O9 0.770365 0.812570 0.911888
O O10 0.727732 0.000000 0.994550
O O11 0.500000 0.280791 0.916151
O O12 0.584068 0.000000 0.900459
O O13 0.352609 0.500000 0.346174
O O14 0.384484 0.168674 0.359795
O O15 0.883937 0.671015 0.147896
O O16 0.000000 0.500000 0.105194
O O17 0.000000 0.500000 0.900743
O O18 0.000000 0.761511 0.209658
O O19 0.907323 0.000000 0.168182
#
# Coordination Sequence:
#
# PCOD8188505 Si02
#       8
#     8   4   8   8   8   4   4   8
#     4   9  15  26  45  65  91 129 157 174 208 258
#     4  10  19  32  49  62  80 118 158 194 231 264
#     4   8  15  28  43  62  88 116 148 186 222 259
#     4   8  13  22  40  65  95 128 153 172 205 260
#     4   8  16  28  42  64  91 118 147 180 219 264
#     4  10  21  36  48  61  87 118 153 198 231 256
#     4  10  19  30  46  67  89 116 151 188 227 272
#     4  10  20  31  44  65  92 121 152 186 220 254
#
# _framework density 15.571092
#
# number of rings (size 3 to 8) (size 9 to 14) (size 15 to 20)
#    0.000    3.077    0.769    2.538    1.077    1.538 
#    1.385    0.385    0.000    2.769    0.000    0.000 
#    0.000    2.462    1.231    0.000    0.000    0.000 
#
# Total GULP energy -322254.434107 kJ/mol
# GULP energy per Si atom -12394.401312 kJ/mol
# Density = 1.553565 g / cm^3
# Si number density = 15.571092 Si / 1000 Ang^3
#
#
#
# Elastic Constant Matrix: (Units=GPa)
#
#
# Indices 1 2 3 4 5 6 
#
# 1 85.7243 44.3311 29.6819 0.0000 0.0000 0.0000
# 2 44.3311 98.7110 36.5921 0.0000 0.0000 0.0000
# 3 29.6819 36.5921 61.7580 0.0000 0.0000 0.0000
# 4 0.0000 0.0000 0.0000 11.9139 0.0000 0.0000
# 5 0.0000 0.0000 0.0000 0.0000 25.7904 0.0000
# 6 0.0000 0.0000 0.0000 0.0000 0.0000 18.8380
#
#
#
# Elastic Compliance Matrix: (Units=1/GPa)
#
#
# Indices 1 2 3 4 5 6 
#
# 1 0.016084 -0.005584 -0.004422 0.000000 0.000000 0.000000
# 2 -0.005584 0.014921 -0.006157 0.000000 0.000000 0.000000
# 3 -0.004422 -0.006157 0.021965 0.000000 0.000000 0.000000
# 4 0.000000 0.000000 0.000000 0.083936 0.000000 0.000000
# 5 0.000000 0.000000 0.000000 0.000000 0.038774 0.000000
# 6 0.000000 0.000000 0.000000 0.000000 0.000000 0.053084
#
#
# Mechanical properties :
#
#
# Convention : Reuss Voigt Hill
#
# Bulk Modulus (GPa) = 48.43810 51.93370 50.18590
# Shear Modulus (GPa) = 18.65873 20.34767 19.50320
#
# Velocity S-wave (km/s) = 3.46539 3.61883 3.54294
# Velocity P-wave (km/s) = 6.86929 7.13347 7.00262
#
# Compressibility (1/GPa) = 0.02064490
#
# Stress axis : x y z
#
# Youngs Moduli (GPa) = 62.17315 67.02044 45.52648
#
# Poissons Ratio (x) = 0.37426 0.20130
# Poissons Ratio (y) = 0.34720 0.28030
# Poissons Ratio (z) = 0.27490 0.41263
#
# Static dielectric constant tensor:
#      x y z
#    x 2.994760 0.000000 0.000000 
#    y 0.000000 3.229910 0.000000 
#    z 0.000000 0.000000 2.587250 
# 
# 
# High freq. dielectric constant tensor:
#      x y z
#    x 1.580420 0.000000 0.000000 
#    y 0.000000 1.607560 0.000000 
#    z 0.000000 0.000000 1.547900 
# 
# From -- ./inp_files/24107.got.cif
#   From: 2010.03.12/outbox.cif.g09.slc.cpg/sg44_13_cif.got.tgz:24107.got - 2010.04.14 02:36:11.
