data_PCOD8188929
_publ_section_title
;
Structure prediction by ZEFSAII (Michael W. Deem and Ramdas Pophale) SiO2 
 PCOD8188929
Probable space group: I M M 2
;
_chemical_formula_sum "Si O2"
_cell_formula_units_Z 40
_cell_length_a 8.753562
_cell_length_b 25.915908
_cell_length_c 8.978328
_cell_angle_alpha 90.000000
_cell_angle_beta 90.000000
_cell_angle_gamma 90.000000
_cell_volume 2036.792133
_symmetry_space_group_name_H-M "I M M 2"
_symmetry_group_IT_number 44
_symmetry_cell_setting 'orthorhombic'
loop_
_space_group_symop_operation_xyz
x,y,z
-x,-y,z
-x,y,z
x,-y,z
1/2+x,1/2+y,1/2+z
1/2-x,1/2-y,1/2+z
1/2-x,1/2+y,1/2+z
1/2+x,1/2-y,1/2+z
loop_
_atom_site_type_symbol
_atom_site_label
_atom_site_fract_x
_atom_site_fract_y
_atom_site_fract_z
Si Si1 0.318354 0.898348 0.433690
Si Si2 0.317801 0.000000 0.932592
Si Si3 0.681023 0.898490 0.768222
Si Si4 0.678475 0.200697 0.250756
Si Si5 0.682198 0.000000 0.269108
Si Si6 0.176925 0.196800 0.932824
O O1 0.500000 0.899718 0.439577
O O2 0.251615 0.895765 0.601059
O O3 0.262335 0.848550 0.343201
O O4 0.254615 0.949497 0.353193
O O5 0.254083 0.949553 0.848586
O O6 0.500000 0.000000 0.933424
O O7 0.254555 0.000000 0.100924
O O8 0.500000 0.901061 0.762866
O O9 0.727300 0.848721 0.860487
O O10 0.500000 0.195542 0.211127
O O11 0.714232 0.250710 0.347644
O O12 0.775917 0.204656 0.102320
O O13 0.500000 0.000000 0.269026
O O14 0.000000 0.182521 0.923320
#
# Coordination Sequence:
#
# PCOD8188929 Si02
#       6
#     8   4   8   8   4   8
#     4   9  17  30  51  78 106 137 175 221 268 315
#     4   9  17  29  52  83 110 143 184 222 264 317
#     4  10  19  34  56  81 110 144 182 223 269 320
#     4  10  21  37  55  76 106 143 180 220 269 325
#     4   9  15  25  45  77 110 133 168 224 272 309
#     4  11  23  37  55  81 109 140 180 224 273 325
#
# _framework density 19.638725999999998
#
# number of rings (size 3 to 8) (size 9 to 14) (size 15 to 20)
#    0.000    2.200    0.000    3.600    0.000    8.800 
#    0.000    1.500    0.000    0.000    0.000    1.400 
#    0.000    0.000    0.000    0.000    0.000    0.000 
#
# Total GULP energy -248051.306997 kJ/mol
# GULP energy per Si atom -12402.565350 kJ/mol
# Density = 1.959403 g / cm^3
# Si number density = 19.638726 Si / 1000 Ang^3
#
#
#
# Elastic Constant Matrix: (Units=GPa)
#
#
# Indices 1 2 3 4 5 6 
#
# 1 7.3230 12.4627 14.2208 0.0003 0.0003 -0.0002
# 2 12.4627 156.4146 65.4736 0.0000 0.0003 0.0001
# 3 14.2208 65.4736 167.0724 0.0013 0.0008 -0.0008
# 4 0.0003 0.0000 0.0013 42.9935 -0.0001 -0.0001
# 5 0.0003 0.0003 0.0008 -0.0001 21.0700 0.0001
# 6 -0.0002 0.0001 -0.0008 -0.0001 0.0001 19.0260
#
#
#
# Elastic Compliance Matrix: (Units=1/GPa)
#
#
# Indices 1 2 3 4 5 6 
#
# 1 0.173927 -0.009165 -0.011213 -0.000001 -0.000002 0.000001
# 2 -0.009165 0.008131 -0.002406 0.000000 0.000000 0.000000
# 3 -0.011213 -0.002406 0.007883 0.000000 0.000000 0.000000
# 4 -0.000001 0.000000 0.000000 0.023259 0.000000 0.000000
# 5 -0.000002 0.000000 0.000000 0.000000 0.047461 0.000000
# 6 0.000001 0.000000 0.000000 0.000000 0.000000 0.052560
#
#
# Mechanical properties :
#
#
# Convention : Reuss Voigt Hill
#
# Bulk Modulus (GPa) = 6.92647 57.23603 32.08125
# Shear Modulus (GPa) = 12.28766 32.52812 22.40789
#
# Velocity S-wave (km/s) = 2.50408 4.07421 3.38154
# Velocity P-wave (km/s) = 3.44894 7.16519 5.62295
#
# Compressibility (1/GPa) = 0.14437372
#
# Stress axis : x y z
#
# Youngs Moduli (GPa) = 5.74953 122.99061 126.85817
#
# Poissons Ratio (x) = 1.12715 1.42244
# Poissons Ratio (y) = 0.05269 0.30525
# Poissons Ratio (z) = 0.06447 0.29595
#
# Static dielectric constant tensor:
#      x y z
#    x 3.074840 0.000000 0.000000 
#    y 0.000000 3.798140 0.000000 
#    z 0.000000 0.000000 3.829950 
# 
# 
# High freq. dielectric constant tensor:
#      x y z
#    x 1.710740 0.000000 0.000000 
#    y 0.000000 1.785850 0.000000 
#    z 0.000000 0.000000 1.786430 
# 
# From -- ./inp_files/4650.got.cif
#   From: 2010.03.12/outbox.cif.g09.slc.cpg/sg44_3_cif.got.tgz:4650.got - 2010.04.14 02:36:11.
