data_PCOD8188203
_publ_section_title
;
Structure prediction by ZEFSAII (Michael W. Deem and Ramdas Pophale) SiO2 
 PCOD8188203
Probable space group: I M M 2
;
_chemical_formula_sum "Si O2"
_cell_formula_units_Z 40
_cell_length_a 8.855322
_cell_length_b 18.677991
_cell_length_c 13.671251
_cell_angle_alpha 90.000000
_cell_angle_beta 90.000000
_cell_angle_gamma 90.000000
_cell_volume 2261.219783
_symmetry_space_group_name_H-M "I M M 2"
_symmetry_group_IT_number 44
_symmetry_cell_setting 'orthorhombic'
loop_
_space_group_symop_operation_xyz
x,y,z
-x,-y,z
-x,y,z
x,-y,z
1/2+x,1/2+y,1/2+z
1/2-x,1/2-y,1/2+z
1/2-x,1/2+y,1/2+z
1/2+x,1/2-y,1/2+z
loop_
_atom_site_type_symbol
_atom_site_label
_atom_site_fract_x
_atom_site_fract_y
_atom_site_fract_z
Si Si1 0.679170 0.785985 0.635950
Si Si2 0.679387 0.356784 0.959192
Si Si3 0.677218 0.147680 0.047879
Si Si4 0.676725 0.783290 0.852379
Si Si5 0.822614 0.500000 0.643598
Si Si6 0.321128 0.500000 0.855141
O O1 0.500000 0.790549 0.628153
O O2 0.751118 0.846472 0.566833
O O3 0.730953 0.706076 0.608898
O O4 0.741308 0.802612 0.745564
O O5 0.500000 0.355165 0.969396
O O6 0.741076 0.292785 0.890439
O O7 0.737910 0.430828 0.913590
O O8 0.500000 0.161540 0.065620
O O9 0.728231 0.069248 0.081923
O O10 0.715784 0.155393 0.932119
O O11 0.500000 0.773461 0.840441
O O12 0.742105 0.500000 0.746830
O O13 0.000000 0.500000 0.661876
O O14 0.500000 0.500000 0.847295
#
# Coordination Sequence:
#
# PCOD8188203 Si02
#       6
#     8   8   8   8   4   4
#     4  10  18  30  50  74  95 122 162 206 241 277
#     4   9  18  33  50  70  96 128 161 194 238 296
#     4   9  18  33  49  69  98 130 160 194 240 296
#     4   8  15  29  48  67  92 124 158 192 232 282
#     4  10  20  32  51  76 100 126 161 204 245 284
#     4  10  20  34  53  72  98 134 163 192 243 302
#
# _framework density 17.689567
#
# number of rings (size 3 to 8) (size 9 to 14) (size 15 to 20)
#    0.000    2.800    0.000    3.000    0.000    3.200 
#    0.000   11.000    0.000    2.400    0.000    0.000 
#    0.000    0.000    0.000    0.000    0.000    0.000 
#
# Total GULP energy -247931.339077 kJ/mol
# GULP energy per Si atom -12396.566954 kJ/mol
# Density = 1.764930 g / cm^3
# Si number density = 17.689567 Si / 1000 Ang^3
#
#
#
# Elastic Constant Matrix: (Units=GPa)
#
#
# Indices 1 2 3 4 5 6 
#
# 1 27.2377 21.1643 28.4562 0.0000 0.0000 0.0000
# 2 21.1643 133.7081 81.2720 0.0000 0.0000 0.0000
# 3 28.4562 81.2720 182.6763 -0.0001 0.0000 0.0000
# 4 0.0000 0.0000 -0.0001 26.1094 0.0000 0.0000
# 5 0.0000 0.0000 0.0000 0.0000 27.3314 0.0000
# 6 0.0000 0.0000 0.0000 0.0000 0.0000 20.1794
#
#
#
# Elastic Compliance Matrix: (Units=1/GPa)
#
#
# Indices 1 2 3 4 5 6 
#
# 1 0.045324 -0.003951 -0.005302 0.000000 0.000000 0.000000
# 2 -0.003951 0.010596 -0.004098 0.000000 0.000000 0.000000
# 3 -0.005302 -0.004098 0.008124 0.000000 0.000000 0.000000
# 4 0.000000 0.000000 0.000000 0.038300 0.000000 0.000000
# 5 0.000000 0.000000 0.000000 0.000000 0.036588 0.000000
# 6 0.000000 0.000000 0.000000 0.000000 0.000000 0.049556
#
#
# Mechanical properties :
#
#
# Convention : Reuss Voigt Hill
#
# Bulk Modulus (GPa) = 26.78192 67.26748 47.02470
# Shear Modulus (GPa) = 21.96483 28.90602 25.43543
#
# Velocity S-wave (km/s) = 3.52758 4.04675 3.79605
# Velocity P-wave (km/s) = 5.63600 7.74236 6.77158
#
# Compressibility (1/GPa) = 0.03733862
#
# Stress axis : x y z
#
# Youngs Moduli (GPa) = 22.06359 94.37907 123.09944
#
# Poissons Ratio (x) = 0.37291 0.65272
# Poissons Ratio (y) = 0.08718 0.50451
# Poissons Ratio (z) = 0.11699 0.38681
#
# Static dielectric constant tensor:
#      x y z
#    x 3.036610 0.000000 0.000000 
#    y 0.000000 3.355840 0.000000 
#    z 0.000000 0.000000 3.635130 
# 
# 
# High freq. dielectric constant tensor:
#      x y z
#    x 1.662020 0.000000 0.000000 
#    y 0.000000 1.673170 0.000000 
#    z 0.000000 0.000000 1.696240 
# 
# From -- ./inp_files/11003.got.cif
#   From: 2010.03.12/outbox.cif.g09.slc.cpg/sg44_6_cif.got.tgz:11003.got - 2010.04.14 02:36:11.
