data_PCOD8188057
_publ_section_title
;
Structure prediction by ZEFSAII (Michael W. Deem and Ramdas Pophale) SiO2 
 PCOD8188057
Probable space group: I M M 2
;
_chemical_formula_sum "Si O2"
_cell_formula_units_Z 64
_cell_length_a 24.910292
_cell_length_b 8.866650
_cell_length_c 20.195237
_cell_angle_alpha 90.000000
_cell_angle_beta 90.000000
_cell_angle_gamma 90.000000
_cell_volume 4460.538972
_symmetry_space_group_name_H-M "I M M 2"
_symmetry_group_IT_number 44
_symmetry_cell_setting 'orthorhombic'
loop_
_space_group_symop_operation_xyz
x,y,z
-x,-y,z
-x,y,z
x,-y,z
1/2+x,1/2+y,1/2+z
1/2-x,1/2-y,1/2+z
1/2-x,1/2+y,1/2+z
1/2+x,1/2-y,1/2+z
loop_
_atom_site_type_symbol
_atom_site_label
_atom_site_fract_x
_atom_site_fract_y
_atom_site_fract_z
Si Si1 0.559952 0.826412 0.781180
Si Si2 0.255518 0.331830 0.832175
Si Si3 0.261738 0.677055 0.204771
Si Si4 0.058457 0.327736 0.538624
Si Si5 0.907462 0.177244 0.412559
Si Si6 0.329319 0.174846 0.094496
Si Si7 0.158484 0.169221 0.229671
Si Si8 0.298415 0.175146 0.949143
O O1 0.500000 0.812803 0.750744
O O2 0.561052 0.725737 0.847018
O O3 0.602963 0.761979 0.728344
O O4 0.573947 0.000000 0.797267
O O5 0.231595 0.500000 0.835645
O O6 0.221135 0.235851 0.778363
O O7 0.317644 0.335152 0.805099
O O8 0.252912 0.261047 0.905936
O O9 0.255157 0.500000 0.206459
O O10 0.307102 0.722775 0.152939
O O11 0.204065 0.750640 0.184006
O O12 0.068367 0.500000 0.514135
O O13 0.056133 0.216629 0.475977
O O14 0.107420 0.284943 0.587573
O O15 0.000000 0.314006 0.574484
O O16 0.854673 0.277262 0.418935
O O17 0.894354 0.000000 0.411111
O O18 0.320904 0.000000 0.112446
O O19 0.297110 0.216194 0.026976
O O20 0.148149 0.000000 0.203171
O O21 0.289327 0.000000 0.937759
#
# Coordination Sequence:
#
# PCOD8188057 Si02
#       8
#     8   8   8   8   8   8   8   8
#     4  11  21  29  38  54  77 105 138 173 205 240
#     4   9  17  28  43  60  79 103 133 170 210 247
#     4  10  18  29  45  61  78 104 138 171 206 251
#     4   9  18  31  43  54  73 104 137 169 206 244
#     4  11  19  26  36  52  75 104 138 173 205 236
#     4   9  18  30  43  61  83 106 137 174 208 244
#     4   9  18  30  43  57  75 101 133 170 208 243
#     4  10  18  28  43  60  81 108 138 174 210 246
#
# _framework density 14.348041
#
# number of rings (size 3 to 8) (size 9 to 14) (size 15 to 20)
#    0.750    1.500    1.250    4.500    0.000    5.250 
#    0.000    0.000    0.000    0.000    0.000    0.000 
#    0.000    0.000    0.000    1.125    0.000   18.250 
#
# Total GULP energy -396504.825816 kJ/mol
# GULP energy per Si atom -12390.775807 kJ/mol
# Density = 1.431538 g / cm^3
# Si number density = 14.348041 Si / 1000 Ang^3
#
#
#
# Elastic Constant Matrix: (Units=GPa)
#
#
# Indices 1 2 3 4 5 6 
#
# 1 60.9935 27.6823 32.4291 0.0000 0.0000 0.0000
# 2 27.6823 84.7010 30.8114 0.0000 0.0000 0.0000
# 3 32.4291 30.8114 55.6516 0.0000 0.0000 0.0000
# 4 0.0000 0.0000 0.0000 22.3868 0.0000 0.0000
# 5 0.0000 0.0000 0.0000 0.0000 18.4055 0.0000
# 6 0.0000 0.0000 0.0000 0.0000 0.0000 17.6498
#
#
#
# Elastic Compliance Matrix: (Units=1/GPa)
#
#
# Indices 1 2 3 4 5 6 
#
# 1 0.024572 -0.003534 -0.012362 0.000000 0.000000 0.000000
# 2 -0.003534 0.015292 -0.006407 0.000000 0.000000 0.000000
# 3 -0.012362 -0.006407 0.028720 0.000000 0.000000 0.000000
# 4 0.000000 0.000000 0.000000 0.044669 0.000000 0.000000
# 5 0.000000 0.000000 0.000000 0.000000 0.054331 0.000000
# 6 0.000000 0.000000 0.000000 0.000000 0.000000 0.056658
#
#
# Mechanical properties :
#
#
# Convention : Reuss Voigt Hill
#
# Bulk Modulus (GPa) = 41.70543 42.57687 42.14115
# Shear Modulus (GPa) = 18.06102 19.04999 18.55550
#
# Velocity S-wave (km/s) = 3.55178 3.64772 3.60007
# Velocity P-wave (km/s) = 6.77866 6.89057 6.83484
#
# Compressibility (1/GPa) = 0.02397769
#
# Stress axis : x y z
#
# Youngs Moduli (GPa) = 40.69754 65.39428 34.81935
#
# Poissons Ratio (x) = 0.23109 0.43043
# Poissons Ratio (y) = 0.14381 0.22309
# Poissons Ratio (z) = 0.50309 0.41899
#
# Static dielectric constant tensor:
#      x y z
#    x 2.590820 0.000000 0.000000 
#    y 0.000000 2.885980 0.000000 
#    z 0.000000 0.000000 2.535050 
# 
# 
# High freq. dielectric constant tensor:
#      x y z
#    x 1.515910 0.000000 0.000000 
#    y 0.000000 1.564620 0.000000 
#    z 0.000000 0.000000 1.504550 
# 
# From -- ./inp_files/25884.got.cif
#   From: 2010.03.12/outbox.cif.g09.slc.cpg/sg44_13_cif.got.tgz:25884.got - 2010.04.14 02:36:11.
