data_PCOD8188110
_publ_section_title
;
Structure prediction by ZEFSAII (Michael W. Deem and Ramdas Pophale) SiO2 
 PCOD8188110
Probable space group: I M M 2
;
_chemical_formula_sum "Si O2"
_cell_formula_units_Z 40
_cell_length_a 25.839522
_cell_length_b 9.045853
_cell_length_c 9.131707
_cell_angle_alpha 90.000000
_cell_angle_beta 90.000000
_cell_angle_gamma 90.000000
_cell_volume 2134.449921
_symmetry_space_group_name_H-M "I M M 2"
_symmetry_group_IT_number 44
_symmetry_cell_setting 'orthorhombic'
loop_
_space_group_symop_operation_xyz
x,y,z
-x,-y,z
-x,y,z
x,-y,z
1/2+x,1/2+y,1/2+z
1/2-x,1/2-y,1/2+z
1/2-x,1/2+y,1/2+z
1/2+x,1/2-y,1/2+z
loop_
_atom_site_type_symbol
_atom_site_label
_atom_site_fract_x
_atom_site_fract_y
_atom_site_fract_z
Si Si1 0.397225 0.827549 0.316220
Si Si2 0.000000 0.173387 0.826398
Si Si3 0.887848 0.667349 0.157714
Si Si4 0.702391 0.825515 0.137266
Si Si5 0.300350 0.326207 0.826468
Si Si6 0.500000 0.833157 0.623083
O O1 0.447856 0.742100 0.256478
O O2 0.386050 0.792128 0.486203
O O3 0.348422 0.771449 0.223359
O O4 0.407143 0.000000 0.293215
O O5 0.000000 0.210468 0.997884
O O6 0.000000 0.000000 0.799276
O O7 0.867949 0.500000 0.183331
O O8 0.853191 0.779753 0.247847
O O9 0.947270 0.684733 0.216729
O O10 0.752268 0.774211 0.228355
O O11 0.701807 0.000000 0.114251
O O12 0.704781 0.749124 0.981961
O O13 0.300474 0.500000 0.850155
O O14 0.500000 0.000000 0.551955
#
# Coordination Sequence:
#
# PCOD8188110 Si02
#       6
#     8   4   8   8   8   4
#     4   9  18  35  57  78 104 143 185 216 250 310
#     4  10  18  28  49  82 113 138 170 218 270 308
#     4   9  17  33  57  81 107 141 180 218 256 306
#     4  10  22  39  57  77 104 141 180 215 259 318
#     4  11  23  37  55  81 109 136 172 221 271 314
#     4   8  16  32  53  76 105 144 184 214 248 308
#
# _framework density 18.740189999999998
#
# number of rings (size 3 to 8) (size 9 to 14) (size 15 to 20)
#    0.000    2.400    0.000    3.900    0.000    7.200 
#    0.000    1.000    0.000    2.400    0.000    0.000 
#    0.000    0.000    0.000    0.000    0.000    0.000 
#
# Total GULP energy -247970.764427 kJ/mol
# GULP energy per Si atom -12398.538221 kJ/mol
# Density = 1.869754 g / cm^3
# Si number density = 18.740190 Si / 1000 Ang^3
#
#
#
# Elastic Constant Matrix: (Units=GPa)
#
#
# Indices 1 2 3 4 5 6 
#
# 1 175.9534 51.2387 71.7230 0.0000 0.0000 0.0000
# 2 51.2387 51.1537 35.7987 0.0000 0.0000 0.0000
# 3 71.7230 35.7987 97.7389 0.0000 0.0000 0.0000
# 4 0.0000 0.0000 0.0000 29.2580 0.0000 0.0000
# 5 0.0000 0.0000 0.0000 0.0000 29.0169 0.0000
# 6 0.0000 0.0000 0.0000 0.0000 0.0000 26.5502
#
#
#
# Elastic Compliance Matrix: (Units=1/GPa)
#
#
# Indices 1 2 3 4 5 6 
#
# 1 0.009352 -0.006138 -0.004614 0.000000 0.000000 0.000000
# 2 -0.006138 0.030316 -0.006599 0.000000 0.000000 0.000000
# 3 -0.004614 -0.006599 0.016035 0.000000 0.000000 0.000000
# 4 0.000000 0.000000 0.000000 0.034179 0.000000 0.000000
# 5 0.000000 0.000000 0.000000 0.000000 0.034463 0.000000
# 6 0.000000 0.000000 0.000000 0.000000 0.000000 0.037664
#
#
# Mechanical properties :
#
#
# Convention : Reuss Voigt Hill
#
# Bulk Modulus (GPa) = 47.62278 71.37407 59.49843
# Shear Modulus (GPa) = 24.54463 28.03740 26.29101
#
# Velocity S-wave (km/s) = 3.62295 3.87216 3.74962
# Velocity P-wave (km/s) = 6.55502 7.62629 7.11085
#
# Compressibility (1/GPa) = 0.02099835
#
# Stress axis : x y z
#
# Youngs Moduli (GPa) = 106.93310 32.98632 62.36518
#
# Poissons Ratio (x) = 0.20247 0.28777
# Poissons Ratio (y) = 0.65635 0.41158
# Poissons Ratio (z) = 0.49342 0.21769
#
# Static dielectric constant tensor:
#      x y z
#    x 3.915270 0.000000 0.000000 
#    y 0.000000 3.292330 0.000000 
#    z 0.000000 0.000000 3.162180 
# 
# 
# High freq. dielectric constant tensor:
#      x y z
#    x 1.752130 0.000000 0.000000 
#    y 0.000000 1.719290 0.000000 
#    z 0.000000 0.000000 1.697530 
# 
# From -- ./inp_files/4621.got.cif
#   From: 2010.03.12/outbox.cif.g09.slc.cpg/sg44_3_cif.got.tgz:4621.got - 2010.04.14 02:36:11.
