data_PCOD8188191
_publ_section_title
;
Structure prediction by ZEFSAII (Michael W. Deem and Ramdas Pophale) SiO2 
 PCOD8188191
Probable space group: I M M 2
;
_chemical_formula_sum "Si O2"
_cell_formula_units_Z 64
_cell_length_a 8.913997
_cell_length_b 23.248395
_cell_length_c 18.980178
_cell_angle_alpha 90.000000
_cell_angle_beta 90.000000
_cell_angle_gamma 90.000000
_cell_volume 3933.378508
_symmetry_space_group_name_H-M "I M M 2"
_symmetry_group_IT_number 44
_symmetry_cell_setting 'orthorhombic'
loop_
_space_group_symop_operation_xyz
x,y,z
-x,-y,z
-x,y,z
x,-y,z
1/2+x,1/2+y,1/2+z
1/2-x,1/2-y,1/2+z
1/2-x,1/2+y,1/2+z
1/2+x,1/2-y,1/2+z
loop_
_atom_site_type_symbol
_atom_site_label
_atom_site_fract_x
_atom_site_fract_y
_atom_site_fract_z
Si Si1 0.827911 0.763586 0.347370
Si Si2 0.178160 0.118030 0.002599
Si Si3 0.326462 0.758498 0.004289
Si Si4 0.828360 0.841036 0.222804
Si Si5 0.325843 0.224888 0.638877
Si Si6 0.677679 0.563635 0.358442
Si Si7 0.323869 0.666403 0.263755
Si Si8 0.326751 0.066003 0.137209
O O1 0.802593 0.774499 0.430128
O O2 0.792521 0.821620 0.303185
O O3 0.718925 0.712832 0.323020
O O4 0.000000 0.744926 0.331036
O O5 0.241267 0.088138 0.932008
O O6 0.000000 0.121522 0.004018
O O7 0.239627 0.181955 0.005988
O O8 0.231078 0.080658 0.068477
O O9 0.500000 0.770864 0.018858
O O10 0.260301 0.717809 0.065086
O O11 0.793775 0.787759 0.171008
O O12 0.723575 0.894498 0.202885
O O13 0.000000 0.860654 0.214548
O O14 0.500000 0.213973 0.626294
O O15 0.264286 0.176256 0.691392
O O16 0.500000 0.561403 0.364873
O O17 0.744252 0.500000 0.345111
O O18 0.724555 0.604084 0.293363
O O19 0.500000 0.670651 0.249295
O O20 0.500000 0.077954 0.120685
O O21 0.298334 0.000000 0.158486
#
# Coordination Sequence:
#
# PCOD8188191 Si02
#       8
#     8   8   8   8   8   8   8   8
#     4   9  19  33  49  70  99 126 155 199 246 292
#     4  11  20  32  48  69  98 134 171 201 234 282
#     4  11  20  31  50  74 100 130 161 199 247 292
#     4   9  18  33  50  68  92 126 162 198 240 288
#     4  10  20  33  49  70  98 127 160 202 246 293
#     4   9  18  31  47  69  97 130 169 206 237 278
#     4  10  18  30  49  71  95 127 166 203 242 286
#     4  11  23  35  47  68  98 131 168 208 243 280
#
# _framework density 16.271000000000001
#
# number of rings (size 3 to 8) (size 9 to 14) (size 15 to 20)
#    0.000    2.000    2.500    3.000    0.000    4.000 
#    0.000    0.000    0.000    3.750    0.000    0.875 
#    0.000    3.000    0.000    0.000    0.000    0.000 
#
# Total GULP energy -396824.533388 kJ/mol
# GULP energy per Si atom -12400.766668 kJ/mol
# Density = 1.623397 g / cm^3
# Si number density = 16.271000 Si / 1000 Ang^3
#
#
#
# Elastic Constant Matrix: (Units=GPa)
#
#
# Indices 1 2 3 4 5 6 
#
# 1 72.4733 34.1817 41.3201 0.0000 0.0000 0.0000
# 2 34.1817 83.9088 56.9137 0.0000 0.0000 0.0000
# 3 41.3201 56.9137 119.1344 0.0000 0.0000 0.0000
# 4 0.0000 0.0000 0.0000 23.3866 0.0000 0.0000
# 5 0.0000 0.0000 0.0000 0.0000 24.1903 0.0000
# 6 0.0000 0.0000 0.0000 0.0000 0.0000 20.4117
#
#
#
# Elastic Compliance Matrix: (Units=1/GPa)
#
#
# Indices 1 2 3 4 5 6 
#
# 1 0.018360 -0.004675 -0.004135 0.000000 0.000000 0.000000
# 2 -0.004675 0.018821 -0.007370 0.000000 0.000000 0.000000
# 3 -0.004135 -0.007370 0.013349 0.000000 0.000000 0.000000
# 4 0.000000 0.000000 0.000000 0.042760 0.000000 0.000000
# 5 0.000000 0.000000 0.000000 0.000000 0.041339 0.000000
# 6 0.000000 0.000000 0.000000 0.000000 0.000000 0.048992
#
#
# Mechanical properties :
#
#
# Convention : Reuss Voigt Hill
#
# Bulk Modulus (GPa) = 55.03240 60.03863 57.53552
# Shear Modulus (GPa) = 22.51885 23.13778 22.82832
#
# Velocity S-wave (km/s) = 3.72423 3.77507 3.74974
# Velocity P-wave (km/s) = 7.23803 7.48203 7.36104
#
# Compressibility (1/GPa) = 0.01817111
#
# Stress axis : x y z
#
# Youngs Moduli (GPa) = 54.46481 53.13230 74.91355
#
# Poissons Ratio (x) = 0.24839 0.30975
# Poissons Ratio (y) = 0.25462 0.55210
# Poissons Ratio (z) = 0.22520 0.39158
#
# Static dielectric constant tensor:
#      x y z
#    x 3.095170 0.000000 0.000000 
#    y 0.000000 3.004180 0.000000 
#    z 0.000000 0.000000 3.256350 
# 
# 
# High freq. dielectric constant tensor:
#      x y z
#    x 1.630340 0.000000 0.000000 
#    y 0.000000 1.595770 0.000000 
#    z 0.000000 0.000000 1.624870 
# 
# From -- ./inp_files/23422.got.cif
#   From: 2010.03.12/outbox.cif.g09.slc.cpg/sg44_12_cif.got.tgz:23422.got - 2010.04.14 02:36:11.
