data_PCOD8188559
_publ_section_title
;
Structure prediction by ZEFSAII (Michael W. Deem and Ramdas Pophale) SiO2 
 PCOD8188559
Probable space group: I M M 2
;
_chemical_formula_sum "Si O2"
_cell_formula_units_Z 64
_cell_length_a 9.280677
_cell_length_b 24.761851
_cell_length_c 15.257843
_cell_angle_alpha 90.000000
_cell_angle_beta 90.000000
_cell_angle_gamma 90.000000
_cell_volume 3506.355175
_symmetry_space_group_name_H-M "I M M 2"
_symmetry_group_IT_number 44
_symmetry_cell_setting 'orthorhombic'
loop_
_space_group_symop_operation_xyz
x,y,z
-x,-y,z
-x,y,z
x,-y,z
1/2+x,1/2+y,1/2+z
1/2-x,1/2-y,1/2+z
1/2-x,1/2+y,1/2+z
1/2+x,1/2-y,1/2+z
loop_
_atom_site_type_symbol
_atom_site_label
_atom_site_fract_x
_atom_site_fract_y
_atom_site_fract_z
Si Si1 0.165271 0.760412 0.340290
Si Si2 0.833694 0.939148 0.724768
Si Si3 0.334739 0.364870 0.733369
Si Si4 0.171186 0.846893 0.855452
Si Si5 0.832121 0.562499 0.869183
Si Si6 0.833657 0.715537 0.007807
Si Si7 0.666226 0.900901 0.559180
Si Si8 0.830699 0.167139 0.050386
O O1 0.176165 0.802190 0.260701
O O2 0.251824 0.705994 0.316232
O O3 0.234879 0.790981 0.422730
O O4 0.000000 0.745164 0.360765
O O5 0.777737 0.898700 0.800104
O O6 0.751242 0.931312 0.634358
O O7 0.000000 0.927862 0.705045
O O8 0.808176 0.000000 0.758869
O O9 0.500000 0.384481 0.737711
O O10 0.244026 0.404547 0.792969
O O11 0.269613 0.366225 0.633726
O O12 0.000000 0.837864 0.851124
O O13 0.222315 0.855909 0.956467
O O14 0.798699 0.500000 0.853637
O O15 0.000000 0.576018 0.863621
O O16 0.774127 0.579917 0.964798
O O17 0.810809 0.663567 0.069566
O O18 0.787364 0.769654 0.058906
O O19 0.000000 0.719118 0.976436
O O20 0.500000 0.917376 0.568792
O O21 0.000000 0.161712 0.057093
#
# Coordination Sequence:
#
# PCOD8188559 Si02
#       8
#     8   8   8   8   8   8   8   8
#     4  10  19  30  50  80 112 138 171 219 268 314
#     4  10  22  38  55  78 107 140 183 234 280 319
#     4  10  20  33  52  79 109 139 175 220 266 310
#     4   9  19  37  57  75 104 145 185 221 267 325
#     4  10  21  37  55  76 106 143 181 217 257 314
#     4   9  17  32  54  76 105 143 178 208 254 320
#     4  10  20  34  56  81 107 142 180 217 265 328
#     4   8  16  32  53  76 104 137 174 215 259 311
#
# _framework density 18.252571
#
# number of rings (size 3 to 8) (size 9 to 14) (size 15 to 20)
#    0.000    2.500    1.250    1.500    1.750    3.000 
#    0.000    3.125    0.000    2.250    0.000    0.000 
#    0.000    0.000    0.000    0.000    0.000    0.000 
#
# Total GULP energy -396694.653500 kJ/mol
# GULP energy per Si atom -12396.707922 kJ/mol
# Density = 1.821103 g / cm^3
# Si number density = 18.252571 Si / 1000 Ang^3
#
#
#
# Elastic Constant Matrix: (Units=GPa)
#
#
# Indices 1 2 3 4 5 6 
#
# 1 48.2850 35.3687 34.4352 0.0000 0.0000 0.0000
# 2 35.3687 97.3863 57.7905 0.0000 0.0000 0.0000
# 3 34.4352 57.7905 118.5005 -0.0001 0.0000 0.0000
# 4 0.0000 0.0000 -0.0001 30.0275 0.0000 0.0000
# 5 0.0000 0.0000 0.0000 0.0000 19.9332 0.0000
# 6 0.0000 0.0000 0.0000 0.0000 0.0000 24.7629
#
#
#
# Elastic Compliance Matrix: (Units=1/GPa)
#
#
# Indices 1 2 3 4 5 6 
#
# 1 0.030037 -0.008062 -0.004797 0.000000 0.000000 0.000000
# 2 -0.008062 0.016614 -0.005760 0.000000 0.000000 0.000000
# 3 -0.004797 -0.005760 0.012641 0.000000 0.000000 0.000000
# 4 0.000000 0.000000 0.000000 0.033303 0.000000 0.000000
# 5 0.000000 0.000000 0.000000 0.000000 0.050168 0.000000
# 6 0.000000 0.000000 0.000000 0.000000 0.000000 0.040383
#
#
# Mechanical properties :
#
#
# Convention : Reuss Voigt Hill
#
# Bulk Modulus (GPa) = 45.34028 57.70673 51.52350
# Shear Modulus (GPa) = 21.95534 24.04987 23.00260
#
# Velocity S-wave (km/s) = 3.47199 3.63384 3.55384
# Velocity P-wave (km/s) = 6.40058 7.02073 6.71781
#
# Compressibility (1/GPa) = 0.02205544
#
# Stress axis : x y z
#
# Youngs Moduli (GPa) = 33.29246 60.18889 79.10460
#
# Poissons Ratio (x) = 0.48527 0.37943
# Poissons Ratio (y) = 0.26842 0.45561
# Poissons Ratio (z) = 0.15969 0.34667
#
# Static dielectric constant tensor:
#      x y z
#    x 3.208420 0.000000 0.000000 
#    y 0.000000 3.407580 0.000000 
#    z 0.000000 0.000000 3.483570 
# 
# 
# High freq. dielectric constant tensor:
#      x y z
#    x 1.687970 0.000000 0.000000 
#    y 0.000000 1.704890 0.000000 
#    z 0.000000 0.000000 1.705100 
# 
# From -- ./inp_files/16786.got.cif
#   From: 2010.03.12/outbox.cif.g09.slc.cpg/sg44_9_cif.got.tgz:16786.got - 2010.04.14 02:36:11.
