data_PCOD8188814
_publ_section_title
;
Structure prediction by ZEFSAII (Michael W. Deem and Ramdas Pophale) SiO2 
 PCOD8188814
Probable space group: I M M 2
;
_chemical_formula_sum "Si O2"
_cell_formula_units_Z 64
_cell_length_a 27.457386
_cell_length_b 8.978777
_cell_length_c 13.215072
_cell_angle_alpha 90.000000
_cell_angle_beta 90.000000
_cell_angle_gamma 90.000000
_cell_volume 3257.961202
_symmetry_space_group_name_H-M "I M M 2"
_symmetry_group_IT_number 44
_symmetry_cell_setting 'orthorhombic'
loop_
_space_group_symop_operation_xyz
x,y,z
-x,-y,z
-x,y,z
x,-y,z
1/2+x,1/2+y,1/2+z
1/2-x,1/2-y,1/2+z
1/2-x,1/2+y,1/2+z
1/2+x,1/2-y,1/2+z
loop_
_atom_site_type_symbol
_atom_site_label
_atom_site_fract_x
_atom_site_fract_y
_atom_site_fract_z
Si Si1 0.878776 0.177163 0.853630
Si Si2 0.278411 0.822479 0.117603
Si Si3 0.221918 0.167843 0.931760
Si Si4 0.608565 0.323032 0.739943
Si Si5 0.210514 0.332098 0.258448
Si Si6 0.054946 0.177240 0.036844
Si Si7 0.120885 0.176408 0.625559
Si Si8 0.054495 0.176676 0.440845
O O1 0.825341 0.246499 0.881112
O O2 0.893354 0.229162 0.739730
O O3 0.878753 0.000000 0.854329
O O4 0.916961 0.237862 0.937239
O O5 0.259628 0.747240 0.219231
O O6 0.330615 0.757779 0.088583
O O7 0.281458 0.000000 0.125084
O O8 0.236452 0.765097 0.039924
O O9 0.274308 0.168324 0.875549
O O10 0.203806 0.000000 0.947665
O O11 0.611606 0.500000 0.741137
O O12 0.662883 0.261713 0.736127
O O13 0.580268 0.265701 0.640249
O O14 0.582346 0.261739 0.841378
O O15 0.203926 0.500000 0.217081
O O16 0.000000 0.239872 0.033658
O O17 0.054684 0.000000 0.036899
O O18 0.079596 0.226592 0.545860
O O19 0.129710 0.000000 0.621763
O O20 0.000000 0.242831 0.440625
O O21 0.052914 0.000000 0.433999
#
# Coordination Sequence:
#
# PCOD8188814 Si02
#       8
#     8   8   8   8   8   8   8   8
#     4   9  16  29  48  70 101 136 172 214 259 308
#     4  11  21  34  54  78 106 140 180 222 265 319
#     4   9  18  32  50  72 102 139 173 212 261 311
#     4  10  19  33  53  78 110 139 175 225 273 320
#     4  11  21  35  54  77 107 141 178 215 265 325
#     4   9  17  29  50  78 103 134 177 221 263 310
#     4  10  19  33  53  76 109 144 176 220 272 323
#     4   9  18  32  53  82 111 141 180 230 282 322
#
# _framework density 19.644186999999999
#
# number of rings (size 3 to 8) (size 9 to 14) (size 15 to 20)
#    0.000    2.250    1.250    2.625    0.000    4.000 
#    0.000    4.375    0.000    2.625    0.000    0.000 
#    0.000    0.000    0.000    0.000    0.000    0.000 
#
# Total GULP energy -396540.554638 kJ/mol
# GULP energy per Si atom -12391.892332 kJ/mol
# Density = 1.959948 g / cm^3
# Si number density = 19.644187 Si / 1000 Ang^3
#
#
#
# Elastic Constant Matrix: (Units=GPa)
#
#
# Indices 1 2 3 4 5 6 
#
# 1 134.3395 16.0694 54.3773 0.0000 0.0000 0.0000
# 2 16.0694 26.5836 16.1814 0.0000 0.0000 0.0000
# 3 54.3773 16.1814 129.8010 0.0000 0.0000 0.0000
# 4 0.0000 0.0000 0.0000 11.8649 0.0000 0.0000
# 5 0.0000 0.0000 0.0000 0.0000 35.6993 0.0000
# 6 0.0000 0.0000 0.0000 0.0000 0.0000 23.0340
#
#
#
# Elastic Compliance Matrix: (Units=1/GPa)
#
#
# Indices 1 2 3 4 5 6 
#
# 1 0.009255 -0.003500 -0.003441 0.000000 0.000000 0.000000
# 2 -0.003500 0.042030 -0.003773 0.000000 0.000000 0.000000
# 3 -0.003441 -0.003773 0.009616 0.000000 0.000000 0.000000
# 4 0.000000 0.000000 0.000000 0.084282 0.000000 0.000000
# 5 0.000000 0.000000 0.000000 0.000000 0.028012 0.000000
# 6 0.000000 0.000000 0.000000 0.000000 0.000000 0.043414
#
#
# Mechanical properties :
#
#
# Convention : Reuss Voigt Hill
#
# Bulk Modulus (GPa) = 25.33423 51.55338 38.44380
# Shear Modulus (GPa) = 19.90482 27.72605 23.81543
#
# Velocity S-wave (km/s) = 3.18664 3.76095 3.48564
# Velocity P-wave (km/s) = 5.14433 6.72014 5.98433
#
# Compressibility (1/GPa) = 0.03947229
#
# Stress axis : x y z
#
# Youngs Moduli (GPa) = 108.04579 23.79266 103.99336
#
# Poissons Ratio (x) = 0.08328 0.35784
# Poissons Ratio (y) = 0.37818 0.39239
# Poissons Ratio (z) = 0.37178 0.08977
#
# Static dielectric constant tensor:
#      x y z
#    x 3.682080 0.000000 0.000000 
#    y 0.000000 3.013190 0.000000 
#    z 0.000000 0.000000 3.884510 
# 
# 
# High freq. dielectric constant tensor:
#      x y z
#    x 1.771410 0.000000 0.000000 
#    y 0.000000 1.703200 0.000000 
#    z 0.000000 0.000000 1.784540 
# 
# From -- ./inp_files/19451.got.cif
#   From: 2010.03.12/outbox.cif.g09.slc.cpg/sg44_10_cif.got.tgz:19451.got - 2010.04.14 02:36:11.
