data_PCOD8188497
_publ_section_title
;
Structure prediction by ZEFSAII (Michael W. Deem and Ramdas Pophale) SiO2 
 PCOD8188497
Probable space group: I M M 2
;
_chemical_formula_sum "Si O2"
_cell_formula_units_Z 56
_cell_length_a 13.650693
_cell_length_b 8.925142
_cell_length_c 29.186927
_cell_angle_alpha 90.000000
_cell_angle_beta 90.000000
_cell_angle_gamma 90.000000
_cell_volume 3555.970963
_symmetry_space_group_name_H-M "I M M 2"
_symmetry_group_IT_number 44
_symmetry_cell_setting 'orthorhombic'
loop_
_space_group_symop_operation_xyz
x,y,z
-x,-y,z
-x,y,z
x,-y,z
1/2+x,1/2+y,1/2+z
1/2-x,1/2-y,1/2+z
1/2-x,1/2+y,1/2+z
1/2+x,1/2-y,1/2+z
loop_
_atom_site_type_symbol
_atom_site_label
_atom_site_fract_x
_atom_site_fract_y
_atom_site_fract_z
Si Si1 0.616259 0.831655 0.987490
Si Si2 0.612785 0.173289 0.260000
Si Si3 0.606971 0.176779 0.720956
Si Si4 0.386548 0.325380 0.078271
Si Si5 0.782107 0.322366 0.310829
Si Si6 0.886625 0.823732 0.395228
Si Si7 0.700707 0.322665 0.173728
O O1 0.500000 0.829276 0.990115
O O2 0.651053 0.732813 0.944565
O O3 0.656620 0.000000 0.981965
O O4 0.657410 0.761633 0.034578
O O5 0.500000 0.194311 0.273436
O O6 0.675270 0.257770 0.298895
O O7 0.630093 0.242571 0.209840
O O8 0.643362 0.000000 0.258840
O O9 0.500000 0.249280 0.710724
O O10 0.643161 0.228912 0.770962
O O11 0.686415 0.226221 0.682879
O O12 0.597188 0.000000 0.720716
O O13 0.500000 0.287096 0.086747
O O14 0.371632 0.500000 0.068851
O O15 0.326890 0.271190 0.122754
O O16 0.774681 0.500000 0.314818
O O17 0.819613 0.256092 0.358112
O O18 0.000000 0.778872 0.387361
O O19 0.871449 0.000000 0.392441
O O20 0.686209 0.500000 0.180326
#
# Coordination Sequence:
#
# PCOD8188497 Si02
#       7
#     8   8   8   8   8   8   8
#     4   9  17  28  42  61  85 113 145 179 217 264
#     4  10  20  32  45  63  89 118 148 185 225 264
#     4   8  14  25  41  62  87 113 143 179 213 247
#     4   9  16  26  40  59  85 114 143 178 220 265
#     4  10  19  30  46  66  88 117 152 185 218 260
#     4  10  19  30  45  66  93 121 146 177 220 266
#     4   9  17  28  44  65  87 116 151 182 218 265
#
# _framework density 15.748161
#
# number of rings (size 3 to 8) (size 9 to 14) (size 15 to 20)
#    0.000    2.714    0.000    3.429    0.000    5.429 
#    0.000    1.429    0.000    3.857    0.000    1.000 
#    0.000    5.714    0.000    0.000    0.000    0.000 
#
# Total GULP energy -347147.699474 kJ/mol
# GULP energy per Si atom -12398.132124 kJ/mol
# Density = 1.571232 g / cm^3
# Si number density = 15.748161 Si / 1000 Ang^3
#
#
#
# Elastic Constant Matrix: (Units=GPa)
#
#
# Indices 1 2 3 4 5 6 
#
# 1 80.8866 35.0687 55.2660 0.0000 0.0000 0.0000
# 2 35.0687 73.4669 51.7521 0.0000 0.0000 0.0000
# 3 55.2660 51.7521 138.5049 0.0000 0.0000 0.0000
# 4 0.0000 0.0000 0.0000 29.1879 0.0000 0.0000
# 5 0.0000 0.0000 0.0000 0.0000 23.8746 0.0000
# 6 0.0000 0.0000 0.0000 0.0000 0.0000 17.3946
#
#
#
# Elastic Compliance Matrix: (Units=1/GPa)
#
#
# Indices 1 2 3 4 5 6 
#
# 1 0.018184 -0.004844 -0.005446 0.000000 0.000000 0.000000
# 2 -0.004844 0.019764 -0.005452 0.000000 0.000000 0.000000
# 3 -0.005446 -0.005452 0.011430 0.000000 0.000000 0.000000
# 4 0.000000 0.000000 0.000000 0.034261 0.000000 0.000000
# 5 0.000000 0.000000 0.000000 0.000000 0.041886 0.000000
# 6 0.000000 0.000000 0.000000 0.000000 0.000000 0.057489
#
#
# Mechanical properties :
#
#
# Convention : Reuss Voigt Hill
#
# Bulk Modulus (GPa) = 55.88187 64.11468 59.99827
# Shear Modulus (GPa) = 22.67963 24.14287 23.41125
#
# Velocity S-wave (km/s) = 3.79904 3.91968 3.85983
# Velocity P-wave (km/s) = 7.40306 7.82854 7.61877
#
# Compressibility (1/GPa) = 0.01789489
#
# Stress axis : x y z
#
# Youngs Moduli (GPa) = 54.99373 50.59626 87.48775
#
# Poissons Ratio (x) = 0.24507 0.47645
# Poissons Ratio (y) = 0.26637 0.47700
# Poissons Ratio (z) = 0.29949 0.27586
#
# Static dielectric constant tensor:
#      x y z
#    x 2.976690 0.000000 0.000000 
#    y 0.000000 2.997840 0.000000 
#    z 0.000000 0.000000 3.058260 
# 
# 
# High freq. dielectric constant tensor:
#      x y z
#    x 1.575040 0.000000 0.000000 
#    y 0.000000 1.604630 0.000000 
#    z 0.000000 0.000000 1.602000 
# 
# From -- ./inp_files/27236.got.cif
#   From: 2010.03.12/outbox.cif.g09.slc.cpg/sg44_14_cif.got.tgz:27236.got - 2010.04.14 02:36:11.
