data_PCOD8188306
_publ_section_title
;
Structure prediction by ZEFSAII (Michael W. Deem and Ramdas Pophale) SiO2 
 PCOD8188306
Probable space group: I M M 2
;
_chemical_formula_sum "Si O2"
_cell_formula_units_Z 56
_cell_length_a 20.140135
_cell_length_b 9.520234
_cell_length_c 15.017768
_cell_angle_alpha 90.000000
_cell_angle_beta 90.000000
_cell_angle_gamma 90.000000
_cell_volume 2879.488785
_symmetry_space_group_name_H-M "I M M 2"
_symmetry_group_IT_number 44
_symmetry_cell_setting 'orthorhombic'
loop_
_space_group_symop_operation_xyz
x,y,z
-x,-y,z
-x,y,z
x,-y,z
1/2+x,1/2+y,1/2+z
1/2-x,1/2-y,1/2+z
1/2-x,1/2+y,1/2+z
1/2+x,1/2-y,1/2+z
loop_
_atom_site_type_symbol
_atom_site_label
_atom_site_fract_x
_atom_site_fract_y
_atom_site_fract_z
Si Si1 0.424026 0.342927 0.815910
Si Si2 0.423669 0.164208 0.164924
Si Si3 0.361651 0.342949 0.308270
Si Si4 0.120242 0.161161 0.126689
Si Si5 0.500000 0.649217 0.399000
Si Si6 0.720762 0.334219 0.476556
Si Si7 0.500000 0.834276 0.559053
Si Si8 0.130002 0.665188 0.474038
O O1 0.500000 0.318706 0.782750
O O2 0.416436 0.500000 0.854811
O O3 0.372134 0.324361 0.733516
O O4 0.407675 0.232756 0.891699
O O5 0.500000 0.206695 0.187655
O O6 0.366307 0.242482 0.222220
O O7 0.412707 0.000000 0.181613
O O8 0.410215 0.203686 0.062566
O O9 0.336261 0.500000 0.282125
O O10 0.436726 0.350499 0.338005
O O11 0.316995 0.276238 0.388109
O O12 0.064523 0.271541 0.103214
O O13 0.100452 0.000000 0.102573
O O14 0.184893 0.206994 0.069782
O O15 0.500000 0.500000 0.454331
O O16 0.500000 0.789574 0.456530
O O17 0.721029 0.500000 0.467897
O O18 0.795118 0.273819 0.480035
O O19 0.500000 0.000000 0.568756
O O20 0.131360 0.500000 0.457295
#
# Coordination Sequence:
#
# PCOD8188306 Si02
#       8
#     8   8   8   8   4   8   4   8
#     4  10  21  37  61  89 110 139 190 243 284 324
#     4  10  21  36  55  81 112 145 181 227 282 331
#     4  10  19  33  57  84 107 141 186 229 273 322
#     4  10  19  37  60  81 112 151 190 230 276 341
#     4  10  18  32  54  79 110 149 184 221 278 340
#     4   9  19  36  59  83 110 150 192 221 267 344
#     4  12  22  30  50  87 120 145 180 233 292 334
#     4  10  22  40  58  79 112 153 190 227 279 339
#
# _framework density 19.447897999999999
#
# number of rings (size 3 to 8) (size 9 to 14) (size 15 to 20)
#    0.000    2.000    2.857    1.071    0.000    3.714 
#    0.000    2.857    0.000    0.000    0.000    0.000 
#    0.000    0.000    0.000    0.000    0.000    0.000 
#
# Total GULP energy -346989.670319 kJ/mol
# GULP energy per Si atom -12392.488226 kJ/mol
# Density = 1.940363 g / cm^3
# Si number density = 19.447898 Si / 1000 Ang^3
#
#
#
# Elastic Constant Matrix: (Units=GPa)
#
#
# Indices 1 2 3 4 5 6 
#
# 1 68.9996 18.8249 28.1427 0.0000 0.0000 0.0000
# 2 18.8249 68.7057 40.3824 0.0000 0.0000 0.0000
# 3 28.1427 40.3824 118.0195 0.0000 0.0000 0.0000
# 4 0.0000 0.0000 0.0000 26.7388 0.0000 0.0000
# 5 0.0000 0.0000 0.0000 0.0000 16.3231 0.0000
# 6 0.0000 0.0000 0.0000 0.0000 0.0000 16.4695
#
#
#
# Elastic Compliance Matrix: (Units=1/GPa)
#
#
# Indices 1 2 3 4 5 6 
#
# 1 0.016461 -0.002758 -0.002982 0.000000 0.000000 0.000000
# 2 -0.002758 0.018681 -0.005734 0.000000 0.000000 0.000000
# 3 -0.002982 -0.005734 0.011146 0.000000 0.000000 0.000000
# 4 0.000000 0.000000 0.000000 0.037399 0.000000 0.000000
# 5 0.000000 0.000000 0.000000 0.000000 0.061263 0.000000
# 6 0.000000 0.000000 0.000000 0.000000 0.000000 0.060718
#
#
# Mechanical properties :
#
#
# Convention : Reuss Voigt Hill
#
# Bulk Modulus (GPa) = 42.84339 47.82498 45.33418
# Shear Modulus (GPa) = 21.15090 23.13127 22.14109
#
# Velocity S-wave (km/s) = 3.30141 3.45251 3.37780
# Velocity P-wave (km/s) = 6.05062 6.36693 6.21079
#
# Compressibility (1/GPa) = 0.02334082
#
# Stress axis : x y z
#
# Youngs Moduli (GPa) = 60.74823 53.53069 89.71589
#
# Poissons Ratio (x) = 0.14763 0.26751
# Poissons Ratio (y) = 0.16753 0.51446
# Poissons Ratio (z) = 0.18113 0.30696
#
# Static dielectric constant tensor:
#      x y z
#    x 3.645250 0.000000 0.000000 
#    y 0.000000 3.523590 0.000000 
#    z 0.000000 0.000000 3.582560 
# 
# 
# High freq. dielectric constant tensor:
#      x y z
#    x 1.749580 0.000000 0.000000 
#    y 0.000000 1.732630 0.000000 
#    z 0.000000 0.000000 1.760890 
# 
# From -- ./inp_files/19268.got.cif
#   From: 2010.03.12/outbox.cif.g09.slc.cpg/sg44_10_cif.got.tgz:19268.got - 2010.04.14 02:36:11.
