data_PCOD8188959
_publ_section_title
;
Structure prediction by ZEFSAII (Michael W. Deem and Ramdas Pophale) SiO2 
 PCOD8188959
Probable space group: I M M 2
;
_chemical_formula_sum "Si O2"
_cell_formula_units_Z 48
_cell_length_a 8.659116
_cell_length_b 27.877374
_cell_length_c 9.917985
_cell_angle_alpha 90.000000
_cell_angle_beta 90.000000
_cell_angle_gamma 90.000000
_cell_volume 2394.136271
_symmetry_space_group_name_H-M "I M M 2"
_symmetry_group_IT_number 44
_symmetry_cell_setting 'orthorhombic'
loop_
_space_group_symop_operation_xyz
x,y,z
-x,-y,z
-x,y,z
x,-y,z
1/2+x,1/2+y,1/2+z
1/2-x,1/2-y,1/2+z
1/2-x,1/2+y,1/2+z
1/2+x,1/2-y,1/2+z
loop_
_atom_site_type_symbol
_atom_site_label
_atom_site_fract_x
_atom_site_fract_y
_atom_site_fract_z
Si Si1 0.683090 0.382426 0.299620
Si Si2 0.318806 0.794195 0.409653
Si Si3 0.677170 0.551724 0.070228
Si Si4 0.182166 0.714769 0.218555
Si Si5 0.316602 0.445568 0.550406
Si Si6 0.322566 0.390873 0.811778
O O1 0.500000 0.375144 0.301321
O O2 0.750072 0.407535 0.164834
O O3 0.757885 0.330209 0.305063
O O4 0.739733 0.416494 0.420120
O O5 0.500000 0.784247 0.403896
O O6 0.236361 0.761203 0.299355
O O7 0.255918 0.785162 0.562864
O O8 0.283894 0.848095 0.363698
O O9 0.500000 0.547031 0.115674
O O10 0.758609 0.500000 0.091134
O O11 0.690233 0.565502 0.915383
O O12 0.000000 0.713446 0.214579
O O13 0.500000 0.449119 0.556649
O O14 0.248369 0.500000 0.550208
O O15 0.256309 0.413617 0.674804
O O16 0.500000 0.372918 0.797400
#
# Coordination Sequence:
#
# PCOD8188959 Si02
#       6
#     8   8   8   8   8   8
#     4  10  19  34  57  85 119 153 191 240 288 339
#     4  11  25  43  63  87 117 152 194 243 298 357
#     4   9  16  28  52  83 112 149 194 237 282 333
#     4  11  25  43  63  87 117 152 194 243 298 357
#     4   9  18  32  54  87 122 155 194 239 284 333
#     4  10  19  34  57  85 119 153 191 240 288 339
#
# _framework density 20.048983
#
# number of rings (size 3 to 8) (size 9 to 14) (size 15 to 20)
#    0.000    2.000    1.667    2.000    2.333    6.000 
#    0.000    0.000    0.000    6.000    0.000    0.000 
#    0.000    0.000    0.000    0.000    0.000    0.000 
#
# Total GULP energy -297529.137387 kJ/mol
# GULP energy per Si atom -12397.047391 kJ/mol
# Density = 2.000335 g / cm^3
# Si number density = 20.048983 Si / 1000 Ang^3
#
#
#
# Elastic Constant Matrix: (Units=GPa)
#
#
# Indices 1 2 3 4 5 6 
#
# 1 31.3279 17.1316 24.3400 0.0001 -0.0001 -0.0001
# 2 17.1316 112.4079 43.2536 0.0005 -0.0003 -0.0002
# 3 24.3400 43.2536 130.6841 0.0011 -0.0005 -0.0006
# 4 0.0001 0.0005 0.0011 31.3640 -0.0004 -0.0001
# 5 -0.0001 -0.0003 -0.0005 -0.0004 19.0164 0.0002
# 6 -0.0001 -0.0002 -0.0006 -0.0001 0.0002 19.6262
#
#
#
# Elastic Compliance Matrix: (Units=1/GPa)
#
#
# Indices 1 2 3 4 5 6 
#
# 1 0.038528 -0.003565 -0.005996 0.000000 0.000000 0.000000
# 2 -0.003565 0.010524 -0.002819 0.000000 0.000000 0.000000
# 3 -0.005996 -0.002819 0.009702 0.000000 0.000000 0.000000
# 4 0.000000 0.000000 0.000000 0.031884 0.000001 0.000000
# 5 0.000000 0.000000 0.000000 0.000001 0.052586 0.000000
# 6 0.000000 0.000000 0.000000 0.000000 0.000000 0.050952
#
#
# Mechanical properties :
#
#
# Convention : Reuss Voigt Hill
#
# Bulk Modulus (GPa) = 29.41665 49.31890 39.36777
# Shear Modulus (GPa) = 21.71374 26.64763 24.18069
#
# Velocity S-wave (km/s) = 3.29452 3.64967 3.47663
# Velocity P-wave (km/s) = 5.40149 6.51251 5.98284
#
# Compressibility (1/GPa) = 0.03399436
#
# Stress axis : x y z
#
# Youngs Moduli (GPa) = 25.95484 95.01791 103.07181
#
# Poissons Ratio (x) = 0.33871 0.61803
# Poissons Ratio (y) = 0.09252 0.29060
# Poissons Ratio (z) = 0.15563 0.26789
#
# Static dielectric constant tensor:
#      x y z
#    x 3.183480 0.000000 0.000000 
#    y 0.000000 3.739660 0.000000 
#    z 0.000000 0.000000 3.906510 
# 
# 
# High freq. dielectric constant tensor:
#      x y z
#    x 1.732400 0.000000 0.000000 
#    y 0.000000 1.798320 0.000000 
#    z 0.000000 0.000000 1.797640 
# 
# From -- ./inp_files/4897.got.cif
#   From: 2010.03.12/outbox.cif.g09.slc.cpg/sg44_3_cif.got.tgz:4897.got - 2010.04.14 02:36:11.
