data_PCOD8188499
_publ_section_title
;
Structure prediction by ZEFSAII (Michael W. Deem and Ramdas Pophale) SiO2 
 PCOD8188499
Probable space group: I M M 2
;
_chemical_formula_sum "Si O2"
_cell_formula_units_Z 64
_cell_length_a 8.957986
_cell_length_b 23.569050
_cell_length_c 18.865971
_cell_angle_alpha 90.000000
_cell_angle_beta 90.000000
_cell_angle_gamma 90.000000
_cell_volume 3983.195472
_symmetry_space_group_name_H-M "I M M 2"
_symmetry_group_IT_number 44
_symmetry_cell_setting 'orthorhombic'
loop_
_space_group_symop_operation_xyz
x,y,z
-x,-y,z
-x,y,z
x,-y,z
1/2+x,1/2+y,1/2+z
1/2-x,1/2-y,1/2+z
1/2-x,1/2+y,1/2+z
1/2+x,1/2-y,1/2+z
loop_
_atom_site_type_symbol
_atom_site_label
_atom_site_fract_x
_atom_site_fract_y
_atom_site_fract_z
Si Si1 0.323543 0.270845 0.138740
Si Si2 0.824010 0.753001 0.996049
Si Si3 0.827018 0.564664 0.355806
Si Si4 0.676572 0.437508 0.634903
Si Si5 0.170987 0.769113 0.356550
Si Si6 0.826620 0.830943 0.218276
Si Si7 0.823198 0.882580 0.990687
Si Si8 0.826968 0.664746 0.257494
O O1 0.500000 0.271398 0.133925
O O2 0.269262 0.211519 0.170970
O O3 0.269886 0.323262 0.187554
O O4 0.255325 0.278866 0.060827
O O5 0.777099 0.721408 0.923746
O O6 0.766396 0.817843 0.991283
O O7 0.000000 0.749098 0.006571
O O8 0.788135 0.500000 0.336191
O O9 0.734376 0.583470 0.423446
O O10 0.785340 0.602753 0.287480
O O11 0.000000 0.572847 0.374850
O O12 0.500000 0.442008 0.629198
O O13 0.745191 0.500000 0.649698
O O14 0.721282 0.395131 0.698895
O O15 0.739717 0.413321 0.560881
O O16 0.200736 0.820710 0.301647
O O17 0.212652 0.710224 0.318279
O O18 0.000000 0.768449 0.382201
O O19 0.000000 0.819597 0.198746
O O20 0.000000 0.883691 0.988617
O O21 0.000000 0.670110 0.236346
#
# Coordination Sequence:
#
# PCOD8188499 Si02
#       8
#     8   8   8   8   8   8   8   8
#     4  11  21  31  48  70  93 121 158 199 241 286
#     4  11  20  31  48  69  95 126 158 193 238 286
#     4  10  20  33  49  69  96 131 166 197 233 278
#     4   9  16  28  47  68  91 124 163 193 223 270
#     4   9  17  29  47  67  92 124 155 192 237 278
#     4   9  17  32  48  67  95 125 155 194 238 277
#     4  10  19  30  45  66  97 131 165 199 228 268
#     4   9  18  33  49  67  95 127 158 195 238 280
#
# _framework density 16.067502000000001
#
# number of rings (size 3 to 8) (size 9 to 14) (size 15 to 20)
#    0.000    2.250    2.500    2.625    0.000    3.750 
#    0.000    0.000    0.000    0.375    0.000    0.875 
#    0.000    3.000    0.000    0.000    0.000    0.000 
#
# Total GULP energy -396791.588113 kJ/mol
# GULP energy per Si atom -12399.737129 kJ/mol
# Density = 1.603093 g / cm^3
# Si number density = 16.067502 Si / 1000 Ang^3
#
#
#
# Elastic Constant Matrix: (Units=GPa)
#
#
# Indices 1 2 3 4 5 6 
#
# 1 58.1737 23.1303 46.1662 0.0000 0.0000 0.0000
# 2 23.1303 94.1364 61.0642 0.0000 0.0000 0.0000
# 3 46.1662 61.0642 120.4984 0.0000 0.0000 0.0000
# 4 0.0000 0.0000 0.0000 24.9676 0.0000 0.0000
# 5 0.0000 0.0000 0.0000 0.0000 28.1358 0.0000
# 6 0.0000 0.0000 0.0000 0.0000 0.0000 14.1011
#
#
#
# Elastic Compliance Matrix: (Units=1/GPa)
#
#
# Indices 1 2 3 4 5 6 
#
# 1 0.024700 0.000104 -0.009516 0.000000 0.000000 0.000000
# 2 0.000104 0.015825 -0.008059 0.000000 0.000000 0.000000
# 3 -0.009516 -0.008059 0.016029 0.000000 0.000000 0.000000
# 4 0.000000 0.000000 0.000000 0.040052 0.000000 0.000000
# 5 0.000000 0.000000 0.000000 0.000000 0.035542 0.000000
# 6 0.000000 0.000000 0.000000 0.000000 0.000000 0.070916
#
#
# Mechanical properties :
#
#
# Convention : Reuss Voigt Hill
#
# Bulk Modulus (GPa) = 46.27216 59.28111 52.77663
# Shear Modulus (GPa) = 20.39051 22.93743 21.66397
#
# Velocity S-wave (km/s) = 3.56624 3.78241 3.67592
# Velocity P-wave (km/s) = 6.76894 7.48670 7.13685
#
# Compressibility (1/GPa) = 0.02161127
#
# Stress axis : x y z
#
# Youngs Moduli (GPa) = 40.48511 63.18955 62.38737
#
# Poissons Ratio (x) = -0.00655 0.59367
# Poissons Ratio (y) = -0.00419 0.50281
# Poissons Ratio (z) = 0.38525 0.50927
#
# Static dielectric constant tensor:
#      x y z
#    x 2.883220 0.000000 0.000000 
#    y 0.000000 3.127620 0.000000 
#    z 0.000000 0.000000 3.055890 
# 
# 
# High freq. dielectric constant tensor:
#      x y z
#    x 1.605840 0.000000 0.000000 
#    y 0.000000 1.594960 0.000000 
#    z 0.000000 0.000000 1.612820 
# 
# From -- ./inp_files/20863.got.cif
#   From: 2010.03.12/outbox.cif.g09.slc.cpg/sg44_11_cif.got.tgz:20863.got - 2010.04.14 02:36:11.
