data_PCOD8188141
_publ_section_title
;
Structure prediction by ZEFSAII (Michael W. Deem and Ramdas Pophale) SiO2 
 PCOD8188141
Probable space group: I M M 2
;
_chemical_formula_sum "Si O2"
_cell_formula_units_Z 56
_cell_length_a 25.304741
_cell_length_b 9.348587
_cell_length_c 14.282257
_cell_angle_alpha 90.000000
_cell_angle_beta 90.000000
_cell_angle_gamma 90.000000
_cell_volume 3378.661743
_symmetry_space_group_name_H-M "I M M 2"
_symmetry_group_IT_number 44
_symmetry_cell_setting 'orthorhombic'
loop_
_space_group_symop_operation_xyz
x,y,z
-x,-y,z
-x,y,z
x,-y,z
1/2+x,1/2+y,1/2+z
1/2-x,1/2-y,1/2+z
1/2-x,1/2+y,1/2+z
1/2+x,1/2-y,1/2+z
loop_
_atom_site_type_symbol
_atom_site_label
_atom_site_fract_x
_atom_site_fract_y
_atom_site_fract_z
Si Si1 0.500000 0.170357 0.272260
Si Si2 0.388936 0.839047 0.340939
Si Si3 0.670850 0.160139 0.152246
Si Si4 0.691099 0.831516 0.830419
Si Si5 0.285090 0.667710 0.655729
Si Si6 0.797491 0.168030 0.939401
Si Si7 0.390771 0.830385 0.982333
Si Si8 0.500000 0.170660 0.057475
O O1 0.551115 0.221349 0.332829
O O2 0.500000 0.230484 0.164940
O O3 0.500000 0.000000 0.265508
O O4 0.370530 0.841454 0.234606
O O5 0.350698 0.739545 0.400766
O O6 0.387561 0.000000 0.382975
O O7 0.726540 0.228763 0.180377
O O8 0.686369 0.000000 0.119334
O O9 0.644753 0.239897 0.064431
O O10 0.680652 0.754431 0.731198
O O11 0.743787 0.778447 0.887241
O O12 0.637378 0.789172 0.885523
O O13 0.694988 0.000000 0.814603
O O14 0.293528 0.500000 0.674493
O O15 0.296910 0.708943 0.548785
O O16 0.803176 0.000000 0.924928
O O17 0.392244 0.000000 0.995904
O O18 0.450088 0.771335 0.997004
O O19 0.500000 0.000000 0.062294
#
# Coordination Sequence:
#
# PCOD8188141 Si02
#       8
#     4   8   8   8   8   8   8   4
#     4   9  16  26  45  76 101 120 152 197 239 278
#     4  10  18  29  48  73 100 125 156 194 234 281
#     4   9  14  23  43  69  96 123 149 183 226 275
#     4  10  19  30  46  70  98 124 154 197 241 275
#     4  10  19  32  48  67  94 129 163 190 226 281
#     4  10  20  32  47  68  96 129 161 194 235 284
#     4   9  15  25  42  68 100 126 149 185 234 282
#     4   9  14  22  42  72  99 122 152 187 231 288
#
# _framework density 16.57461
#
# number of rings (size 3 to 8) (size 9 to 14) (size 15 to 20)
#    0.000    2.429    4.286    0.000    0.000    0.571 
#    0.000    0.357    0.000    1.714    0.000    4.500 
#    0.000    0.000    0.000    0.000    0.000    0.000 
#
# Total GULP energy -346879.938762 kJ/mol
# GULP energy per Si atom -12388.569242 kJ/mol
# Density = 1.653689 g / cm^3
# Si number density = 16.574610 Si / 1000 Ang^3
#
#
#
# Elastic Constant Matrix: (Units=GPa)
#
#
# Indices 1 2 3 4 5 6 
#
# 1 108.7509 21.4981 39.4001 0.0000 0.0000 0.0000
# 2 21.4981 23.6973 30.0695 0.0000 0.0000 0.0000
# 3 39.4001 30.0695 96.4976 0.0000 0.0000 0.0000
# 4 0.0000 0.0000 0.0000 23.1008 0.0000 0.0000
# 5 0.0000 0.0000 0.0000 0.0000 28.1899 0.0000
# 6 0.0000 0.0000 0.0000 0.0000 0.0000 17.2330
#
#
#
# Elastic Compliance Matrix: (Units=1/GPa)
#
#
# Indices 1 2 3 4 5 6 
#
# 1 0.011530 -0.007420 -0.002395 0.000000 0.000000 0.000000
# 2 -0.007420 0.074572 -0.020207 0.000000 0.000000 0.000000
# 3 -0.002395 -0.020207 0.017638 0.000000 0.000000 0.000000
# 4 0.000000 0.000000 0.000000 0.043289 0.000000 0.000000
# 5 0.000000 0.000000 0.000000 0.000000 0.035474 0.000000
# 6 0.000000 0.000000 0.000000 0.000000 0.000000 0.058028
#
#
# Mechanical properties :
#
#
# Convention : Reuss Voigt Hill
#
# Bulk Modulus (GPa) = 22.88687 45.65346 34.27017
# Shear Modulus (GPa) = 15.86587 22.90326 19.38457
#
# Velocity S-wave (km/s) = 3.09729 3.72133 3.42355
# Velocity P-wave (km/s) = 5.16036 6.78737 6.02900
#
# Compressibility (1/GPa) = 0.04369318
#
# Stress axis : x y z
#
# Youngs Moduli (GPa) = 86.72965 13.40985 56.69625
#
# Poissons Ratio (x) = 0.09951 0.13582
# Poissons Ratio (y) = 0.64357 1.14569
# Poissons Ratio (z) = 0.20776 0.27098
#
# Static dielectric constant tensor:
#      x y z
#    x 3.336330 0.000000 0.000000 
#    y 0.000000 2.684080 0.000000 
#    z 0.000000 0.000000 3.027730 
# 
# 
# High freq. dielectric constant tensor:
#      x y z
#    x 1.639620 0.000000 0.000000 
#    y 0.000000 1.587120 0.000000 
#    z 0.000000 0.000000 1.631000 
# 
# From -- ./inp_files/14685.got.cif
#   From: 2010.03.12/outbox.cif.g09.slc.cpg/sg44_8_cif.got.tgz:14685.got - 2010.04.14 02:36:11.
