data_PCOD8188599
_publ_section_title
;
Structure prediction by ZEFSAII (Michael W. Deem and Ramdas Pophale) SiO2 
 PCOD8188599
Probable space group: I M M 2
;
_chemical_formula_sum "Si O2"
_cell_formula_units_Z 64
_cell_length_a 9.207163
_cell_length_b 27.403566
_cell_length_c 14.413933
_cell_angle_alpha 90.000000
_cell_angle_beta 90.000000
_cell_angle_gamma 90.000000
_cell_volume 3636.766447
_symmetry_space_group_name_H-M "I M M 2"
_symmetry_group_IT_number 44
_symmetry_cell_setting 'orthorhombic'
loop_
_space_group_symop_operation_xyz
x,y,z
-x,-y,z
-x,y,z
x,-y,z
1/2+x,1/2+y,1/2+z
1/2-x,1/2-y,1/2+z
1/2-x,1/2+y,1/2+z
1/2+x,1/2-y,1/2+z
loop_
_atom_site_type_symbol
_atom_site_label
_atom_site_fract_x
_atom_site_fract_y
_atom_site_fract_z
Si Si1 0.663755 0.868753 0.075280
Si Si2 0.167602 0.637329 0.134394
Si Si3 0.668331 0.944306 0.774647
Si Si4 0.830321 0.943855 0.960002
Si Si5 0.338000 0.235480 0.034873
Si Si6 0.164664 0.834294 0.451285
Si Si7 0.334095 0.761491 0.706598
Si Si8 0.831164 0.324875 0.775963
O O1 0.500000 0.889167 0.071979
O O2 0.679584 0.821519 0.006378
O O3 0.704310 0.852617 0.180159
O O4 0.770844 0.911428 0.044414
O O5 0.212751 0.587458 0.185387
O O6 0.190681 0.680166 0.211406
O O7 0.000000 0.636774 0.101561
O O8 0.268025 0.643292 0.044603
O O9 0.500000 0.936885 0.799329
O O10 0.757646 0.927097 0.864136
O O11 0.704854 0.000000 0.748935
O O12 0.000000 0.935098 0.950719
O O13 0.792588 0.000000 0.982223
O O14 0.500000 0.239923 0.083170
O O15 0.204901 0.247913 0.101338
O O16 0.330663 0.274587 0.951679
O O17 0.252247 0.852632 0.361001
O O18 0.000000 0.853166 0.444008
O O19 0.500000 0.746908 0.728205
O O20 0.229085 0.730713 0.773437
O O21 0.000000 0.323161 0.798006
#
# Coordination Sequence:
#
# PCOD8188599 Si02
#       8
#     8   8   8   8   8   8   8   8
#     4   9  18  33  52  71  94 128 166 202 240 285
#     4   9  18  32  50  73 100 129 164 205 244 284
#     4   9  18  34  55  75  96 126 162 198 240 292
#     4  10  21  35  51  74 101 124 151 196 250 297
#     4   8  16  30  45  65  94 125 159 197 233 272
#     4  10  19  31  49  72 100 135 169 200 238 286
#     4   9  16  27  44  66  93 125 160 197 236 278
#     4  10  20  33  48  69 100 134 167 204 241 281
#
# _framework density 17.598050000000001
#
# number of rings (size 3 to 8) (size 9 to 14) (size 15 to 20)
#    0.000    2.750    0.000    2.250    0.000    5.750 
#    0.000    5.000    0.000    0.750    0.000    1.750 
#    0.000    0.000    0.000    0.000    0.000    0.000 
#
# Total GULP energy -396575.664611 kJ/mol
# GULP energy per Si atom -12392.989519 kJ/mol
# Density = 1.755800 g / cm^3
# Si number density = 17.598050 Si / 1000 Ang^3
#
#
#
# Elastic Constant Matrix: (Units=GPa)
#
#
# Indices 1 2 3 4 5 6 
#
# 1 102.4137 47.9955 58.1224 0.0000 0.0000 0.0000
# 2 47.9955 80.6559 47.5103 0.0001 0.0000 0.0000
# 3 58.1224 47.5103 92.2812 -0.0002 0.0001 0.0001
# 4 0.0000 0.0001 -0.0002 21.5697 0.0000 0.0000
# 5 0.0000 0.0000 0.0001 0.0000 29.2219 0.0000
# 6 0.0000 0.0000 0.0001 0.0000 0.0000 24.0174
#
#
#
# Elastic Compliance Matrix: (Units=1/GPa)
#
#
# Indices 1 2 3 4 5 6 
#
# 1 0.016668 -0.005360 -0.007739 0.000000 0.000000 0.000000
# 2 -0.005360 0.019519 -0.006673 0.000000 0.000000 0.000000
# 3 -0.007739 -0.006673 0.019146 0.000000 0.000000 0.000000
# 4 0.000000 0.000000 0.000000 0.046361 0.000000 0.000000
# 5 0.000000 0.000000 0.000000 0.000000 0.034221 0.000000
# 6 0.000000 0.000000 0.000000 0.000000 0.000000 0.041636
#
#
# Mechanical properties :
#
#
# Convention : Reuss Voigt Hill
#
# Bulk Modulus (GPa) = 63.33389 64.73413 64.03401
# Shear Modulus (GPa) = 22.48620 23.07665 22.78143
#
# Velocity S-wave (km/s) = 3.57846 3.62514 3.60188
# Velocity P-wave (km/s) = 7.28980 7.37475 7.33240
#
# Compressibility (1/GPa) = 0.01578933
#
# Stress axis : x y z
#
# Youngs Moduli (GPa) = 59.99438 51.23272 52.23002
#
# Poissons Ratio (x) = 0.27462 0.40419
# Poissons Ratio (y) = 0.32159 0.34853
# Poissons Ratio (z) = 0.46427 0.34188
#
# Static dielectric constant tensor:
#      x y z
#    x 3.326930 0.000000 0.000000 
#    y 0.000000 3.229880 0.000000 
#    z 0.000000 0.000000 3.046140 
# 
# 
# High freq. dielectric constant tensor:
#      x y z
#    x 1.689290 0.000000 0.000000 
#    y 0.000000 1.659000 0.000000 
#    z 0.000000 0.000000 1.661320 
# 
# From -- ./inp_files/17129.got.cif
#   From: 2010.03.12/outbox.cif.g09.slc.cpg/sg44_9_cif.got.tgz:17129.got - 2010.04.14 02:36:11.
