data_PCOD8188503
_publ_section_title
;
Structure prediction by ZEFSAII (Michael W. Deem and Ramdas Pophale) SiO2 
 PCOD8188503
Probable space group: I M M 2
;
_chemical_formula_sum "Si O2"
_cell_formula_units_Z 48
_cell_length_a 8.874693
_cell_length_b 13.795530
_cell_length_c 24.002660
_cell_angle_alpha 90.000000
_cell_angle_beta 90.000000
_cell_angle_gamma 90.000000
_cell_volume 2938.671911
_symmetry_space_group_name_H-M "I M M 2"
_symmetry_group_IT_number 44
_symmetry_cell_setting 'orthorhombic'
loop_
_space_group_symop_operation_xyz
x,y,z
-x,-y,z
-x,y,z
x,-y,z
1/2+x,1/2+y,1/2+z
1/2-x,1/2-y,1/2+z
1/2-x,1/2+y,1/2+z
1/2+x,1/2-y,1/2+z
loop_
_atom_site_type_symbol
_atom_site_label
_atom_site_fract_x
_atom_site_fract_y
_atom_site_fract_z
Si Si1 0.321310 0.392785 0.791120
Si Si2 0.320887 0.707142 0.681499
Si Si3 0.176133 0.112676 0.415348
Si Si4 0.324663 0.111605 0.077370
Si Si5 0.678072 0.106107 0.621568
Si Si6 0.177727 0.278220 0.014403
O O1 0.500000 0.398556 0.789453
O O2 0.255334 0.500000 0.779203
O O3 0.261783 0.320080 0.743263
O O4 0.272788 0.358033 0.852678
O O5 0.500000 0.696958 0.676448
O O6 0.251198 0.634470 0.636588
O O7 0.269170 0.817761 0.668934
O O8 0.270699 0.181973 0.455110
O O9 0.000000 0.131910 0.424724
O O10 0.214290 0.000000 0.426503
O O11 0.500000 0.135845 0.082025
O O12 0.253401 0.174890 0.027540
O O13 0.295354 0.000000 0.062342
O O14 0.500000 0.096595 0.622486
O O15 0.730090 0.145053 0.561373
O O16 0.751344 0.000000 0.632315
O O17 0.000000 0.263206 0.014666
#
# Coordination Sequence:
#
# PCOD8188503 Si02
#       6
#     8   8   8   8   8   8
#     4   8  14  25  42  64  89 118 152 187 223 266
#     4   9  16  27  46  68  89 119 155 187 220 262
#     4   9  17  29  45  65  91 123 154 186 228 273
#     4  10  20  32  46  66  92 118 144 182 232 279
#     4   8  14  24  39  62  89 112 138 177 221 259
#     4  10  19  30  46  66  88 117 151 188 228 270
#
# _framework density 16.333908999999998
#
# number of rings (size 3 to 8) (size 9 to 14) (size 15 to 20)
#    0.000    3.000    0.000    4.000    0.000    3.000 
#    0.000    0.833    0.000    6.500    0.000    4.667 
#    0.000    0.000    0.000    0.000    0.000    0.000 
#
# Total GULP energy -297472.609291 kJ/mol
# GULP energy per Si atom -12394.692054 kJ/mol
# Density = 1.629673 g / cm^3
# Si number density = 16.333909 Si / 1000 Ang^3
#
#
#
# Elastic Constant Matrix: (Units=GPa)
#
#
# Indices 1 2 3 4 5 6 
#
# 1 43.6116 35.0165 29.2553 0.0000 0.0000 0.0000
# 2 35.0165 123.1740 75.4510 0.0000 0.0000 0.0000
# 3 29.2553 75.4510 135.4436 0.0000 0.0000 0.0000
# 4 0.0000 0.0000 0.0000 27.1893 0.0000 0.0000
# 5 0.0000 0.0000 0.0000 0.0000 22.0161 0.0000
# 6 0.0000 0.0000 0.0000 0.0000 0.0000 17.9680
#
#
#
# Elastic Compliance Matrix: (Units=1/GPa)
#
#
# Indices 1 2 3 4 5 6 
#
# 1 0.030327 -0.006996 -0.002653 0.000000 0.000000 0.000000
# 2 -0.006996 0.013938 -0.006253 0.000000 0.000000 0.000000
# 3 -0.002653 -0.006253 0.011440 0.000000 0.000000 0.000000
# 4 0.000000 0.000000 0.000000 0.036779 0.000000 0.000000
# 5 0.000000 0.000000 0.000000 0.000000 0.045421 0.000000
# 6 0.000000 0.000000 0.000000 0.000000 0.000000 0.055654
#
#
# Mechanical properties :
#
#
# Convention : Reuss Voigt Hill
#
# Bulk Modulus (GPa) = 41.84218 64.63054 53.23636
# Shear Modulus (GPa) = 21.42878 24.26844 22.84861
#
# Velocity S-wave (km/s) = 3.62597 3.85875 3.74417
# Velocity P-wave (km/s) = 6.57287 7.71411 7.16624
#
# Compressibility (1/GPa) = 0.02389933
#
# Stress axis : x y z
#
# Youngs Moduli (GPa) = 32.97402 71.74646 87.41529
#
# Poissons Ratio (x) = 0.50196 0.23192
# Poissons Ratio (y) = 0.23070 0.54662
# Poissons Ratio (z) = 0.08748 0.44864
#
# Static dielectric constant tensor:
#      x y z
#    x 2.821230 0.000000 0.000000 
#    y 0.000000 3.283900 0.000000 
#    z 0.000000 0.000000 3.223970 
# 
# 
# High freq. dielectric constant tensor:
#      x y z
#    x 1.604400 0.000000 0.000000 
#    y 0.000000 1.622390 0.000000 
#    z 0.000000 0.000000 1.621510 
# 
# From -- ./inp_files/24018.got.cif
#   From: 2010.03.12/outbox.cif.g09.slc.cpg/sg44_13_cif.got.tgz:24018.got - 2010.04.14 02:36:11.
