data_PCOD8188023
_publ_section_title
;
Structure prediction by ZEFSAII (Michael W. Deem and Ramdas Pophale) SiO2 
 PCOD8188023
Probable space group: I M M 2
;
_chemical_formula_sum "Si O2"
_cell_formula_units_Z 56
_cell_length_a 21.939228
_cell_length_b 8.974717
_cell_length_c 17.666527
_cell_angle_alpha 90.000000
_cell_angle_beta 90.000000
_cell_angle_gamma 90.000000
_cell_volume 3478.510237
_symmetry_space_group_name_H-M "I M M 2"
_symmetry_group_IT_number 44
_symmetry_cell_setting 'orthorhombic'
loop_
_space_group_symop_operation_xyz
x,y,z
-x,-y,z
-x,y,z
x,-y,z
1/2+x,1/2+y,1/2+z
1/2-x,1/2-y,1/2+z
1/2-x,1/2+y,1/2+z
1/2+x,1/2-y,1/2+z
loop_
_atom_site_type_symbol
_atom_site_label
_atom_site_fract_x
_atom_site_fract_y
_atom_site_fract_z
Si Si1 0.821387 0.164709 0.959710
Si Si2 0.178650 0.665051 0.427292
Si Si3 0.343136 0.675102 0.072843
Si Si4 0.282361 0.676471 0.618001
Si Si5 0.161256 0.328501 0.815560
Si Si6 0.284174 0.824013 0.768079
Si Si7 0.429905 0.828886 0.184190
O O1 0.750106 0.158767 0.942798
O O2 0.854367 0.276482 0.901503
O O3 0.849912 0.000000 0.949458
O O4 0.826815 0.217746 0.047399
O O5 0.150508 0.500000 0.439157
O O6 0.146367 0.778985 0.484842
O O7 0.172006 0.716323 0.339483
O O8 0.333019 0.500000 0.077854
O O9 0.284919 0.757120 0.107684
O O10 0.402213 0.723003 0.119882
O O11 0.274947 0.500000 0.625811
O O12 0.312121 0.745480 0.693665
O O13 0.181482 0.500000 0.817354
O O14 0.215661 0.232919 0.780516
O O15 0.101670 0.301865 0.765173
O O16 0.280930 0.000000 0.755939
O O17 0.500000 0.785217 0.194316
O O18 0.421615 0.000000 0.158564
#
# Coordination Sequence:
#
# PCOD8188023 Si02
#       7
#     8   8   8   8   8   8   8
#     4   8  16  28  41  58  83 113 143 175 212 257
#     4   8  16  29  42  58  84 115 143 171 213 264
#     4  11  20  29  44  63  84 112 147 186 222 255
#     4  10  18  28  42  61  87 119 147 173 212 262
#     4  10  18  28  44  61  81 112 146 181 218 259
#     4  10  18  27  42  64  88 115 144 178 215 255
#     4  10  21  35  48  62  84 117 153 187 225 265
#
# _framework density 16.098844
#
# number of rings (size 3 to 8) (size 9 to 14) (size 15 to 20)
#    0.000    2.429    1.429    4.286    0.000    7.143 
#    0.000    0.000    0.000    0.000    0.000    0.000 
#    0.000    1.143    0.000    6.286    0.000    4.286 
#
# Total GULP energy -347069.732718 kJ/mol
# GULP energy per Si atom -12395.347597 kJ/mol
# Density = 1.606220 g / cm^3
# Si number density = 16.098844 Si / 1000 Ang^3
#
#
#
# Elastic Constant Matrix: (Units=GPa)
#
#
# Indices 1 2 3 4 5 6 
#
# 1 36.3647 24.8332 29.1228 0.0000 0.0000 0.0000
# 2 24.8332 95.1888 65.8704 0.0000 0.0000 0.0000
# 3 29.1228 65.8704 155.2094 0.0000 0.0000 0.0000
# 4 0.0000 0.0000 0.0000 33.4049 0.0000 0.0000
# 5 0.0000 0.0000 0.0000 0.0000 14.2949 0.0000
# 6 0.0000 0.0000 0.0000 0.0000 0.0000 12.4224
#
#
#
# Elastic Compliance Matrix: (Units=1/GPa)
#
#
# Indices 1 2 3 4 5 6 
#
# 1 0.034982 -0.006490 -0.003809 0.000000 0.000000 0.000000
# 2 -0.006490 0.016078 -0.005606 0.000000 0.000000 0.000000
# 3 -0.003809 -0.005606 0.009537 0.000000 0.000000 0.000000
# 4 0.000000 0.000000 0.000000 0.029936 0.000000 0.000000
# 5 0.000000 0.000000 0.000000 0.000000 0.069955 0.000000
# 6 0.000000 0.000000 0.000000 0.000000 0.000000 0.080500
#
#
# Mechanical properties :
#
#
# Convention : Reuss Voigt Hill
#
# Bulk Modulus (GPa) = 34.73893 58.49063 46.61478
# Shear Modulus (GPa) = 17.70584 23.15353 20.42969
#
# Velocity S-wave (km/s) = 3.31995 3.79649 3.56619
# Velocity P-wave (km/s) = 6.02673 7.45847 6.78050
#
# Compressibility (1/GPa) = 0.02878615
#
# Stress axis : x y z
#
# Youngs Moduli (GPa) = 28.58605 62.19830 104.85840
#
# Poissons Ratio (x) = 0.40367 0.39946
# Poissons Ratio (y) = 0.18553 0.58779
# Poissons Ratio (z) = 0.10890 0.34865
#
# Static dielectric constant tensor:
#      x y z
#    x 2.459000 0.000000 0.000000 
#    y 0.000000 3.132310 0.000000 
#    z 0.000000 0.000000 3.815980 
# 
# 
# High freq. dielectric constant tensor:
#      x y z
#    x 1.536320 0.000000 0.000000 
#    y 0.000000 1.627790 0.000000 
#    z 0.000000 0.000000 1.641280 
# 
# From -- ./inp_files/20699.got.cif
#   From: 2010.03.12/outbox.cif.g09.slc.cpg/sg44_11_cif.got.tgz:20699.got - 2010.04.14 02:36:11.
