data_PCOD8188324
_publ_section_title
;
Structure prediction by ZEFSAII (Michael W. Deem and Ramdas Pophale) SiO2 
 PCOD8188324
Probable space group: I M M 2
;
_chemical_formula_sum "Si O2"
_cell_formula_units_Z 48
_cell_length_a 8.963511
_cell_length_b 16.437369
_cell_length_c 18.278222
_cell_angle_alpha 90.000000
_cell_angle_beta 90.000000
_cell_angle_gamma 90.000000
_cell_volume 2693.049947
_symmetry_space_group_name_H-M "I M M 2"
_symmetry_group_IT_number 44
_symmetry_cell_setting 'orthorhombic'
loop_
_space_group_symop_operation_xyz
x,y,z
-x,-y,z
-x,y,z
x,-y,z
1/2+x,1/2+y,1/2+z
1/2-x,1/2-y,1/2+z
1/2-x,1/2+y,1/2+z
1/2+x,1/2-y,1/2+z
loop_
_atom_site_type_symbol
_atom_site_label
_atom_site_fract_x
_atom_site_fract_y
_atom_site_fract_z
Si Si1 0.326105 0.906509 0.828650
Si Si2 0.330064 0.175737 0.389955
Si Si3 0.676997 0.665047 0.625085
Si Si4 0.324346 0.500000 0.696421
Si Si5 0.830428 0.500000 0.847332
Si Si6 0.326845 0.190877 0.972991
Si Si7 0.173284 0.231023 0.743702
O O1 0.500000 0.895431 0.811731
O O2 0.289002 0.873990 0.909720
O O3 0.235373 0.856725 0.767841
O O4 0.275915 0.000000 0.824241
O O5 0.500000 0.199145 0.410277
O O6 0.218344 0.219232 0.445765
O O7 0.295071 0.202915 0.306962
O O8 0.302241 0.079317 0.397057
O O9 0.500000 0.670857 0.629410
O O10 0.739963 0.580405 0.657505
O O11 0.728196 0.667680 0.541848
O O12 0.744505 0.740224 0.670329
O O13 0.500000 0.500000 0.689716
O O14 0.282209 0.500000 0.780696
O O15 0.000000 0.500000 0.816808
O O16 0.500000 0.190535 0.994321
O O17 0.000000 0.221937 0.726010
#
# Coordination Sequence:
#
# PCOD8188324 Si02
#       7
#     8   8   8   4   4   8   8
#     4   9  19  36  56  79 107 140 178 219 265 315
#     4   9  18  33  53  78 107 140 175 214 260 311
#     4  11  22  36  53  77 111 145 176 215 264 318
#     4  10  22  34  50  80 112 141 172 213 264 312
#     4  10  18  32  56  82 108 137 174 215 256 312
#     4  10  21  35  54  78 107 142 178 217 262 316
#     4  10  19  33  55  80 106 139 179 220 262 310
#
# _framework density 17.823657999999998
#
# number of rings (size 3 to 8) (size 9 to 14) (size 15 to 20)
#    0.000    2.167    1.667    1.500    1.167    3.000 
#    0.000    0.000    1.833    0.000    0.000    0.000 
#    0.000    0.000    0.000    0.000    0.000    0.000 
#
# Total GULP energy -297676.824507 kJ/mol
# GULP energy per Si atom -12403.201021 kJ/mol
# Density = 1.778309 g / cm^3
# Si number density = 17.823658 Si / 1000 Ang^3
#
#
#
# Elastic Constant Matrix: (Units=GPa)
#
#
# Indices 1 2 3 4 5 6 
#
# 1 66.2081 42.9962 37.2000 0.0000 0.0000 0.0000
# 2 42.9962 137.1907 42.1257 0.0000 0.0000 0.0000
# 3 37.2000 42.1257 72.1994 0.0000 0.0000 0.0000
# 4 0.0000 0.0000 0.0000 16.7461 0.0000 0.0000
# 5 0.0000 0.0000 0.0000 0.0000 33.6544 0.0000
# 6 0.0000 0.0000 0.0000 0.0000 0.0000 25.7477
#
#
#
# Elastic Compliance Matrix: (Units=1/GPa)
#
#
# Indices 1 2 3 4 5 6 
#
# 1 0.023247 -0.004395 -0.009413 0.000000 0.000000 0.000000
# 2 -0.004395 0.009711 -0.003401 0.000000 0.000000 0.000000
# 3 -0.009413 -0.003401 0.020685 0.000000 0.000000 0.000000
# 4 0.000000 0.000000 0.000000 0.059715 0.000000 0.000000
# 5 0.000000 0.000000 0.000000 0.000000 0.029714 0.000000
# 6 0.000000 0.000000 0.000000 0.000000 0.000000 0.038838
#
#
# Mechanical properties :
#
#
# Convention : Reuss Voigt Hill
#
# Bulk Modulus (GPa) = 52.02003 57.80467 54.91235
# Shear Modulus (GPa) = 22.44775 25.44805 23.94790
#
# Velocity S-wave (km/s) = 3.55270 3.78268 3.66949
# Velocity P-wave (km/s) = 6.78810 7.18193 6.98779
#
# Compressibility (1/GPa) = 0.01922337
#
# Stress axis : x y z
#
# Youngs Moduli (GPa) = 43.01567 102.97514 48.34354
#
# Poissons Ratio (x) = 0.45261 0.45508
# Poissons Ratio (y) = 0.18907 0.16444
# Poissons Ratio (z) = 0.40492 0.35026
#
# Static dielectric constant tensor:
#      x y z
#    x 3.289800 0.000000 0.000000 
#    y 0.000000 3.460510 0.000000 
#    z 0.000000 0.000000 3.058140 
# 
# 
# High freq. dielectric constant tensor:
#      x y z
#    x 1.694570 0.000000 0.000000 
#    y 0.000000 1.693020 0.000000 
#    z 0.000000 0.000000 1.668940 
# 
# From -- ./inp_files/16196.got.cif
#   From: 2010.03.12/outbox.cif.g09.slc.cpg/sg44_9_cif.got.tgz:16196.got - 2010.04.14 02:36:11.
