data_PCOD8188354
_publ_section_title
;
Structure prediction by ZEFSAII (Michael W. Deem and Ramdas Pophale) SiO2 
 PCOD8188354
Probable space group: I M M 2
;
_chemical_formula_sum "Si O2"
_cell_formula_units_Z 64
_cell_length_a 18.727607
_cell_length_b 18.703385
_cell_length_c 9.659372
_cell_angle_alpha 90.000000
_cell_angle_beta 90.000000
_cell_angle_gamma 90.000000
_cell_volume 3383.384790
_symmetry_space_group_name_H-M "I M M 2"
_symmetry_group_IT_number 44
_symmetry_cell_setting 'orthorhombic'
loop_
_space_group_symop_operation_xyz
x,y,z
-x,-y,z
-x,y,z
x,-y,z
1/2+x,1/2+y,1/2+z
1/2-x,1/2-y,1/2+z
1/2-x,1/2+y,1/2+z
1/2+x,1/2-y,1/2+z
loop_
_atom_site_type_symbol
_atom_site_label
_atom_site_fract_x
_atom_site_fract_y
_atom_site_fract_z
Si Si1 0.333860 0.330561 0.679530
Si Si2 0.158602 0.823699 0.638949
Si Si3 0.580219 0.704981 0.423641
Si Si4 0.417577 0.920188 0.235475
Si Si5 0.916367 0.084891 0.414380
Si Si6 0.183814 0.331608 0.554506
Si Si7 0.187936 0.334090 0.240317
Si Si8 0.919933 0.632875 0.020903
O O1 0.380389 0.340560 0.541227
O O2 0.368213 0.382694 0.792410
O O3 0.253451 0.354023 0.642440
O O4 0.331435 0.249692 0.734499
O O5 0.119997 0.802636 0.779644
O O6 0.111322 0.881799 0.558332
O O7 0.170974 0.753291 0.546536
O O8 0.236529 0.854615 0.672750
O O9 0.500000 0.675895 0.408742
O O10 0.582167 0.786467 0.468450
O O11 0.500000 0.898373 0.239063
O O12 0.383071 0.866707 0.128004
O O13 0.389016 0.913620 0.393268
O O14 0.404328 0.000000 0.181877
O O15 0.000000 0.104568 0.393305
O O16 0.905591 0.000000 0.419084
O O17 0.188867 0.360265 0.398305
O O18 0.128736 0.378630 0.155734
O O19 0.000000 0.609559 0.062467
#
# Coordination Sequence:
#
# PCOD8188354 Si02
#       8
#     8   8   8   8   8   8   8   8
#     4  10  21  37  59  88 120 154 193 247 298 349
#     4  11  21  37  60  90 121 153 195 249 302 353
#     4  10  18  33  58  86 114 148 194 241 292 344
#     4  10  22  39  58  84 118 155 195 239 293 358
#     4  11  25  43  61  87 124 165 208 251 302 363
#     4  11  21  36  61  90 120 155 195 245 304 358
#     4  10  21  36  59  90 121 149 191 250 299 348
#     4   9  19  35  56  84 116 151 193 238 288 354
#
# _framework density 18.915969
#
# number of rings (size 3 to 8) (size 9 to 14) (size 15 to 20)
#    0.000    1.750    3.750    0.750    1.750    2.000 
#    0.000    1.875    0.000    3.750    0.000    0.000 
#    0.000    0.000    0.000    0.000    0.000    0.000 
#
# Total GULP energy -396808.608986 kJ/mol
# GULP energy per Si atom -12400.269031 kJ/mol
# Density = 1.887292 g / cm^3
# Si number density = 18.915969 Si / 1000 Ang^3
#
#
#
# Elastic Constant Matrix: (Units=GPa)
#
#
# Indices 1 2 3 4 5 6 
#
# 1 97.0986 31.9445 48.1335 0.0000 0.0000 0.0000
# 2 31.9445 39.4516 15.4980 0.0000 0.0000 0.0000
# 3 48.1335 15.4980 108.6922 0.0000 0.0000 0.0000
# 4 0.0000 0.0000 0.0000 19.8018 0.0000 0.0000
# 5 0.0000 0.0000 0.0000 0.0000 35.0928 0.0000
# 6 0.0000 0.0000 0.0000 0.0000 0.0000 20.5091
#
#
#
# Elastic Compliance Matrix: (Units=1/GPa)
#
#
# Indices 1 2 3 4 5 6 
#
# 1 0.016980 -0.011436 -0.005889 0.000000 0.000000 0.000000
# 2 -0.011436 0.034553 0.000137 0.000000 0.000000 0.000000
# 3 -0.005889 0.000137 0.011789 0.000000 0.000000 0.000000
# 4 0.000000 0.000000 0.000000 0.050501 0.000000 0.000000
# 5 0.000000 0.000000 0.000000 0.000000 0.028496 0.000000
# 6 0.000000 0.000000 0.000000 0.000000 0.000000 0.048759
#
#
# Mechanical properties :
#
#
# Convention : Reuss Voigt Hill
#
# Bulk Modulus (GPa) = 34.54538 48.48825 41.51682
# Shear Modulus (GPa) = 21.26742 25.05849 23.16295
#
# Velocity S-wave (km/s) = 3.35671 3.64363 3.50311
# Velocity P-wave (km/s) = 5.77283 6.58715 6.19339
#
# Compressibility (1/GPa) = 0.02894743
#
# Stress axis : x y z
#
# Youngs Moduli (GPa) = 58.89154 28.94086 84.82765
#
# Poissons Ratio (x) = 0.33096 0.49955
# Poissons Ratio (y) = 0.67347 -0.01166
# Poissons Ratio (z) = 0.34681 -0.00398
#
# Static dielectric constant tensor:
#      x y z
#    x 3.732460 0.000000 0.000000 
#    y 0.000000 3.152750 0.000000 
#    z 0.000000 0.000000 3.509330 
# 
# 
# High freq. dielectric constant tensor:
#      x y z
#    x 1.748670 0.000000 0.000000 
#    y 0.000000 1.699180 0.000000 
#    z 0.000000 0.000000 1.745460 
# 
# From -- ./inp_files/8438.got.cif
#   From: 2010.03.12/outbox.cif.g09.slc.cpg/sg44_5_cif.got.tgz:8438.got - 2010.04.14 02:36:11.
