data_PCOD8188856
_publ_section_title
;
Structure prediction by ZEFSAII (Michael W. Deem and Ramdas Pophale) SiO2 
 PCOD8188856
Probable space group: I M M 2
;
_chemical_formula_sum "Si O2"
_cell_formula_units_Z 64
_cell_length_a 19.354380
_cell_length_b 9.141604
_cell_length_c 20.662023
_cell_angle_alpha 90.000000
_cell_angle_beta 90.000000
_cell_angle_gamma 90.000000
_cell_volume 3655.733333
_symmetry_space_group_name_H-M "I M M 2"
_symmetry_group_IT_number 44
_symmetry_cell_setting 'orthorhombic'
loop_
_space_group_symop_operation_xyz
x,y,z
-x,-y,z
-x,y,z
x,-y,z
1/2+x,1/2+y,1/2+z
1/2-x,1/2-y,1/2+z
1/2-x,1/2+y,1/2+z
1/2+x,1/2-y,1/2+z
loop_
_atom_site_type_symbol
_atom_site_label
_atom_site_fract_x
_atom_site_fract_y
_atom_site_fract_z
Si Si1 0.921822 0.329549 0.594010
Si Si2 0.702164 0.331227 0.147240
Si Si3 0.922017 0.670659 0.846242
Si Si4 0.797772 0.328904 0.407967
Si Si5 0.716437 0.331858 0.538997
Si Si6 0.078324 0.829983 0.459049
Si Si7 0.923065 0.832986 0.978025
Si Si8 0.701247 0.667756 0.292128
O O1 0.904105 0.500000 0.587010
O O2 0.870445 0.254796 0.644589
O O3 0.908911 0.256160 0.525118
O O4 0.000000 0.305113 0.618404
O O5 0.688702 0.500000 0.130485
O O6 0.757286 0.268062 0.097048
O O7 0.731782 0.312532 0.219898
O O8 0.907698 0.500000 0.847351
O O9 0.870073 0.743704 0.795854
O O10 0.000000 0.706729 0.823843
O O11 0.908049 0.729807 0.917793
O O12 0.815224 0.500000 0.403876
O O13 0.753662 0.290661 0.471784
O O14 0.869112 0.237766 0.406941
O O15 0.756254 0.274917 0.344693
O O16 0.731360 0.500000 0.556785
O O17 0.634333 0.301171 0.532602
O O18 0.000000 0.807087 0.434116
O O19 0.094357 0.000000 0.470704
O O20 0.000000 0.804716 0.006754
O O21 0.915314 0.000000 0.953635
O O22 0.683562 0.500000 0.307238
#
# Coordination Sequence:
#
# PCOD8188856 Si02
#       8
#     8   8   8   8   8   8   8   8
#     4  10  20  34  52  74 104 142 178 211 252 305
#     4  11  23  36  53  76 105 140 176 216 261 307
#     4  10  20  32  49  77 109 139 173 213 257 304
#     4  10  19  34  56  79 103 135 177 217 256 306
#     4  10  19  33  55  80 105 135 174 218 259 305
#     4  10  20  33  52  80 109 134 168 215 263 309
#     4   9  17  32  55  79 104 137 175 213 255 305
#     4  10  22  39  54  73 103 141 181 215 253 309
#
# _framework density 17.506747000000001
#
# number of rings (size 3 to 8) (size 9 to 14) (size 15 to 20)
#    0.000    2.000    2.500    1.500    0.000    4.750 
#    0.000    2.500    0.000    0.750    0.000    3.500 
#    0.000    0.000    0.000    0.000    0.000    0.000 
#
# Total GULP energy -396824.403663 kJ/mol
# GULP energy per Si atom -12400.762614 kJ/mol
# Density = 1.746690 g / cm^3
# Si number density = 17.506747 Si / 1000 Ang^3
#
#
#
# Elastic Constant Matrix: (Units=GPa)
#
#
# Indices 1 2 3 4 5 6 
#
# 1 111.1946 50.0348 56.4493 0.0000 0.0000 0.0000
# 2 50.0348 87.2619 47.3767 0.0000 0.0000 0.0000
# 3 56.4493 47.3767 97.6796 0.0000 0.0000 0.0000
# 4 0.0000 0.0000 0.0000 23.9295 0.0000 0.0000
# 5 0.0000 0.0000 0.0000 0.0000 24.3374 0.0000
# 6 0.0000 0.0000 0.0000 0.0000 0.0000 28.8482
#
#
#
# Elastic Compliance Matrix: (Units=1/GPa)
#
#
# Indices 1 2 3 4 5 6 
#
# 1 0.014167 -0.004993 -0.005765 0.000000 0.000000 0.000000
# 2 -0.004993 0.017316 -0.005513 0.000000 0.000000 0.000000
# 3 -0.005765 -0.005513 0.016243 0.000000 0.000000 0.000000
# 4 0.000000 0.000000 0.000000 0.041789 0.000000 0.000000
# 5 0.000000 0.000000 0.000000 0.000000 0.041089 0.000000
# 6 0.000000 0.000000 0.000000 0.000000 0.000000 0.034664
#
#
# Mechanical properties :
#
#
# Convention : Reuss Voigt Hill
#
# Bulk Modulus (GPa) = 65.86230 67.09529 66.47879
# Shear Modulus (GPa) = 24.64602 24.90803 24.77703
#
# Velocity S-wave (km/s) = 3.75614 3.77605 3.76611
# Velocity P-wave (km/s) = 7.51759 7.57760 7.54766
#
# Compressibility (1/GPa) = 0.01518319
#
# Stress axis : x y z
#
# Youngs Moduli (GPa) = 70.58776 57.75060 61.56360
#
# Poissons Ratio (x) = 0.28834 0.35494
# Poissons Ratio (y) = 0.35244 0.33941
# Poissons Ratio (z) = 0.40696 0.31839
#
# Static dielectric constant tensor:
#      x y z
#    x 3.463610 0.000000 0.000000 
#    y 0.000000 3.323130 0.000000 
#    z 0.000000 0.000000 2.990810 
# 
# 
# High freq. dielectric constant tensor:
#      x y z
#    x 1.680380 0.000000 0.000000 
#    y 0.000000 1.683740 0.000000 
#    z 0.000000 0.000000 1.646070 
# 
# From -- ./inp_files/20743.got.cif
#   From: 2010.03.12/outbox.cif.g09.slc.cpg/sg44_11_cif.got.tgz:20743.got - 2010.04.14 02:36:11.
