data_PCOD8188206
_publ_section_title
;
Structure prediction by ZEFSAII (Michael W. Deem and Ramdas Pophale) SiO2 
 PCOD8188206
Probable space group: I M M 2
;
_chemical_formula_sum "Si O2"
_cell_formula_units_Z 52
_cell_length_a 7.800611
_cell_length_b 14.425214
_cell_length_c 26.028673
_cell_angle_alpha 90.000000
_cell_angle_beta 90.000000
_cell_angle_gamma 90.000000
_cell_volume 2928.889001
_symmetry_space_group_name_H-M "I M M 2"
_symmetry_group_IT_number 44
_symmetry_cell_setting 'orthorhombic'
loop_
_space_group_symop_operation_xyz
x,y,z
-x,-y,z
-x,y,z
x,-y,z
1/2+x,1/2+y,1/2+z
1/2-x,1/2-y,1/2+z
1/2-x,1/2+y,1/2+z
1/2+x,1/2-y,1/2+z
loop_
_atom_site_type_symbol
_atom_site_label
_atom_site_fract_x
_atom_site_fract_y
_atom_site_fract_z
Si Si1 0.310894 0.846171 0.633220
Si Si2 0.194132 0.706606 0.779700
Si Si3 0.697058 0.106801 0.381900
Si Si4 0.000000 0.107013 0.459285
Si Si5 0.500000 0.695821 0.066558
Si Si6 0.700492 0.898309 0.744621
Si Si7 0.500000 0.098219 0.110622
Si Si8 0.682970 0.357611 0.673905
O O1 0.500000 0.882974 0.614938
O O2 0.247089 0.898693 0.684462
O O3 0.325732 0.739815 0.646297
O O4 0.167650 0.856090 0.589209
O O5 0.258992 0.670930 0.834737
O O6 0.204936 0.818726 0.776955
O O7 0.299060 0.656818 0.734915
O O8 0.000000 0.675412 0.772098
O O9 0.500000 0.129213 0.398440
O O10 0.826535 0.128750 0.428061
O O11 0.713809 0.000000 0.364823
O O12 0.000000 0.178736 0.506178
O O13 0.000000 0.000000 0.477695
O O14 0.500000 0.807768 0.076770
O O15 0.500000 0.877620 0.748852
O O16 0.748209 0.000000 0.767110
O O17 0.662679 0.088017 0.148157
O O18 0.500000 0.000000 0.078129
O O19 0.500000 0.409085 0.665336
#
# Coordination Sequence:
#
# PCOD8188206 Si02
#       8
#     8   8   8   4   4   8   4   8
#     4   8  16  30  47  69 100 134 168 205 244 292
#     4  10  18  30  50  75 102 138 176 208 252 307
#     4   9  20  37  54  74 101 129 163 212 265 312
#     4  10  22  38  56  78  96 122 172 223 265 307
#     4  10  20  34  54  76  98 130 172 214 260 300
#     4   9  18  30  45  71 108 145 177 205 242 299
#     4  10  20  34  50  74 110 140 168 205 245 305
#     4   9  17  30  47  71 104 139 172 204 239 291
#
# _framework density 17.754170999999999
#
# number of rings (size 3 to 8) (size 9 to 14) (size 15 to 20)
#    0.000    2.769    0.769    1.385    5.385    2.462 
#    0.000    0.000    0.000    0.923    0.000    0.000 
#    0.000    0.000    0.000    0.000    0.000    0.000 
#
# Total GULP energy -322143.516837 kJ/mol
# GULP energy per Si atom -12390.135263 kJ/mol
# Density = 1.771376 g / cm^3
# Si number density = 17.754171 Si / 1000 Ang^3
#
#
#
# Elastic Constant Matrix: (Units=GPa)
#
#
# Indices 1 2 3 4 5 6 
#
# 1 112.5509 23.6344 53.9589 0.0000 0.0000 0.0000
# 2 23.6344 80.7432 44.1435 0.0000 0.0000 0.0000
# 3 53.9589 44.1435 102.7667 0.0000 0.0000 0.0000
# 4 0.0000 0.0000 0.0000 17.4038 0.0000 0.0000
# 5 0.0000 0.0000 0.0000 0.0000 8.2811 0.0000
# 6 0.0000 0.0000 0.0000 0.0000 0.0000 -0.0923
#
#
#
# Elastic Compliance Matrix: (Units=1/GPa)
#
#
# Indices 1 2 3 4 5 6 
#
# 1 0.011874 -0.000088 -0.006197 0.000000 0.000000 0.000000
# 2 -0.000088 0.016187 -0.006907 0.000000 0.000000 0.000000
# 3 -0.006197 -0.006907 0.015952 0.000000 0.000000 0.000000
# 4 0.000000 0.000000 0.000000 0.057459 0.000000 0.000000
# 5 0.000000 0.000000 0.000000 0.000000 0.120757 0.000002
# 6 0.000000 0.000000 0.000000 0.000000 0.000002-10.838950
#
#
# Mechanical properties :
#
#
# Convention : Reuss Voigt Hill
#
# Bulk Modulus (GPa) = 56.72452 59.94827 58.33639
# Shear Modulus (GPa) = -0.47239 16.74012 8.13386
#
# Velocity S-wave (km/s) = -0.51638 3.07397 2.14274
# Velocity P-wave (km/s) = 5.62706 6.81455 6.24908
#
# Compressibility (1/GPa) = 0.01762906
#
# Stress axis : x y z
#
# Youngs Moduli (GPa) = 84.21571 61.77888 62.68997
#
# Poissons Ratio (x) = 0.00542 0.38849
# Poissons Ratio (y) = 0.00739 0.43300
# Poissons Ratio (z) = 0.52189 0.42671
#
# Static dielectric constant tensor:
#      x y z
#    x 4.671910 0.000000 0.000000 
#    y 0.000000 3.325220 0.000000 
#    z 0.000000 0.000000 2.925670 
# 
# 
# High freq. dielectric constant tensor:
#      x y z
#    x 1.706400 0.000000 0.000000 
#    y 0.000000 1.680530 0.000000 
#    z 0.000000 0.000000 1.637300 
# 
# From -- ./inp_files/24943.got.cif
#   From: 2010.03.12/outbox.cif.g09.slc.cpg/sg44_13_cif.got.tgz:24943.got - 2010.04.14 02:36:11.
