data_PCOD8188079
_publ_section_title
;
Structure prediction by ZEFSAII (Michael W. Deem and Ramdas Pophale) SiO2 
 PCOD8188079
Probable space group: I M M 2
;
_chemical_formula_sum "Si O2"
_cell_formula_units_Z 56
_cell_length_a 13.356330
_cell_length_b 16.618966
_cell_length_c 15.783590
_cell_angle_alpha 90.000000
_cell_angle_beta 90.000000
_cell_angle_gamma 90.000000
_cell_volume 3503.458126
_symmetry_space_group_name_H-M "I M M 2"
_symmetry_group_IT_number 44
_symmetry_cell_setting 'orthorhombic'
loop_
_space_group_symop_operation_xyz
x,y,z
-x,-y,z
-x,y,z
x,-y,z
1/2+x,1/2+y,1/2+z
1/2-x,1/2-y,1/2+z
1/2-x,1/2+y,1/2+z
1/2+x,1/2-y,1/2+z
loop_
_atom_site_type_symbol
_atom_site_label
_atom_site_fract_x
_atom_site_fract_y
_atom_site_fract_z
Si Si1 0.111998 0.092029 0.463500
Si Si2 0.612636 0.500000 0.217417
Si Si3 0.804346 0.153977 0.630469
Si Si4 0.888545 0.000000 0.917761
Si Si5 0.692522 0.907253 0.368928
Si Si6 0.382118 0.672201 0.429969
Si Si7 0.880775 0.733321 0.766709
Si Si8 0.385843 0.175677 0.532481
O O1 0.134693 0.150270 0.542425
O O2 0.189516 0.108194 0.387324
O O3 0.000000 0.108586 0.429435
O O4 0.124224 0.000000 0.495993
O O5 0.500000 0.500000 0.178707
O O6 0.671414 0.421294 0.189084
O O7 0.606736 0.500000 0.317206
O O8 0.834341 0.235902 0.678510
O O9 0.685813 0.151890 0.610092
O O10 0.834126 0.916756 0.947634
O O11 0.000000 0.000000 0.956565
O O12 0.659137 0.856432 0.286802
O O13 0.628574 0.882050 0.451471
O O14 0.670639 0.000000 0.348450
O O15 0.500000 0.661169 0.417315
O O16 0.341016 0.709267 0.342313
O O17 0.358596 0.732368 0.506886
O O18 0.000000 0.732691 0.759995
O O19 0.500000 0.168160 0.563607
#
# Coordination Sequence:
#
# PCOD8188079 Si02
#       8
#     8   4   8   4   8   8   8   8
#     4   9  16  27  45  69  95 117 140 178 226 276
#     4  11  18  26  43  73 101 112 128 177 238 291
#     4  11  19  28  44  68  96 120 146 177 233 278
#     4   9  14  22  44  71  91 110 135 171 229 277
#     4   9  18  31  47  68  88 118 158 189 223 267
#     4   8  14  26  43  65  89 115 142 178 223 265
#     4  10  18  28  44  66  92 119 146 187 229 269
#     4   9  19  32  45  63  93 123 153 187 222 267
#
# _framework density 15.984208000000001
#
# number of rings (size 3 to 8) (size 9 to 14) (size 15 to 20)
#    0.000    2.571    2.143    2.571    1.000    1.143 
#    0.000    0.714    1.571    0.000    0.000    0.000 
#    0.000    0.000    0.000    0.000    0.000    0.000 
#
# Total GULP energy -347052.653003 kJ/mol
# GULP energy per Si atom -12394.737607 kJ/mol
# Density = 1.594783 g / cm^3
# Si number density = 15.984208 Si / 1000 Ang^3
#
#
#
# Elastic Constant Matrix: (Units=GPa)
#
#
# Indices 1 2 3 4 5 6 
#
# 1 97.4704 33.4976 32.2863 0.0000 0.0000 0.0000
# 2 33.4976 113.9254 30.0698 0.0000 0.0000 0.0000
# 3 32.2863 30.0698 43.8885 0.0000 0.0000 0.0000
# 4 0.0000 0.0000 0.0000 14.9939 0.0000 0.0000
# 5 0.0000 0.0000 0.0000 0.0000 14.8928 0.0000
# 6 0.0000 0.0000 0.0000 0.0000 0.0000 17.9004
#
#
#
# Elastic Compliance Matrix: (Units=1/GPa)
#
#
# Indices 1 2 3 4 5 6 
#
# 1 0.013825 -0.001685 -0.009016 0.000000 0.000000 0.000000
# 2 -0.001685 0.010921 -0.006243 0.000000 0.000000 0.000000
# 3 -0.009016 -0.006243 0.033694 0.000000 0.000000 0.000000
# 4 0.000000 0.000000 0.000000 0.066694 0.000000 0.000000
# 5 0.000000 0.000000 0.000000 0.000000 0.067147 0.000000
# 6 0.000000 0.000000 0.000000 0.000000 0.000000 0.055865
#
#
# Mechanical properties :
#
#
# Convention : Reuss Voigt Hill
#
# Bulk Modulus (GPa) = 40.72778 49.66576 45.19677
# Shear Modulus (GPa) = 17.22849 20.18611 18.70730
#
# Velocity S-wave (km/s) = 3.28662 3.55756 3.42477
# Velocity P-wave (km/s) = 6.31963 6.92922 6.63144
#
# Compressibility (1/GPa) = 0.02455326
#
# Stress axis : x y z
#
# Youngs Moduli (GPa) = 72.33211 91.56752 29.67856
#
# Poissons Ratio (x) = 0.15433 0.26757
# Poissons Ratio (y) = 0.12191 0.18527
# Poissons Ratio (z) = 0.65212 0.57161
#
# Static dielectric constant tensor:
#      x y z
#    x 2.957610 0.000000 0.000000 
#    y 0.000000 3.330440 0.000000 
#    z 0.000000 0.000000 2.711470 
# 
# 
# High freq. dielectric constant tensor:
#      x y z
#    x 1.594240 0.000000 0.000000 
#    y 0.000000 1.618940 0.000000 
#    z 0.000000 0.000000 1.575310 
# 
# From -- ./inp_files/18574.got.cif
#   From: 2010.03.12/outbox.cif.g09.slc.cpg/sg44_10_cif.got.tgz:18574.got - 2010.04.14 02:36:11.
