data_PCOD8188908
_publ_section_title
;
Structure prediction by ZEFSAII (Michael W. Deem and Ramdas Pophale) SiO2 
 PCOD8188908
Probable space group: I M M 2
;
_chemical_formula_sum "Si O2"
_cell_formula_units_Z 64
_cell_length_a 27.276999
_cell_length_b 8.876991
_cell_length_c 13.182861
_cell_angle_alpha 90.000000
_cell_angle_beta 90.000000
_cell_angle_gamma 90.000000
_cell_volume 3192.067308
_symmetry_space_group_name_H-M "I M M 2"
_symmetry_group_IT_number 44
_symmetry_cell_setting 'orthorhombic'
loop_
_space_group_symop_operation_xyz
x,y,z
-x,-y,z
-x,y,z
x,-y,z
1/2+x,1/2+y,1/2+z
1/2-x,1/2-y,1/2+z
1/2-x,1/2+y,1/2+z
1/2+x,1/2-y,1/2+z
loop_
_atom_site_type_symbol
_atom_site_label
_atom_site_fract_x
_atom_site_fract_y
_atom_site_fract_z
Si Si1 0.556550 0.825598 0.831600
Si Si2 0.697713 0.824475 0.589272
Si Si3 0.597819 0.321522 0.632207
Si Si4 0.769123 0.324780 0.457831
Si Si5 0.123378 0.320642 0.519463
Si Si6 0.055002 0.178989 0.918837
Si Si7 0.273165 0.327079 0.254375
Si Si8 0.119764 0.180136 0.731092
O O1 0.500000 0.799178 0.861134
O O2 0.567604 0.737993 0.727855
O O3 0.568071 0.000000 0.810937
O O4 0.589701 0.766428 0.925119
O O5 0.653251 0.735341 0.638611
O O6 0.717369 0.758030 0.484259
O O7 0.747129 0.787105 0.650495
O O8 0.684355 0.000000 0.584273
O O9 0.596401 0.500000 0.635415
O O10 0.576001 0.259419 0.525805
O O11 0.764104 0.500000 0.485092
O O12 0.820777 0.262385 0.500498
O O13 0.767923 0.289711 0.338316
O O14 0.121440 0.500000 0.528493
O O15 0.102594 0.247244 0.622697
O O16 0.085330 0.239637 0.822256
O O17 0.000000 0.239881 0.906808
O O18 0.056673 0.000000 0.921176
O O19 0.287019 0.500000 0.263329
O O20 0.326564 0.249118 0.257053
O O21 0.117531 0.000000 0.722830
#
# Coordination Sequence:
#
# PCOD8188908 Si02
#       8
#     8   8   8   8   8   8   8   8
#     4  10  22  41  63  86 116 157 200 244 300 357
#     4  11  21  35  55  81 114 150 187 227 281 345
#     4  11  22  38  61  88 119 151 193 247 298 354
#     4  10  19  34  55  78 109 150 193 234 278 337
#     4  10  21  37  57  83 120 159 195 238 291 350
#     4   9  19  36  59  85 112 147 190 240 298 351
#     4   9  18  33  53  76 108 150 187 226 281 338
#     4  10  19  35  58  82 113 151 196 241 285 342
#
# _framework density 20.049702
#
# number of rings (size 3 to 8) (size 9 to 14) (size 15 to 20)
#    0.000    2.000    1.250    2.625    0.000    5.750 
#    0.000    5.625    0.000    1.500    0.000    0.000 
#    0.000    0.000    0.000    0.000    0.000    0.000 
#
# Total GULP energy -396590.407206 kJ/mol
# GULP energy per Si atom -12393.450225 kJ/mol
# Density = 2.000407 g / cm^3
# Si number density = 20.049702 Si / 1000 Ang^3
#
#
#
# Elastic Constant Matrix: (Units=GPa)
#
#
# Indices 1 2 3 4 5 6 
#
# 1 136.7410 22.6239 54.6569 0.0000 0.0000 0.0000
# 2 22.6239 41.9720 34.5494 0.0000 0.0000 0.0000
# 3 54.6569 34.5494 137.4357 0.0000 0.0000 0.0000
# 4 0.0000 0.0000 0.0000 28.0679 0.0000 0.0000
# 5 0.0000 0.0000 0.0000 0.0000 59.3871 0.0000
# 6 0.0000 0.0000 0.0000 0.0000 0.0000 24.0742
#
#
#
# Elastic Compliance Matrix: (Units=1/GPa)
#
#
# Indices 1 2 3 4 5 6 
#
# 1 0.008878 -0.002370 -0.002935 0.000000 0.000000 0.000000
# 2 -0.002370 0.030674 -0.006769 0.000000 0.000000 0.000000
# 3 -0.002935 -0.006769 0.010145 0.000000 0.000000 0.000000
# 4 0.000000 0.000000 0.000000 0.035628 0.000000 0.000000
# 5 0.000000 0.000000 0.000000 0.000000 0.016839 0.000000
# 6 0.000000 0.000000 0.000000 0.000000 0.000000 0.041538
#
#
# Mechanical properties :
#
#
# Convention : Reuss Voigt Hill
#
# Bulk Modulus (GPa) = 39.13774 59.97877 49.55826
# Shear Modulus (GPa) = 28.35006 35.92707 32.13856
#
# Velocity S-wave (km/s) = 3.76438 4.23768 4.00802
# Velocity P-wave (km/s) = 6.20136 7.34329 6.79635
#
# Compressibility (1/GPa) = 0.02555078
#
# Stress axis : x y z
#
# Youngs Moduli (GPa) = 112.63343 32.60048 98.57082
#
# Poissons Ratio (x) = 0.07725 0.28932
# Poissons Ratio (y) = 0.26689 0.66720
# Poissons Ratio (z) = 0.33060 0.22066
#
# Static dielectric constant tensor:
#      x y z
#    x 3.716490 0.000000 0.000000 
#    y 0.000000 3.291440 0.000000 
#    z 0.000000 0.000000 3.724190 
# 
# 
# High freq. dielectric constant tensor:
#      x y z
#    x 1.790290 0.000000 0.000000 
#    y 0.000000 1.746850 0.000000 
#    z 0.000000 0.000000 1.797170 
# 
# From -- ./inp_files/15059.got.cif
#   From: 2010.03.12/outbox.cif.g09.slc.cpg/sg44_8_cif.got.tgz:15059.got - 2010.04.14 02:36:11.
