data_PCOD8188356
_publ_section_title
;
Structure prediction by ZEFSAII (Michael W. Deem and Ramdas Pophale) SiO2 
 PCOD8188356
Probable space group: I M M 2
;
_chemical_formula_sum "Si O2"
_cell_formula_units_Z 64
_cell_length_a 13.574906
_cell_length_b 27.323539
_cell_length_c 9.129785
_cell_angle_alpha 90.000000
_cell_angle_beta 90.000000
_cell_angle_gamma 90.000000
_cell_volume 3386.369397
_symmetry_space_group_name_H-M "I M M 2"
_symmetry_group_IT_number 44
_symmetry_cell_setting 'orthorhombic'
loop_
_space_group_symop_operation_xyz
x,y,z
-x,-y,z
-x,y,z
x,-y,z
1/2+x,1/2+y,1/2+z
1/2-x,1/2-y,1/2+z
1/2-x,1/2+y,1/2+z
1/2+x,1/2-y,1/2+z
loop_
_atom_site_type_symbol
_atom_site_label
_atom_site_fract_x
_atom_site_fract_y
_atom_site_fract_z
Si Si1 0.219688 0.182393 0.019910
Si Si2 0.887447 0.555300 0.869041
Si Si3 0.215778 0.292774 0.075319
Si Si4 0.115742 0.350896 0.322345
Si Si5 0.694444 0.946190 0.683622
Si Si6 0.265843 0.368197 0.821682
Si Si7 0.605886 0.679778 0.245753
Si Si8 0.392178 0.585405 0.052651
O O1 0.186914 0.239111 0.023464
O O2 0.198242 0.157698 0.174798
O O3 0.332051 0.173853 0.964026
O O4 0.145248 0.159628 0.901083
O O5 0.856416 0.500000 0.825471
O O6 0.822197 0.594425 0.780764
O O7 0.000000 0.565294 0.827709
O O8 0.873282 0.563287 0.042355
O O9 0.133185 0.317134 0.179426
O O10 0.315446 0.284372 0.169977
O O11 0.229050 0.327470 0.935824
O O12 0.166142 0.404296 0.299608
O O13 0.000000 0.355799 0.353740
O O14 0.809270 0.946601 0.634152
O O15 0.672622 0.000000 0.751336
O O16 0.355200 0.399812 0.889861
O O17 0.500000 0.706498 0.263099
O O18 0.593064 0.634038 0.142664
O O19 0.500000 0.558881 0.040949
#
# Coordination Sequence:
#
# PCOD8188356 Si02
#       8
#     8   8   8   8   8   8   8   8
#     4  11  22  36  54  79 117 151 181 231 286 338
#     4   9  17  31  54  81 108 141 184 228 272 328
#     4  10  20  38  56  76 106 148 192 239 275 324
#     4  11  22  39  57  83 117 151 191 237 281 336
#     4  10  18  33  59  87 110 144 186 234 286 329
#     4  10  19  33  54  81 110 146 185 231 283 332
#     4   9  18  35  56  74 103 142 183 226 275 326
#     4   9  17  34  57  82 108 140 184 232 275 327
#
# _framework density 18.899296
#
# number of rings (size 3 to 8) (size 9 to 14) (size 15 to 20)
#    0.000    2.125    5.000    1.875    0.000    3.000 
#    0.000    4.375    0.000    0.000    0.000    0.000 
#    0.000    0.000    0.000    0.000    0.000    0.000 
#
# Total GULP energy -396590.747402 kJ/mol
# GULP energy per Si atom -12393.460856 kJ/mol
# Density = 1.885628 g / cm^3
# Si number density = 18.899296 Si / 1000 Ang^3
#
#
#
# Elastic Constant Matrix: (Units=GPa)
#
#
# Indices 1 2 3 4 5 6 
#
# 1 113.5367 22.4431 17.4392 0.0002 0.0007 0.0002
# 2 22.4431 83.0827 3.8194 -0.0051 -0.0001 -0.0020
# 3 17.4392 3.8194 61.7047 -0.0157 0.0001 -0.0062
# 4 0.0002 -0.0051 -0.0157 11.3822 0.0000 -0.0021
# 5 0.0007 -0.0001 0.0001 0.0000 13.9489 -0.0003
# 6 0.0002 -0.0020 -0.0062 -0.0021 -0.0003 13.6617
#
#
#
# Elastic Compliance Matrix: (Units=1/GPa)
#
#
# Indices 1 2 3 4 5 6 
#
# 1 0.009699 -0.002501 -0.002586 -0.000005 0.000000 -0.000002
# 2 -0.002501 0.012716 -0.000080 0.000006 0.000000 0.000002
# 3 -0.002586 -0.000080 0.016942 0.000023 0.000000 0.000008
# 4 -0.000005 0.000006 0.000023 0.087857 0.000000 0.000013
# 5 0.000000 0.000000 0.000000 0.000000 0.071690 0.000001
# 6 -0.000002 0.000002 0.000008 0.000013 0.000001 0.073197
#
#
# Mechanical properties :
#
#
# Convention : Reuss Voigt Hill
#
# Bulk Modulus (GPa) = 34.45724 38.41417 36.43570
# Shear Modulus (GPa) = 17.11678 22.10671 19.61174
#
# Velocity S-wave (km/s) = 3.01272 3.42381 3.22483
# Velocity P-wave (km/s) = 5.51122 5.99999 5.76079
#
# Compressibility (1/GPa) = 0.02902148
#
# Stress axis : x y z
#
# Youngs Moduli (GPa) = 103.09883 78.64391 59.02428
#
# Poissons Ratio (x) = 0.19670 0.15266
# Poissons Ratio (y) = 0.25787 0.00473
# Poissons Ratio (z) = 0.26666 0.00630
#
# Static dielectric constant tensor:
#      x y z
#    x 4.071380 0.000000 0.000000 
#    y 0.000000 3.447100 0.000000 
#    z 0.000000 0.000000 3.283950 
# 
# 
# High freq. dielectric constant tensor:
#      x y z
#    x 1.733540 0.000000 0.000000 
#    y 0.000000 1.726660 0.000000 
#    z 0.000000 0.000000 1.710320 
# 
# From -- ./inp_files/7700.got.cif
#   From: 2010.03.12/outbox.cif.g09.slc.cpg/sg44_4_cif.got.tgz:7700.got - 2010.04.14 02:36:11.
