data_PCOD8188035
_publ_section_title
;
Structure prediction by ZEFSAII (Michael W. Deem and Ramdas Pophale) SiO2 
 PCOD8188035
Probable space group: I M M 2
;
_chemical_formula_sum "Si O2"
_cell_formula_units_Z 64
_cell_length_a 18.460144
_cell_length_b 9.244219
_cell_length_c 26.176516
_cell_angle_alpha 90.000000
_cell_angle_beta 90.000000
_cell_angle_gamma 90.000000
_cell_volume 4467.012349
_symmetry_space_group_name_H-M "I M M 2"
_symmetry_group_IT_number 44
_symmetry_cell_setting 'orthorhombic'
loop_
_space_group_symop_operation_xyz
x,y,z
-x,-y,z
-x,y,z
x,-y,z
1/2+x,1/2+y,1/2+z
1/2-x,1/2-y,1/2+z
1/2-x,1/2+y,1/2+z
1/2+x,1/2-y,1/2+z
loop_
_atom_site_type_symbol
_atom_site_label
_atom_site_fract_x
_atom_site_fract_y
_atom_site_fract_z
Si Si1 0.837729 0.669929 0.228650
Si Si2 0.915923 0.667267 0.421596
Si Si3 0.840942 0.672240 0.523743
Si Si4 0.418386 0.169118 0.624579
Si Si5 0.716223 0.838513 0.181076
Si Si6 0.799717 0.160494 0.074732
Si Si7 0.584226 0.668978 0.819403
Si Si8 0.580335 0.172322 0.123329
O O1 0.834858 0.500000 0.239506
O O2 0.888021 0.708249 0.180381
O O3 0.756269 0.728032 0.219172
O O4 0.869708 0.750928 0.276901
O O5 0.898190 0.500000 0.409312
O O6 0.869512 0.727589 0.469250
O O7 0.893524 0.764468 0.373675
O O8 0.000000 0.685893 0.435535
O O9 0.844928 0.500000 0.525876
O O10 0.757001 0.721105 0.532273
O O11 0.891707 0.735276 0.569011
O O12 0.500000 0.229479 0.621032
O O13 0.370489 0.239741 0.579665
O O14 0.416032 0.000000 0.615094
O O15 0.756996 0.844393 0.127530
O O16 0.634487 0.781974 0.169523
O O17 0.715584 0.000000 0.205301
O O18 0.826375 0.000000 0.059838
O O19 0.500000 0.697653 0.808174
O O20 0.602888 0.500000 0.819258
O O21 0.500000 0.233955 0.134576
O O22 0.579433 0.000000 0.120051
#
# Coordination Sequence:
#
# PCOD8188035 Si02
#       8
#     8   8   8   8   8   8   8   8
#     4  10  18  28  42  56  73 101 135 165 194 231
#     4   9  16  26  41  59  78 102 132 162 189 219
#     4   8  13  22  37  57  80 104 131 162 190 216
#     4   9  17  27  38  54  76 100 127 160 194 227
#     4   8  14  24  37  55  79 103 128 160 194 226
#     4   8  14  24  37  54  76 101 128 157 188 223
#     4  10  20  31  41  55  77 102 128 162 200 232
#     4   8  12  19  35  59  83 106 133 162 189 220
#
# _framework density 14.327248000000001
#
# number of rings (size 3 to 8) (size 9 to 14) (size 15 to 20)
#    0.000    3.250    0.000    3.000    0.000    3.500 
#    0.000    0.625    0.000    1.125    0.000    0.000 
#    0.000    1.000    0.000    7.250    0.000    3.750 
#
# Total GULP energy -396599.928441 kJ/mol
# GULP energy per Si atom -12393.747764 kJ/mol
# Density = 1.429464 g / cm^3
# Si number density = 14.327248 Si / 1000 Ang^3
#
#
#
# Elastic Constant Matrix: (Units=GPa)
#
#
# Indices 1 2 3 4 5 6 
#
# 1 117.2922 41.1232 58.6343 0.0000 0.0000 0.0000
# 2 41.1232 51.2162 41.1760 0.0000 0.0000 0.0000
# 3 58.6343 41.1760 82.5356 0.0000 0.0000 0.0000
# 4 0.0000 0.0000 0.0000 17.2587 0.0000 0.0000
# 5 0.0000 0.0000 0.0000 0.0000 25.7255 0.0000
# 6 0.0000 0.0000 0.0000 0.0000 0.0000 15.6510
#
#
#
# Elastic Compliance Matrix: (Units=1/GPa)
#
#
# Indices 1 2 3 4 5 6 
#
# 1 0.014076 -0.005448 -0.007282 0.000000 0.000000 0.000000
# 2 -0.005448 0.034709 -0.013446 0.000000 0.000000 0.000000
# 3 -0.007282 -0.013446 0.023997 0.000000 0.000000 0.000000
# 4 0.000000 0.000000 0.000000 0.057942 0.000000 0.000000
# 5 0.000000 0.000000 0.000000 0.000000 0.038872 0.000000
# 6 0.000000 0.000000 0.000000 0.000000 0.000000 0.063894
#
#
# Mechanical properties :
#
#
# Convention : Reuss Voigt Hill
#
# Bulk Modulus (GPa) = 48.94453 59.21233 54.07843
# Shear Modulus (GPa) = 17.08519 19.06773 18.07646
#
# Velocity S-wave (km/s) = 3.45700 3.65207 3.55587
# Velocity P-wave (km/s) = 7.08311 7.69426 7.39500
#
# Compressibility (1/GPa) = 0.02043129
#
# Stress axis : x y z
#
# Youngs Moduli (GPa) = 71.04333 28.81079 41.67158
#
# Poissons Ratio (x) = 0.15695 0.30345
# Poissons Ratio (y) = 0.38702 0.56031
# Poissons Ratio (z) = 0.51733 0.38739
#
# Static dielectric constant tensor:
#      x y z
#    x 3.083370 0.000000 0.000000 
#    y 0.000000 2.681750 0.000000 
#    z 0.000000 0.000000 2.675490 
# 
# 
# High freq. dielectric constant tensor:
#      x y z
#    x 1.540610 0.000000 0.000000 
#    y 0.000000 1.530230 0.000000 
#    z 0.000000 0.000000 1.515330 
# 
# From -- ./inp_files/26286.got.cif
#   From: 2010.03.12/outbox.cif.g09.slc.cpg/sg44_14_cif.got.tgz:26286.got - 2010.04.14 02:36:11.
