data_PCOD8188949
_publ_section_title
;
Structure prediction by ZEFSAII (Michael W. Deem and Ramdas Pophale) SiO2 
 PCOD8188949
Probable space group: I M M 2
;
_chemical_formula_sum "Si O2"
_cell_formula_units_Z 48
_cell_length_a 10.368169
_cell_length_b 8.732369
_cell_length_c 28.071107
_cell_angle_alpha 90.000000
_cell_angle_beta 90.000000
_cell_angle_gamma 90.000000
_cell_volume 2541.520905
_symmetry_space_group_name_H-M "I M M 2"
_symmetry_group_IT_number 44
_symmetry_cell_setting 'orthorhombic'
loop_
_space_group_symop_operation_xyz
x,y,z
-x,-y,z
-x,y,z
x,-y,z
1/2+x,1/2+y,1/2+z
1/2-x,1/2-y,1/2+z
1/2-x,1/2+y,1/2+z
1/2+x,1/2-y,1/2+z
loop_
_atom_site_type_symbol
_atom_site_label
_atom_site_fract_x
_atom_site_fract_y
_atom_site_fract_z
Si Si1 0.351140 0.820348 0.435000
Si Si2 0.500000 0.317761 0.583752
Si Si3 0.500000 0.178718 0.178261
Si Si4 0.756937 0.680152 0.742538
Si Si5 0.000000 0.818320 0.190481
Si Si6 0.000000 0.819826 0.575536
Si Si7 0.648200 0.321421 0.336364
Si Si8 0.749851 0.318747 0.527596
O O1 0.500000 0.771898 0.442326
O O2 0.304053 0.769323 0.382862
O O3 0.263338 0.732536 0.473005
O O4 0.331067 0.000000 0.440953
O O5 0.500000 0.500000 0.584329
O O6 0.500000 0.250152 0.637157
O O7 0.626503 0.256669 0.556810
O O8 0.374713 0.224148 0.208343
O O9 0.500000 0.276703 0.130721
O O10 0.500000 0.000000 0.164637
O O11 0.755279 0.500000 0.752964
O O12 0.626625 0.739212 0.717810
O O13 0.766004 0.768339 0.792208
O O14 0.000000 0.000000 0.187278
O O15 0.124466 0.753401 0.550069
O O16 0.000000 0.000000 0.569954
O O17 0.500000 0.280035 0.325035
O O18 0.667309 0.500000 0.345806
O O19 0.761212 0.500000 0.530506
#
# Coordination Sequence:
#
# PCOD8188949 Si02
#       8
#     8   4   4   8   4   4   8   8
#     4  10  20  35  58  87 118 147 184 234 289 345
#     4   9  18  34  60  87 112 145 192 239 281 331
#     4  10  20  36  59  82 107 148 197 241 284 342
#     4  10  19  34  57  83 112 145 187 233 285 339
#     4   9  18  32  52  81 114 145 179 225 276 331
#     4  12  26  40  55  82 121 160 194 237 293 348
#     4  10  20  34  55  82 112 145 188 236 283 334
#     4  11  21  38  62  88 116 151 195 240 288 344
#
# _framework density 18.886330000000001
#
# number of rings (size 3 to 8) (size 9 to 14) (size 15 to 20)
#    0.000    1.833    1.667    3.250    0.000    4.667 
#    0.000    1.250    0.000    3.000    0.000    0.000 
#    0.000    0.000    0.000    0.000    0.000    0.000 
#
# Total GULP energy -297714.207023 kJ/mol
# GULP energy per Si atom -12404.758626 kJ/mol
# Density = 1.884334 g / cm^3
# Si number density = 18.886330 Si / 1000 Ang^3
#
#
#
# Elastic Constant Matrix: (Units=GPa)
#
#
# Indices 1 2 3 4 5 6 
#
# 1 142.6702 38.9214 73.4526 0.0000 0.0000 0.0000
# 2 38.9214 72.3738 44.3265 0.0000 0.0000 0.0000
# 3 73.4526 44.3265 152.1255 0.0000 0.0000 0.0000
# 4 0.0000 0.0000 0.0000 36.5252 0.0000 0.0000
# 5 0.0000 0.0000 0.0000 0.0000 33.7858 0.0000
# 6 0.0000 0.0000 0.0000 0.0000 0.0000 3.6639
#
#
#
# Elastic Compliance Matrix: (Units=1/GPa)
#
#
# Indices 1 2 3 4 5 6 
#
# 1 0.009800 -0.002887 -0.003890 0.000000 0.000000 0.000000
# 2 -0.002887 0.017669 -0.003754 0.000000 0.000000 0.000000
# 3 -0.003890 -0.003754 0.009546 0.000000 0.000000 0.000000
# 4 0.000000 0.000000 0.000000 0.027378 0.000000 0.000000
# 5 0.000000 0.000000 0.000000 0.000000 0.029598 0.000000
# 6 0.000000 0.000000 0.000000 0.000000 0.000000 0.272931
#
#
# Mechanical properties :
#
#
# Convention : Reuss Voigt Hill
#
# Bulk Modulus (GPa) = 62.69309 75.61894 69.15601
# Shear Modulus (GPa) = 12.71280 28.82625 20.76952
#
# Velocity S-wave (km/s) = 2.59727 3.91103 3.31979
# Velocity P-wave (km/s) = 6.50088 7.77951 7.16876
#
# Compressibility (1/GPa) = 0.01595072
#
# Stress axis : x y z
#
# Youngs Moduli (GPa) = 102.04247 56.59512 104.75674
#
# Poissons Ratio (x) = 0.16341 0.40755
# Poissons Ratio (y) = 0.29464 0.39329
# Poissons Ratio (z) = 0.39699 0.21248
#
# Static dielectric constant tensor:
#      x y z
#    x 3.459930 0.000000 0.000000 
#    y 0.000000 3.274640 0.000000 
#    z 0.000000 0.000000 3.568360 
# 
# 
# High freq. dielectric constant tensor:
#      x y z
#    x 1.723360 0.000000 0.000000 
#    y 0.000000 1.721610 0.000000 
#    z 0.000000 0.000000 1.749870 
# 
# From -- ./inp_files/27060.got.cif
#   From: 2010.03.12/outbox.cif.g09.slc.cpg/sg44_14_cif.got.tgz:27060.got - 2010.04.14 02:36:11.
