data_PCOD8188622
_publ_section_title
;
Structure prediction by ZEFSAII (Michael W. Deem and Ramdas Pophale) SiO2 
 PCOD8188622
Probable space group: I M M 2
;
_chemical_formula_sum "Si O2"
_cell_formula_units_Z 64
_cell_length_a 24.805798
_cell_length_b 9.449130
_cell_length_c 15.404350
_cell_angle_alpha 90.000000
_cell_angle_beta 90.000000
_cell_angle_gamma 90.000000
_cell_volume 3610.675045
_symmetry_space_group_name_H-M "I M M 2"
_symmetry_group_IT_number 44
_symmetry_cell_setting 'orthorhombic'
loop_
_space_group_symop_operation_xyz
x,y,z
-x,-y,z
-x,y,z
x,-y,z
1/2+x,1/2+y,1/2+z
1/2-x,1/2-y,1/2+z
1/2-x,1/2+y,1/2+z
1/2+x,1/2-y,1/2+z
loop_
_atom_site_type_symbol
_atom_site_label
_atom_site_fract_x
_atom_site_fract_y
_atom_site_fract_z
Si Si1 0.104171 0.836823 0.287980
Si Si2 0.639679 0.167182 0.105653
Si Si3 0.278852 0.341455 0.833323
Si Si4 0.340663 0.165159 0.293623
Si Si5 0.939618 0.167870 0.106707
Si Si6 0.143074 0.832853 0.964366
Si Si7 0.562683 0.833765 0.953277
Si Si8 0.737097 0.835193 0.995890
O O1 0.168699 0.824574 0.272527
O O2 0.077504 0.773446 0.200878
O O3 0.083403 0.747442 0.368972
O O4 0.087233 0.000000 0.303414
O O5 0.631395 0.221453 0.204561
O O6 0.635842 0.000000 0.108461
O O7 0.594516 0.224125 0.038600
O O8 0.700187 0.212793 0.076638
O O9 0.275769 0.500000 0.871368
O O10 0.223608 0.307786 0.782390
O O11 0.288182 0.236594 0.912110
O O12 0.364802 0.254522 0.372872
O O13 0.352840 0.000000 0.310329
O O14 0.000000 0.218261 0.085973
O O15 0.934198 0.000000 0.109184
O O16 0.901725 0.226702 0.030217
O O17 0.200466 0.792979 0.008155
O O18 0.137778 0.000000 0.947732
O O19 0.500000 0.801751 0.968798
O O20 0.573534 0.000000 0.939186
O O21 0.731379 0.000000 0.978872
#
# Coordination Sequence:
#
# PCOD8188622 Si02
#       8
#     8   8   8   8   8   8   8   8
#     4  10  19  31  50  75 101 128 160 197 239 290
#     4   9  17  30  49  71  95 128 164 196 235 286
#     4   9  17  28  45  72 101 127 155 190 236 287
#     4   9  18  32  50  71 101 132 159 197 246 291
#     4   9  18  32  50  72  98 128 163 201 241 287
#     4   9  18  32  51  73  95 124 165 207 242 281
#     4  10  20  34  51  71  98 131 165 200 239 286
#     4   9  16  28  48  70  94 124 160 196 233 282
#
# _framework density 17.725218000000002
#
# number of rings (size 3 to 8) (size 9 to 14) (size 15 to 20)
#    0.000    2.750    1.250    0.375    1.750    0.750 
#    0.000    2.500    0.000    1.875    0.000    0.000 
#    0.000    0.000    0.000    0.000    0.000    0.000 
#
# Total GULP energy -396613.357350 kJ/mol
# GULP energy per Si atom -12394.167417 kJ/mol
# Density = 1.768487 g / cm^3
# Si number density = 17.725218 Si / 1000 Ang^3
#
#
#
# Elastic Constant Matrix: (Units=GPa)
#
#
# Indices 1 2 3 4 5 6 
#
# 1 114.0639 27.9351 82.6439 0.0000 0.0000 0.0000
# 2 27.9351 26.8632 34.0403 0.0000 0.0000 0.0000
# 3 82.6439 34.0403 155.7179 0.0000 0.0000 0.0000
# 4 0.0000 0.0000 0.0000 25.5537 0.0000 0.0000
# 5 0.0000 0.0000 0.0000 0.0000 29.5439 0.0000
# 6 0.0000 0.0000 0.0000 0.0000 0.0000 16.2110
#
#
#
# Elastic Compliance Matrix: (Units=1/GPa)
#
#
# Indices 1 2 3 4 5 6 
#
# 1 0.015340 -0.007795 -0.006438 0.000000 0.000000 0.000000
# 2 -0.007795 0.055449 -0.007984 0.000000 0.000000 0.000000
# 3 -0.006438 -0.007984 0.011584 0.000000 0.000000 0.000000
# 4 0.000000 0.000000 0.000000 0.039133 0.000000 0.000000
# 5 0.000000 0.000000 0.000000 0.000000 0.033848 0.000000
# 6 0.000000 0.000000 0.000000 0.000000 0.000000 0.061687
#
#
# Mechanical properties :
#
#
# Convention : Reuss Voigt Hill
#
# Bulk Modulus (GPa) = 26.35763 65.09819 45.72791
# Shear Modulus (GPa) = 18.24009 24.39674 21.31842
#
# Velocity S-wave (km/s) = 3.21136 3.71399 3.47178
# Velocity P-wave (km/s) = 5.35283 7.42952 6.47497
#
# Compressibility (1/GPa) = 0.03793968
#
# Stress axis : x y z
#
# Youngs Moduli (GPa) = 65.18773 18.03456 86.32711
#
# Poissons Ratio (x) = 0.14058 0.55573
# Poissons Ratio (y) = 0.50813 0.68926
# Poissons Ratio (z) = 0.41965 0.14399
#
# Static dielectric constant tensor:
#      x y z
#    x 3.467340 0.000000 0.000000 
#    y 0.000000 3.034460 0.000000 
#    z 0.000000 0.000000 3.423310 
# 
# 
# High freq. dielectric constant tensor:
#      x y z
#    x 1.687660 0.000000 0.000000 
#    y 0.000000 1.652510 0.000000 
#    z 0.000000 0.000000 1.682080 
# 
# From -- ./inp_files/14908.got.cif
#   From: 2010.03.12/outbox.cif.g09.slc.cpg/sg44_8_cif.got.tgz:14908.got - 2010.04.14 02:36:11.
