data_PCOD8188747
_publ_section_title
;
Structure prediction by ZEFSAII (Michael W. Deem and Ramdas Pophale) SiO2 
 PCOD8188747
Probable space group: I M M 2
;
_chemical_formula_sum "Si O2"
_cell_formula_units_Z 48
_cell_length_a 19.005115
_cell_length_b 8.854428
_cell_length_c 15.321010
_cell_angle_alpha 90.000000
_cell_angle_beta 90.000000
_cell_angle_gamma 90.000000
_cell_volume 2578.210713
_symmetry_space_group_name_H-M "I M M 2"
_symmetry_group_IT_number 44
_symmetry_cell_setting 'orthorhombic'
loop_
_space_group_symop_operation_xyz
x,y,z
-x,-y,z
-x,y,z
x,-y,z
1/2+x,1/2+y,1/2+z
1/2-x,1/2-y,1/2+z
1/2-x,1/2+y,1/2+z
1/2+x,1/2-y,1/2+z
loop_
_atom_site_type_symbol
_atom_site_label
_atom_site_fract_x
_atom_site_fract_y
_atom_site_fract_z
Si Si1 0.671104 0.822143 0.400250
Si Si2 0.829224 0.177816 0.406487
Si Si3 0.177056 0.321459 0.588126
Si Si4 0.081780 0.176208 0.240669
Si Si5 0.421290 0.820192 0.244587
Si Si6 0.174085 0.321466 0.095430
O O1 0.750820 0.771824 0.378284
O O2 0.618077 0.750335 0.329568
O O3 0.650574 0.770581 0.498050
O O4 0.665825 0.000000 0.392382
O O5 0.850236 0.262141 0.495168
O O6 0.882512 0.228308 0.330917
O O7 0.832725 0.000000 0.425012
O O8 0.185555 0.500000 0.585193
O O9 0.119382 0.268456 0.658088
O O10 0.251368 0.252876 0.618139
O O11 0.114054 0.268335 0.160923
O O12 0.000000 0.215578 0.247087
O O13 0.095509 0.000000 0.224173
O O14 0.500000 0.753401 0.241847
O O15 0.423287 0.000000 0.250129
O O16 0.183526 0.500000 0.100811
#
# Coordination Sequence:
#
# PCOD8188747 Si02
#       6
#     8   8   8   8   8   8
#     4   8  15  29  49  71  96 129 169 210 250 297
#     4   9  18  34  53  73 100 136 176 215 258 310
#     4  10  19  32  53  79 104 134 173 216 260 307
#     4  10  21  36  54  77 107 143 178 215 266 324
#     4   9  17  29  47  73 103 133 165 203 251 307
#     4  10  20  34  54  79 104 134 175 220 263 310
#
# _framework density 18.617564000000002
#
# number of rings (size 3 to 8) (size 9 to 14) (size 15 to 20)
#    0.000    2.667    0.000    3.000    0.000    5.000 
#    0.000    1.667    0.000    4.500    0.000    0.000 
#    0.000    0.000    0.000    0.000    0.000    0.000 
#
# Total GULP energy -297582.552947 kJ/mol
# GULP energy per Si atom -12399.273039 kJ/mol
# Density = 1.857519 g / cm^3
# Si number density = 18.617564 Si / 1000 Ang^3
#
#
#
# Elastic Constant Matrix: (Units=GPa)
#
#
# Indices 1 2 3 4 5 6 
#
# 1 151.0699 34.2363 111.2415 0.0000 0.0000 0.0000
# 2 34.2363 41.7671 38.0565 0.0000 0.0000 0.0000
# 3 111.2415 38.0565 157.4300 0.0000 0.0000 0.0000
# 4 0.0000 0.0000 0.0000 29.7405 0.0000 0.0000
# 5 0.0000 0.0000 0.0000 0.0000 18.9259 0.0000
# 6 0.0000 0.0000 0.0000 0.0000 0.0000 20.3891
#
#
#
# Elastic Compliance Matrix: (Units=1/GPa)
#
#
# Indices 1 2 3 4 5 6 
#
# 1 0.014123 -0.003185 -0.009209 0.000000 0.000000 0.000000
# 2 -0.003185 0.031424 -0.005346 0.000000 0.000000 0.000000
# 3 -0.009209 -0.005346 0.014152 0.000000 0.000000 0.000000
# 4 0.000000 0.000000 0.000000 0.033624 0.000000 0.000000
# 5 0.000000 0.000000 0.000000 0.000000 0.052838 0.000000
# 6 0.000000 0.000000 0.000000 0.000000 0.000000 0.049046
#
#
# Mechanical properties :
#
#
# Convention : Reuss Voigt Hill
#
# Bulk Modulus (GPa) = 41.29151 79.70396 60.49773
# Shear Modulus (GPa) = 20.94169 24.92659 22.93414
#
# Velocity S-wave (km/s) = 3.35749 3.66303 3.51359
# Velocity P-wave (km/s) = 6.10388 7.79708 7.00185
#
# Compressibility (1/GPa) = 0.02421806
#
# Stress axis : x y z
#
# Youngs Moduli (GPa) = 70.80899 31.82297 70.66380
#
# Poissons Ratio (x) = 0.10136 0.65075
# Poissons Ratio (y) = 0.22554 0.37774
# Poissons Ratio (z) = 0.65209 0.17011
#
# Static dielectric constant tensor:
#      x y z
#    x 3.605080 0.000000 0.000000 
#    y 0.000000 3.097260 0.000000 
#    z 0.000000 0.000000 3.647310 
# 
# 
# High freq. dielectric constant tensor:
#      x y z
#    x 1.721410 0.000000 0.000000 
#    y 0.000000 1.690150 0.000000 
#    z 0.000000 0.000000 1.736990 
# 
# From -- ./inp_files/16091.got.cif
#   From: 2010.03.12/outbox.cif.g09.slc.cpg/sg44_9_cif.got.tgz:16091.got - 2010.04.14 02:36:11.
