data_PCOD8188286
_publ_section_title
;
Structure prediction by ZEFSAII (Michael W. Deem and Ramdas Pophale) SiO2 
 PCOD8188286
Probable space group: I M M 2
;
_chemical_formula_sum "Si O2"
_cell_formula_units_Z 64
_cell_length_a 23.293063
_cell_length_b 8.853236
_cell_length_c 19.126041
_cell_angle_alpha 90.000000
_cell_angle_beta 90.000000
_cell_angle_gamma 90.000000
_cell_volume 3944.152741
_symmetry_space_group_name_H-M "I M M 2"
_symmetry_group_IT_number 44
_symmetry_cell_setting 'orthorhombic'
loop_
_space_group_symop_operation_xyz
x,y,z
-x,-y,z
-x,y,z
x,-y,z
1/2+x,1/2+y,1/2+z
1/2-x,1/2-y,1/2+z
1/2-x,1/2+y,1/2+z
1/2+x,1/2-y,1/2+z
loop_
_atom_site_type_symbol
_atom_site_label
_atom_site_fract_x
_atom_site_fract_y
_atom_site_fract_z
Si Si1 0.261785 0.324867 0.679130
Si Si2 0.663994 0.323945 0.442428
Si Si3 0.728281 0.177783 0.031829
Si Si4 0.434205 0.674742 0.543935
Si Si5 0.660701 0.820815 0.903268
Si Si6 0.384880 0.178015 0.680367
Si Si7 0.767588 0.325568 0.831180
Si Si8 0.433840 0.673556 0.815873
O O1 0.278320 0.500000 0.667896
O O2 0.225628 0.263263 0.611928
O O3 0.320234 0.234114 0.686231
O O4 0.223043 0.302900 0.748085
O O5 0.670072 0.500000 0.424920
O O6 0.711153 0.270378 0.499021
O O7 0.601868 0.284236 0.474288
O O8 0.675134 0.232231 0.370683
O O9 0.725104 0.000000 0.031280
O O10 0.675923 0.235076 0.982590
O O11 0.500000 0.709440 0.525991
O O12 0.424225 0.500000 0.564284
O O13 0.414080 0.775231 0.608158
O O14 0.712507 0.772185 0.852806
O O15 0.601963 0.743481 0.879819
O O16 0.653760 0.000000 0.898015
O O17 0.422304 0.243153 0.743376
O O18 0.385287 0.000000 0.686605
O O19 0.756057 0.500000 0.849390
O O20 0.500000 0.691896 0.836362
O O21 0.416062 0.500000 0.806230
#
# Coordination Sequence:
#
# PCOD8188286 Si02
#       8
#     8   8   8   8   8   8   8   8
#     4  10  18  32  51  70  96 131 165 193 233 292
#     4   9  17  31  49  68  94 126 160 202 245 285
#     4   8  15  29  49  69  92 123 155 192 240 288
#     4  10  20  35  53  69  91 131 174 204 239 290
#     4  10  19  32  50  72  96 123 159 205 247 283
#     4  12  23  32  46  71 101 130 164 203 241 280
#     4  10  19  29  48  72  97 128 161 197 240 291
#     4  11  23  37  51  67  93 133 172 201 237 289
#
# _framework density 16.226552000000002
#
# number of rings (size 3 to 8) (size 9 to 14) (size 15 to 20)
#    0.000    2.000    2.500    3.375    0.000    3.750 
#    0.000    0.625    0.000    0.000    0.000    0.875 
#    0.000    5.000    0.000    0.000    0.000    0.000 
#
# Total GULP energy -396715.557870 kJ/mol
# GULP energy per Si atom -12397.361183 kJ/mol
# Density = 1.618962 g / cm^3
# Si number density = 16.226552 Si / 1000 Ang^3
#
#
#
# Elastic Constant Matrix: (Units=GPa)
#
#
# Indices 1 2 3 4 5 6 
#
# 1 83.4888 40.7137 59.2099 0.0000 0.0000 0.0000
# 2 40.7137 81.5519 45.0099 0.0000 0.0000 0.0000
# 3 59.2099 45.0099 125.4909 0.0000 0.0000 0.0000
# 4 0.0000 0.0000 0.0000 24.0809 0.0000 0.0000
# 5 0.0000 0.0000 0.0000 0.0000 24.1357 0.0000
# 6 0.0000 0.0000 0.0000 0.0000 0.0000 18.5904
#
#
#
# Elastic Compliance Matrix: (Units=1/GPa)
#
#
# Indices 1 2 3 4 5 6 
#
# 1 0.020100 -0.005985 -0.007337 0.000000 0.000000 0.000000
# 2 -0.005985 0.017071 -0.003299 0.000000 0.000000 0.000000
# 3 -0.007337 -0.003299 0.012614 0.000000 0.000000 0.000000
# 4 0.000000 0.000000 0.000000 0.041527 0.000000 0.000000
# 5 0.000000 0.000000 0.000000 0.000000 0.041432 0.000000
# 6 0.000000 0.000000 0.000000 0.000000 0.000000 0.053791
#
#
# Mechanical properties :
#
#
# Convention : Reuss Voigt Hill
#
# Bulk Modulus (GPa) = 60.45073 64.48873 62.46973
# Shear Modulus (GPa) = 22.19363 23.06795 22.63079
#
# Velocity S-wave (km/s) = 3.70230 3.77453 3.73859
# Velocity P-wave (km/s) = 7.45729 7.66975 7.56426
#
# Compressibility (1/GPa) = 0.01654240
#
# Stress axis : x y z
#
# Youngs Moduli (GPa) = 49.75229 58.57951 79.27936
#
# Poissons Ratio (x) = 0.35061 0.58166
# Poissons Ratio (y) = 0.29777 0.26153
# Poissons Ratio (z) = 0.36502 0.19325
#
# Static dielectric constant tensor:
#      x y z
#    x 2.974150 0.000000 0.000000 
#    y 0.000000 3.073140 0.000000 
#    z 0.000000 0.000000 3.434960 
# 
# 
# High freq. dielectric constant tensor:
#      x y z
#    x 1.595420 0.000000 0.000000 
#    y 0.000000 1.622820 0.000000 
#    z 0.000000 0.000000 1.623020 
# 
# From -- ./inp_files/20848.got.cif
#   From: 2010.03.12/outbox.cif.g09.slc.cpg/sg44_11_cif.got.tgz:20848.got - 2010.04.14 02:36:11.
