data_PCOD8188731
_publ_section_title
;
Structure prediction by ZEFSAII (Michael W. Deem and Ramdas Pophale) SiO2 
 PCOD8188731
Probable space group: I M M 2
;
_chemical_formula_sum "Si O2"
_cell_formula_units_Z 64
_cell_length_a 9.034630
_cell_length_b 15.692279
_cell_length_c 23.174090
_cell_angle_alpha 90.000000
_cell_angle_beta 90.000000
_cell_angle_gamma 90.000000
_cell_volume 3285.481921
_symmetry_space_group_name_H-M "I M M 2"
_symmetry_group_IT_number 44
_symmetry_cell_setting 'orthorhombic'
loop_
_space_group_symop_operation_xyz
x,y,z
-x,-y,z
-x,y,z
x,-y,z
1/2+x,1/2+y,1/2+z
1/2-x,1/2-y,1/2+z
1/2-x,1/2+y,1/2+z
1/2+x,1/2-y,1/2+z
loop_
_atom_site_type_symbol
_atom_site_label
_atom_site_fract_x
_atom_site_fract_y
_atom_site_fract_z
Si Si1 0.830936 0.181529 0.133930
Si Si2 0.175767 0.404507 0.415213
Si Si3 0.325947 0.901227 0.450026
Si Si4 0.169157 0.362268 0.078617
Si Si5 0.176527 0.770663 0.362450
Si Si6 0.160087 0.402365 0.540837
Si Si7 0.675426 0.237575 0.244075
Si Si8 0.668617 0.591960 0.188435
O O1 0.808759 0.263797 0.093918
O O2 0.776435 0.106666 0.092508
O O3 0.728748 0.180396 0.190519
O O4 0.000000 0.168231 0.153010
O O5 0.239470 0.500000 0.398731
O O6 0.230517 0.327243 0.374173
O O7 0.226587 0.372919 0.479061
O O8 0.000000 0.410052 0.413593
O O9 0.500000 0.881273 0.444542
O O10 0.268595 0.882208 0.514991
O O11 0.237454 0.838753 0.407979
O O12 0.292796 0.000000 0.434433
O O13 0.252184 0.416268 0.126995
O O14 0.000000 0.391167 0.081146
O O15 0.242586 0.796055 0.300606
O O16 0.000000 0.777132 0.361737
O O17 0.126346 0.500000 0.532115
O O18 0.000000 0.357111 0.554093
O O19 0.500000 0.229437 0.252545
O O20 0.730872 0.334440 0.230352
O O21 0.500000 0.614946 0.174807
O O22 0.685679 0.500000 0.219715
#
# Coordination Sequence:
#
# PCOD8188731 Si02
#       8
#     8   8   8   8   8   8   8   8
#     4  10  19  32  52  78 106 133 167 214 262 306
#     4   8  16  32  54  81 112 144 176 210 255 317
#     4  10  21  37  56  78 107 144 181 216 262 321
#     4   9  18  32  52  79 108 137 169 207 255 312
#     4  11  22  36  56  80 106 138 180 229 270 304
#     4   9  17  31  52  77 105 137 171 205 249 312
#     4  10  21  37  54  71  99 139 178 214 256 312
#     4   9  18  32  51  77 107 137 169 207 253 306
#
# _framework density 19.479638999999999
#
# number of rings (size 3 to 8) (size 9 to 14) (size 15 to 20)
#    0.000    2.500    0.000    3.000    0.000    3.250 
#    0.000    1.250    0.000    6.375    0.000    0.000 
#    0.000    0.000    0.000    0.000    0.000    0.000 
#
# Total GULP energy -396569.260791 kJ/mol
# GULP energy per Si atom -12392.789400 kJ/mol
# Density = 1.943530 g / cm^3
# Si number density = 19.479639 Si / 1000 Ang^3
#
#
#
# Elastic Constant Matrix: (Units=GPa)
#
#
# Indices 1 2 3 4 5 6 
#
# 1 62.3078 22.2585 34.1159 0.0000 0.0000 0.0000
# 2 22.2585 49.1602 30.4694 0.0000 0.0000 0.0000
# 3 34.1159 30.4694 99.4877 0.0000 0.0000 0.0000
# 4 0.0000 0.0000 0.0000 17.9136 0.0000 0.0000
# 5 0.0000 0.0000 0.0000 0.0000 30.6790 0.0000
# 6 0.0000 0.0000 0.0000 0.0000 0.0000 22.5017
#
#
#
# Elastic Compliance Matrix: (Units=1/GPa)
#
#
# Indices 1 2 3 4 5 6 
#
# 1 0.021228 -0.006295 -0.005352 0.000000 0.000000 0.000000
# 2 -0.006295 0.026974 -0.006103 0.000000 0.000000 0.000000
# 3 -0.005352 -0.006103 0.013756 0.000000 0.000000 0.000000
# 4 0.000000 0.000000 0.000000 0.055823 0.000000 0.000000
# 5 0.000000 0.000000 0.000000 0.000000 0.032596 0.000000
# 6 0.000000 0.000000 0.000000 0.000000 0.000000 0.044441
#
#
# Mechanical properties :
#
#
# Convention : Reuss Voigt Hill
#
# Bulk Modulus (GPa) = 37.79276 42.73815 40.26546
# Shear Modulus (GPa) = 20.90858 22.49298 21.70078
#
# Velocity S-wave (km/s) = 3.27976 3.40176 3.34132
# Velocity P-wave (km/s) = 5.81255 6.11693 5.96668
#
# Compressibility (1/GPa) = 0.02646009
#
# Stress axis : x y z
#
# Youngs Moduli (GPa) = 47.10698 37.07258 72.69726
#
# Poissons Ratio (x) = 0.23336 0.38905
# Poissons Ratio (y) = 0.29652 0.44364
# Poissons Ratio (z) = 0.25210 0.22624
#
# Static dielectric constant tensor:
#      x y z
#    x 3.375740 0.000000 0.000000 
#    y 0.000000 3.558430 0.000000 
#    z 0.000000 0.000000 3.513060 
# 
# 
# High freq. dielectric constant tensor:
#      x y z
#    x 1.744050 0.000000 0.000000 
#    y 0.000000 1.751430 0.000000 
#    z 0.000000 0.000000 1.753950 
# 
# From -- ./inp_files/23250.got.cif
#   From: 2010.03.12/outbox.cif.g09.slc.cpg/sg44_12_cif.got.tgz:23250.got - 2010.04.14 02:36:11.
