data_PCOD8188431
_publ_section_title
;
Structure prediction by ZEFSAII (Michael W. Deem and Ramdas Pophale) SiO2 
 PCOD8188431
Probable space group: I M M 2
;
_chemical_formula_sum "Si O2"
_cell_formula_units_Z 56
_cell_length_a 9.205176
_cell_length_b 17.885070
_cell_length_c 21.193691
_cell_angle_alpha 90.000000
_cell_angle_beta 90.000000
_cell_angle_gamma 90.000000
_cell_volume 3489.227919
_symmetry_space_group_name_H-M "I M M 2"
_symmetry_group_IT_number 44
_symmetry_cell_setting 'orthorhombic'
loop_
_space_group_symop_operation_xyz
x,y,z
-x,-y,z
-x,y,z
x,-y,z
1/2+x,1/2+y,1/2+z
1/2-x,1/2-y,1/2+z
1/2-x,1/2+y,1/2+z
1/2+x,1/2-y,1/2+z
loop_
_atom_site_type_symbol
_atom_site_label
_atom_site_fract_x
_atom_site_fract_y
_atom_site_fract_z
Si Si1 0.666684 0.086176 0.625000
Si Si2 0.666692 0.586092 0.614373
Si Si3 0.168036 0.412197 0.362439
Si Si4 0.329382 0.849013 0.996960
Si Si5 0.340235 0.797599 0.182260
Si Si6 0.160010 0.798442 0.556017
Si Si7 0.827929 0.849598 0.743525
O O1 0.500000 0.108720 0.636589
O O2 0.727839 0.133641 0.565540
O O3 0.754422 0.101296 0.688884
O O4 0.682376 0.000000 0.606343
O O5 0.500000 0.608499 0.605340
O O6 0.686113 0.500000 0.632670
O O7 0.747377 0.602140 0.549007
O O8 0.729706 0.633872 0.673225
O O9 0.196161 0.500000 0.364220
O O10 0.218081 0.377563 0.428688
O O11 0.268947 0.375232 0.310388
O O12 0.000000 0.394128 0.347893
O O13 0.500000 0.861309 0.008923
O O14 0.289966 0.760265 0.001792
O O15 0.500000 0.830254 0.197927
O O16 0.347480 0.749897 0.118949
O O17 0.289948 0.738872 0.236181
O O18 0.000000 0.831541 0.540742
O O19 0.000000 0.862880 0.739135
#
# Coordination Sequence:
#
# PCOD8188431 Si02
#       7
#     8   8   8   8   8   8   8
#     4  10  19  29  43  65  91 117 145 178 219 265
#     4  10  19  28  42  68  95 115 141 180 222 259
#     4  10  20  32  46  65  89 119 152 180 210 253
#     4   9  18  32  47  63  87 120 153 180 210 255
#     4   8  16  30  45  61  83 114 148 178 215 264
#     4   8  15  28  45  64  85 111 145 182 218 257
#     4  10  20  32  45  63  88 117 150 185 217 253
#
# _framework density 16.049395000000001
#
# number of rings (size 3 to 8) (size 9 to 14) (size 15 to 20)
#    0.000    2.714    0.000    3.857    0.000   11.143 
#    0.000    0.000    0.000    0.000    0.000    1.000 
#    0.000    1.143    0.000    0.000    0.000    0.000 
#
# Total GULP energy -347089.743513 kJ/mol
# GULP energy per Si atom -12396.062268 kJ/mol
# Density = 1.601287 g / cm^3
# Si number density = 16.049395 Si / 1000 Ang^3
#
#
#
# Elastic Constant Matrix: (Units=GPa)
#
#
# Indices 1 2 3 4 5 6 
#
# 1 94.0128 63.0861 39.6436 0.0000 0.0000 0.0000
# 2 63.0861 101.6242 51.5546 0.0000 0.0000 0.0000
# 3 39.6436 51.5546 67.6623 0.0000 0.0000 0.0000
# 4 0.0000 0.0000 0.0000 27.7238 0.0000 0.0000
# 5 0.0000 0.0000 0.0000 0.0000 19.4969 0.0000
# 6 0.0000 0.0000 0.0000 0.0000 0.0000 28.1893
#
#
#
# Elastic Compliance Matrix: (Units=1/GPa)
#
#
# Indices 1 2 3 4 5 6 
#
# 1 0.018711 -0.009868 -0.003444 0.000000 0.000000 0.000000
# 2 -0.009868 0.021245 -0.010405 0.000000 0.000000 0.000000
# 3 -0.003444 -0.010405 0.024725 0.000000 0.000000 0.000000
# 4 0.000000 0.000000 0.000000 0.036070 0.000000 0.000000
# 5 0.000000 0.000000 0.000000 0.000000 0.051290 0.000000
# 6 0.000000 0.000000 0.000000 0.000000 0.000000 0.035474
#
#
# Mechanical properties :
#
#
# Convention : Reuss Voigt Hill
#
# Bulk Modulus (GPa) = 57.98398 63.54087 60.76242
# Shear Modulus (GPa) = 20.77273 22.34967 21.56120
#
# Velocity S-wave (km/s) = 3.60154 3.73574 3.66926
# Velocity P-wave (km/s) = 7.31448 7.63443 7.47617
#
# Compressibility (1/GPa) = 0.01724614
#
# Stress axis : x y z
#
# Youngs Moduli (GPa) = 53.44423 47.06985 40.44427
#
# Poissons Ratio (x) = 0.46450 0.13928
# Poissons Ratio (y) = 0.52741 0.42084
# Poissons Ratio (z) = 0.18405 0.48979
#
# Static dielectric constant tensor:
#      x y z
#    x 3.153250 0.000000 0.000000 
#    y 0.000000 3.271720 0.000000 
#    z 0.000000 0.000000 2.968230 
# 
# 
# High freq. dielectric constant tensor:
#      x y z
#    x 1.625080 0.000000 0.000000 
#    y 0.000000 1.615750 0.000000 
#    z 0.000000 0.000000 1.578610 
# 
# From -- ./inp_files/23218.got.cif
#   From: 2010.03.12/outbox.cif.g09.slc.cpg/sg44_12_cif.got.tgz:23218.got - 2010.04.14 02:36:11.
