data_PCOD8188800
_publ_section_title
;
Structure prediction by ZEFSAII (Michael W. Deem and Ramdas Pophale) SiO2 
 PCOD8188800
Probable space group: I M M 2
;
_chemical_formula_sum "Si O2"
_cell_formula_units_Z 56
_cell_length_a 13.311279
_cell_length_b 14.172191
_cell_length_c 15.607189
_cell_angle_alpha 90.000000
_cell_angle_beta 90.000000
_cell_angle_gamma 90.000000
_cell_volume 2944.296024
_symmetry_space_group_name_H-M "I M M 2"
_symmetry_group_IT_number 44
_symmetry_cell_setting 'orthorhombic'
loop_
_space_group_symop_operation_xyz
x,y,z
-x,-y,z
-x,y,z
x,-y,z
1/2+x,1/2+y,1/2+z
1/2-x,1/2-y,1/2+z
1/2-x,1/2+y,1/2+z
1/2+x,1/2-y,1/2+z
loop_
_atom_site_type_symbol
_atom_site_label
_atom_site_fract_x
_atom_site_fract_y
_atom_site_fract_z
Si Si1 0.114370 0.106364 0.254960
Si Si2 0.386257 0.761301 0.493002
Si Si3 0.615537 0.895866 0.639015
Si Si4 0.778687 0.609874 0.478916
Si Si5 0.184685 0.394480 0.665194
Si Si6 0.109741 0.259645 0.804105
Si Si7 0.322693 0.199730 0.810984
O O1 0.194218 0.120035 0.177853
O O2 0.142346 0.190317 0.321888
O O3 0.000000 0.120130 0.221283
O O4 0.125821 0.000000 0.295127
O O5 0.500000 0.736588 0.520125
O O6 0.335851 0.830748 0.564125
O O7 0.326762 0.663721 0.485169
O O8 0.382238 0.809274 0.398165
O O9 0.500000 0.908086 0.615104
O O10 0.621538 0.848387 0.732077
O O11 0.666749 0.000000 0.639771
O O12 0.754425 0.500000 0.467080
O O13 0.840292 0.629204 0.566464
O O14 0.847301 0.647045 0.400062
O O15 0.154010 0.500000 0.686976
O O16 0.116357 0.335078 0.728588
O O17 0.202889 0.188064 0.793123
O O18 0.000000 0.209096 0.796484
#
# Coordination Sequence:
#
# PCOD8188800 Si02
#       7
#     8   8   8   8   8   8   8
#     4   9  17  31  54  81 104 128 162 210 269 321
#     4   9  18  32  51  77 102 126 163 210 261 312
#     4  10  20  34  54  80 107 134 166 208 261 318
#     4  10  20  33  49  72 102 136 173 209 248 299
#     4   9  18  31  48  72 100 130 166 204 245 297
#     4   9  18  32  50  71  97 130 167 207 250 293
#     4  10  19  33  52  73 104 140 171 207 252 303
#
# _framework density 19.019825999999998
#
# number of rings (size 3 to 8) (size 9 to 14) (size 15 to 20)
#    0.000    2.571    0.000    2.571    0.000    2.857 
#    0.000    6.429    0.000    3.000    0.000    0.000 
#    0.000    0.000    0.000    0.000    0.000    0.000 
#
# Total GULP energy -346865.689809 kJ/mol
# GULP energy per Si atom -12388.060350 kJ/mol
# Density = 1.897654 g / cm^3
# Si number density = 19.019826 Si / 1000 Ang^3
#
#
#
# Elastic Constant Matrix: (Units=GPa)
#
#
# Indices 1 2 3 4 5 6 
#
# 1 49.3679 9.4630 6.1637 0.0000 0.0000 0.0000
# 2 9.4630 119.9122 62.4416 0.0000 0.0000 0.0000
# 3 6.1637 62.4416 130.1418 0.0000 0.0000 0.0000
# 4 0.0000 0.0000 0.0000 29.3071 0.0000 0.0000
# 5 0.0000 0.0000 0.0000 0.0000 20.5193 0.0000
# 6 0.0000 0.0000 0.0000 0.0000 0.0000 17.7155
#
#
#
# Elastic Compliance Matrix: (Units=1/GPa)
#
#
# Indices 1 2 3 4 5 6 
#
# 1 0.020574 -0.001488 -0.000260 0.000000 0.000000 0.000000
# 2 -0.001488 0.011225 -0.005315 0.000000 0.000000 0.000000
# 3 -0.000260 -0.005315 0.010246 0.000000 0.000000 0.000000
# 4 0.000000 0.000000 0.000000 0.034121 0.000000 0.000000
# 5 0.000000 0.000000 0.000000 0.000000 0.048735 0.000000
# 6 0.000000 0.000000 0.000000 0.000000 0.000000 0.056448
#
#
# Mechanical properties :
#
#
# Convention : Reuss Voigt Hill
#
# Bulk Modulus (GPa) = 35.81940 50.61760 43.21850
# Shear Modulus (GPa) = 24.41625 28.26527 26.34076
#
# Velocity S-wave (km/s) = 3.58680 3.85917 3.72548
# Velocity P-wave (km/s) = 6.00225 6.82118 6.42478
#
# Compressibility (1/GPa) = 0.02791783
#
# Stress axis : x y z
#
# Youngs Moduli (GPa) = 48.60542 89.09047 97.59529
#
# Poissons Ratio (x) = 0.13256 0.02542
# Poissons Ratio (y) = 0.07232 0.51872
# Poissons Ratio (z) = 0.01266 0.47352
#
# Static dielectric constant tensor:
#      x y z
#    x 3.341410 0.000000 0.000000 
#    y 0.000000 3.569010 0.000000 
#    z 0.000000 0.000000 3.622430 
# 
# 
# High freq. dielectric constant tensor:
#      x y z
#    x 1.718850 0.000000 0.000000 
#    y 0.000000 1.727100 0.000000 
#    z 0.000000 0.000000 1.738780 
# 
# From -- ./inp_files/18484.got.cif
#   From: 2010.03.12/outbox.cif.g09.slc.cpg/sg44_10_cif.got.tgz:18484.got - 2010.04.14 02:36:11.
