data_PCOD8188364
_publ_section_title
;
Structure prediction by ZEFSAII (Michael W. Deem and Ramdas Pophale) SiO2 
 PCOD8188364
Probable space group: I M M 2
;
_chemical_formula_sum "Si O2"
_cell_formula_units_Z 64
_cell_length_a 20.572727
_cell_length_b 9.001529
_cell_length_c 19.617660
_cell_angle_alpha 90.000000
_cell_angle_beta 90.000000
_cell_angle_gamma 90.000000
_cell_volume 3632.915959
_symmetry_space_group_name_H-M "I M M 2"
_symmetry_group_IT_number 44
_symmetry_cell_setting 'orthorhombic'
loop_
_space_group_symop_operation_xyz
x,y,z
-x,-y,z
-x,y,z
x,-y,z
1/2+x,1/2+y,1/2+z
1/2-x,1/2-y,1/2+z
1/2-x,1/2+y,1/2+z
1/2+x,1/2-y,1/2+z
loop_
_atom_site_type_symbol
_atom_site_label
_atom_site_fract_x
_atom_site_fract_y
_atom_site_fract_z
Si Si1 0.880071 0.671710 0.553300
Si Si2 0.812127 0.176505 0.776338
Si Si3 0.071171 0.176664 0.276342
Si Si4 0.925597 0.327634 0.698984
Si Si5 0.230212 0.170730 0.046670
Si Si6 0.804840 0.825528 0.196039
Si Si7 0.228029 0.673211 0.911996
Si Si8 0.120355 0.172539 0.418801
O O1 0.892186 0.500000 0.540763
O O2 0.917401 0.725861 0.620771
O O3 0.804563 0.710857 0.563073
O O4 0.908160 0.752664 0.486659
O O5 0.881457 0.227736 0.747506
O O6 0.754652 0.239564 0.729700
O O7 0.808001 0.237009 0.853019
O O8 0.808182 0.000000 0.776782
O O9 0.127420 0.236180 0.226472
O O10 0.082826 0.235826 0.353009
O O11 0.000000 0.231963 0.251492
O O12 0.074339 0.000000 0.276948
O O13 0.904088 0.500000 0.705121
O O14 0.000000 0.305294 0.721438
O O15 0.190512 0.204989 0.115429
O O16 0.223188 0.000000 0.024374
O O17 0.202113 0.271532 0.985598
O O18 0.794140 0.000000 0.211495
O O19 0.212785 0.500000 0.903488
O O20 0.304145 0.709237 0.907208
O O21 0.108334 0.000000 0.427880
#
# Coordination Sequence:
#
# PCOD8188364 Si02
#       8
#     8   8   8   8   8   8   8   8
#     4   9  17  30  48  72 103 136 174 212 251 307
#     4  12  23  34  54  81 108 137 178 226 270 313
#     4   9  17  30  50  76 104 137 176 215 256 305
#     4  10  21  38  57  76 104 145 184 216 265 329
#     4   9  17  30  51  77 105 134 171 220 268 310
#     4  10  18  34  56  77 105 141 178 218 265 320
#     4  10  19  33  53  76 105 137 175 218 267 320
#     4   9  17  29  47  72 104 140 177 214 253 305
#
# _framework density 17.616702
#
# number of rings (size 3 to 8) (size 9 to 14) (size 15 to 20)
#    0.000    2.250    2.500    1.500    0.000    2.250 
#    0.000    0.000    0.000    1.875    0.000    1.750 
#    0.000    0.000    0.000    0.000    0.000    0.000 
#
# Total GULP energy -396787.834422 kJ/mol
# GULP energy per Si atom -12399.619826 kJ/mol
# Density = 1.757661 g / cm^3
# Si number density = 17.616702 Si / 1000 Ang^3
#
#
#
# Elastic Constant Matrix: (Units=GPa)
#
#
# Indices 1 2 3 4 5 6 
#
# 1 88.7287 39.0814 55.4604 0.0000 0.0000 0.0000
# 2 39.0814 69.7801 51.8239 0.0000 0.0000 0.0000
# 3 55.4604 51.8239 119.0687 0.0000 0.0000 0.0000
# 4 0.0000 0.0000 0.0000 31.9849 0.0000 0.0000
# 5 0.0000 0.0000 0.0000 0.0000 23.3403 0.0000
# 6 0.0000 0.0000 0.0000 0.0000 0.0000 8.8636
#
#
#
# Elastic Compliance Matrix: (Units=1/GPa)
#
#
# Indices 1 2 3 4 5 6 
#
# 1 0.017192 -0.005440 -0.005640 0.000000 0.000000 0.000000
# 2 -0.005440 0.022897 -0.007432 0.000000 0.000000 0.000000
# 3 -0.005640 -0.007432 0.014260 0.000000 0.000000 0.000000
# 4 0.000000 0.000000 0.000000 0.031265 0.000000 0.000000
# 5 0.000000 0.000000 0.000000 0.000000 0.042844 0.000000
# 6 0.000000 0.000000 0.000000 0.000000 0.000000 0.112821
#
#
# Mechanical properties :
#
#
# Convention : Reuss Voigt Hill
#
# Bulk Modulus (GPa) = 57.71892 63.36766 60.54329
# Shear Modulus (GPa) = 17.60082 21.58520 19.59301
#
# Velocity S-wave (km/s) = 3.16428 3.50418 3.33856
# Velocity P-wave (km/s) = 6.79596 7.24021 7.02160
#
# Compressibility (1/GPa) = 0.01732534
#
# Stress axis : x y z
#
# Youngs Moduli (GPa) = 58.16803 43.67406 70.12496
#
# Poissons Ratio (x) = 0.23758 0.39550
# Poissons Ratio (y) = 0.31642 0.52117
# Poissons Ratio (z) = 0.32807 0.32459
#
# Static dielectric constant tensor:
#      x y z
#    x 3.177330 0.000000 0.000000 
#    y 0.000000 3.132320 0.000000 
#    z 0.000000 0.000000 3.471510 
# 
# 
# High freq. dielectric constant tensor:
#      x y z
#    x 1.656590 0.000000 0.000000 
#    y 0.000000 1.663090 0.000000 
#    z 0.000000 0.000000 1.688610 
# 
# From -- ./inp_files/20800.got.cif
#   From: 2010.03.12/outbox.cif.g09.slc.cpg/sg44_11_cif.got.tgz:20800.got - 2010.04.14 02:36:11.
