data_PCOD8188564
_publ_section_title
;
Structure prediction by ZEFSAII (Michael W. Deem and Ramdas Pophale) SiO2 
 PCOD8188564
Probable space group: I M M 2
;
_chemical_formula_sum "Si O2"
_cell_formula_units_Z 56
_cell_length_a 9.280085
_cell_length_b 18.325907
_cell_length_c 20.441003
_cell_angle_alpha 90.000000
_cell_angle_beta 90.000000
_cell_angle_gamma 90.000000
_cell_volume 3476.319098
_symmetry_space_group_name_H-M "I M M 2"
_symmetry_group_IT_number 44
_symmetry_cell_setting 'orthorhombic'
loop_
_space_group_symop_operation_xyz
x,y,z
-x,-y,z
-x,y,z
x,-y,z
1/2+x,1/2+y,1/2+z
1/2-x,1/2-y,1/2+z
1/2-x,1/2+y,1/2+z
1/2+x,1/2-y,1/2+z
loop_
_atom_site_type_symbol
_atom_site_label
_atom_site_fract_x
_atom_site_fract_y
_atom_site_fract_z
Si Si1 0.670166 0.650995 0.050010
Si Si2 0.658379 0.797003 0.114654
Si Si3 0.668117 0.085386 0.428336
Si Si4 0.331915 0.654305 0.808523
Si Si5 0.161499 0.220095 0.754158
Si Si6 0.671421 0.418991 0.184393
Si Si7 0.833401 0.918710 0.169583
O O1 0.500000 0.638667 0.037288
O O2 0.705062 0.736641 0.061445
O O3 0.724934 0.604365 0.112343
O O4 0.762956 0.627503 0.988614
O O5 0.500000 0.826657 0.097591
O O6 0.656108 0.758580 0.184479
O O7 0.762918 0.866582 0.115006
O O8 0.500000 0.104906 0.422698
O O9 0.748266 0.109920 0.363151
O O10 0.693129 0.000000 0.438515
O O11 0.500000 0.660031 0.826244
O O12 0.267954 0.736371 0.802544
O O13 0.304491 0.610400 0.742132
O O14 0.222573 0.137951 0.740800
O O15 0.000000 0.218439 0.784554
O O16 0.500000 0.416861 0.183217
O O17 0.730462 0.500000 0.200796
O O18 0.000000 0.919906 0.153162
O O19 0.767664 0.000000 0.164218
#
# Coordination Sequence:
#
# PCOD8188564 Si02
#       7
#     8   8   8   8   8   8   8
#     4   9  17  30  47  65  88 119 152 181 209 251
#     4   8  15  27  43  64  87 113 145 178 216 260
#     4  11  23  34  44  63  90 118 149 183 217 253
#     4  10  19  31  46  62  85 119 154 183 214 257
#     4   8  14  26  43  63  88 114 143 181 219 256
#     4   8  13  23  43  69  92 116 146 178 214 257
#     4   9  17  28  43  65  90 115 145 181 220 260
#
# _framework density 16.108993000000002
#
# number of rings (size 3 to 8) (size 9 to 14) (size 15 to 20)
#    0.000    3.000    0.000    3.429    0.000    3.714 
#    0.000    2.143    0.000    1.286    0.000    1.000 
#    0.000    5.714    0.000    0.000    0.000    0.000 
#
# Total GULP energy -347038.379224 kJ/mol
# GULP energy per Si atom -12394.227829 kJ/mol
# Density = 1.607233 g / cm^3
# Si number density = 16.108993 Si / 1000 Ang^3
#
#
#
# Elastic Constant Matrix: (Units=GPa)
#
#
# Indices 1 2 3 4 5 6 
#
# 1 81.1412 56.7552 40.6823 0.0000 0.0000 0.0000
# 2 56.7552 130.2241 36.0177 0.0000 0.0000 0.0000
# 3 40.6823 36.0177 44.6194 0.0000 0.0000 0.0000
# 4 0.0000 0.0000 0.0000 25.9118 0.0000 0.0000
# 5 0.0000 0.0000 0.0000 0.0000 23.6481 0.0000
# 6 0.0000 0.0000 0.0000 0.0000 0.0000 23.0212
#
#
#
# Elastic Compliance Matrix: (Units=1/GPa)
#
#
# Indices 1 2 3 4 5 6 
#
# 1 0.026046 -0.006158 -0.018776 0.000000 0.000000 0.000000
# 2 -0.006158 0.011342 -0.003541 0.000000 0.000000 0.000000
# 3 -0.018776 -0.003541 0.042390 0.000000 0.000000 0.000000
# 4 0.000000 0.000000 0.000000 0.038592 0.000000 0.000000
# 5 0.000000 0.000000 0.000000 0.000000 0.042287 0.000000
# 6 0.000000 0.000000 0.000000 0.000000 0.000000 0.043438
#
#
# Mechanical properties :
#
#
# Convention : Reuss Voigt Hill
#
# Bulk Modulus (GPa) = 43.80856 58.09946 50.95401
# Shear Modulus (GPa) = 18.61121 22.68485 20.64803
#
# Velocity S-wave (km/s) = 3.40270 3.75668 3.58407
# Velocity P-wave (km/s) = 6.53391 7.41361 6.98762
#
# Compressibility (1/GPa) = 0.02282659
#
# Stress axis : x y z
#
# Youngs Moduli (GPa) = 38.39415 88.16512 23.59059
#
# Poissons Ratio (x) = 0.54294 0.44295
# Poissons Ratio (y) = 0.23644 0.08353
# Poissons Ratio (z) = 0.72090 0.31219
#
# Static dielectric constant tensor:
#      x y z
#    x 3.030850 0.000000 0.000000 
#    y 0.000000 3.479990 0.000000 
#    z 0.000000 0.000000 2.761780 
# 
# 
# High freq. dielectric constant tensor:
#      x y z
#    x 1.609200 0.000000 0.000000 
#    y 0.000000 1.625740 0.000000 
#    z 0.000000 0.000000 1.579430 
# 
# From -- ./inp_files/23220.got.cif
#   From: 2010.03.12/outbox.cif.g09.slc.cpg/sg44_12_cif.got.tgz:23220.got - 2010.04.14 02:36:11.
