data_PCOD8188632
_publ_section_title
;
Structure prediction by ZEFSAII (Michael W. Deem and Ramdas Pophale) SiO2 
 PCOD8188632
Probable space group: I M M 2
;
_chemical_formula_sum "Si O2"
_cell_formula_units_Z 56
_cell_length_a 23.808540
_cell_length_b 9.074821
_cell_length_c 13.718035
_cell_angle_alpha 90.000000
_cell_angle_beta 90.000000
_cell_angle_gamma 90.000000
_cell_volume 2963.894482
_symmetry_space_group_name_H-M "I M M 2"
_symmetry_group_IT_number 44
_symmetry_cell_setting 'orthorhombic'
loop_
_space_group_symop_operation_xyz
x,y,z
-x,-y,z
-x,y,z
x,-y,z
1/2+x,1/2+y,1/2+z
1/2-x,1/2-y,1/2+z
1/2-x,1/2+y,1/2+z
1/2+x,1/2-y,1/2+z
loop_
_atom_site_type_symbol
_atom_site_label
_atom_site_fract_x
_atom_site_fract_y
_atom_site_fract_z
Si Si1 0.627451 0.672817 0.603570
Si Si2 0.064504 0.328420 0.270824
Si Si3 0.439070 0.327541 0.414998
Si Si4 0.671088 0.325938 0.313404
Si Si5 0.662915 0.670536 0.093894
Si Si6 0.062802 0.673205 0.493356
Si Si7 0.223646 0.673214 0.989727
O O1 0.639983 0.500000 0.611254
O O2 0.606980 0.732410 0.707087
O O3 0.579111 0.708768 0.525235
O O4 0.684358 0.752922 0.571061
O O5 0.076580 0.500000 0.252485
O O6 0.076999 0.284346 0.382183
O O7 0.000000 0.291177 0.244738
O O8 0.500000 0.252331 0.394911
O O9 0.445259 0.500000 0.400584
O O10 0.391790 0.269425 0.340420
O O11 0.677264 0.500000 0.333967
O O12 0.683119 0.282900 0.202116
O O13 0.715130 0.242197 0.382653
O O14 0.647215 0.500000 0.094071
O O15 0.712306 0.707266 0.018659
O O16 0.606617 0.754831 0.066428
O O17 0.066182 0.500000 0.506643
O O18 0.000000 0.728823 0.519611
O O19 0.211080 0.500000 0.987493
#
# Coordination Sequence:
#
# PCOD8188632 Si02
#       7
#     8   8   8   8   8   8   8
#     4  10  19  31  50  77 108 142 180 222 269 317
#     4   9  18  33  52  76 109 147 182 218 265 317
#     4   8  14  26  46  72 100 129 163 206 256 308
#     4   9  19  36  55  77 105 136 174 220 269 319
#     4  10  22  38  57  81 107 138 177 222 270 318
#     4   9  20  38  57  79 109 143 178 216 261 318
#     4  10  21  37  54  76 108 142 180 224 268 317
#
# _framework density 18.894062000000002
#
# number of rings (size 3 to 8) (size 9 to 14) (size 15 to 20)
#    0.000    2.714    0.000    3.000    0.000    5.143 
#    0.000    7.143    0.000    3.857    0.000    0.000 
#    0.000    0.000    0.000    0.000    0.000    0.000 
#
# Total GULP energy -347160.145162 kJ/mol
# GULP energy per Si atom -12398.576613 kJ/mol
# Density = 1.885106 g / cm^3
# Si number density = 18.894062 Si / 1000 Ang^3
#
#
#
# Elastic Constant Matrix: (Units=GPa)
#
#
# Indices 1 2 3 4 5 6 
#
# 1 105.5113 48.0300 60.2468 0.0000 0.0000 0.0000
# 2 48.0300 67.8201 49.0062 0.0000 0.0000 0.0000
# 3 60.2468 49.0062 112.1102 0.0000 0.0000 0.0000
# 4 0.0000 0.0000 0.0000 32.1039 0.0000 0.0000
# 5 0.0000 0.0000 0.0000 0.0000 28.2234 0.0000
# 6 0.0000 0.0000 0.0000 0.0000 0.0000 27.4848
#
#
#
# Elastic Compliance Matrix: (Units=1/GPa)
#
#
# Indices 1 2 3 4 5 6 
#
# 1 0.015875 -0.007423 -0.005286 0.000000 0.000000 0.000000
# 2 -0.007423 0.025023 -0.006949 0.000000 0.000000 0.000000
# 3 -0.005286 -0.006949 0.014798 0.000000 0.000000 0.000000
# 4 0.000000 0.000000 0.000000 0.031149 0.000000 0.000000
# 5 0.000000 0.000000 0.000000 0.000000 0.035432 0.000000
# 6 0.000000 0.000000 0.000000 0.000000 0.000000 0.036384
#
#
# Mechanical properties :
#
#
# Convention : Reuss Voigt Hill
#
# Bulk Modulus (GPa) = 61.05154 66.66751 63.85952
# Shear Modulus (GPa) = 24.57751 26.10634 25.34192
#
# Velocity S-wave (km/s) = 3.61058 3.72118 3.66630
# Velocity P-wave (km/s) = 7.05439 7.33651 7.19684
#
# Compressibility (1/GPa) = 0.01637960
#
# Stress axis : x y z
#
# Youngs Moduli (GPa) = 62.99147 39.96288 67.57490
#
# Poissons Ratio (x) = 0.29664 0.35723
# Poissons Ratio (y) = 0.46757 0.46960
# Poissons Ratio (z) = 0.33300 0.27772
#
# Static dielectric constant tensor:
#      x y z
#    x 3.538770 0.000000 0.000000 
#    y 0.000000 3.253770 0.000000 
#    z 0.000000 0.000000 3.464270 
# 
# 
# High freq. dielectric constant tensor:
#      x y z
#    x 1.735360 0.000000 0.000000 
#    y 0.000000 1.716800 0.000000 
#    z 0.000000 0.000000 1.732700 
# 
# From -- ./inp_files/19182.got.cif
#   From: 2010.03.12/outbox.cif.g09.slc.cpg/sg44_10_cif.got.tgz:19182.got - 2010.04.14 02:36:11.
