data_PCOD8188126
_publ_section_title
;
Structure prediction by ZEFSAII (Michael W. Deem and Ramdas Pophale) SiO2 
 PCOD8188126
Probable space group: I M M 2
;
_chemical_formula_sum "Si O2"
_cell_formula_units_Z 64
_cell_length_a 13.209080
_cell_length_b 13.670488
_cell_length_c 21.768338
_cell_angle_alpha 90.000000
_cell_angle_beta 90.000000
_cell_angle_gamma 90.000000
_cell_volume 3930.808266
_symmetry_space_group_name_H-M "I M M 2"
_symmetry_group_IT_number 44
_symmetry_cell_setting 'orthorhombic'
loop_
_space_group_symop_operation_xyz
x,y,z
-x,-y,z
-x,y,z
x,-y,z
1/2+x,1/2+y,1/2+z
1/2-x,1/2-y,1/2+z
1/2-x,1/2+y,1/2+z
1/2+x,1/2-y,1/2+z
loop_
_atom_site_type_symbol
_atom_site_label
_atom_site_fract_x
_atom_site_fract_y
_atom_site_fract_z
Si Si1 0.236583 0.761049 0.786210
Si Si2 0.881590 0.604825 0.508921
Si Si3 0.116261 0.384449 0.371368
Si Si4 0.618302 0.614304 0.187177
Si Si5 0.614254 0.889696 0.363175
Si Si6 0.617760 0.698331 0.057900
Si Si7 0.615306 0.611989 0.806201
Si Si8 0.695742 0.609100 0.936205
O O1 0.298985 0.834756 0.829149
O O2 0.186395 0.823126 0.732610
O O3 0.148037 0.697199 0.817763
O O4 0.317883 0.680326 0.761117
O O5 0.830622 0.500000 0.526637
O O6 0.848067 0.640141 0.440975
O O7 0.857652 0.685311 0.561394
O O8 0.000000 0.588025 0.503897
O O9 0.120637 0.500000 0.359812
O O10 0.000000 0.347723 0.357957
O O11 0.500000 0.639666 0.196589
O O12 0.638621 0.500000 0.197862
O O13 0.654333 0.643515 0.118827
O O14 0.500000 0.868453 0.383756
O O15 0.684160 0.886184 0.423652
O O16 0.623623 0.000000 0.333736
O O17 0.500000 0.677663 0.046623
O O18 0.677738 0.664959 0.998544
O O19 0.500000 0.623082 0.787298
O O20 0.652272 0.500000 0.801241
O O21 0.636057 0.651263 0.876131
O O22 0.655414 0.500000 0.946450
#
# Coordination Sequence:
#
# PCOD8188126 Si02
#       8
#     8   8   8   8   8   8   8   8
#     4  11  18  29  47  65  87 124 164 189 219 265
#     4   8  14  25  41  64  92 114 134 166 213 271
#     4   9  17  28  45  72 101 123 144 179 230 280
#     4  10  22  36  46  60  86 121 161 200 229 258
#     4   9  18  31  46  67  94 120 149 189 232 271
#     4  10  18  29  46  66  90 120 149 182 229 277
#     4   9  17  28  45  74 104 120 138 179 232 281
#     4   9  16  26  45  71  94 117 146 180 223 275
#
# _framework density 16.281638000000001
#
# number of rings (size 3 to 8) (size 9 to 14) (size 15 to 20)
#    0.000    2.625    0.000    5.250    0.000    2.250 
#    0.000    1.250    0.000    4.500    0.000    1.750 
#    0.000    0.000    0.000    0.250    0.000    0.000 
#
# Total GULP energy -396417.879461 kJ/mol
# GULP energy per Si atom -12388.058733 kJ/mol
# Density = 1.624458 g / cm^3
# Si number density = 16.281638 Si / 1000 Ang^3
#
#
#
# Elastic Constant Matrix: (Units=GPa)
#
#
# Indices 1 2 3 4 5 6 
#
# 1 81.6661 42.5953 35.6527 0.0000 0.0000 0.0000
# 2 42.5953 87.7485 56.7119 0.0000 0.0000 0.0000
# 3 35.6527 56.7119 66.7028 0.0000 0.0000 0.0000
# 4 0.0000 0.0000 0.0000 24.6564 0.0000 0.0000
# 5 0.0000 0.0000 0.0000 0.0000 21.1769 0.0000
# 6 0.0000 0.0000 0.0000 0.0000 0.0000 25.3839
#
#
#
# Elastic Compliance Matrix: (Units=1/GPa)
#
#
# Indices 1 2 3 4 5 6 
#
# 1 0.017009 -0.005285 -0.004598 0.000000 0.000000 0.000000
# 2 -0.005285 0.026939 -0.020079 0.000000 0.000000 0.000000
# 3 -0.004598 -0.020079 0.034521 0.000000 0.000000 0.000000
# 4 0.000000 0.000000 0.000000 0.040557 0.000000 0.000000
# 5 0.000000 0.000000 0.000000 0.000000 0.047221 0.000000
# 6 0.000000 0.000000 0.000000 0.000000 0.000000 0.039395
#
#
# Mechanical properties :
#
#
# Convention : Reuss Voigt Hill
#
# Bulk Modulus (GPa) = 53.92319 56.22636 55.07477
# Shear Modulus (GPa) = 18.39945 20.98728 19.69336
#
# Velocity S-wave (km/s) = 3.36530 3.59418 3.48162
# Velocity P-wave (km/s) = 6.94919 7.19950 7.07545
#
# Compressibility (1/GPa) = 0.01854490
#
# Stress axis : x y z
#
# Youngs Moduli (GPa) = 58.79327 37.12140 28.96784
#
# Poissons Ratio (x) = 0.19618 0.13319
# Poissons Ratio (y) = 0.31071 0.58165
# Poissons Ratio (z) = 0.27033 0.74536
#
# Static dielectric constant tensor:
#      x y z
#    x 2.999110 0.000000 0.000000 
#    y 0.000000 3.571370 0.000000 
#    z 0.000000 0.000000 2.753240 
# 
# 
# High freq. dielectric constant tensor:
#      x y z
#    x 1.606640 0.000000 0.000000 
#    y 0.000000 1.654720 0.000000 
#    z 0.000000 0.000000 1.582310 
# 
# From -- ./inp_files/21969.got.cif
#   From: 2010.03.12/outbox.cif.g09.slc.cpg/sg44_11_cif.got.tgz:21969.got - 2010.04.14 02:36:11.
