data_PCOD8188257
_publ_section_title
;
Structure prediction by ZEFSAII (Michael W. Deem and Ramdas Pophale) SiO2 
 PCOD8188257
Probable space group: I M M 2
;
_chemical_formula_sum "Si O2"
_cell_formula_units_Z 48
_cell_length_a 18.501667
_cell_length_b 9.211387
_cell_length_c 15.136529
_cell_angle_alpha 90.000000
_cell_angle_beta 90.000000
_cell_angle_gamma 90.000000
_cell_volume 2579.658317
_symmetry_space_group_name_H-M "I M M 2"
_symmetry_group_IT_number 44
_symmetry_cell_setting 'orthorhombic'
loop_
_space_group_symop_operation_xyz
x,y,z
-x,-y,z
-x,y,z
x,-y,z
1/2+x,1/2+y,1/2+z
1/2-x,1/2-y,1/2+z
1/2-x,1/2+y,1/2+z
1/2+x,1/2-y,1/2+z
loop_
_atom_site_type_symbol
_atom_site_label
_atom_site_fract_x
_atom_site_fract_y
_atom_site_fract_z
Si Si1 0.272842 0.326096 0.585070
Si Si2 0.342905 0.672754 0.213253
Si Si3 0.500000 0.161003 0.984706
Si Si4 0.890407 0.333955 0.333238
Si Si5 0.577823 0.332576 0.666674
Si Si6 0.500000 0.329548 0.157966
Si Si7 0.263118 0.328806 0.385713
O O1 0.263122 0.500000 0.590653
O O2 0.210113 0.252362 0.643662
O O3 0.352426 0.272243 0.615399
O O4 0.271943 0.265998 0.484398
O O5 0.334839 0.500000 0.197677
O O6 0.425607 0.728272 0.201965
O O7 0.324852 0.715041 0.315098
O O8 0.571325 0.181379 0.927082
O O9 0.500000 0.000000 0.028055
O O10 0.500000 0.284761 0.056771
O O11 0.889538 0.500000 0.301440
O O12 0.931965 0.243776 0.260331
O O13 0.810602 0.268704 0.343853
O O14 0.500000 0.308951 0.616340
O O15 0.591058 0.500000 0.685263
O O16 0.500000 0.500000 0.164647
O O17 0.258575 0.500000 0.396129
#
# Coordination Sequence:
#
# PCOD8188257 Si02
#       7
#     8   8   4   8   8   4   8
#     4  10  20  36  57  80 105 140 182 223 267 320
#     4  10  20  37  57  78 108 143 178 222 269 319
#     4  10  20  32  52  81 106 136 176 219 268 323
#     4  10  18  31  53  77 101 134 177 215 257 316
#     4  10  20  33  50  77 111 138 166 214 272 319
#     4  10  22  36  52  79 110 140 176 219 272 321
#     4   9  18  33  54  77 103 137 178 220 260 310
#
# _framework density 18.607116999999999
#
# number of rings (size 3 to 8) (size 9 to 14) (size 15 to 20)
#    0.000    2.167    2.500    1.000    0.000    2.667 
#    1.500    1.667    0.000    0.000    0.000    0.000 
#    0.000    0.000    0.000    0.000    0.000    0.000 
#
# Total GULP energy -297395.409450 kJ/mol
# GULP energy per Si atom -12391.475394 kJ/mol
# Density = 1.856477 g / cm^3
# Si number density = 18.607117 Si / 1000 Ang^3
#
#
#
# Elastic Constant Matrix: (Units=GPa)
#
#
# Indices 1 2 3 4 5 6 
#
# 1 170.0062 30.7273 60.2673 0.0000 0.0000 0.0000
# 2 30.7273 15.9853 20.6894 0.0000 0.0000 0.0000
# 3 60.2673 20.6894 112.2835 0.0000 0.0000 0.0000
# 4 0.0000 0.0000 0.0000 23.9927 0.0000 0.0000
# 5 0.0000 0.0000 0.0000 0.0000 10.3364 0.0000
# 6 0.0000 0.0000 0.0000 0.0000 0.0000 21.2588
#
#
#
# Elastic Compliance Matrix: (Units=1/GPa)
#
#
# Indices 1 2 3 4 5 6 
#
# 1 0.009431 -0.015203 -0.002261 0.000000 0.000000 0.000000
# 2 -0.015203 0.106655 -0.011492 0.000000 0.000000 0.000000
# 3 -0.002261 -0.011492 0.012237 0.000000 0.000000 0.000000
# 4 0.000000 0.000000 0.000000 0.041679 0.000000 0.000000
# 5 0.000000 0.000000 0.000000 0.000000 0.096746 0.000000
# 6 0.000000 0.000000 0.000000 0.000000 0.000000 0.047039
#
#
# Mechanical properties :
#
#
# Convention : Reuss Voigt Hill
#
# Bulk Modulus (GPa) = 14.20229 57.96034 36.08131
# Shear Modulus (GPa) = 12.65277 23.55699 18.10488
#
# Velocity S-wave (km/s) = 2.61050 3.56198 3.12269
# Velocity P-wave (km/s) = 4.09092 6.93787 5.69516
#
# Compressibility (1/GPa) = 0.07041120
#
# Stress axis : x y z
#
# Youngs Moduli (GPa) = 106.02783 9.37604 81.71865
#
# Poissons Ratio (x) = 0.14254 0.18476
# Poissons Ratio (y) = 1.61195 0.93912
# Poissons Ratio (z) = 0.23972 0.10775
#
# Static dielectric constant tensor:
#      x y z
#    x 3.926890 0.000000 0.000000 
#    y 0.000000 3.170250 0.000000 
#    z 0.000000 0.000000 3.403300 
# 
# 
# High freq. dielectric constant tensor:
#      x y z
#    x 1.743490 0.000000 0.000000 
#    y 0.000000 1.692140 0.000000 
#    z 0.000000 0.000000 1.712610 
# 
# From -- ./inp_files/16175.got.cif
#   From: 2010.03.12/outbox.cif.g09.slc.cpg/sg44_9_cif.got.tgz:16175.got - 2010.04.14 02:36:11.
