data_PCOD8188077
_publ_section_title
;
Structure prediction by ZEFSAII (Michael W. Deem and Ramdas Pophale) SiO2 
 PCOD8188077
Probable space group: I M M 2
;
_chemical_formula_sum "Si O2"
_cell_formula_units_Z 48
_cell_length_a 16.550940
_cell_length_b 9.435907
_cell_length_c 18.814039
_cell_angle_alpha 90.000000
_cell_angle_beta 90.000000
_cell_angle_gamma 90.000000
_cell_volume 2938.247370
_symmetry_space_group_name_H-M "I M M 2"
_symmetry_group_IT_number 44
_symmetry_cell_setting 'orthorhombic'
loop_
_space_group_symop_operation_xyz
x,y,z
-x,-y,z
-x,y,z
x,-y,z
1/2+x,1/2+y,1/2+z
1/2-x,1/2-y,1/2+z
1/2-x,1/2+y,1/2+z
1/2+x,1/2-y,1/2+z
loop_
_atom_site_type_symbol
_atom_site_label
_atom_site_fract_x
_atom_site_fract_y
_atom_site_fract_z
Si Si1 0.259433 0.165476 0.440870
Si Si2 0.091696 0.664758 0.849976
Si Si3 0.662779 0.667329 0.072577
Si Si4 0.320193 0.666415 0.230674
Si Si5 0.000000 0.660787 0.354613
Si Si6 0.673983 0.838732 0.824224
Si Si7 0.500000 0.331658 0.997687
O O1 0.351193 0.204157 0.417615
O O2 0.238490 0.212226 0.521832
O O3 0.195627 0.241400 0.390464
O O4 0.242690 0.000000 0.431846
O O5 0.101334 0.500000 0.830233
O O6 0.115977 0.754803 0.781095
O O7 0.000000 0.701599 0.871791
O O8 0.660360 0.500000 0.080158
O O9 0.673837 0.731052 0.151424
O O10 0.578629 0.722607 0.040164
O O11 0.340862 0.500000 0.233293
O O12 0.228711 0.698626 0.256120
O O13 0.079479 0.686434 0.305894
O O14 0.000000 0.500000 0.384199
O O15 0.000000 0.766249 0.420128
O O16 0.690663 0.000000 0.847539
O O17 0.500000 0.500000 0.989118
#
# Coordination Sequence:
#
# PCOD8188077 Si02
#       7
#     8   8   8   8   4   8   4
#     4   9  16  29  48  64  84 115 148 180 215 253
#     4   9  18  31  46  66  90 114 144 182 220 258
#     4   9  17  28  45  67  89 113 145 182 216 254
#     4   9  18  31  47  65  88 117 148 179 214 259
#     4  10  18  28  44  66  92 115 140 178 220 259
#     4   9  17  29  44  64  89 116 145 177 215 257
#     4  10  18  28  44  68  90 111 142 180 218 257
#
# _framework density 16.336269000000001
#
# number of rings (size 3 to 8) (size 9 to 14) (size 15 to 20)
#    0.000    2.833    1.667    0.000    1.167    0.333 
#    0.000    1.667    1.833    0.000    0.000    0.000 
#    0.000    0.000    0.000    0.000    0.000    0.000 
#
# Total GULP energy -297444.087381 kJ/mol
# GULP energy per Si atom -12393.503641 kJ/mol
# Density = 1.629909 g / cm^3
# Si number density = 16.336269 Si / 1000 Ang^3
#
#
#
# Elastic Constant Matrix: (Units=GPa)
#
#
# Indices 1 2 3 4 5 6 
#
# 1 139.1498 26.0132 59.7262 0.0000 0.0000 0.0000
# 2 26.0132 26.0294 20.2791 0.0000 0.0000 0.0000
# 3 59.7262 20.2791 99.3554 0.0000 0.0000 0.0000
# 4 0.0000 0.0000 0.0000 18.7702 0.0000 0.0000
# 5 0.0000 0.0000 0.0000 0.0000 20.6317 0.0000
# 6 0.0000 0.0000 0.0000 0.0000 0.0000 17.9129
#
#
#
# Elastic Compliance Matrix: (Units=1/GPa)
#
#
# Indices 1 2 3 4 5 6 
#
# 1 0.010580 -0.006681 -0.004996 0.000000 0.000000 0.000000
# 2 -0.006681 0.049901 -0.006169 0.000000 0.000000 0.000000
# 3 -0.004996 -0.006169 0.014328 0.000000 0.000000 0.000000
# 4 0.000000 0.000000 0.000000 0.053276 0.000000 0.000000
# 5 0.000000 0.000000 0.000000 0.000000 0.048469 0.000000
# 6 0.000000 0.000000 0.000000 0.000000 0.000000 0.055826
#
#
# Mechanical properties :
#
#
# Convention : Reuss Voigt Hill
#
# Bulk Modulus (GPa) = 25.56503 52.95242 39.25872
# Shear Modulus (GPa) = 17.78660 22.03069 19.90864
#
# Velocity S-wave (km/s) = 3.30325 3.67628 3.49474
# Velocity P-wave (km/s) = 5.49834 7.10665 6.35359
#
# Compressibility (1/GPa) = 0.03911594
#
# Stress axis : x y z
#
# Youngs Moduli (GPa) = 94.51782 20.03971 69.79550
#
# Poissons Ratio (x) = 0.13388 0.34873
# Poissons Ratio (y) = 0.63145 0.43057
# Poissons Ratio (z) = 0.47225 0.12363
#
# Static dielectric constant tensor:
#      x y z
#    x 3.366320 0.000000 0.000000 
#    y 0.000000 2.963250 0.000000 
#    z 0.000000 0.000000 3.158410 
# 
# 
# High freq. dielectric constant tensor:
#      x y z
#    x 1.636550 0.000000 0.000000 
#    y 0.000000 1.611690 0.000000 
#    z 0.000000 0.000000 1.608720 
# 
# From -- ./inp_files/23186.got.cif
#   From: 2010.03.12/outbox.cif.g09.slc.cpg/sg44_12_cif.got.tgz:23186.got - 2010.04.14 02:36:11.
