data_PCOD8188298
_publ_section_title
;
Structure prediction by ZEFSAII (Michael W. Deem and Ramdas Pophale) SiO2 
 PCOD8188298
Probable space group: I M M 2
;
_chemical_formula_sum "Si O2"
_cell_formula_units_Z 64
_cell_length_a 22.611887
_cell_length_b 16.770530
_cell_length_c 8.838419
_cell_angle_alpha 90.000000
_cell_angle_beta 90.000000
_cell_angle_gamma 90.000000
_cell_volume 3351.646295
_symmetry_space_group_name_H-M "I M M 2"
_symmetry_group_IT_number 44
_symmetry_cell_setting 'orthorhombic'
loop_
_space_group_symop_operation_xyz
x,y,z
-x,-y,z
-x,y,z
x,-y,z
1/2+x,1/2+y,1/2+z
1/2-x,1/2-y,1/2+z
1/2-x,1/2+y,1/2+z
1/2+x,1/2-y,1/2+z
loop_
_atom_site_type_symbol
_atom_site_label
_atom_site_fract_x
_atom_site_fract_y
_atom_site_fract_z
Si Si1 0.863801 0.177243 0.144190
Si Si2 0.930675 0.743341 0.404210
Si Si3 0.431366 0.090507 0.421891
Si Si4 0.356185 0.327566 0.147599
Si Si5 0.282017 0.404493 0.887067
Si Si6 0.070049 0.584800 0.265535
Si Si7 0.831160 0.704263 0.889267
Si Si8 0.565624 0.407086 0.388393
O O1 0.914972 0.205843 0.256801
O O2 0.814679 0.128790 0.238200
O O3 0.835370 0.251276 0.051955
O O4 0.895890 0.117948 0.031044
O O5 0.895882 0.769306 0.549793
O O6 0.907430 0.653455 0.375748
O O7 0.000000 0.749299 0.434235
O O8 0.500000 0.114369 0.402429
O O9 0.408442 0.095616 0.594184
O O10 0.391632 0.157784 0.340381
O O11 0.421432 0.000000 0.360399
O O12 0.318392 0.271990 0.262368
O O13 0.400649 0.384923 0.235521
O O14 0.314986 0.382134 0.042727
O O15 0.275109 0.500000 0.876070
O O16 0.218829 0.362462 0.894334
O O17 0.093321 0.500000 0.329723
O O18 0.000000 0.585623 0.258491
O O19 0.500000 0.367306 0.391199
O O20 0.557880 0.500000 0.393902
#
# Coordination Sequence:
#
# PCOD8188298 Si02
#       8
#     8   8   8   8   8   8   8   8
#     4  10  21  35  57  84 110 142 189 238 271 320
#     4  10  18  32  53  81 114 149 181 216 271 332
#     4   9  17  30  52  84 116 144 180 227 274 323
#     4  10  23  37  55  82 114 144 180 232 284 334
#     4  11  23  41  60  78 106 147 191 233 283 334
#     4   8  14  26  46  73 107 143 176 213 258 313
#     4  11  21  37  59  83 111 146 189 232 280 333
#     4  10  20  36  58  85 115 147 183 226 281 338
#
# _framework density 19.095092999999999
#
# number of rings (size 3 to 8) (size 9 to 14) (size 15 to 20)
#    0.000    2.125    1.250    3.375    0.000    2.500 
#    0.000    1.250    0.000    7.500    0.000    0.000 
#    0.000    0.000    0.000    0.000    0.000    0.000 
#
# Total GULP energy -396636.636822 kJ/mol
# GULP energy per Si atom -12394.894901 kJ/mol
# Density = 1.905163 g / cm^3
# Si number density = 19.095093 Si / 1000 Ang^3
#
#
#
# Elastic Constant Matrix: (Units=GPa)
#
#
# Indices 1 2 3 4 5 6 
#
# 1 93.7939 46.4703 32.0763 0.0000 0.0000 0.0000
# 2 46.4703 113.9702 30.5197 0.0000 0.0000 0.0000
# 3 32.0763 30.5197 79.5736 0.0000 0.0000 0.0000
# 4 0.0000 0.0000 0.0000 32.5604 0.0000 0.0000
# 5 0.0000 0.0000 0.0000 0.0000 18.2979 0.0000
# 6 0.0000 0.0000 0.0000 0.0000 0.0000 34.8179
#
#
#
# Elastic Compliance Matrix: (Units=1/GPa)
#
#
# Indices 1 2 3 4 5 6 
#
# 1 0.014399 -0.004811 -0.003959 0.000000 0.000000 0.000000
# 2 -0.004811 0.011386 -0.002428 0.000000 0.000000 0.000000
# 3 -0.003959 -0.002428 0.015094 0.000000 0.000000 0.000000
# 4 0.000000 0.000000 0.000000 0.030712 0.000000 0.000000
# 5 0.000000 0.000000 0.000000 0.000000 0.054651 0.000000
# 6 0.000000 0.000000 0.000000 0.000000 0.000000 0.028721
#
#
# Mechanical properties :
#
#
# Convention : Reuss Voigt Hill
#
# Bulk Modulus (GPa) = 54.10187 56.16338 55.13263
# Shear Modulus (GPa) = 27.24496 29.02001 28.13249
#
# Velocity S-wave (km/s) = 3.78140 3.90264 3.84250
# Velocity P-wave (km/s) = 6.88910 7.05576 6.97293
#
# Compressibility (1/GPa) = 0.01848365
#
# Stress axis : x y z
#
# Youngs Moduli (GPa) = 69.44805 87.82766 66.25133
#
# Poissons Ratio (x) = 0.42253 0.26230
# Poissons Ratio (y) = 0.33411 0.16084
# Poissons Ratio (z) = 0.27496 0.21322
#
# Static dielectric constant tensor:
#      x y z
#    x 3.388830 0.000000 0.000000 
#    y 0.000000 1.464690 0.000000 
#    z 0.000000 0.000000 3.538600 
# 
# 
# High freq. dielectric constant tensor:
#      x y z
#    x 1.730250 0.000000 0.000000 
#    y 0.000000 1.755990 0.000000 
#    z 0.000000 0.000000 1.736470 
# 
# From -- ./inp_files/9462.got.cif
#   From: 2010.03.12/outbox.cif.g09.slc.cpg/sg44_5_cif.got.tgz:9462.got - 2010.04.14 02:36:11.
