data_PCOD8188855
_publ_section_title
;
Structure prediction by ZEFSAII (Michael W. Deem and Ramdas Pophale) SiO2 
 PCOD8188855
Probable space group: I M M 2
;
_chemical_formula_sum "Si O2"
_cell_formula_units_Z 56
_cell_length_a 14.191751
_cell_length_b 9.030596
_cell_length_c 22.855437
_cell_angle_alpha 90.000000
_cell_angle_beta 90.000000
_cell_angle_gamma 90.000000
_cell_volume 2929.152116
_symmetry_space_group_name_H-M "I M M 2"
_symmetry_group_IT_number 44
_symmetry_cell_setting 'orthorhombic'
loop_
_space_group_symop_operation_xyz
x,y,z
-x,-y,z
-x,y,z
x,-y,z
1/2+x,1/2+y,1/2+z
1/2-x,1/2-y,1/2+z
1/2-x,1/2+y,1/2+z
1/2+x,1/2-y,1/2+z
loop_
_atom_site_type_symbol
_atom_site_label
_atom_site_fract_x
_atom_site_fract_y
_atom_site_fract_z
Si Si1 0.782731 0.175382 0.460460
Si Si2 0.290312 0.327461 0.748725
Si Si3 0.108781 0.173570 0.004038
Si Si4 0.895231 0.671680 0.692519
Si Si5 0.396678 0.675028 0.634243
Si Si6 0.892774 0.826789 0.574795
Si Si7 0.390224 0.825872 0.855001
O O1 0.676130 0.238104 0.459197
O O2 0.830128 0.228150 0.520829
O O3 0.844258 0.241553 0.408718
O O4 0.780868 0.000000 0.452880
O O5 0.314191 0.500000 0.761207
O O6 0.177254 0.299576 0.746139
O O7 0.326482 0.274865 0.685082
O O8 0.337550 0.225038 0.796610
O O9 0.000000 0.208733 0.988697
O O10 0.129100 0.000000 0.997325
O O11 0.133068 0.232041 0.069761
O O12 0.896660 0.500000 0.676667
O O13 0.857906 0.751031 0.634223
O O14 0.000000 0.727585 0.710862
O O15 0.500000 0.738239 0.650096
O O16 0.401952 0.500000 0.629888
O O17 0.000000 0.780823 0.561055
O O18 0.882469 0.000000 0.584029
O O19 0.500000 0.782873 0.850643
O O20 0.376257 0.000000 0.863062
#
# Coordination Sequence:
#
# PCOD8188855 Si02
#       7
#     8   8   8   8   8   8   8
#     4  11  22  36  56  80 108 144 183 223 268 320
#     4  10  19  33  55  79 106 143 181 218 263 314
#     4   9  18  34  56  82 113 146 180 220 264 313
#     4   9  18  32  52  81 113 142 175 215 259 311
#     4   8  14  26  48  78 107 137 175 216 261 316
#     4   9  18  32  51  78 111 144 177 216 266 320
#     4  11  25  42  58  78 104 135 176 226 275 324
#
# _framework density 19.11816
#
# number of rings (size 3 to 8) (size 9 to 14) (size 15 to 20)
#    0.000    2.429    0.000    3.429    0.000    5.429 
#    0.000    2.857    0.000    3.429    0.000    0.000 
#    0.000    0.000    0.000    0.000    0.000    0.000 
#
# Total GULP energy -347124.471380 kJ/mol
# GULP energy per Si atom -12397.302549 kJ/mol
# Density = 1.907465 g / cm^3
# Si number density = 19.118160 Si / 1000 Ang^3
#
#
#
# Elastic Constant Matrix: (Units=GPa)
#
#
# Indices 1 2 3 4 5 6 
#
# 1 123.7606 47.2782 65.3483 0.0000 0.0000 0.0000
# 2 47.2782 56.5940 38.5235 0.0000 0.0000 0.0000
# 3 65.3483 38.5235 79.5472 0.0000 0.0000 0.0000
# 4 0.0000 0.0000 0.0000 30.8044 0.0000 0.0000
# 5 0.0000 0.0000 0.0000 0.0000 29.9131 0.0000
# 6 0.0000 0.0000 0.0000 0.0000 0.0000 27.1871
#
#
#
# Elastic Compliance Matrix: (Units=1/GPa)
#
#
# Indices 1 2 3 4 5 6 
#
# 1 0.015714 -0.006475 -0.009774 0.000000 0.000000 0.000000
# 2 -0.006475 0.029027 -0.008738 0.000000 0.000000 0.000000
# 3 -0.009774 -0.008738 0.024832 0.000000 0.000000 0.000000
# 4 0.000000 0.000000 0.000000 0.032463 0.000000 0.000000
# 5 0.000000 0.000000 0.000000 0.000000 0.033430 0.000000
# 6 0.000000 0.000000 0.000000 0.000000 0.000000 0.036782
#
#
# Mechanical properties :
#
#
# Convention : Reuss Voigt Hill
#
# Bulk Modulus (GPa) = 51.02088 62.46686 56.74387
# Shear Modulus (GPa) = 21.85746 24.83104 23.34425
#
# Velocity S-wave (km/s) = 3.38491 3.60782 3.49815
# Velocity P-wave (km/s) = 6.48243 7.07815 6.78683
#
# Compressibility (1/GPa) = 0.01959982
#
# Stress axis : x y z
#
# Youngs Moduli (GPa) = 63.63650 34.45108 40.27038
#
# Poissons Ratio (x) = 0.22306 0.39359
# Poissons Ratio (y) = 0.41202 0.35189
# Poissons Ratio (z) = 0.62197 0.30104
#
# Static dielectric constant tensor:
#      x y z
#    x 3.794770 0.000000 0.000000 
#    y 0.000000 3.252410 0.000000 
#    z 0.000000 0.000000 3.448960 
# 
# 
# High freq. dielectric constant tensor:
#      x y z
#    x 1.760700 0.000000 0.000000 
#    y 0.000000 1.723490 0.000000 
#    z 0.000000 0.000000 1.725370 
# 
# From -- ./inp_files/23007.got.cif
#   From: 2010.03.12/outbox.cif.g09.slc.cpg/sg44_12_cif.got.tgz:23007.got - 2010.04.14 02:36:11.
