data_PCOD8188910
_publ_section_title
;
Structure prediction by ZEFSAII (Michael W. Deem and Ramdas Pophale) SiO2 
 PCOD8188910
Probable space group: I M M 2
;
_chemical_formula_sum "Si O2"
_cell_formula_units_Z 64
_cell_length_a 9.322087
_cell_length_b 19.215246
_cell_length_c 20.631352
_cell_angle_alpha 90.000000
_cell_angle_beta 90.000000
_cell_angle_gamma 90.000000
_cell_volume 3695.615580
_symmetry_space_group_name_H-M "I M M 2"
_symmetry_group_IT_number 44
_symmetry_cell_setting 'orthorhombic'
loop_
_space_group_symop_operation_xyz
x,y,z
-x,-y,z
-x,y,z
x,-y,z
1/2+x,1/2+y,1/2+z
1/2-x,1/2-y,1/2+z
1/2-x,1/2+y,1/2+z
1/2+x,1/2-y,1/2+z
loop_
_atom_site_type_symbol
_atom_site_label
_atom_site_fract_x
_atom_site_fract_y
_atom_site_fract_z
Si Si1 0.337313 0.077972 0.381470
Si Si2 0.168747 0.204728 0.183751
Si Si3 0.167480 0.920565 0.511201
Si Si4 0.666353 0.078278 0.980874
Si Si5 0.331826 0.203390 0.560229
Si Si6 0.334728 0.920789 0.130562
Si Si7 0.834822 0.287124 0.808575
Si Si8 0.332239 0.705737 0.437652
O O1 0.500000 0.089683 0.407607
O O2 0.230018 0.092779 0.439959
O O3 0.306723 0.131233 0.323249
O O4 0.317141 0.000000 0.353959
O O5 0.209789 0.255285 0.124886
O O6 0.234460 0.128523 0.172907
O O7 0.236009 0.236849 0.249049
O O8 0.000000 0.197083 0.192058
O O9 0.246190 0.869458 0.561662
O O10 0.000000 0.903265 0.509516
O O11 0.195990 0.000000 0.533275
O O12 0.500000 0.094237 0.970712
O O13 0.756179 0.131138 0.937345
O O14 0.703031 0.000000 0.958147
O O15 0.708542 0.087626 0.055744
O O16 0.500000 0.187202 0.556835
O O17 0.280058 0.247892 0.498253
O O18 0.500000 0.899570 0.141491
O O19 0.309288 0.000000 0.153080
O O20 0.789350 0.243568 0.871494
O O21 0.000000 0.273592 0.790324
O O22 0.500000 0.692392 0.443210
#
# Coordination Sequence:
#
# PCOD8188910 Si02
#       8
#     8   8   8   8   8   8   8   8
#     4   9  17  32  53  74 102 143 181 210 248 303
#     4  11  23  36  52  77 108 139 175 221 266 308
#     4  10  20  32  51  82 111 133 167 218 267 307
#     4   9  18  32  52  80 109 136 171 216 264 311
#     4  10  20  36  55  77 105 138 176 215 259 314
#     4   9  18  33  52  75 106 144 181 211 249 309
#     4  10  21  36  52  74 106 142 180 216 255 312
#     4  10  19  34  55  79 105 136 177 220 259 306
#
# _framework density 17.317819
#
# number of rings (size 3 to 8) (size 9 to 14) (size 15 to 20)
#    0.000    2.250    2.500    1.500    0.000    4.250 
#    0.000    2.500    0.000    0.750    0.000    0.000 
#    0.000    0.000    0.000    0.000    0.000    0.000 
#
# Total GULP energy -396856.869343 kJ/mol
# GULP energy per Si atom -12401.777167 kJ/mol
# Density = 1.727840 g / cm^3
# Si number density = 17.317819 Si / 1000 Ang^3
#
#
#
# Elastic Constant Matrix: (Units=GPa)
#
#
# Indices 1 2 3 4 5 6 
#
# 1 72.7354 53.2788 53.1775 0.0000 0.0000 0.0000
# 2 53.2788 99.5673 55.6649 0.0000 0.0000 0.0000
# 3 53.1775 55.6649 109.3434 0.0000 0.0000 0.0000
# 4 0.0000 0.0000 0.0000 21.0717 0.0000 0.0000
# 5 0.0000 0.0000 0.0000 0.0000 29.6473 0.0000
# 6 0.0000 0.0000 0.0000 0.0000 0.0000 33.3385
#
#
#
# Elastic Compliance Matrix: (Units=1/GPa)
#
#
# Indices 1 2 3 4 5 6 
#
# 1 0.026859 -0.009882 -0.008032 0.000000 0.000000 0.000000
# 2 -0.009882 0.017675 -0.004192 0.000000 0.000000 0.000000
# 3 -0.008032 -0.004192 0.015186 0.000000 0.000000 0.000000
# 4 0.000000 0.000000 0.000000 0.047457 0.000000 0.000000
# 5 0.000000 0.000000 0.000000 0.000000 0.033730 0.000000
# 6 0.000000 0.000000 0.000000 0.000000 0.000000 0.029995
#
#
# Mechanical properties :
#
#
# Convention : Reuss Voigt Hill
#
# Bulk Modulus (GPa) = 64.48230 67.32091 65.90161
# Shear Modulus (GPa) = 22.69802 24.77983 23.73892
#
# Velocity S-wave (km/s) = 3.62425 3.78681 3.70642
# Velocity P-wave (km/s) = 7.40467 7.62090 7.51356
#
# Compressibility (1/GPa) = 0.01550813
#
# Stress axis : x y z
#
# Youngs Moduli (GPa) = 37.23116 56.57681 65.85141
#
# Poissons Ratio (x) = 0.55910 0.52890
# Poissons Ratio (y) = 0.36792 0.27605
# Poissons Ratio (z) = 0.29903 0.23717
#
# Static dielectric constant tensor:
#      x y z
#    x 3.173010 0.000000 0.000000 
#    y 0.000000 3.298220 0.000000 
#    z 0.000000 0.000000 3.014700 
# 
# 
# High freq. dielectric constant tensor:
#      x y z
#    x 1.667730 0.000000 0.000000 
#    y 0.000000 1.670270 0.000000 
#    z 0.000000 0.000000 1.644870 
# 
# From -- ./inp_files/20756.got.cif
#   From: 2010.03.12/outbox.cif.g09.slc.cpg/sg44_11_cif.got.tgz:20756.got - 2010.04.14 02:36:11.
