data_PCOD8188335
_publ_section_title
;
Structure prediction by ZEFSAII (Michael W. Deem and Ramdas Pophale) SiO2 
 PCOD8188335
Probable space group: I M M 2
;
_chemical_formula_sum "Si O2"
_cell_formula_units_Z 64
_cell_length_a 22.560888
_cell_length_b 15.366251
_cell_length_c 9.303066
_cell_angle_alpha 90.000000
_cell_angle_beta 90.000000
_cell_angle_gamma 90.000000
_cell_volume 3225.152200
_symmetry_space_group_name_H-M "I M M 2"
_symmetry_group_IT_number 44
_symmetry_cell_setting 'orthorhombic'
loop_
_space_group_symop_operation_xyz
x,y,z
-x,-y,z
-x,y,z
x,-y,z
1/2+x,1/2+y,1/2+z
1/2-x,1/2-y,1/2+z
1/2-x,1/2+y,1/2+z
1/2+x,1/2-y,1/2+z
loop_
_atom_site_type_symbol
_atom_site_label
_atom_site_fract_x
_atom_site_fract_y
_atom_site_fract_z
Si Si1 0.649259 0.698202 0.145590
Si Si2 0.567344 0.196558 0.337163
Si Si3 0.852720 0.404174 0.014897
Si Si4 0.624268 0.727082 0.836825
Si Si5 0.722235 0.254957 0.605713
Si Si6 0.065218 0.844243 0.070009
Si Si7 0.930158 0.596896 0.294856
Si Si8 0.327135 0.404905 0.417138
O O1 0.593181 0.752900 0.200989
O O2 0.708934 0.755398 0.143824
O O3 0.659840 0.615887 0.249639
O O4 0.633476 0.671070 0.982134
O O5 0.500000 0.168286 0.303306
O O6 0.610183 0.114900 0.368994
O O7 0.572160 0.255463 0.480184
O O8 0.823910 0.500000 0.003645
O O9 0.799158 0.336335 0.037072
O O10 0.902021 0.400230 0.137976
O O11 0.686570 0.728644 0.752423
O O12 0.576399 0.678756 0.736792
O O13 0.601727 0.824588 0.882030
O O14 0.713767 0.331528 0.488788
O O15 0.000000 0.884775 0.054590
O O16 0.111703 0.912790 0.006685
O O17 0.919116 0.500000 0.363700
O O18 0.000000 0.615450 0.282200
O O19 0.296344 0.500000 0.423289
#
# Coordination Sequence:
#
# PCOD8188335 Si02
#       8
#     8   8   8   8   8   8   8   8
#     4  11  22  37  59  86 121 156 189 247 313 364
#     4  10  19  35  55  83 122 164 204 240 293 368
#     4  10  18  32  58  89 114 153 206 250 289 344
#     4  10  19  31  55  82 112 152 195 246 301 353
#     4  10  20  40  60  84 118 158 202 251 296 358
#     4   9  17  34  59  83 112 154 203 249 294 352
#     4   9  16  28  50  81 115 149 191 238 281 339
#     4  10  21  40  64  87 113 155 204 245 298 361
#
# _framework density 19.844024999999998
#
# number of rings (size 3 to 8) (size 9 to 14) (size 15 to 20)
#    0.000    2.125    5.000    1.500    0.000    2.500 
#    0.000    6.875    0.000    0.000    0.000    0.000 
#    0.000    0.000    0.000    0.000    0.000    0.000 
#
# Total GULP energy -396588.853414 kJ/mol
# GULP energy per Si atom -12393.401669 kJ/mol
# Density = 1.979886 g / cm^3
# Si number density = 19.844025 Si / 1000 Ang^3
#
#
#
# Elastic Constant Matrix: (Units=GPa)
#
#
# Indices 1 2 3 4 5 6 
#
# 1 72.2837 9.4250 22.2030 0.0000 0.0000 0.0000
# 2 9.4250 104.1171 37.9347 0.0000 0.0000 0.0000
# 3 22.2030 37.9347 108.8575 0.0000 0.0000 0.0000
# 4 0.0000 0.0000 0.0000 11.2814 0.0000 0.0000
# 5 0.0000 0.0000 0.0000 0.0000 20.7897 0.0000
# 6 0.0000 0.0000 0.0000 0.0000 0.0000 5.7456
#
#
#
# Elastic Compliance Matrix: (Units=1/GPa)
#
#
# Indices 1 2 3 4 5 6 
#
# 1 0.014766 -0.000274 -0.002916 0.000000 0.000000 0.000000
# 2 -0.000274 0.011006 -0.003780 0.000000 0.000000 0.000000
# 3 -0.002916 -0.003780 0.011098 0.000000 0.000000 0.000000
# 4 0.000000 0.000000 0.000000 0.088641 0.000000 0.000000
# 5 0.000000 0.000000 0.000000 0.000000 0.048101 0.000000
# 6 0.000000 0.000000 0.000000 0.000000 0.000000 0.174046
#
#
# Mechanical properties :
#
#
# Convention : Reuss Voigt Hill
#
# Bulk Modulus (GPa) = 43.60968 47.15376 45.38172
# Shear Modulus (GPa) = 13.54127 21.94305 17.74216
#
# Velocity S-wave (km/s) = 2.61508 3.32893 2.99336
# Velocity P-wave (km/s) = 5.58052 6.21204 5.90473
#
# Compressibility (1/GPa) = 0.02293069
#
# Stress axis : x y z
#
# Youngs Moduli (GPa) = 67.72373 90.85553 90.10434
#
# Poissons Ratio (x) = 0.02491 0.26276
# Poissons Ratio (y) = 0.01857 0.34056
# Poissons Ratio (z) = 0.19749 0.34340
#
# Static dielectric constant tensor:
#      x y z
#    x 3.603610 0.000000 0.000000 
#    y 0.000000 3.521750 0.000000 
#    z 0.000000 0.000000 3.461110 
# 
# 
# High freq. dielectric constant tensor:
#      x y z
#    x 1.773690 0.000000 0.000000 
#    y 0.000000 1.747030 0.000000 
#    z 0.000000 0.000000 1.757460 
# 
# From -- ./inp_files/9452.got.cif
#   From: 2010.03.12/outbox.cif.g09.slc.cpg/sg44_5_cif.got.tgz:9452.got - 2010.04.14 02:36:11.
