data_PCOD8188683
_publ_section_title
;
Structure prediction by ZEFSAII (Michael W. Deem and Ramdas Pophale) SiO2 
 PCOD8188683
Probable space group: I M M 2
;
_chemical_formula_sum "Si O2"
_cell_formula_units_Z 64
_cell_length_a 8.879131
_cell_length_b 23.153796
_cell_length_c 18.925869
_cell_angle_alpha 90.000000
_cell_angle_beta 90.000000
_cell_angle_gamma 90.000000
_cell_volume 3890.885904
_symmetry_space_group_name_H-M "I M M 2"
_symmetry_group_IT_number 44
_symmetry_cell_setting 'orthorhombic'
loop_
_space_group_symop_operation_xyz
x,y,z
-x,-y,z
-x,y,z
x,-y,z
1/2+x,1/2+y,1/2+z
1/2-x,1/2-y,1/2+z
1/2-x,1/2+y,1/2+z
1/2+x,1/2-y,1/2+z
loop_
_atom_site_type_symbol
_atom_site_label
_atom_site_fract_x
_atom_site_fract_y
_atom_site_fract_z
Si Si1 0.175898 0.066169 0.090720
Si Si2 0.175822 0.125858 0.237426
Si Si3 0.172775 0.565284 0.865315
Si Si4 0.675358 0.232153 0.594401
Si Si5 0.674210 0.227920 0.875309
Si Si6 0.824601 0.664266 0.515004
Si Si7 0.322556 0.250633 0.235955
Si Si8 0.172390 0.671609 0.954845
O O1 0.218227 0.091600 0.166835
O O2 0.000000 0.072715 0.074639
O O3 0.227514 0.000000 0.088459
O O4 0.269440 0.099483 0.030228
O O5 0.220387 0.085127 0.302227
O O6 0.266469 0.185111 0.240184
O O7 0.000000 0.140323 0.241395
O O8 0.214057 0.500000 0.886961
O O9 0.199316 0.604824 0.934850
O O10 0.000000 0.570372 0.839833
O O11 0.500000 0.238051 0.611148
O O12 0.731010 0.293585 0.565578
O O13 0.760373 0.216865 0.666670
O O14 0.710675 0.181767 0.537447
O O15 0.500000 0.230842 0.855341
O O16 0.708309 0.178417 0.932997
O O17 0.766784 0.213952 0.804477
O O18 0.720788 0.290121 0.905783
O O19 0.000000 0.672078 0.532617
O O20 0.500000 0.251006 0.233631
O O21 0.000000 0.690733 0.940247
#
# Coordination Sequence:
#
# PCOD8188683 Si02
#       8
#     8   8   8   8   8   8   8   8
#     4  10  21  35  50  69  98 137 175 206 241 288
#     4  11  21  33  48  69  98 135 173 204 236 281
#     4  10  20  33  49  71 100 134 170 205 239 281
#     4  10  19  32  50  70  96 130 164 200 247 296
#     4  10  20  33  50  72  98 128 161 201 248 298
#     4  10  20  33  50  73  98 127 164 205 248 293
#     4  12  22  32  49  74 100 129 164 203 251 297
#     4   9  18  32  49  70  97 130 164 201 242 288
#
# _framework density 16.448696000000002
#
# number of rings (size 3 to 8) (size 9 to 14) (size 15 to 20)
#    0.000    1.750    2.500    3.000    0.000    3.500 
#    0.000    0.000    0.000    0.000    0.000    0.875 
#    0.000    5.000    0.000    0.000    0.000    0.000 
#
# Total GULP energy -396874.733345 kJ/mol
# GULP energy per Si atom -12402.335417 kJ/mol
# Density = 1.641126 g / cm^3
# Si number density = 16.448696 Si / 1000 Ang^3
#
#
#
# Elastic Constant Matrix: (Units=GPa)
#
#
# Indices 1 2 3 4 5 6 
#
# 1 91.2634 32.0953 59.8834 0.0000 0.0000 0.0000
# 2 32.0953 80.6316 55.1185 0.0000 0.0000 0.0000
# 3 59.8834 55.1185 129.1013 0.0000 0.0000 0.0000
# 4 0.0000 0.0000 0.0000 21.9393 0.0000 0.0000
# 5 0.0000 0.0000 0.0000 0.0000 28.8368 0.0000
# 6 0.0000 0.0000 0.0000 0.0000 0.0000 19.6333
#
#
#
# Elastic Compliance Matrix: (Units=1/GPa)
#
#
# Indices 1 2 3 4 5 6 
#
# 1 0.015939 -0.001822 -0.006615 0.000000 0.000000 0.000000
# 2 -0.001822 0.017722 -0.006721 0.000000 0.000000 0.000000
# 3 -0.006615 -0.006721 0.013684 0.000000 0.000000 0.000000
# 4 0.000000 0.000000 0.000000 0.045580 0.000000 0.000000
# 5 0.000000 0.000000 0.000000 0.000000 0.034678 0.000000
# 6 0.000000 0.000000 0.000000 0.000000 0.000000 0.050934
#
#
# Mechanical properties :
#
#
# Convention : Reuss Voigt Hill
#
# Bulk Modulus (GPa) = 58.72853 66.13230 62.43041
# Shear Modulus (GPa) = 23.30691 24.34182 23.82436
#
# Velocity S-wave (km/s) = 3.76832 3.85107 3.80992
# Velocity P-wave (km/s) = 7.39697 7.75028 7.57569
#
# Compressibility (1/GPa) = 0.01702750
#
# Stress axis : x y z
#
# Youngs Moduli (GPa) = 62.74013 56.42792 73.08009
#
# Poissons Ratio (x) = 0.10284 0.48343
# Poissons Ratio (y) = 0.11434 0.49116
# Poissons Ratio (z) = 0.41503 0.37924
#
# Static dielectric constant tensor:
#      x y z
#    x 3.176590 0.000000 0.000000 
#    y 0.000000 2.966880 0.000000 
#    z 0.000000 0.000000 3.299110 
# 
# 
# High freq. dielectric constant tensor:
#      x y z
#    x 1.645480 0.000000 0.000000 
#    y 0.000000 1.601270 0.000000 
#    z 0.000000 0.000000 1.632350 
# 
# From -- ./inp_files/20874.got.cif
#   From: 2010.03.12/outbox.cif.g09.slc.cpg/sg44_11_cif.got.tgz:20874.got - 2010.04.14 02:36:11.
