data_PCOD8188606
_publ_section_title
;
Structure prediction by ZEFSAII (Michael W. Deem and Ramdas Pophale) SiO2 
 PCOD8188606
Probable space group: I M M 2
;
_chemical_formula_sum "Si O2"
_cell_formula_units_Z 64
_cell_length_a 9.066982
_cell_length_b 22.232846
_cell_length_c 15.317516
_cell_angle_alpha 90.000000
_cell_angle_beta 90.000000
_cell_angle_gamma 90.000000
_cell_volume 3087.778621
_symmetry_space_group_name_H-M "I M M 2"
_symmetry_group_IT_number 44
_symmetry_cell_setting 'orthorhombic'
loop_
_space_group_symop_operation_xyz
x,y,z
-x,-y,z
-x,y,z
x,-y,z
1/2+x,1/2+y,1/2+z
1/2-x,1/2-y,1/2+z
1/2-x,1/2+y,1/2+z
1/2+x,1/2-y,1/2+z
loop_
_atom_site_type_symbol
_atom_site_label
_atom_site_fract_x
_atom_site_fract_y
_atom_site_fract_z
Si Si1 0.673364 0.431170 0.657600
Si Si2 0.835667 0.570993 0.480971
Si Si3 0.170599 0.226267 0.592430
Si Si4 0.174172 0.608880 0.146312
Si Si5 0.171382 0.675817 0.733643
Si Si6 0.830502 0.191271 0.401556
Si Si7 0.168148 0.066062 0.481892
Si Si8 0.836522 0.929899 0.816887
O O1 0.500000 0.420851 0.651797
O O2 0.711038 0.500000 0.682359
O O3 0.744523 0.412204 0.566288
O O4 0.742570 0.387558 0.730163
O O5 0.849544 0.500000 0.469921
O O6 0.750111 0.599624 0.398580
O O7 0.000000 0.599495 0.487554
O O8 0.271695 0.177008 0.638150
O O9 0.201335 0.288007 0.643721
O O10 0.210413 0.229776 0.488810
O O11 0.000000 0.206654 0.601531
O O12 0.225439 0.569126 0.064808
O O13 0.241049 0.579650 0.231768
O O14 0.000000 0.607315 0.153373
O O15 0.231686 0.711802 0.818907
O O16 0.000000 0.663270 0.746901
O O17 0.795783 0.120248 0.416134
O O18 0.000000 0.201765 0.376489
O O19 0.000000 0.073655 0.515125
O O20 0.189776 0.000000 0.437333
O O21 0.000000 0.900649 0.808434
O O22 0.854886 0.000000 0.835031
#
# Coordination Sequence:
#
# PCOD8188606 Si02
#       8
#     8   8   8   8   8   8   8   8
#     4  10  21  38  60  86 118 157 196 233 283 352
#     4   9  17  31  51  76 109 146 186 237 290 336
#     4   9  21  43  63  80 112 156 195 239 296 356
#     4  11  21  32  51  80 112 148 193 249 300 345
#     4  11  23  40  64  92 119 151 193 246 300 348
#     4   9  19  38  62  86 116 155 197 241 289 351
#     4   9  18  34  56  81 114 158 198 232 284 354
#     4  10  19  31  49  74 109 154 199 241 292 356
#
# _framework density 20.726875
#
# number of rings (size 3 to 8) (size 9 to 14) (size 15 to 20)
#    0.000    2.250    0.000    3.750    0.000    8.250 
#    2.250    1.250    0.000    0.000    0.000    0.000 
#    0.000    0.000    0.000    0.000    0.000    0.000 
#
# Total GULP energy -396734.531659 kJ/mol
# GULP energy per Si atom -12397.954114 kJ/mol
# Density = 2.067970 g / cm^3
# Si number density = 20.726875 Si / 1000 Ang^3
#
#
#
# Elastic Constant Matrix: (Units=GPa)
#
#
# Indices 1 2 3 4 5 6 
#
# 1 134.6725 30.8541 56.5199 0.0001 -0.0001 0.0000
# 2 30.8541 56.7349 27.7621 -0.0001 0.0001 0.0000
# 3 56.5199 27.7621 114.6852 -0.0006 0.0003 0.0000
# 4 0.0001 -0.0001 -0.0006 23.5539 0.0002 0.0000
# 5 -0.0001 0.0001 0.0003 0.0002 33.0142 0.0000
# 6 0.0000 0.0000 0.0000 0.0000 0.0000 20.5696
#
#
#
# Elastic Compliance Matrix: (Units=1/GPa)
#
#
# Indices 1 2 3 4 5 6 
#
# 1 0.009909 -0.003402 -0.004060 0.000000 0.000000 0.000000
# 2 -0.003402 0.021162 -0.003446 0.000000 0.000000 0.000000
# 3 -0.004060 -0.003446 0.011554 0.000000 0.000000 0.000000
# 4 0.000000 0.000000 0.000000 0.042456 0.000000 0.000000
# 5 0.000000 0.000000 0.000000 0.000000 0.030290 0.000000
# 6 0.000000 0.000000 0.000000 0.000000 0.000000 0.048615
#
#
# Mechanical properties :
#
#
# Convention : Reuss Voigt Hill
#
# Bulk Modulus (GPa) = 48.05493 59.59609 53.82551
# Shear Modulus (GPa) = 25.94181 28.15798 27.04989
#
# Velocity S-wave (km/s) = 3.54164 3.68982 3.61649
# Velocity P-wave (km/s) = 6.32135 6.85335 6.59272
#
# Compressibility (1/GPa) = 0.02080952
#
# Stress axis : x y z
#
# Youngs Moduli (GPa) = 100.92196 47.25389 86.54662
#
# Poissons Ratio (x) = 0.16076 0.35135
# Poissons Ratio (y) = 0.34335 0.29825
# Poissons Ratio (z) = 0.40971 0.16284
#
# Static dielectric constant tensor:
#      x y z
#    x 3.821350 0.000000 0.000000 
#    y 0.000000 3.570560 0.000000 
#    z 0.000000 0.000000 3.734580 
# 
# 
# High freq. dielectric constant tensor:
#      x y z
#    x 1.814470 0.000000 0.000000 
#    y 0.000000 1.786800 0.000000 
#    z 0.000000 0.000000 1.812190 
# 
# From -- ./inp_files/16881.got.cif
#   From: 2010.03.12/outbox.cif.g09.slc.cpg/sg44_9_cif.got.tgz:16881.got - 2010.04.14 02:36:11.
