data_PCOD8188761
_publ_section_title
;
Structure prediction by ZEFSAII (Michael W. Deem and Ramdas Pophale) SiO2 
 PCOD8188761
Probable space group: I M M 2
;
_chemical_formula_sum "Si O2"
_cell_formula_units_Z 64
_cell_length_a 18.404625
_cell_length_b 9.043468
_cell_length_c 20.569755
_cell_angle_alpha 90.000000
_cell_angle_beta 90.000000
_cell_angle_gamma 90.000000
_cell_volume 3423.663700
_symmetry_space_group_name_H-M "I M M 2"
_symmetry_group_IT_number 44
_symmetry_cell_setting 'orthorhombic'
loop_
_space_group_symop_operation_xyz
x,y,z
-x,-y,z
-x,y,z
x,-y,z
1/2+x,1/2+y,1/2+z
1/2-x,1/2-y,1/2+z
1/2-x,1/2+y,1/2+z
1/2+x,1/2-y,1/2+z
loop_
_atom_site_type_symbol
_atom_site_label
_atom_site_fract_x
_atom_site_fract_y
_atom_site_fract_z
Si Si1 0.651972 0.663119 0.261950
Si Si2 0.159475 0.825258 0.903793
Si Si3 0.416645 0.830273 0.517191
Si Si4 0.824013 0.662983 0.274435
Si Si5 0.416187 0.670053 0.019333
Si Si6 0.312920 0.673299 0.900983
Si Si7 0.660040 0.174649 0.134562
Si Si8 0.686323 0.174451 0.633543
O O1 0.620469 0.500000 0.245603
O O2 0.625542 0.717872 0.333134
O O3 0.737981 0.653927 0.268106
O O4 0.628842 0.774562 0.204849
O O5 0.101473 0.771366 0.956014
O O6 0.236907 0.750192 0.917426
O O7 0.171455 0.000000 0.908290
O O8 0.500000 0.808202 0.536262
O O9 0.369891 0.777237 0.578543
O O10 0.399199 0.000000 0.499539
O O11 0.855667 0.500000 0.290464
O O12 0.846657 0.773364 0.332073
O O13 0.850308 0.718378 0.203126
O O14 0.500000 0.695848 0.001657
O O15 0.400663 0.500000 0.038028
O O16 0.369644 0.716830 0.956693
O O17 0.395678 0.772293 0.079885
O O18 0.299263 0.500000 0.896800
O O19 0.738837 0.241683 0.119981
O O20 0.665652 0.000000 0.134021
O O21 0.703431 0.000000 0.632657
#
# Coordination Sequence:
#
# PCOD8188761 Si02
#       8
#     8   8   8   8   8   8   8   8
#     4   8  16  32  52  74 102 135 167 200 246 306
#     4  10  20  34  54  79 105 134 168 206 252 306
#     4  10  21  36  53  74 102 137 176 215 251 291
#     4   8  15  29  50  76 104 132 164 205 251 299
#     4  10  22  39  54  69  98 141 178 205 245 306
#     4  10  19  32  54  80 102 129 169 213 253 296
#     4  11  21  32  53  83 106 126 163 215 260 296
#     4   9  18  34  54  75 103 139 173 203 246 307
#
# _framework density 18.693425000000001
#
# number of rings (size 3 to 8) (size 9 to 14) (size 15 to 20)
#    0.000    2.500    0.000    4.125    0.000   10.000 
#    0.000    1.250    0.000    1.500    0.000    0.000 
#    0.000    0.000    0.000    0.000    0.000    0.000 
#
# Total GULP energy -396734.173866 kJ/mol
# GULP energy per Si atom -12397.942933 kJ/mol
# Density = 1.865088 g / cm^3
# Si number density = 18.693425 Si / 1000 Ang^3
#
#
#
# Elastic Constant Matrix: (Units=GPa)
#
#
# Indices 1 2 3 4 5 6 
#
# 1 45.1560 21.2702 26.6076 0.0000 0.0000 0.0000
# 2 21.2702 75.7023 42.0609 0.0000 0.0000 0.0000
# 3 26.6076 42.0609 127.3319 0.0000 0.0000 0.0000
# 4 0.0000 0.0000 0.0000 34.5448 0.0000 0.0000
# 5 0.0000 0.0000 0.0000 0.0000 4.1791 0.0000
# 6 0.0000 0.0000 0.0000 0.0000 0.0000 14.2587
#
#
#
# Elastic Compliance Matrix: (Units=1/GPa)
#
#
# Indices 1 2 3 4 5 6 
#
# 1 0.026972 -0.005446 -0.003837 0.000000 0.000000 0.000000
# 2 -0.005446 0.017279 -0.004570 0.000000 0.000000 0.000000
# 3 -0.003837 -0.004570 0.010165 0.000000 0.000000 0.000000
# 4 0.000000 0.000000 0.000000 0.028948 0.000000 0.000000
# 5 0.000000 0.000000 0.000000 0.000000 0.239288 0.000000
# 6 0.000000 0.000000 0.000000 0.000000 0.000000 0.070132
#
#
# Mechanical properties :
#
#
# Convention : Reuss Voigt Hill
#
# Bulk Modulus (GPa) = 37.43998 47.56308 42.50153
# Shear Modulus (GPa) = 11.64434 21.14661 16.39547
#
# Velocity S-wave (km/s) = 2.49853 3.36703 2.96475
# Velocity P-wave (km/s) = 5.32873 6.37298 5.87411
#
# Compressibility (1/GPa) = 0.02670942
#
# Stress axis : x y z
#
# Youngs Moduli (GPa) = 37.07566 57.87437 98.37958
#
# Poissons Ratio (x) = 0.31521 0.37748
# Poissons Ratio (y) = 0.20193 0.44955
# Poissons Ratio (z) = 0.14226 0.26446
#
# Static dielectric constant tensor:
#      x y z
#    x 3.063230 0.000000 0.000000 
#    y 0.000000 3.417380 0.000000 
#    z 0.000000 0.000000 4.119720 
# 
# 
# High freq. dielectric constant tensor:
#      x y z
#    x 1.687440 0.000000 0.000000 
#    y 0.000000 1.719940 0.000000 
#    z 0.000000 0.000000 1.746140 
# 
# From -- ./inp_files/24367.got.cif
#   From: 2010.03.12/outbox.cif.g09.slc.cpg/sg44_13_cif.got.tgz:24367.got - 2010.04.14 02:36:11.
