data_PCOD8188845
_publ_section_title
;
Structure prediction by ZEFSAII (Michael W. Deem and Ramdas Pophale) SiO2 
 PCOD8188845
Probable space group: I M M 2
;
_chemical_formula_sum "Si O2"
_cell_formula_units_Z 64
_cell_length_a 9.198439
_cell_length_b 24.467982
_cell_length_c 15.300564
_cell_angle_alpha 90.000000
_cell_angle_beta 90.000000
_cell_angle_gamma 90.000000
_cell_volume 3443.655708
_symmetry_space_group_name_H-M "I M M 2"
_symmetry_group_IT_number 44
_symmetry_cell_setting 'orthorhombic'
loop_
_space_group_symop_operation_xyz
x,y,z
-x,-y,z
-x,y,z
x,-y,z
1/2+x,1/2+y,1/2+z
1/2-x,1/2-y,1/2+z
1/2-x,1/2+y,1/2+z
1/2+x,1/2-y,1/2+z
loop_
_atom_site_type_symbol
_atom_site_label
_atom_site_fract_x
_atom_site_fract_y
_atom_site_fract_z
Si Si1 0.332352 0.148175 0.579200
Si Si2 0.667053 0.105454 0.903366
Si Si3 0.166918 0.639221 0.700048
Si Si4 0.330699 0.735789 0.174891
Si Si5 0.832165 0.063254 0.069920
Si Si6 0.327224 0.938974 0.717515
Si Si7 0.166293 0.328963 0.889534
Si Si8 0.832327 0.275363 0.350679
O O1 0.500000 0.159653 0.603425
O O2 0.240951 0.203364 0.594770
O O3 0.269634 0.098486 0.637542
O O4 0.316473 0.133659 0.476042
O O5 0.500000 0.087670 0.915300
O O6 0.727249 0.084790 0.809927
O O7 0.682825 0.170885 0.910546
O O8 0.758227 0.077350 0.978640
O O9 0.195018 0.699731 0.662104
O O10 0.266622 0.596699 0.650213
O O11 0.210674 0.637332 0.802886
O O12 0.000000 0.622038 0.686160
O O13 0.500000 0.721944 0.180851
O O14 0.253130 0.713854 0.261538
O O15 0.000000 0.078547 0.061567
O O16 0.807899 0.000000 0.091287
O O17 0.500000 0.939667 0.715762
O O18 0.264479 0.000000 0.704590
O O19 0.265545 0.275646 0.902241
O O20 0.000000 0.308767 0.877165
O O21 0.000000 0.263620 0.328317
#
# Coordination Sequence:
#
# PCOD8188845 Si02
#       8
#     8   8   8   8   8   8   8   8
#     4  10  19  34  55  83 116 148 185 227 274 329
#     4  10  20  35  56  82 112 148 188 227 272 333
#     4   9  20  39  58  79 108 145 189 232 278 333
#     4  10  20  34  54  82 115 147 182 225 275 330
#     4  11  25  41  57  81 110 143 189 240 289 337
#     4   9  17  32  55  81 110 145 184 224 266 319
#     4   9  20  36  55  82 117 149 181 229 283 331
#     4  10  19  33  54  81 112 146 187 224 269 331
#
# _framework density 18.584900999999999
#
# number of rings (size 3 to 8) (size 9 to 14) (size 15 to 20)
#    0.000    2.250    1.250    2.250    1.750    5.500 
#    0.000    0.625    0.000    2.625    0.000    0.000 
#    0.000    0.000    0.000    0.000    0.000    0.000 
#
# Total GULP energy -396798.657703 kJ/mol
# GULP energy per Si atom -12399.958053 kJ/mol
# Density = 1.854260 g / cm^3
# Si number density = 18.584901 Si / 1000 Ang^3
#
#
#
# Elastic Constant Matrix: (Units=GPa)
#
#
# Indices 1 2 3 4 5 6 
#
# 1 90.3995 53.8730 50.1844 0.0000 0.0000 0.0000
# 2 53.8730 101.2611 69.9543 0.0000 0.0000 0.0000
# 3 50.1844 69.9543 139.7657 -0.0002 0.0000 0.0000
# 4 0.0000 0.0000 -0.0002 26.5850 0.0000 0.0000
# 5 0.0000 0.0000 0.0000 0.0000 24.2461 0.0000
# 6 0.0000 0.0000 0.0000 0.0000 0.0000 24.6310
#
#
#
# Elastic Compliance Matrix: (Units=1/GPa)
#
#
# Indices 1 2 3 4 5 6 
#
# 1 0.016695 -0.007246 -0.002368 0.000000 0.000000 0.000000
# 2 -0.007246 0.018240 -0.006527 0.000000 0.000000 0.000000
# 3 -0.002368 -0.006527 0.011272 0.000000 0.000000 0.000000
# 4 0.000000 0.000000 0.000000 0.037615 0.000000 0.000000
# 5 0.000000 0.000000 0.000000 0.000000 0.041244 0.000000
# 6 0.000000 0.000000 0.000000 0.000000 0.000000 0.040599
#
#
# Mechanical properties :
#
#
# Convention : Reuss Voigt Hill
#
# Bulk Modulus (GPa) = 71.81826 75.49441 73.65633
# Shear Modulus (GPa) = 24.68050 25.58673 25.13361
#
# Velocity S-wave (km/s) = 3.64811 3.71448 3.68144
# Velocity P-wave (km/s) = 7.51480 7.68805 7.60191
#
# Compressibility (1/GPa) = 0.01392404
#
# Stress axis : x y z
#
# Youngs Moduli (GPa) = 59.89899 54.82441 88.71557
#
# Poissons Ratio (x) = 0.39728 0.21004
# Poissons Ratio (y) = 0.43405 0.57909
# Poissons Ratio (z) = 0.14181 0.35786
#
# Static dielectric constant tensor:
#      x y z
#    x 3.349950 0.000000 0.000000 
#    y 0.000000 3.391150 0.000000 
#    z 0.000000 0.000000 3.439920 
# 
# 
# High freq. dielectric constant tensor:
#      x y z
#    x 1.709430 0.000000 0.000000 
#    y 0.000000 1.708130 0.000000 
#    z 0.000000 0.000000 1.726020 
# 
# From -- ./inp_files/16808.got.cif
#   From: 2010.03.12/outbox.cif.g09.slc.cpg/sg44_9_cif.got.tgz:16808.got - 2010.04.14 02:36:11.
