data_PCOD8188753
_publ_section_title
;
Structure prediction by ZEFSAII (Michael W. Deem and Ramdas Pophale) SiO2 
 PCOD8188753
Probable space group: I M M 2
;
_chemical_formula_sum "Si O2"
_cell_formula_units_Z 64
_cell_length_a 25.078423
_cell_length_b 9.103009
_cell_length_c 15.231301
_cell_angle_alpha 90.000000
_cell_angle_beta 90.000000
_cell_angle_gamma 90.000000
_cell_volume 3477.140154
_symmetry_space_group_name_H-M "I M M 2"
_symmetry_group_IT_number 44
_symmetry_cell_setting 'orthorhombic'
loop_
_space_group_symop_operation_xyz
x,y,z
-x,-y,z
-x,y,z
x,-y,z
1/2+x,1/2+y,1/2+z
1/2-x,1/2-y,1/2+z
1/2-x,1/2+y,1/2+z
1/2+x,1/2-y,1/2+z
loop_
_atom_site_type_symbol
_atom_site_label
_atom_site_fract_x
_atom_site_fract_y
_atom_site_fract_z
Si Si1 0.742174 0.335557 0.335420
Si Si2 0.334788 0.328082 0.049731
Si Si3 0.641646 0.326630 0.241521
Si Si4 0.059969 0.175081 0.883910
Si Si5 0.856634 0.674786 0.375570
Si Si6 0.272847 0.665459 0.536419
Si Si7 0.109481 0.173758 0.065818
Si Si8 0.438883 0.169532 0.729561
O O1 0.750975 0.500000 0.300773
O O2 0.698614 0.256258 0.272864
O O3 0.800957 0.261208 0.335415
O O4 0.717731 0.333896 0.432484
O O5 0.333489 0.500000 0.029203
O O6 0.367544 0.292710 0.138897
O O7 0.274188 0.274388 0.064033
O O8 0.365242 0.245316 0.971376
O O9 0.645552 0.500000 0.259087
O O10 0.593197 0.263371 0.300094
O O11 0.000000 0.237425 0.876615
O O12 0.059319 0.000000 0.883607
O O13 0.086518 0.233966 0.973703
O O14 0.853290 0.500000 0.389233
O O15 0.904345 0.724234 0.312507
O O16 0.258371 0.500000 0.567261
O O17 0.328595 0.719552 0.578602
O O18 0.074773 0.240367 0.143394
O O19 0.103447 0.000000 0.069132
O O20 0.500000 0.196159 0.755209
O O21 0.426549 0.000000 0.710049
#
# Coordination Sequence:
#
# PCOD8188753 Si02
#       8
#     8   8   8   8   8   8   8   8
#     4   8  13  26  47  68  92 128 167 196 234 297
#     4  10  20  31  50  78 108 135 170 220 264 299
#     4   9  16  27  45  72 102 132 167 206 247 296
#     4   9  16  28  48  73 102 135 169 202 242 302
#     4   9  19  36  56  71  95 139 179 212 261 318
#     4   9  17  31  50  73 106 142 171 199 245 311
#     4  10  19  32  53  81 108 136 170 211 258 311
#     4  10  22  38  55  76 101 134 180 225 267 323
#
# _framework density 18.405930999999999
#
# number of rings (size 3 to 8) (size 9 to 14) (size 15 to 20)
#    0.000    2.750    1.250    1.500    1.750    1.750 
#    0.000    0.625    0.000    3.000    0.000    0.000 
#    0.000    0.000    0.000    0.000    0.000    0.000 
#
# Total GULP energy -396644.524783 kJ/mol
# GULP energy per Si atom -12395.141399 kJ/mol
# Density = 1.836404 g / cm^3
# Si number density = 18.405931 Si / 1000 Ang^3
#
#
#
# Elastic Constant Matrix: (Units=GPa)
#
#
# Indices 1 2 3 4 5 6 
#
# 1 117.7222 25.1142 74.0411 0.0000 0.0000 0.0000
# 2 25.1142 30.5923 30.9357 0.0000 0.0000 0.0000
# 3 74.0411 30.9357 128.7037 0.0000 0.0000 0.0000
# 4 0.0000 0.0000 0.0000 23.9287 0.0000 0.0000
# 5 0.0000 0.0000 0.0000 0.0000 32.1528 0.0000
# 6 0.0000 0.0000 0.0000 0.0000 0.0000 17.3422
#
#
#
# Elastic Compliance Matrix: (Units=1/GPa)
#
#
# Indices 1 2 3 4 5 6 
#
# 1 0.013733 -0.004340 -0.006857 0.000000 0.000000 0.000000
# 2 -0.004340 0.044556 -0.008213 0.000000 0.000000 0.000000
# 3 -0.006857 -0.008213 0.013689 0.000000 0.000000 0.000000
# 4 0.000000 0.000000 0.000000 0.041791 0.000000 0.000000
# 5 0.000000 0.000000 0.000000 0.000000 0.031101 0.000000
# 6 0.000000 0.000000 0.000000 0.000000 0.000000 0.057663
#
#
# Mechanical properties :
#
#
# Convention : Reuss Voigt Hill
#
# Bulk Modulus (GPa) = 30.15900 59.68892 44.92396
# Shear Modulus (GPa) = 19.80933 24.47987 22.14460
#
# Velocity S-wave (km/s) = 3.28418 3.65087 3.47237
# Velocity P-wave (km/s) = 5.54997 7.09023 6.36685
#
# Compressibility (1/GPa) = 0.03315760
#
# Stress axis : x y z
#
# Youngs Moduli (GPa) = 72.81524 22.44380 73.05193
#
# Poissons Ratio (x) = 0.09740 0.50095
# Poissons Ratio (y) = 0.31600 0.59998
# Poissons Ratio (z) = 0.49933 0.18433
#
# Static dielectric constant tensor:
#      x y z
#    x 3.518620 0.000000 0.000000 
#    y 0.000000 2.953000 0.000000 
#    z 0.000000 0.000000 3.369940 
# 
# 
# High freq. dielectric constant tensor:
#      x y z
#    x 1.713780 0.000000 0.000000 
#    y 0.000000 1.665980 0.000000 
#    z 0.000000 0.000000 1.714510 
# 
# From -- ./inp_files/16770.got.cif
#   From: 2010.03.12/outbox.cif.g09.slc.cpg/sg44_9_cif.got.tgz:16770.got - 2010.04.14 02:36:11.
