data_PCOD8188669
_publ_section_title
;
Structure prediction by ZEFSAII (Michael W. Deem and Ramdas Pophale) SiO2 
 PCOD8188669
Probable space group: I M M 2
;
_chemical_formula_sum "Si O2"
_cell_formula_units_Z 40
_cell_length_a 8.792079
_cell_length_b 19.110481
_cell_length_c 14.048698
_cell_angle_alpha 90.000000
_cell_angle_beta 90.000000
_cell_angle_gamma 90.000000
_cell_volume 2360.474301
_symmetry_space_group_name_H-M "I M M 2"
_symmetry_group_IT_number 44
_symmetry_cell_setting 'orthorhombic'
loop_
_space_group_symop_operation_xyz
x,y,z
-x,-y,z
-x,y,z
x,-y,z
1/2+x,1/2+y,1/2+z
1/2-x,1/2-y,1/2+z
1/2-x,1/2+y,1/2+z
1/2+x,1/2-y,1/2+z
loop_
_atom_site_type_symbol
_atom_site_label
_atom_site_fract_x
_atom_site_fract_y
_atom_site_fract_z
Si Si1 0.170560 0.721577 0.525320
Si Si2 0.829482 0.360350 0.704263
Si Si3 0.320048 0.221803 0.697655
Si Si4 0.819936 0.000000 0.170499
Si Si5 0.319973 0.643542 0.360762
Si Si6 0.819496 0.000000 0.953891
O O1 0.163968 0.651113 0.589741
O O2 0.252935 0.781756 0.589556
O O3 0.266940 0.705101 0.431663
O O4 0.000000 0.745925 0.497330
O O5 0.736707 0.294357 0.748279
O O6 0.743256 0.432431 0.726010
O O7 0.000000 0.362503 0.747379
O O8 0.500000 0.219179 0.693980
O O9 0.255450 0.156748 0.757914
O O10 0.000000 0.000000 0.175655
O O11 0.759055 0.000000 0.062051
O O12 0.500000 0.646054 0.351032
O O13 0.261119 0.568506 0.397944
O O14 0.000000 0.000000 0.957503
#
# Coordination Sequence:
#
# PCOD8188669 Si02
#       6
#     8   8   8   4   8   4
#     4   9  18  31  46  67  93 125 160 195 235 281
#     4   9  18  30  44  65  94 126 158 193 233 280
#     4  10  19  32  46  66  94 127 164 201 237 285
#     4  11  17  27  47  71  98 129 156 191 239 293
#     4  11  19  31  49  70  98 130 160 198 239 287
#     4   9  18  27  41  67  96 125 156 185 233 289
#
# _framework density 16.945747999999998
#
# number of rings (size 3 to 8) (size 9 to 14) (size 15 to 20)
#    1.200    1.000    2.000    3.300    0.000    0.000 
#    0.000    2.000    0.000    0.000    0.000    1.400 
#    0.000    1.600    0.000    0.000    0.000    0.000 
#
# Total GULP energy -247811.834321 kJ/mol
# GULP energy per Si atom -12390.591716 kJ/mol
# Density = 1.690718 g / cm^3
# Si number density = 16.945748 Si / 1000 Ang^3
#
#
#
# Elastic Constant Matrix: (Units=GPa)
#
#
# Indices 1 2 3 4 5 6 
#
# 1 116.8421 22.4742 18.3312 0.0000 0.0000 0.0000
# 2 22.4742 53.7246 17.9969 0.0000 0.0000 0.0000
# 3 18.3312 17.9969 49.9941 0.0000 0.0000 0.0000
# 4 0.0000 0.0000 0.0000 25.7086 0.0000 0.0000
# 5 0.0000 0.0000 0.0000 0.0000 25.2494 0.0000
# 6 0.0000 0.0000 0.0000 0.0000 0.0000 25.0168
#
#
#
# Elastic Compliance Matrix: (Units=1/GPa)
#
#
# Indices 1 2 3 4 5 6 
#
# 1 0.009543 -0.003207 -0.002345 0.000000 0.000000 0.000000
# 2 -0.003207 0.022243 -0.006831 0.000000 0.000000 0.000000
# 3 -0.002345 -0.006831 0.023321 0.000000 0.000000 0.000000
# 4 0.000000 0.000000 0.000000 0.038897 0.000000 0.000000
# 5 0.000000 0.000000 0.000000 0.000000 0.039605 0.000000
# 6 0.000000 0.000000 0.000000 0.000000 0.000000 0.039973
#
#
# Mechanical properties :
#
#
# Convention : Reuss Voigt Hill
#
# Bulk Modulus (GPa) = 32.95757 37.57394 35.26576
# Shear Modulus (GPa) = 23.98507 25.97887 24.98197
#
# Velocity S-wave (km/s) = 3.76627 3.91968 3.84374
# Velocity P-wave (km/s) = 6.19711 6.53501 6.36830
#
# Compressibility (1/GPa) = 0.03034204
#
# Stress axis : x y z
#
# Youngs Moduli (GPa) = 104.78634 44.95746 42.87925
#
# Poissons Ratio (x) = 0.14416 0.10055
# Poissons Ratio (y) = 0.33601 0.29292
# Poissons Ratio (z) = 0.24571 0.30712
#
# Static dielectric constant tensor:
#      x y z
#    x 3.112270 0.000000 0.000000 
#    y 0.000000 2.993530 0.000000 
#    z 0.000000 0.000000 2.812540 
# 
# 
# High freq. dielectric constant tensor:
#      x y z
#    x 1.665290 0.000000 0.000000 
#    y 0.000000 1.624780 0.000000 
#    z 0.000000 0.000000 1.612230 
# 
# From -- ./inp_files/16268.got.cif
#   From: 2010.03.12/outbox.cif.g09.slc.cpg/sg44_9_cif.got.tgz:16268.got - 2010.04.14 02:36:11.
