data_PCOD8188120
_publ_section_title
;
Structure prediction by ZEFSAII (Michael W. Deem and Ramdas Pophale) SiO2 
 PCOD8188120
Probable space group: I M M 2
;
_chemical_formula_sum "Si O2"
_cell_formula_units_Z 56
_cell_length_a 7.804693
_cell_length_b 13.722705
_cell_length_c 32.307427
_cell_angle_alpha 90.000000
_cell_angle_beta 90.000000
_cell_angle_gamma 90.000000
_cell_volume 3460.173882
_symmetry_space_group_name_H-M "I M M 2"
_symmetry_group_IT_number 44
_symmetry_cell_setting 'orthorhombic'
loop_
_space_group_symop_operation_xyz
x,y,z
-x,-y,z
-x,y,z
x,-y,z
1/2+x,1/2+y,1/2+z
1/2-x,1/2-y,1/2+z
1/2-x,1/2+y,1/2+z
1/2+x,1/2-y,1/2+z
loop_
_atom_site_type_symbol
_atom_site_label
_atom_site_fract_x
_atom_site_fract_y
_atom_site_fract_z
Si Si1 0.191099 0.112175 0.367320
Si Si2 0.305276 0.202280 0.285745
Si Si3 0.201585 0.799129 0.661942
Si Si4 0.796716 0.393229 0.702388
Si Si5 0.000000 0.615492 0.924036
Si Si6 0.804140 0.885265 0.574730
Si Si7 0.196420 0.608594 0.244795
Si Si8 0.000000 0.384418 0.016294
O O1 0.196221 0.177495 0.326181
O O2 0.328877 0.151552 0.400522
O O3 0.000000 0.121652 0.386432
O O4 0.232371 0.000000 0.355744
O O5 0.500000 0.172455 0.295181
O O6 0.228705 0.140589 0.247350
O O7 0.298684 0.316503 0.274002
O O8 0.260124 0.686211 0.668126
O O9 0.256809 0.832285 0.616510
O O10 0.289882 0.866341 0.696210
O O11 0.000000 0.810504 0.668574
O O12 0.720560 0.500000 0.691337
O O13 0.000000 0.397739 0.704456
O O14 0.000000 0.500000 0.927470
O O15 0.000000 0.660844 0.970191
O O16 0.673664 0.849314 0.539240
O O17 0.000000 0.856988 0.562619
O O18 0.789337 0.000000 0.582356
O O19 0.270503 0.500000 0.252058
O O20 0.000000 0.613418 0.258151
O O21 0.000000 0.500000 0.014233
#
# Coordination Sequence:
#
# PCOD8188120 Si02
#       8
#     8   8   8   8   4   8   8   4
#     4  10  19  30  47  69  93 122 153 187 226 272
#     4  10  18  29  45  63  88 121 156 191 226 268
#     4   9  17  28  42  61  85 116 153 189 227 270
#     4   8  14  24  40  61  85 116 151 187 223 259
#     4   9  18  32  46  66  93 119 151 187 228 280
#     4   9  17  28  43  64  89 117 150 186 223 271
#     4  10  20  30  41  60  87 119 156 197 232 266
#     4   9  18  30  46  66  89 119 151 185 230 276
#
# _framework density 16.184158
#
# number of rings (size 3 to 8) (size 9 to 14) (size 15 to 20)
#    0.000    2.714    0.714    2.571    1.000    2.857 
#    0.000    2.857    0.000    3.857    0.000    0.000 
#    0.000    2.286    0.000    7.286    0.000    0.286 
#
# Total GULP energy -347091.287236 kJ/mol
# GULP energy per Si atom -12396.117401 kJ/mol
# Density = 1.614732 g / cm^3
# Si number density = 16.184158 Si / 1000 Ang^3
#
#
#
# Elastic Constant Matrix: (Units=GPa)
#
#
# Indices 1 2 3 4 5 6 
#
# 1 75.4945 14.9847 44.9626 0.0000 0.0000 0.0000
# 2 14.9847 77.3037 35.4275 0.0000 0.0000 0.0000
# 3 44.9626 35.4275 115.1506 0.0000 0.0000 0.0000
# 4 0.0000 0.0000 0.0000 16.4860 0.0000 0.0000
# 5 0.0000 0.0000 0.0000 0.0000 20.1222 0.0000
# 6 0.0000 0.0000 0.0000 0.0000 0.0000 13.3458
#
#
#
# Elastic Compliance Matrix: (Units=1/GPa)
#
#
# Indices 1 2 3 4 5 6 
#
# 1 0.017266 -0.000299 -0.006650 0.000000 0.000000 0.000000
# 2 -0.000299 0.015065 -0.004518 0.000000 0.000000 0.000000
# 3 -0.006650 -0.004518 0.012671 0.000000 0.000000 0.000000
# 4 0.000000 0.000000 0.000000 0.060658 0.000000 0.000000
# 5 0.000000 0.000000 0.000000 0.000000 0.049696 0.000000
# 6 0.000000 0.000000 0.000000 0.000000 0.000000 0.074930
#
#
# Mechanical properties :
#
#
# Convention : Reuss Voigt Hill
#
# Bulk Modulus (GPa) = 45.31601 50.96648 48.14125
# Shear Modulus (GPa) = 19.18839 21.49574 20.34207
#
# Velocity S-wave (km/s) = 3.44703 3.64840 3.54914
# Velocity P-wave (km/s) = 6.62599 7.02194 6.82684
#
# Compressibility (1/GPa) = 0.02206725
#
# Stress axis : x y z
#
# Youngs Moduli (GPa) = 57.91807 66.38115 78.92204
#
# Poissons Ratio (x) = 0.01987 0.52480
# Poissons Ratio (y) = 0.01734 0.35656
# Poissons Ratio (z) = 0.38513 0.29990
#
# Static dielectric constant tensor:
#      x y z
#    x 3.082630 0.000000 0.000000 
#    y 0.000000 3.078780 0.000000 
#    z 0.000000 0.000000 2.983160 
# 
# 
# High freq. dielectric constant tensor:
#      x y z
#    x 1.628850 0.000000 0.000000 
#    y 0.000000 1.592300 0.000000 
#    z 0.000000 0.000000 1.595620 
# 
# From -- ./inp_files/27246.got.cif
#   From: 2010.03.12/outbox.cif.g09.slc.cpg/sg44_14_cif.got.tgz:27246.got - 2010.04.14 02:36:11.
