data_PCOD8188228
_publ_section_title
;
Structure prediction by ZEFSAII (Michael W. Deem and Ramdas Pophale) SiO2 
 PCOD8188228
Probable space group: I M M 2
;
_chemical_formula_sum "Si O2"
_cell_formula_units_Z 38
_cell_length_a 12.557849
_cell_length_b 11.951305
_cell_length_c 14.334273
_cell_angle_alpha 90.000000
_cell_angle_beta 90.000000
_cell_angle_gamma 90.000000
_cell_volume 2151.326158
_symmetry_space_group_name_H-M "I M M 2"
_symmetry_group_IT_number 44
_symmetry_cell_setting 'orthorhombic'
loop_
_space_group_symop_operation_xyz
x,y,z
-x,-y,z
-x,y,z
x,-y,z
1/2+x,1/2+y,1/2+z
1/2-x,1/2-y,1/2+z
1/2-x,1/2+y,1/2+z
1/2+x,1/2-y,1/2+z
loop_
_atom_site_type_symbol
_atom_site_label
_atom_site_fract_x
_atom_site_fract_y
_atom_site_fract_z
Si Si1 0.625442 0.370267 0.990040
Si Si2 0.500000 0.000000 0.028368
Si Si3 0.184404 0.783002 0.684653
Si Si4 0.878874 0.000000 0.796327
Si Si5 0.880638 0.739366 0.302910
Si Si6 0.000000 0.623504 0.702239
Si Si7 0.336498 0.000000 0.875263
O O1 0.500000 0.362574 0.008613
O O2 0.662368 0.500000 0.985991
O O3 0.657147 0.309796 0.893343
O O4 0.684375 0.303226 0.073394
O O5 0.500000 0.887986 0.089703
O O6 0.387814 0.000000 0.976310
O O7 0.301406 0.741583 0.716076
O O8 0.106710 0.688931 0.726673
O O9 0.143314 0.895534 0.731253
O O10 0.793116 0.000000 0.881321
O O11 0.000000 0.000000 0.835084
O O12 0.880587 0.607687 0.322269
O O13 0.000000 0.776711 0.274018
O O14 0.000000 0.500000 0.750662
#
# Coordination Sequence:
#
# PCOD8188228 Si02
#       7
#     8   2   8   4   8   4   4
#     4  10  19  34  58  83 106 139 188 237 274 321
#     4  10  18  34  52  76 108 138 186 232 270 320
#     4  11  19  34  56  83 113 144 184 232 281 328
#     4  10  18  30  54  81 109 140 176 232 287 330
#     4  10  21  34  56  83 114 145 184 229 279 334
#     4  10  22  31  55  80 107 142 175 231 279 330
#     4  10  18  30  52  82 109 139 180 230 276 325
#
# _framework density 17.663525
#
# number of rings (size 3 to 8) (size 9 to 14) (size 15 to 20)
#    0.316    1.474    4.211    1.263    0.000    0.842 
#    0.000    0.000    2.316    3.789    0.000    0.000 
#    0.000    0.000    0.000    0.000    0.000    0.000 
#
# Total GULP energy -235460.389432 kJ/mol
# GULP energy per Si atom -12392.652075 kJ/mol
# Density = 1.762332 g / cm^3
# Si number density = 17.663525 Si / 1000 Ang^3
#
#
#
# Elastic Constant Matrix: (Units=GPa)
#
#
# Indices 1 2 3 4 5 6 
#
# 1 127.9203 28.0896 51.5152 0.0000 0.0000 0.0000
# 2 28.0896 101.8770 24.8897 0.0000 0.0000 0.0000
# 3 51.5152 24.8897 75.1738 0.0000 0.0000 0.0000
# 4 0.0000 0.0000 0.0000 36.7048 0.0000 0.0000
# 5 0.0000 0.0000 0.0000 0.0000 33.1688 0.0000
# 6 0.0000 0.0000 0.0000 0.0000 0.0000 28.6717
#
#
#
# Elastic Compliance Matrix: (Units=1/GPa)
#
#
# Indices 1 2 3 4 5 6 
#
# 1 0.010951 -0.001290 -0.007077 0.000000 0.000000 0.000000
# 2 -0.001290 0.010832 -0.002702 0.000000 0.000000 0.000000
# 3 -0.007077 -0.002702 0.019047 0.000000 0.000000 0.000000
# 4 0.000000 0.000000 0.000000 0.027244 0.000000 0.000000
# 5 0.000000 0.000000 0.000000 0.000000 0.030149 0.000000
# 6 0.000000 0.000000 0.000000 0.000000 0.000000 0.034878
#
#
# Mechanical properties :
#
#
# Convention : Reuss Voigt Hill
#
# Bulk Modulus (GPa) = 53.50357 57.10668 55.30512
# Shear Modulus (GPa) = 30.96562 33.07418 32.01990
#
# Velocity S-wave (km/s) = 4.19153 4.33188 4.26228
# Velocity P-wave (km/s) = 7.33358 7.57765 7.45661
#
# Compressibility (1/GPa) = 0.01869034
#
# Stress axis : x y z
#
# Youngs Moduli (GPa) = 91.31778 92.32185 52.50170
#
# Poissons Ratio (x) = 0.11913 0.37156
# Poissons Ratio (y) = 0.11783 0.14186
# Poissons Ratio (z) = 0.64627 0.24946
#
# Static dielectric constant tensor:
#      x y z
#    x 3.440340 0.000000 0.000000 
#    y 0.000000 3.215150 0.000000 
#    z 0.000000 0.000000 3.066920 
# 
# 
# High freq. dielectric constant tensor:
#      x y z
#    x 1.673730 0.000000 0.000000 
#    y 0.000000 1.699330 0.000000 
#    z 0.000000 0.000000 1.650210 
# 
# From -- ./inp_files/17531.got.cif
#   From: 2010.03.12/outbox.cif.g09.slc.cpg/sg44_9_cif.got.tgz:17531.got - 2010.04.14 02:36:11.
