data_PCOD8188395
_publ_section_title
;
Structure prediction by ZEFSAII (Michael W. Deem and Ramdas Pophale) SiO2 
 PCOD8188395
Probable space group: I M M 2
;
_chemical_formula_sum "Si O2"
_cell_formula_units_Z 52
_cell_length_a 13.448345
_cell_length_b 23.713732
_cell_length_c 9.122046
_cell_angle_alpha 90.000000
_cell_angle_beta 90.000000
_cell_angle_gamma 90.000000
_cell_volume 2909.115787
_symmetry_space_group_name_H-M "I M M 2"
_symmetry_group_IT_number 44
_symmetry_cell_setting 'orthorhombic'
loop_
_space_group_symop_operation_xyz
x,y,z
-x,-y,z
-x,y,z
x,-y,z
1/2+x,1/2+y,1/2+z
1/2-x,1/2-y,1/2+z
1/2-x,1/2+y,1/2+z
1/2+x,1/2-y,1/2+z
loop_
_atom_site_type_symbol
_atom_site_label
_atom_site_fract_x
_atom_site_fract_y
_atom_site_fract_z
Si Si1 0.881585 0.500000 0.460420
Si Si2 0.812253 0.500000 0.789367
Si Si3 0.384684 0.374229 0.580243
Si Si4 0.758609 0.307544 0.763634
Si Si5 0.384161 0.104057 0.774490
Si Si6 0.888051 0.000000 0.170900
Si Si7 0.224127 0.694782 0.439753
Si Si8 0.616164 0.109520 0.448514
O O1 0.829696 0.500000 0.616357
O O2 0.840678 0.553348 0.370911
O O3 0.000000 0.500000 0.482223
O O4 0.691761 0.500000 0.804792
O O5 0.863139 0.446794 0.860573
O O6 0.500000 0.356897 0.570327
O O7 0.337459 0.348041 0.731379
O O8 0.372476 0.442466 0.575904
O O9 0.325105 0.344257 0.444798
O O10 0.808397 0.291330 0.606902
O O11 0.732522 0.251275 0.848405
O O12 0.837483 0.338375 0.864553
O O13 0.500000 0.094308 0.756454
O O14 0.363380 0.161603 0.859038
O O15 0.336936 0.104703 0.611482
O O16 0.000000 0.000000 0.237217
O O17 0.500000 0.121311 0.456984
#
# Coordination Sequence:
#
# PCOD8188395 Si02
#       8
#     4   4   8   8   8   4   8   8
#     4  10  19  32  53  82 118 152 189 237 290 355
#     4  12  19  35  57  88 116 152 191 247 293 351
#     4   9  20  37  61  87 114 154 201 251 304 355
#     4  10  21  37  56  83 116 151 195 245 292 356
#     4  10  21  36  54  82 119 156 191 236 298 356
#     4  10  18  35  60  86 112 148 202 246 293 350
#     4  10  21  37  57  83 116 152 200 243 296 357
#     4  11  22  35  55  84 118 156 192 235 298 359
#
# _framework density 17.874846999999999
#
# number of rings (size 3 to 8) (size 9 to 14) (size 15 to 20)
#    0.923    0.923    1.538    3.923    0.000    4.308 
#    0.000    0.000    0.000    3.692    0.000    1.077 
#    0.000    0.000    0.000    0.000    0.000    0.000 
#
# Total GULP energy -322202.720176 kJ/mol
# GULP energy per Si atom -12392.412314 kJ/mol
# Density = 1.783416 g / cm^3
# Si number density = 17.874847 Si / 1000 Ang^3
#
#
#
# Elastic Constant Matrix: (Units=GPa)
#
#
# Indices 1 2 3 4 5 6 
#
# 1 42.3446 11.2342 13.0406 0.0029 -0.0005 0.0005
# 2 11.2342 139.4835 55.9934 -0.0021 0.0001 0.0009
# 3 13.0406 55.9934 141.7143 -0.0149 0.0043 0.0093
# 4 0.0029 -0.0021 -0.0149 21.8697 0.0017 0.0011
# 5 -0.0005 0.0001 0.0043 0.0017 22.5139 -0.0012
# 6 0.0005 0.0009 0.0093 0.0011 -0.0012 29.5610
#
#
#
# Elastic Compliance Matrix: (Units=1/GPa)
#
#
# Indices 1 2 3 4 5 6 
#
# 1 0.024492 -0.001269 -0.001752 -0.000005 0.000001 0.000000
# 2 -0.001269 0.008587 -0.003276 -0.000001 0.000001 0.000001
# 3 -0.001752 -0.003276 0.008512 0.000006 -0.000002 -0.000003
# 4 -0.000005 -0.000001 0.000006 0.045725 -0.000003 -0.000002
# 5 0.000001 0.000001 -0.000002 -0.000003 0.044417 0.000002
# 6 0.000000 0.000001 -0.000003 -0.000002 0.000002 0.033828
#
#
# Mechanical properties :
#
#
# Convention : Reuss Voigt Hill
#
# Bulk Modulus (GPa) = 34.48753 53.78654 44.13703
# Shear Modulus (GPa) = 26.62100 31.00719 28.81410
#
# Velocity S-wave (km/s) = 3.86333 4.16947 4.01932
# Velocity P-wave (km/s) = 6.26388 7.30310 6.80336
#
# Compressibility (1/GPa) = 0.02899599
#
# Stress axis : x y z
#
# Youngs Moduli (GPa) = 40.82943 116.46071 117.48046
#
# Poissons Ratio (x) = 0.14781 0.20586
# Poissons Ratio (y) = 0.05182 0.38485
# Poissons Ratio (z) = 0.07155 0.38151
#
# Static dielectric constant tensor:
#      x y z
#    x 3.292900 0.000050 -0.000010 
#    y 0.000050 3.404140 -0.000070 
#    z -0.000010 -0.000070 3.386120 
# 
# 
# High freq. dielectric constant tensor:
#      x y z
#    x 1.678290 0.000000 0.000000 
#    y 0.000000 1.706410 0.000000 
#    z 0.000000 0.000000 1.683020 
# 
# From -- ./inp_files/7497.got.cif
#   From: 2010.03.12/outbox.cif.g09.slc.cpg/sg44_4_cif.got.tgz:7497.got - 2010.04.14 02:36:11.
