data_PCOD8188346
_publ_section_title
;
Structure prediction by ZEFSAII (Michael W. Deem and Ramdas Pophale) SiO2 
 PCOD8188346
Probable space group: I M M 2
;
_chemical_formula_sum "Si O2"
_cell_formula_units_Z 56
_cell_length_a 8.867117
_cell_length_b 17.412986
_cell_length_c 18.623039
_cell_angle_alpha 90.000000
_cell_angle_beta 90.000000
_cell_angle_gamma 90.000000
_cell_volume 2875.452796
_symmetry_space_group_name_H-M "I M M 2"
_symmetry_group_IT_number 44
_symmetry_cell_setting 'orthorhombic'
loop_
_space_group_symop_operation_xyz
x,y,z
-x,-y,z
-x,y,z
x,-y,z
1/2+x,1/2+y,1/2+z
1/2-x,1/2-y,1/2+z
1/2-x,1/2+y,1/2+z
1/2+x,1/2-y,1/2+z
loop_
_atom_site_type_symbol
_atom_site_label
_atom_site_fract_x
_atom_site_fract_y
_atom_site_fract_z
Si Si1 0.824714 0.714011 0.341080
Si Si2 0.321569 0.085456 0.569266
Si Si3 0.822137 0.356730 0.915846
Si Si4 0.320981 0.500000 0.676825
Si Si5 0.179093 0.000000 0.338141
Si Si6 0.179518 0.291783 0.178531
Si Si7 0.179160 0.854327 0.090975
Si Si8 0.825648 0.587290 0.451800
O O1 0.732441 0.775049 0.387409
O O2 0.759386 0.711602 0.259973
O O3 0.802250 0.629615 0.375463
O O4 0.000000 0.738334 0.341253
O O5 0.500000 0.077515 0.571942
O O6 0.275881 0.134481 0.499197
O O7 0.262948 0.130368 0.639853
O O8 0.249012 0.000000 0.567306
O O9 0.741013 0.423919 0.873636
O O10 0.000000 0.364400 0.905037
O O11 0.500000 0.500000 0.676376
O O12 0.259906 0.500000 0.757187
O O13 0.258184 0.574162 0.636192
O O14 0.000000 0.000000 0.342416
O O15 0.241407 0.220910 0.131348
O O16 0.000000 0.289590 0.180199
O O17 0.000000 0.852475 0.086739
O O18 0.240102 0.861501 0.010522
O O19 0.761452 0.500000 0.446620
O O20 0.000000 0.585034 0.473068
#
# Coordination Sequence:
#
# PCOD8188346 Si02
#       8
#     8   8   8   4   4   8   8   8
#     4  10  21  37  56  80 110 146 188 231 277 329
#     4   9  17  31  52  79 108 137 177 228 275 317
#     4  11  21  36  56  82 115 146 182 228 277 329
#     4   9  18  31  51  77 106 141 180 222 263 317
#     4  11  21  35  57  83 114 149 182 222 273 329
#     4   9  18  32  53  78 104 138 182 231 272 313
#     4  10  18  33  55  78 103 136 183 227 266 319
#     4  10  21  36  54  80 114 146 179 225 282 338
#
# _framework density 19.475193000000001
#
# number of rings (size 3 to 8) (size 9 to 14) (size 15 to 20)
#    0.000    2.143    1.429    2.357    0.000    4.571 
#    0.000    6.429    0.000    1.714    0.000    0.000 
#    0.000    0.000    0.000    0.000    0.000    0.000 
#
# Total GULP energy -347173.703773 kJ/mol
# GULP energy per Si atom -12399.060849 kJ/mol
# Density = 1.943087 g / cm^3
# Si number density = 19.475193 Si / 1000 Ang^3
#
#
#
# Elastic Constant Matrix: (Units=GPa)
#
#
# Indices 1 2 3 4 5 6 
#
# 1 34.7190 22.5872 24.2142 0.0000 0.0000 0.0000
# 2 22.5872 136.6924 80.6231 0.0000 0.0000 0.0000
# 3 24.2142 80.6231 144.2179 0.0000 0.0000 0.0000
# 4 0.0000 0.0000 0.0000 43.1607 0.0000 0.0000
# 5 0.0000 0.0000 0.0000 0.0000 24.0869 0.0000
# 6 0.0000 0.0000 0.0000 0.0000 0.0000 30.7550
#
#
#
# Elastic Compliance Matrix: (Units=1/GPa)
#
#
# Indices 1 2 3 4 5 6 
#
# 1 0.033603 -0.003319 -0.003786 0.000000 0.000000 0.000000
# 2 -0.003319 0.011242 -0.005728 0.000000 0.000000 0.000000
# 3 -0.003786 -0.005728 0.010772 0.000000 0.000000 0.000000
# 4 0.000000 0.000000 0.000000 0.023169 0.000000 0.000000
# 5 0.000000 0.000000 0.000000 0.000000 0.041516 0.000000
# 6 0.000000 0.000000 0.000000 0.000000 0.000000 0.032515
#
#
# Mechanical properties :
#
#
# Convention : Reuss Voigt Hill
#
# Bulk Modulus (GPa) = 33.38853 63.38646 48.38750
# Shear Modulus (GPa) = 26.52978 32.14750 29.33864
#
# Velocity S-wave (km/s) = 3.69485 4.06728 3.88553
# Velocity P-wave (km/s) = 5.94844 7.39425 6.71040
#
# Compressibility (1/GPa) = 0.02995041
#
# Stress axis : x y z
#
# Youngs Moduli (GPa) = 29.75937 88.94887 92.83660
#
# Poissons Ratio (x) = 0.29525 0.35150
# Poissons Ratio (y) = 0.09878 0.53173
# Poissons Ratio (z) = 0.11268 0.50946
#
# Static dielectric constant tensor:
#      x y z
#    x 3.149870 0.000000 0.000000 
#    y 0.000000 3.356990 0.000000 
#    z 0.000000 0.000000 3.774540 
# 
# 
# High freq. dielectric constant tensor:
#      x y z
#    x 1.713010 0.000000 0.000000 
#    y 0.000000 1.772530 0.000000 
#    z 0.000000 0.000000 1.769630 
# 
# From -- ./inp_files/23138.got.cif
#   From: 2010.03.12/outbox.cif.g09.slc.cpg/sg44_12_cif.got.tgz:23138.got - 2010.04.14 02:36:11.
