data_PCOD8188004
_publ_section_title
;
Structure prediction by ZEFSAII (Michael W. Deem and Ramdas Pophale) SiO2 
 PCOD8188004
Probable space group: I M M 2
;
_chemical_formula_sum "Si O2"
_cell_formula_units_Z 64
_cell_length_a 18.473832
_cell_length_b 8.551808
_cell_length_c 26.455518
_cell_angle_alpha 90.000000
_cell_angle_beta 90.000000
_cell_angle_gamma 90.000000
_cell_volume 4179.566130
_symmetry_space_group_name_H-M "I M M 2"
_symmetry_group_IT_number 44
_symmetry_cell_setting 'orthorhombic'
loop_
_space_group_symop_operation_xyz
x,y,z
-x,-y,z
-x,y,z
x,-y,z
1/2+x,1/2+y,1/2+z
1/2-x,1/2-y,1/2+z
1/2-x,1/2+y,1/2+z
1/2+x,1/2-y,1/2+z
loop_
_atom_site_type_symbol
_atom_site_label
_atom_site_fract_x
_atom_site_fract_y
_atom_site_fract_z
Si Si1 0.167195 0.185310 0.676000
Si Si2 0.916458 0.681270 0.471223
Si Si3 0.582333 0.816462 0.780008
Si Si4 0.580065 0.314342 0.273332
Si Si5 0.156857 0.180285 0.376877
Si Si6 0.785595 0.180998 0.830246
Si Si7 0.287525 0.682624 0.733773
Si Si8 0.583069 0.317623 0.077195
O O1 0.114320 0.246152 0.720724
O O2 0.246259 0.267641 0.682161
O O3 0.133133 0.239932 0.623132
O O4 0.176658 0.000000 0.677674
O O5 0.903035 0.500000 0.460644
O O6 0.868517 0.781548 0.433089
O O7 0.892272 0.722169 0.527968
O O8 0.000000 0.727758 0.463279
O O9 0.500000 0.758117 0.776094
O O10 0.611670 0.779120 0.836151
O O11 0.627213 0.726249 0.735729
O O12 0.588163 0.000000 0.770800
O O13 0.500000 0.241378 0.280636
O O14 0.575411 0.500000 0.270342
O O15 0.630635 0.266079 0.321436
O O16 0.243010 0.220243 0.372865
O O17 0.144363 0.000000 0.364745
O O18 0.746646 0.208407 0.776909
O O19 0.780944 0.000000 0.845202
O O20 0.276709 0.500000 0.744969
O O21 0.500000 0.281197 0.091483
O O22 0.593708 0.500000 0.066029
#
# Coordination Sequence:
#
# PCOD8188004 Si02
#       8
#     8   8   8   8   8   8   8   8
#     4   9  16  27  43  60  82 112 142 171 203 240
#     4  10  20  32  44  59  82 110 139 173 211 248
#     4  10  19  30  44  61  82 108 138 171 208 250
#     4   8  13  22  39  62  83 106 138 170 198 233
#     4  11  20  29  43  60  81 109 141 174 206 245
#     4   9  16  27  42  58  80 108 137 170 206 244
#     4  10  18  27  40  58  82 109 138 171 203 240
#     4   9  17  29  45  64  84 108 141 178 211 242
#
# _framework density 15.312594000000001
#
# number of rings (size 3 to 8) (size 9 to 14) (size 15 to 20)
#    0.000    2.500    0.000    6.375    0.000    5.250 
#    0.000    0.000    0.000   12.375    0.000    0.000 
#    0.000    1.000    0.000    6.500    0.000    3.625 
#
# Total GULP energy -396623.656819 kJ/mol
# GULP energy per Si atom -12394.489276 kJ/mol
# Density = 1.527774 g / cm^3
# Si number density = 15.312594 Si / 1000 Ang^3
#
#
#
# Elastic Constant Matrix: (Units=GPa)
#
#
# Indices 1 2 3 4 5 6 
#
# 1 109.4168 23.6089 51.6725 0.0000 0.0000 0.0000
# 2 23.6089 40.9372 20.8045 0.0000 0.0000 0.0000
# 3 51.6725 20.8045 75.7413 0.0000 0.0000 0.0000
# 4 0.0000 0.0000 0.0000 20.1918 0.0000 0.0000
# 5 0.0000 0.0000 0.0000 0.0000 28.2474 0.0000
# 6 0.0000 0.0000 0.0000 0.0000 0.0000 13.4630
#
#
#
# Elastic Compliance Matrix: (Units=1/GPa)
#
#
# Indices 1 2 3 4 5 6 
#
# 1 0.013957 -0.003731 -0.008497 0.000000 0.000000 0.000000
# 2 -0.003731 0.029388 -0.005527 0.000000 0.000000 0.000000
# 3 -0.008497 -0.005527 0.020518 0.000000 0.000000 0.000000
# 4 0.000000 0.000000 0.000000 0.049525 0.000000 0.000000
# 5 0.000000 0.000000 0.000000 0.000000 0.035401 0.000000
# 6 0.000000 0.000000 0.000000 0.000000 0.000000 0.074277
#
#
# Mechanical properties :
#
#
# Convention : Reuss Voigt Hill
#
# Bulk Modulus (GPa) = 35.26936 46.47411 40.87174
# Shear Modulus (GPa) = 18.65474 21.04774 19.85124
#
# Velocity S-wave (km/s) = 3.49415 3.71150 3.60446
# Velocity P-wave (km/s) = 6.27389 6.98449 6.63870
#
# Compressibility (1/GPa) = 0.02835322
#
# Stress axis : x y z
#
# Youngs Moduli (GPa) = 71.64757 34.02733 48.73789
#
# Poissons Ratio (x) = 0.12696 0.41413
# Poissons Ratio (y) = 0.26732 0.26937
# Poissons Ratio (z) = 0.60880 0.18807
#
# Static dielectric constant tensor:
#      x y z
#    x 3.375350 0.000000 0.000000 
#    y 0.000000 2.830950 0.000000 
#    z 0.000000 0.000000 2.780170 
# 
# 
# High freq. dielectric constant tensor:
#      x y z
#    x 1.580070 0.000000 0.000000 
#    y 0.000000 1.586880 0.000000 
#    z 0.000000 0.000000 1.548780 
# 
# From -- ./inp_files/25881.got.cif
#   From: 2010.03.12/outbox.cif.g09.slc.cpg/sg44_13_cif.got.tgz:25881.got - 2010.04.14 02:36:11.
