data_PCOD8188524
_publ_section_title
;
Structure prediction by ZEFSAII (Michael W. Deem and Ramdas Pophale) SiO2 
 PCOD8188524
Probable space group: I M M 2
;
_chemical_formula_sum "Si O2"
_cell_formula_units_Z 64
_cell_length_a 14.660442
_cell_length_b 9.448619
_cell_length_c 27.322164
_cell_angle_alpha 90.000000
_cell_angle_beta 90.000000
_cell_angle_gamma 90.000000
_cell_volume 3784.691590
_symmetry_space_group_name_H-M "I M M 2"
_symmetry_group_IT_number 44
_symmetry_cell_setting 'orthorhombic'
loop_
_space_group_symop_operation_xyz
x,y,z
-x,-y,z
-x,y,z
x,-y,z
1/2+x,1/2+y,1/2+z
1/2-x,1/2-y,1/2+z
1/2-x,1/2+y,1/2+z
1/2+x,1/2-y,1/2+z
loop_
_atom_site_type_symbol
_atom_site_label
_atom_site_fract_x
_atom_site_fract_y
_atom_site_fract_z
Si Si1 0.598326 0.332276 0.976290
Si Si2 0.346880 0.343582 0.079193
Si Si3 0.604727 0.662561 0.245517
Si Si4 0.709077 0.831947 0.167233
Si Si5 0.103577 0.162641 0.859367
Si Si6 0.900983 0.838087 0.126274
Si Si7 0.213027 0.332273 0.936646
Si Si8 0.145202 0.654430 0.039864
O O1 0.500000 0.288306 0.952990
O O2 0.609982 0.500000 0.978801
O O3 0.683135 0.273658 0.944570
O O4 0.598170 0.279695 0.032897
O O5 0.383375 0.500000 0.095539
O O6 0.353061 0.233661 0.123992
O O7 0.244807 0.361285 0.061436
O O8 0.500000 0.701428 0.232939
O O9 0.624305 0.500000 0.231021
O O10 0.674497 0.765316 0.217691
O O11 0.623815 0.686495 0.302494
O O12 0.816103 0.787543 0.159959
O O13 0.695861 0.000000 0.168485
O O14 0.173432 0.258836 0.888955
O O15 0.000000 0.207765 0.871496
O O16 0.119189 0.000000 0.873803
O O17 0.909999 0.760678 0.074063
O O18 0.000000 0.816917 0.153059
O O19 0.883523 0.000000 0.112935
O O20 0.212676 0.500000 0.928469
O O21 0.151556 0.290842 0.983827
O O22 0.097503 0.500000 0.040814
#
# Coordination Sequence:
#
# PCOD8188524 Si02
#       8
#     8   8   8   8   8   8   8   8
#     4   8  14  26  45  68  94 126 162 191 214 254
#     4   8  14  26  43  62  88 124 160 188 216 255
#     4   9  19  36  54  69  87 114 148 185 228 281
#     4  10  19  30  47  71  96 120 149 190 234 270
#     4   9  19  35  52  69  89 115 148 185 228 280
#     4   9  18  31  45  64  94 130 161 186 217 262
#     4   9  17  29  47  71  96 121 151 190 232 267
#     4   8  15  27  41  61  90 121 155 192 223 254
#
# _framework density 16.910229000000001
#
# number of rings (size 3 to 8) (size 9 to 14) (size 15 to 20)
#    0.000    3.250    0.000    2.625    0.000    3.250 
#    0.000    6.875    0.000    1.875    0.000    5.250 
#    0.000    0.000    0.000    0.000    0.000    0.000 
#
# Total GULP energy -396477.888404 kJ/mol
# GULP energy per Si atom -12389.934013 kJ/mol
# Density = 1.687174 g / cm^3
# Si number density = 16.910229 Si / 1000 Ang^3
#
#
#
# Elastic Constant Matrix: (Units=GPa)
#
#
# Indices 1 2 3 4 5 6 
#
# 1 104.9984 41.2587 52.3545 0.0000 0.0000 0.0000
# 2 41.2587 62.8041 43.7628 0.0000 0.0000 0.0000
# 3 52.3545 43.7628 82.3061 0.0000 0.0000 0.0000
# 4 0.0000 0.0000 0.0000 29.5155 0.0000 0.0000
# 5 0.0000 0.0000 0.0000 0.0000 22.9729 0.0000
# 6 0.0000 0.0000 0.0000 0.0000 0.0000 19.3446
#
#
#
# Elastic Compliance Matrix: (Units=1/GPa)
#
#
# Indices 1 2 3 4 5 6 
#
# 1 0.014894 -0.005056 -0.006786 0.000000 0.000000 0.000000
# 2 -0.005056 0.027011 -0.011145 0.000000 0.000000 0.000000
# 3 -0.006786 -0.011145 0.022392 0.000000 0.000000 0.000000
# 4 0.000000 0.000000 0.000000 0.033880 0.000000 0.000000
# 5 0.000000 0.000000 0.000000 0.000000 0.043530 0.000000
# 6 0.000000 0.000000 0.000000 0.000000 0.000000 0.051694
#
#
# Mechanical properties :
#
#
# Convention : Reuss Voigt Hill
#
# Bulk Modulus (GPa) = 54.57866 58.31785 56.44825
# Shear Modulus (GPa) = 20.36797 21.88210 21.12504
#
# Velocity S-wave (km/s) = 3.47432 3.60115 3.53830
# Velocity P-wave (km/s) = 6.95990 7.20087 7.08141
#
# Compressibility (1/GPa) = 0.01832218
#
# Stress axis : x y z
#
# Youngs Moduli (GPa) = 67.13961 37.02254 44.65838
#
# Poissons Ratio (x) = 0.18720 0.30304
# Poissons Ratio (y) = 0.33948 0.49774
# Poissons Ratio (z) = 0.45559 0.41263
#
# Static dielectric constant tensor:
#      x y z
#    x 3.314980 0.000000 0.000000 
#    y 0.000000 3.113550 0.000000 
#    z 0.000000 0.000000 3.034690 
# 
# 
# High freq. dielectric constant tensor:
#      x y z
#    x 1.651860 0.000000 0.000000 
#    y 0.000000 1.635990 0.000000 
#    z 0.000000 0.000000 1.628290 
# 
# From -- ./inp_files/27376.got.cif
#   From: 2010.03.12/outbox.cif.g09.slc.cpg/sg44_14_cif.got.tgz:27376.got - 2010.04.14 02:36:11.
