data_PCOD8188214
_publ_section_title
;
Structure prediction by ZEFSAII (Michael W. Deem and Ramdas Pophale) SiO2 
 PCOD8188214
Probable space group: I M M 2
;
_chemical_formula_sum "Si O2"
_cell_formula_units_Z 56
_cell_length_a 18.400773
_cell_length_b 14.184913
_cell_length_c 12.826464
_cell_angle_alpha 90.000000
_cell_angle_beta 90.000000
_cell_angle_gamma 90.000000
_cell_volume 3347.878519
_symmetry_space_group_name_H-M "I M M 2"
_symmetry_group_IT_number 44
_symmetry_cell_setting 'orthorhombic'
loop_
_space_group_symop_operation_xyz
x,y,z
-x,-y,z
-x,y,z
x,-y,z
1/2+x,1/2+y,1/2+z
1/2-x,1/2-y,1/2+z
1/2-x,1/2+y,1/2+z
1/2+x,1/2-y,1/2+z
loop_
_atom_site_type_symbol
_atom_site_label
_atom_site_fract_x
_atom_site_fract_y
_atom_site_fract_z
Si Si1 0.083748 0.391640 0.978450
Si Si2 0.584220 0.207963 0.086076
Si Si3 0.585813 0.775039 0.680721
Si Si4 0.413743 0.894633 0.876910
Si Si5 0.665234 0.108682 0.269554
Si Si6 0.664711 0.607330 0.767383
Si Si7 0.582916 0.394663 0.978741
O O1 0.096582 0.500000 0.010813
O O2 0.132899 0.362346 0.881031
O O3 0.000000 0.374431 0.948403
O O4 0.107912 0.327498 0.074964
O O5 0.500000 0.184851 0.107400
O O6 0.630474 0.175399 0.183593
O O7 0.612428 0.154500 0.983058
O O8 0.597487 0.319985 0.070823
O O9 0.500000 0.758520 0.687598
O O10 0.615095 0.836773 0.777644
O O11 0.626259 0.674426 0.682801
O O12 0.500000 0.898019 0.872530
O O13 0.381145 0.000000 0.872798
O O14 0.750286 0.127714 0.271183
O O15 0.646299 0.000000 0.244240
O O16 0.648229 0.500000 0.734076
O O17 0.633612 0.628861 0.881522
O O18 0.500000 0.383909 0.938946
O O19 0.597826 0.500000 0.022296
#
# Coordination Sequence:
#
# PCOD8188214 Si02
#       7
#     8   8   8   8   8   8   8
#     4   9  18  33  53  74  97 127 162 200 240 290
#     4  10  18  30  51  76 100 128 161 201 248 294
#     4  10  18  31  50  73  98 125 162 206 248 287
#     4   9  16  26  44  73 102 123 149 195 253 299
#     4  10  21  34  48  71 102 135 167 196 236 293
#     4  10  20  33  49  71  99 132 166 203 244 288
#     4   9  17  31  52  77 101 125 162 209 249 287
#
# _framework density 16.727011000000001
#
# number of rings (size 3 to 8) (size 9 to 14) (size 15 to 20)
#    0.000    2.429    1.429    1.714    0.000    5.143 
#    0.000    0.000    0.000    1.714    0.000    2.000 
#    0.000    0.000    0.000    0.000    0.000    0.000 
#
# Total GULP energy -347224.850405 kJ/mol
# GULP energy per Si atom -12400.887514 kJ/mol
# Density = 1.668894 g / cm^3
# Si number density = 16.727011 Si / 1000 Ang^3
#
#
#
# Elastic Constant Matrix: (Units=GPa)
#
#
# Indices 1 2 3 4 5 6 
#
# 1 67.5443 52.8138 55.1241 0.0000 0.0000 0.0000
# 2 52.8138 122.9226 74.6469 0.0000 0.0000 0.0000
# 3 55.1241 74.6469 119.4752 0.0000 0.0000 0.0000
# 4 0.0000 0.0000 0.0000 27.3548 0.0000 0.0000
# 5 0.0000 0.0000 0.0000 0.0000 16.3088 0.0000
# 6 0.0000 0.0000 0.0000 0.0000 0.0000 20.5387
#
#
#
# Elastic Compliance Matrix: (Units=1/GPa)
#
#
# Indices 1 2 3 4 5 6 
#
# 1 0.026535 -0.006391 -0.008250 0.000000 0.000000 0.000000
# 2 -0.006391 0.014648 -0.006203 0.000000 0.000000 0.000000
# 3 -0.008250 -0.006203 0.016052 0.000000 0.000000 0.000000
# 4 0.000000 0.000000 0.000000 0.036557 0.000000 0.000000
# 5 0.000000 0.000000 0.000000 0.000000 0.061317 0.000000
# 6 0.000000 0.000000 0.000000 0.000000 0.000000 0.048689
#
#
# Mechanical properties :
#
#
# Convention : Reuss Voigt Hill
#
# Bulk Modulus (GPa) = 64.32102 75.01242 69.66672
# Shear Modulus (GPa) = 19.94670 21.33095 20.63883
#
# Velocity S-wave (km/s) = 3.45698 3.57492 3.51645
# Velocity P-wave (km/s) = 7.38046 7.87290 7.63065
#
# Compressibility (1/GPa) = 0.01554702
#
# Stress axis : x y z
#
# Youngs Moduli (GPa) = 37.68586 68.26804 62.29706
#
# Poissons Ratio (x) = 0.43630 0.51395
# Poissons Ratio (y) = 0.24085 0.38645
# Poissons Ratio (z) = 0.31091 0.42349
#
# Static dielectric constant tensor:
#      x y z
#    x 2.942860 0.000000 0.000000 
#    y 0.000000 3.360070 0.000000 
#    z 0.000000 0.000000 2.997890 
# 
# 
# High freq. dielectric constant tensor:
#      x y z
#    x 1.624240 0.000000 0.000000 
#    y 0.000000 1.652480 0.000000 
#    z 0.000000 0.000000 1.630340 
# 
# From -- ./inp_files/13218.got.cif
#   From: 2010.03.12/outbox.cif.g09.slc.cpg/sg44_7_cif.got.tgz:13218.got - 2010.04.14 02:36:11.
