data_PCOD8188660
_publ_section_title
;
Structure prediction by ZEFSAII (Michael W. Deem and Ramdas Pophale) SiO2 
 PCOD8188660
Probable space group: I M M 2
;
_chemical_formula_sum "Si O2"
_cell_formula_units_Z 40
_cell_length_a 9.125194
_cell_length_b 10.696800
_cell_length_c 22.087313
_cell_angle_alpha 90.000000
_cell_angle_beta 90.000000
_cell_angle_gamma 90.000000
_cell_volume 2155.950909
_symmetry_space_group_name_H-M "I M M 2"
_symmetry_group_IT_number 44
_symmetry_cell_setting 'orthorhombic'
loop_
_space_group_symop_operation_xyz
x,y,z
-x,-y,z
-x,y,z
x,-y,z
1/2+x,1/2+y,1/2+z
1/2-x,1/2-y,1/2+z
1/2-x,1/2+y,1/2+z
1/2+x,1/2-y,1/2+z
loop_
_atom_site_type_symbol
_atom_site_label
_atom_site_fract_x
_atom_site_fract_y
_atom_site_fract_z
Si Si1 0.832551 0.355411 0.213010
Si Si2 0.156206 0.500000 0.728609
Si Si3 0.168468 0.000000 0.051172
Si Si4 0.164765 0.301005 0.626645
Si Si5 0.674092 0.772790 0.844935
Si Si6 0.829434 0.000000 0.342744
Si Si7 0.168036 0.000000 0.908186
O O1 0.810013 0.500000 0.227537
O O2 0.743505 0.324052 0.151174
O O3 0.780834 0.284034 0.274199
O O4 0.000000 0.321649 0.198957
O O5 0.162465 0.380299 0.687027
O O6 0.294664 0.500000 0.771808
O O7 0.000000 0.500000 0.764629
O O8 0.246505 0.873676 0.074647
O O9 0.181381 0.000000 0.979781
O O10 0.000000 0.000000 0.073109
O O11 0.000000 0.272933 0.602699
O O12 0.500000 0.792212 0.852228
O O13 0.726692 0.633924 0.869268
O O14 0.755341 0.875355 0.884435
O O15 0.000000 0.000000 0.350476
O O16 0.000000 0.000000 0.886708
#
# Coordination Sequence:
#
# PCOD8188660 Si02
#       7
#     8   4   4   8   8   4   4
#     4  10  19  32  52  81 116 155 191 226 283 350
#     4   9  17  27  43  73 109 136 164 210 269 325
#     4  10  22  40  61  81 105 144 197 243 286 346
#     4  10  20  33  52  82 110 138 181 232 289 336
#     4  10  20  35  56  85 118 155 195 235 285 346
#     4  10  19  31  52  81 112 148 187 224 275 339
#     4  11  24  40  60  85 112 152 202 245 292 340
#
# _framework density 18.553297000000001
#
# number of rings (size 3 to 8) (size 9 to 14) (size 15 to 20)
#    0.000    2.000    3.000    1.800    0.000    5.200 
#    0.000    0.000    2.200    0.000    0.000    0.000 
#    0.000    0.000    0.000    0.000    0.000    0.000 
#
# Total GULP energy -247797.159898 kJ/mol
# GULP energy per Si atom -12389.857995 kJ/mol
# Density = 1.851107 g / cm^3
# Si number density = 18.553297 Si / 1000 Ang^3
#
#
#
# Elastic Constant Matrix: (Units=GPa)
#
#
# Indices 1 2 3 4 5 6 
#
# 1 80.7384 45.0771 39.7839 0.0000 0.0000 0.0000
# 2 45.0771 121.5110 35.5870 0.0000 0.0000 0.0000
# 3 39.7839 35.5870 58.3528 0.0000 0.0000 0.0000
# 4 0.0000 0.0000 0.0000 18.1609 0.0000 0.0000
# 5 0.0000 0.0000 0.0000 0.0000 26.7346 0.0000
# 6 0.0000 0.0000 0.0000 0.0000 0.0000 27.3045
#
#
#
# Elastic Compliance Matrix: (Units=1/GPa)
#
#
# Indices 1 2 3 4 5 6 
#
# 1 0.020295 -0.004232 -0.011255 0.000000 0.000000 0.000000
# 2 -0.004232 0.010902 -0.003763 0.000000 0.000000 0.000000
# 3 -0.011255 -0.003763 0.027106 0.000000 0.000000 0.000000
# 4 0.000000 0.000000 0.000000 0.055063 0.000000 0.000000
# 5 0.000000 0.000000 0.000000 0.000000 0.037405 0.000000
# 6 0.000000 0.000000 0.000000 0.000000 0.000000 0.036624
#
#
# Mechanical properties :
#
#
# Convention : Reuss Voigt Hill
#
# Bulk Modulus (GPa) = 50.50319 55.72199 53.11259
# Shear Modulus (GPa) = 21.50571 23.78364 22.64467
#
# Velocity S-wave (km/s) = 3.40830 3.58426 3.49738
# Velocity P-wave (km/s) = 6.53975 6.87226 6.70806
#
# Compressibility (1/GPa) = 0.01980073
#
# Stress axis : x y z
#
# Youngs Moduli (GPa) = 49.27368 91.72720 36.89242
#
# Poissons Ratio (x) = 0.38823 0.41524
# Poissons Ratio (y) = 0.20855 0.13883
# Poissons Ratio (z) = 0.55460 0.34517
#
# Static dielectric constant tensor:
#      x y z
#    x 3.661480 0.000000 0.000000 
#    y 0.000000 4.099950 0.000000 
#    z 0.000000 0.000000 3.022240 
# 
# 
# High freq. dielectric constant tensor:
#      x y z
#    x 1.722800 0.000000 0.000000 
#    y 0.000000 1.729770 0.000000 
#    z 0.000000 0.000000 1.678920 
# 
# From -- ./inp_files/22816.got.cif
#   From: 2010.03.12/outbox.cif.g09.slc.cpg/sg44_12_cif.got.tgz:22816.got - 2010.04.14 02:36:11.
