data_PCOD8188671
_publ_section_title
;
Structure prediction by ZEFSAII (Michael W. Deem and Ramdas Pophale) SiO2 
 PCOD8188671
Probable space group: I M M 2
;
_chemical_formula_sum "Si O2"
_cell_formula_units_Z 64
_cell_length_a 8.910456
_cell_length_b 30.567649
_cell_length_c 14.273948
_cell_angle_alpha 90.000000
_cell_angle_beta 90.000000
_cell_angle_gamma 90.000000
_cell_volume 3887.819360
_symmetry_space_group_name_H-M "I M M 2"
_symmetry_group_IT_number 44
_symmetry_cell_setting 'orthorhombic'
loop_
_space_group_symop_operation_xyz
x,y,z
-x,-y,z
-x,y,z
x,-y,z
1/2+x,1/2+y,1/2+z
1/2-x,1/2-y,1/2+z
1/2-x,1/2+y,1/2+z
1/2+x,1/2-y,1/2+z
loop_
_atom_site_type_symbol
_atom_site_label
_atom_site_fract_x
_atom_site_fract_y
_atom_site_fract_z
Si Si1 0.173689 0.049586 0.667600
Si Si2 0.670614 0.265095 0.767338
Si Si3 0.175844 0.782581 0.057161
Si Si4 0.667937 0.364379 0.448391
Si Si5 0.179513 0.952234 0.880163
Si Si6 0.674010 0.698492 0.963769
Si Si7 0.832683 0.177926 0.750860
Si Si8 0.823752 0.369277 0.085850
O O1 0.236436 0.054124 0.773473
O O2 0.263595 0.081523 0.598422
O O3 0.000000 0.063399 0.664419
O O4 0.195893 0.000000 0.631723
O O5 0.500000 0.247397 0.770317
O O6 0.702891 0.288083 0.667979
O O7 0.699257 0.298759 0.851974
O O8 0.783584 0.225539 0.784530
O O9 0.000000 0.778272 0.031547
O O10 0.248530 0.826418 0.009320
O O11 0.257026 0.739730 0.018758
O O12 0.500000 0.367688 0.488776
O O13 0.742091 0.413388 0.448895
O O14 0.667482 0.353403 0.339225
O O15 0.000000 0.950299 0.878161
O O16 0.233231 0.000000 0.917443
O O17 0.500000 0.697007 0.989912
O O18 0.751608 0.653312 0.994624
O O19 0.716755 0.160436 0.674837
O O20 0.000000 0.180052 0.707354
O O21 0.000000 0.370633 0.072461
#
# Coordination Sequence:
#
# PCOD8188671 Si02
#       8
#     8   8   8   8   8   8   8   8
#     4   9  17  31  51  73  98 127 160 199 243 295
#     4  10  21  34  47  67  97 127 162 207 250 286
#     4  10  19  32  48  69  95 125 159 202 251 292
#     4   9  16  26  44  69  95 126 161 192 235 289
#     4   8  13  23  42  69  97 123 155 193 229 276
#     4  11  22  34  48  68  93 127 168 204 243 294
#     4  11  19  29  48  71  96 129 166 199 238 291
#     4  12  23  33  47  70 100 134 167 204 243 286
#
# _framework density 16.461670000000002
#
# number of rings (size 3 to 8) (size 9 to 14) (size 15 to 20)
#    0.000    2.000    3.750    2.625    0.000    0.750 
#    0.000    0.000    0.000    0.000    0.000    0.875 
#    0.000    5.000    0.000    0.000    0.000    0.000 
#
# Total GULP energy -396605.147771 kJ/mol
# GULP energy per Si atom -12393.910868 kJ/mol
# Density = 1.642420 g / cm^3
# Si number density = 16.461670 Si / 1000 Ang^3
#
#
#
# Elastic Constant Matrix: (Units=GPa)
#
#
# Indices 1 2 3 4 5 6 
#
# 1 66.5028 37.6664 25.8867 -0.0001 0.0000 -0.0001
# 2 37.6664 120.0112 31.5335 0.0001 0.0001 0.0000
# 3 25.8867 31.5335 68.7827 -0.0002 -0.0004 -0.0001
# 4 -0.0001 0.0001 -0.0002 26.9329 -0.0002 -0.0001
# 5 0.0000 0.0001 -0.0004 -0.0002 14.6252 0.0001
# 6 -0.0001 0.0000 -0.0001 -0.0001 0.0001 20.1376
#
#
#
# Elastic Compliance Matrix: (Units=1/GPa)
#
#
# Indices 1 2 3 4 5 6 
#
# 1 0.019820 -0.004844 -0.005238 0.000000 0.000000 0.000000
# 2 -0.004844 0.010658 -0.003063 0.000000 0.000000 0.000000
# 3 -0.005238 -0.003063 0.017914 0.000000 0.000001 0.000000
# 4 0.000000 0.000000 0.000000 0.037129 0.000001 0.000000
# 5 0.000000 0.000000 0.000001 0.000001 0.068375 0.000000
# 6 0.000000 0.000000 0.000000 0.000000 0.000000 0.049658
#
#
# Mechanical properties :
#
#
# Convention : Reuss Voigt Hill
#
# Bulk Modulus (GPa) = 45.24752 49.49668 47.37210
# Shear Modulus (GPa) = 21.07817 23.01982 22.04900
#
# Velocity S-wave (km/s) = 3.58221 3.74356 3.66377
# Velocity P-wave (km/s) = 6.68250 6.98704 6.83647
#
# Compressibility (1/GPa) = 0.02210066
#
# Stress axis : x y z
#
# Youngs Moduli (GPa) = 50.45480 93.82863 55.82150
#
# Poissons Ratio (x) = 0.45452 0.29242
# Poissons Ratio (y) = 0.24441 0.17098
# Poissons Ratio (z) = 0.26430 0.28739
#
# Static dielectric constant tensor:
#      x y z
#    x 2.944500 0.000000 0.000000 
#    y 0.000000 3.350870 0.000000 
#    z 0.000000 0.000000 3.024750 
# 
# 
# High freq. dielectric constant tensor:
#      x y z
#    x 1.613720 0.000000 0.000000 
#    y 0.000000 1.634500 0.000000 
#    z 0.000000 0.000000 1.605140 
# 
# From -- ./inp_files/17124.got.cif
#   From: 2010.03.12/outbox.cif.g09.slc.cpg/sg44_9_cif.got.tgz:17124.got - 2010.04.14 02:36:11.
