data_PCOD8188823
_publ_section_title
;
Structure prediction by ZEFSAII (Michael W. Deem and Ramdas Pophale) SiO2 
 PCOD8188823
Probable space group: I M M 2
;
_chemical_formula_sum "Si O2"
_cell_formula_units_Z 56
_cell_length_a 9.204716
_cell_length_b 18.401042
_cell_length_c 17.433570
_cell_angle_alpha 90.000000
_cell_angle_beta 90.000000
_cell_angle_gamma 90.000000
_cell_volume 2952.834728
_symmetry_space_group_name_H-M "I M M 2"
_symmetry_group_IT_number 44
_symmetry_cell_setting 'orthorhombic'
loop_
_space_group_symop_operation_xyz
x,y,z
-x,-y,z
-x,y,z
x,-y,z
1/2+x,1/2+y,1/2+z
1/2-x,1/2-y,1/2+z
1/2-x,1/2+y,1/2+z
1/2+x,1/2-y,1/2+z
loop_
_atom_site_type_symbol
_atom_site_label
_atom_site_fract_x
_atom_site_fract_y
_atom_site_fract_z
Si Si1 0.329268 0.168187 0.961880
Si Si2 0.828770 0.174903 0.522939
Si Si3 0.172996 0.580911 0.608510
Si Si4 0.326941 0.834688 0.255240
Si Si5 0.329867 0.683262 0.195544
Si Si6 0.329453 0.582808 0.330341
Si Si7 0.330149 0.916002 0.404906
O O1 0.500000 0.156810 0.950190
O O2 0.249143 0.137179 0.887956
O O3 0.290031 0.252214 0.975851
O O4 0.270383 0.124732 0.035286
O O5 0.764855 0.178438 0.609722
O O6 0.752591 0.107250 0.481853
O O7 0.000000 0.161190 0.524701
O O8 0.235813 0.500000 0.602854
O O9 0.234351 0.617158 0.685440
O O10 0.000000 0.581390 0.610061
O O11 0.500000 0.837906 0.256796
O O12 0.267750 0.752858 0.242245
O O13 0.267416 0.868080 0.334468
O O14 0.500000 0.696402 0.185971
O O15 0.295268 0.610578 0.243979
O O16 0.500000 0.586850 0.347123
O O17 0.272172 0.500000 0.338101
O O18 0.500000 0.902122 0.417299
O O19 0.297916 0.000000 0.387323
#
# Coordination Sequence:
#
# PCOD8188823 Si02
#       7
#     8   8   8   8   8   8   8
#     4  10  19  33  53  79 108 135 170 216 265 315
#     4  10  20  35  56  80 105 136 176 217 260 313
#     4   9  15  24  44  74 104 132 163 205 255 304
#     4   9  15  28  50  75 102 132 169 212 257 305
#     4   9  17  32  53  75 101 135 177 220 257 303
#     4  10  21  35  52  76 106 141 179 217 259 308
#     4  10  21  35  53  80 110 138 172 215 262 311
#
# _framework density 18.964827
#
# number of rings (size 3 to 8) (size 9 to 14) (size 15 to 20)
#    0.000    2.429    1.429    1.714    0.000    5.143 
#    0.000    2.143    0.000    1.714    0.000    0.000 
#    0.000    0.000    0.000    0.000    0.000    0.000 
#
# Total GULP energy -347155.239159 kJ/mol
# GULP energy per Si atom -12398.401399 kJ/mol
# Density = 1.892166 g / cm^3
# Si number density = 18.964827 Si / 1000 Ang^3
#
#
#
# Elastic Constant Matrix: (Units=GPa)
#
#
# Indices 1 2 3 4 5 6 
#
# 1 22.0279 25.2103 29.6328 0.0000 0.0000 0.0000
# 2 25.2103 83.7728 55.5053 0.0000 0.0000 0.0000
# 3 29.6328 55.5053 140.9434 0.0000 0.0000 0.0000
# 4 0.0000 0.0000 0.0000 35.9633 0.0000 0.0000
# 5 0.0000 0.0000 0.0000 0.0000 22.3269 0.0000
# 6 0.0000 0.0000 0.0000 0.0000 0.0000 22.6840
#
#
#
# Elastic Compliance Matrix: (Units=1/GPa)
#
#
# Indices 1 2 3 4 5 6 
#
# 1 0.077903 -0.017037 -0.009669 0.000000 0.000000 0.000000
# 2 -0.017037 0.019877 -0.004246 0.000000 0.000000 0.000000
# 3 -0.009669 -0.004246 0.010800 0.000000 0.000000 0.000000
# 4 0.000000 0.000000 0.000000 0.027806 0.000000 0.000000
# 5 0.000000 0.000000 0.000000 0.000000 0.044789 0.000000
# 6 0.000000 0.000000 0.000000 0.000000 0.000000 0.044084
#
#
# Mechanical properties :
#
#
# Convention : Reuss Voigt Hill
#
# Bulk Modulus (GPa) = 21.42452 51.93789 36.68120
# Shear Modulus (GPa) = 16.51670 25.28787 20.90228
#
# Velocity S-wave (km/s) = 2.95432 3.65555 3.32348
# Velocity P-wave (km/s) = 4.79154 6.72780 5.84047
#
# Compressibility (1/GPa) = 0.04667550
#
# Stress axis : x y z
#
# Youngs Moduli (GPa) = 12.83643 50.30825 92.59167
#
# Poissons Ratio (x) = 0.85712 0.89530
# Poissons Ratio (y) = 0.21870 0.39314
# Poissons Ratio (z) = 0.12412 0.21361
#
# Static dielectric constant tensor:
#      x y z
#    x 2.892230 0.000000 0.000000 
#    y 0.000000 3.609000 0.000000 
#    z 0.000000 0.000000 3.626690 
# 
# 
# High freq. dielectric constant tensor:
#      x y z
#    x 1.675720 0.000000 0.000000 
#    y 0.000000 1.748880 0.000000 
#    z 0.000000 0.000000 1.750640 
# 
# From -- ./inp_files/16505.got.cif
#   From: 2010.03.12/outbox.cif.g09.slc.cpg/sg44_9_cif.got.tgz:16505.got - 2010.04.14 02:36:11.
