data_PCOD8188113
_publ_section_title
;
Structure prediction by ZEFSAII (Michael W. Deem and Ramdas Pophale) SiO2 
 PCOD8188113
Probable space group: I M M 2
;
_chemical_formula_sum "Si O2"
_cell_formula_units_Z 64
_cell_length_a 13.140502
_cell_length_b 26.421760
_cell_length_c 11.261597
_cell_angle_alpha 90.000000
_cell_angle_beta 90.000000
_cell_angle_gamma 90.000000
_cell_volume 3909.972312
_symmetry_space_group_name_H-M "I M M 2"
_symmetry_group_IT_number 44
_symmetry_cell_setting 'orthorhombic'
loop_
_space_group_symop_operation_xyz
x,y,z
-x,-y,z
-x,y,z
x,-y,z
1/2+x,1/2+y,1/2+z
1/2-x,1/2-y,1/2+z
1/2-x,1/2+y,1/2+z
1/2+x,1/2-y,1/2+z
loop_
_atom_site_type_symbol
_atom_site_label
_atom_site_fract_x
_atom_site_fract_y
_atom_site_fract_z
Si Si1 0.614360 0.254486 0.357120
Si Si2 0.385239 0.787274 0.609482
Si Si3 0.121192 0.056042 0.918333
Si Si4 0.699988 0.651780 0.015668
Si Si5 0.698472 0.703859 0.775940
Si Si6 0.883807 0.107448 0.158057
Si Si7 0.384781 0.643293 0.261252
Si Si8 0.383381 0.442476 0.901351
O O1 0.500000 0.248543 0.307578
O O2 0.617858 0.250719 0.498737
O O3 0.680318 0.212081 0.288855
O O4 0.665147 0.308639 0.326922
O O5 0.500000 0.808942 0.627483
O O6 0.308489 0.833506 0.576843
O O7 0.354802 0.754863 0.726358
O O8 0.162833 0.090347 0.808418
O O9 0.000000 0.051226 0.920581
O O10 0.169103 0.000000 0.905103
O O11 0.159919 0.082071 0.039444
O O12 0.618542 0.651463 0.120837
O O13 0.661584 0.689890 0.911039
O O14 0.698311 0.594487 0.964869
O O15 0.681499 0.657200 0.688087
O O16 0.875616 0.065376 0.260324
O O17 0.000000 0.125736 0.141880
O O18 0.500000 0.642159 0.304998
O O19 0.500000 0.431070 0.942854
O O20 0.353544 0.500000 0.932367
#
# Coordination Sequence:
#
# PCOD8188113 Si02
#       8
#     8   8   8   8   8   8   8   8
#     4   9  18  31  46  65  91 124 157 193 237 277
#     4  10  19  32  49  67  90 123 162 199 231 273
#     4   9  17  28  44  67  94 125 157 188 225 275
#     4  10  20  31  45  69  96 123 156 196 235 283
#     4  10  18  30  48  68  91 125 160 191 232 283
#     4   9  16  27  45  70  97 123 156 195 230 272
#     4  10  18  29  43  62  92 124 152 186 230 280
#     4   9  17  29  46  68  96 128 157 192 240 286
#
# _framework density 16.368402
#
# number of rings (size 3 to 8) (size 9 to 14) (size 15 to 20)
#    0.000    2.500    1.250    1.875    0.000    5.500 
#    0.000    1.250    0.000    0.375    0.000    0.000 
#    0.000    2.500    0.000    0.000    0.000    0.000 
#
# Total GULP energy -396462.851150 kJ/mol
# GULP energy per Si atom -12389.464098 kJ/mol
# Density = 1.633115 g / cm^3
# Si number density = 16.368402 Si / 1000 Ang^3
#
#
#
# Elastic Constant Matrix: (Units=GPa)
#
#
# Indices 1 2 3 4 5 6 
#
# 1 49.4001 44.1164 29.9315 0.0002 0.0000 0.0000
# 2 44.1164 118.5048 53.5587 0.0006 0.0000 0.0000
# 3 29.9315 53.5587 88.6394 0.0023 -0.0003 -0.0001
# 4 0.0002 0.0006 0.0023 25.7338 -0.0001 -0.0001
# 5 0.0000 0.0000 -0.0003 -0.0001 17.5215 0.0000
# 6 0.0000 0.0000 -0.0001 -0.0001 0.0000 20.6813
#
#
#
# Elastic Compliance Matrix: (Units=1/GPa)
#
#
# Indices 1 2 3 4 5 6 
#
# 1 0.031820 -0.009615 -0.004935 0.000000 0.000000 0.000000
# 2 -0.009615 0.014514 -0.005523 0.000000 0.000000 0.000000
# 3 -0.004935 -0.005523 0.016285 -0.000001 0.000000 0.000000
# 4 0.000000 0.000000 -0.000001 0.038859 0.000000 0.000000
# 5 0.000000 0.000000 0.000000 0.000000 0.057073 0.000000
# 6 0.000000 0.000000 0.000000 0.000000 0.000000 0.048353
#
#
# Mechanical properties :
#
#
# Convention : Reuss Voigt Hill
#
# Bulk Modulus (GPa) = 44.49853 56.86194 50.68024
# Shear Modulus (GPa) = 19.64313 21.38317 20.51315
#
# Velocity S-wave (km/s) = 3.46795 3.61829 3.54392
# Velocity P-wave (km/s) = 6.57877 7.22982 6.91197
#
# Compressibility (1/GPa) = 0.02247265
#
# Stress axis : x y z
#
# Youngs Moduli (GPa) = 31.42687 68.89789 61.40522
#
# Poissons Ratio (x) = 0.66248 0.30303
# Poissons Ratio (y) = 0.30218 0.33914
# Poissons Ratio (z) = 0.15509 0.38053
#
# Static dielectric constant tensor:
#      x y z
#    x 2.857050 0.000000 0.000000 
#    y 0.000000 3.221330 0.000000 
#    z 0.000000 0.000000 3.183720 
# 
# 
# High freq. dielectric constant tensor:
#      x y z
#    x 1.580860 0.000000 0.000000 
#    y 0.000000 1.626910 0.000000 
#    z 0.000000 0.000000 1.638570 
# 
# From -- ./inp_files/12702.got.cif
#   From: 2010.03.12/outbox.cif.g09.slc.cpg/sg44_7_cif.got.tgz:12702.got - 2010.04.14 02:36:11.
