data_PCOD8188125
_publ_section_title
;
Structure prediction by ZEFSAII (Michael W. Deem and Ramdas Pophale) SiO2 
 PCOD8188125
Probable space group: I M M 2
;
_chemical_formula_sum "Si O2"
_cell_formula_units_Z 64
_cell_length_a 17.251686
_cell_length_b 14.323021
_cell_length_c 15.533579
_cell_angle_alpha 90.000000
_cell_angle_beta 90.000000
_cell_angle_gamma 90.000000
_cell_volume 3838.289289
_symmetry_space_group_name_H-M "I M M 2"
_symmetry_group_IT_number 44
_symmetry_cell_setting 'orthorhombic'
loop_
_space_group_symop_operation_xyz
x,y,z
-x,-y,z
-x,y,z
x,-y,z
1/2+x,1/2+y,1/2+z
1/2-x,1/2-y,1/2+z
1/2-x,1/2+y,1/2+z
1/2+x,1/2-y,1/2+z
loop_
_atom_site_type_symbol
_atom_site_label
_atom_site_fract_x
_atom_site_fract_y
_atom_site_fract_z
Si Si1 0.088933 0.599987 0.592490
Si Si2 0.092028 0.103735 0.698745
Si Si3 0.591395 0.272536 0.358649
Si Si4 0.092881 0.208429 0.531038
Si Si5 0.408523 0.606084 0.863625
Si Si6 0.173880 0.890533 0.197317
Si Si7 0.659250 0.893465 0.267549
Si Si8 0.909362 0.891147 0.026223
O O1 0.130490 0.500000 0.570233
O O2 0.125647 0.685574 0.538950
O O3 0.093027 0.617921 0.695179
O O4 0.000000 0.592368 0.567123
O O5 0.119535 0.162701 0.780399
O O6 0.124858 0.149291 0.611435
O O7 0.000000 0.099280 0.695951
O O8 0.126943 0.000000 0.706734
O O9 0.500000 0.252126 0.355930
O O10 0.638215 0.174536 0.347519
O O11 0.614108 0.325511 0.446218
O O12 0.125411 0.165055 0.443240
O O13 0.000000 0.207931 0.533195
O O14 0.500000 0.610717 0.861758
O O15 0.379287 0.500000 0.875519
O O16 0.376536 0.651275 0.775939
O O17 0.262581 0.864621 0.216386
O O18 0.142296 0.852511 0.105961
O O19 0.159114 0.000000 0.194606
O O20 0.664900 0.000000 0.302764
O O21 0.000000 0.879766 0.049233
O O22 0.891914 0.000000 0.003900
#
# Coordination Sequence:
#
# PCOD8188125 Si02
#       8
#     8   8   8   8   8   8   8   8
#     4   9  16  27  43  61  84 116 152 188 221 255
#     4   9  15  23  37  60  91 118 139 173 223 277
#     4  10  18  29  45  69  95 121 156 193 233 282
#     4   9  15  24  39  63  89 113 143 178 218 268
#     4   9  16  27  45  67  90 116 147 184 225 272
#     4   9  18  32  47  66  93 121 154 193 233 275
#     4  10  19  31  45  63  91 123 155 192 231 269
#     4   9  17  31  52  74  95 121 155 197 240 282
#
# _framework density 16.674095999999999
#
# number of rings (size 3 to 8) (size 9 to 14) (size 15 to 20)
#    0.000    2.750    1.250    1.500    0.000    5.250 
#    2.250    0.000    0.000    0.000    0.000    1.750 
#    0.000    4.000    0.000    0.000    0.000    0.000 
#
# Total GULP energy -396561.241647 kJ/mol
# GULP energy per Si atom -12392.538801 kJ/mol
# Density = 1.663614 g / cm^3
# Si number density = 16.674096 Si / 1000 Ang^3
#
#
#
# Elastic Constant Matrix: (Units=GPa)
#
#
# Indices 1 2 3 4 5 6 
#
# 1 30.7265 27.9089 32.1537 0.0000 0.0000 0.0000
# 2 27.9089 113.4249 65.8344 0.0000 0.0000 0.0000
# 3 32.1537 65.8344 138.6927 0.0000 0.0000 0.0000
# 4 0.0000 0.0000 0.0000 19.7592 0.0000 0.0000
# 5 0.0000 0.0000 0.0000 0.0000 16.9288 0.0000
# 6 0.0000 0.0000 0.0000 0.0000 0.0000 12.0681
#
#
#
# Elastic Compliance Matrix: (Units=1/GPa)
#
#
# Indices 1 2 3 4 5 6 
#
# 1 0.046891 -0.007216 -0.007446 0.000000 0.000000 0.000000
# 2 -0.007216 0.013280 -0.004631 0.000000 0.000000 0.000000
# 3 -0.007446 -0.004631 0.011134 0.000000 0.000000 0.000000
# 4 0.000000 0.000000 0.000000 0.050609 0.000000 0.000000
# 5 0.000000 0.000000 0.000000 0.000000 0.059071 0.000000
# 6 0.000000 0.000000 0.000000 0.000000 0.000000 0.082863
#
#
# Mechanical properties :
#
#
# Convention : Reuss Voigt Hill
#
# Bulk Modulus (GPa) = 30.56202 59.40423 44.98312
# Shear Modulus (GPa) = 15.95709 20.21436 18.08572
#
# Velocity S-wave (km/s) = 3.09690 3.48562 3.29699
# Velocity P-wave (km/s) = 5.58180 7.20440 6.44437
#
# Compressibility (1/GPa) = 0.03272035
#
# Stress axis : x y z
#
# Youngs Moduli (GPa) = 21.32598 75.30278 89.81191
#
# Poissons Ratio (x) = 0.54340 0.66870
# Poissons Ratio (y) = 0.15389 0.41588
# Poissons Ratio (z) = 0.15878 0.34870
#
# Static dielectric constant tensor:
#      x y z
#    x 2.769910 0.000000 0.000000 
#    y 0.000000 3.319180 0.000000 
#    z 0.000000 0.000000 3.199140 
# 
# 
# High freq. dielectric constant tensor:
#      x y z
#    x 1.603860 0.000000 0.000000 
#    y 0.000000 1.634010 0.000000 
#    z 0.000000 0.000000 1.634030 
# 
# From -- ./inp_files/18600.got.cif
#   From: 2010.03.12/outbox.cif.g09.slc.cpg/sg44_10_cif.got.tgz:18600.got - 2010.04.14 02:36:11.
