data_PCOD8188535
_publ_section_title
;
Structure prediction by ZEFSAII (Michael W. Deem and Ramdas Pophale) SiO2 
 PCOD8188535
Probable space group: I M M 2
;
_chemical_formula_sum "Si O2"
_cell_formula_units_Z 56
_cell_length_a 14.176634
_cell_length_b 8.850139
_cell_length_c 26.041860
_cell_angle_alpha 90.000000
_cell_angle_beta 90.000000
_cell_angle_gamma 90.000000
_cell_volume 3267.346690
_symmetry_space_group_name_H-M "I M M 2"
_symmetry_group_IT_number 44
_symmetry_cell_setting 'orthorhombic'
loop_
_space_group_symop_operation_xyz
x,y,z
-x,-y,z
-x,y,z
x,-y,z
1/2+x,1/2+y,1/2+z
1/2-x,1/2-y,1/2+z
1/2-x,1/2+y,1/2+z
1/2+x,1/2-y,1/2+z
loop_
_atom_site_type_symbol
_atom_site_label
_atom_site_fract_x
_atom_site_fract_y
_atom_site_fract_z
Si Si1 0.891590 0.174402 0.352330
Si Si2 0.892946 0.677921 0.246230
Si Si3 0.218413 0.667167 0.440617
Si Si4 0.392946 0.822079 0.412555
Si Si5 0.388779 0.000000 0.019709
Si Si6 0.391590 0.674402 0.306455
Si Si7 0.111221 0.500000 0.639077
Si Si8 0.718413 0.832833 0.218168
O O1 0.860776 0.273754 0.303421
O O2 0.833939 0.221619 0.402078
O O3 0.000000 0.205922 0.365233
O O4 0.872222 0.000000 0.339805
O O5 0.883758 0.500000 0.240159
O O6 0.821772 0.760967 0.206663
O O7 0.000000 0.731919 0.235040
O O8 0.230039 0.500000 0.415667
O O9 0.321772 0.739033 0.452122
O O10 0.158465 0.649483 0.493605
O O11 0.500000 0.768081 0.423746
O O12 0.360776 0.773754 0.355364
O O13 0.383758 0.000000 0.418626
O O14 0.500000 0.000000 0.009081
O O15 0.364694 0.000000 0.079393
O O16 0.500000 0.705923 0.293553
O O17 0.372223 0.500000 0.318981
O O18 0.333939 0.721619 0.256707
O O19 0.158465 0.350517 0.665181
O O20 0.000000 0.500000 0.649705
O O21 0.730039 0.000000 0.243118
#
# Coordination Sequence:
#
# PCOD8188535 Si02
#       8
#     8   8   8   8   4   8   4   8
#     4  10  19  30  47  74 111 147 179 212 252 308
#     4  10  20  33  49  73 110 149 180 209 247 303
#     4  10  20  31  53  75 101 134 176 218 262 311
#     4  10  20  33  49  73 110 149 180 209 247 303
#     4   9  20  38  59  81 101 127 170 224 276 319
#     4  10  19  30  47  74 111 147 179 212 252 308
#     4   9  20  38  59  81 101 127 170 224 276 319
#     4  10  20  31  53  75 101 134 176 218 262 311
#
# _framework density 17.139289000000002
#
# number of rings (size 3 to 8) (size 9 to 14) (size 15 to 20)
#    0.857    1.286    0.000    4.286    0.000    2.857 
#    0.000    0.000    0.000    5.143    0.000   12.000 
#    0.000    0.000    0.000    0.000    0.000    0.000 
#
# Total GULP energy -347063.554209 kJ/mol
# GULP energy per Si atom -12395.126936 kJ/mol
# Density = 1.710028 g / cm^3
# Si number density = 17.139289 Si / 1000 Ang^3
#
#
#
# Elastic Constant Matrix: (Units=GPa)
#
#
# Indices 1 2 3 4 5 6 
#
# 1 115.5873 39.6364 65.6099 0.0000 0.0000 0.0000
# 2 39.6364 60.6590 18.9109 0.0000 0.0000 0.0000
# 3 65.6099 18.9109 74.4382 0.0000 0.0000 0.0000
# 4 0.0000 0.0000 0.0000 15.5784 0.0000 0.0000
# 5 0.0000 0.0000 0.0000 0.0000 24.0538 0.0000
# 6 0.0000 0.0000 0.0000 0.0000 0.0000 35.7479
#
#
#
# Elastic Compliance Matrix: (Units=1/GPa)
#
#
# Indices 1 2 3 4 5 6 
#
# 1 0.020698 -0.008511 -0.016081 0.000000 0.000000 0.000000
# 2 -0.008511 0.021404 0.002064 0.000000 0.000000 0.000000
# 3 -0.016081 0.002064 0.027083 0.000000 0.000000 0.000000
# 4 0.000000 0.000000 0.000000 0.064191 0.000000 0.000000
# 5 0.000000 0.000000 0.000000 0.000000 0.041574 0.000000
# 6 0.000000 0.000000 0.000000 0.000000 0.000000 0.027974
#
#
# Mechanical properties :
#
#
# Convention : Reuss Voigt Hill
#
# Bulk Modulus (GPa) = 41.44387 55.44431 48.44409
# Shear Modulus (GPa) = 19.52955 23.51118 21.52036
#
# Velocity S-wave (km/s) = 3.37925 3.70776 3.54731
# Velocity P-wave (km/s) = 6.28163 7.12387 6.71597
#
# Compressibility (1/GPa) = 0.02412902
#
# Stress axis : x y z
#
# Youngs Moduli (GPa) = 48.31375 46.72114 36.92313
#
# Poissons Ratio (x) = 0.39766 0.59376
# Poissons Ratio (y) = 0.41122 -0.07622
# Poissons Ratio (z) = 0.77693 -0.09645
#
# Static dielectric constant tensor:
#      x y z
#    x 3.578030 0.000000 0.000000 
#    y 0.000000 3.139540 0.000000 
#    z 0.000000 0.000000 2.741270 
# 
# 
# High freq. dielectric constant tensor:
#      x y z
#    x 1.688190 0.000000 0.000000 
#    y 0.000000 1.662070 0.000000 
#    z 0.000000 0.000000 1.603340 
# 
# From -- ./inp_files/27485.got.cif
#   From: 2010.03.12/outbox.cif.g09.slc.cpg/sg44_14_cif.got.tgz:27485.got - 2010.04.14 02:36:11.
