data_PCOD8188166
_publ_section_title
;
Structure prediction by ZEFSAII (Michael W. Deem and Ramdas Pophale) SiO2 
 PCOD8188166
Probable space group: I M M 2
;
_chemical_formula_sum "Si O2"
_cell_formula_units_Z 64
_cell_length_a 23.580649
_cell_length_b 8.993532
_cell_length_c 19.200040
_cell_angle_alpha 90.000000
_cell_angle_beta 90.000000
_cell_angle_gamma 90.000000
_cell_volume 4071.816253
_symmetry_space_group_name_H-M "I M M 2"
_symmetry_group_IT_number 44
_symmetry_cell_setting 'orthorhombic'
loop_
_space_group_symop_operation_xyz
x,y,z
-x,-y,z
-x,y,z
x,-y,z
1/2+x,1/2+y,1/2+z
1/2-x,1/2-y,1/2+z
1/2-x,1/2+y,1/2+z
1/2+x,1/2-y,1/2+z
loop_
_atom_site_type_symbol
_atom_site_label
_atom_site_fract_x
_atom_site_fract_y
_atom_site_fract_z
Si Si1 0.662312 0.826302 0.324660
Si Si2 0.731540 0.324959 0.914250
Si Si3 0.727643 0.672947 0.212580
Si Si4 0.937577 0.176489 0.200686
Si Si5 0.065082 0.327291 0.925802
Si Si6 0.881552 0.176050 0.058476
Si Si7 0.760902 0.326528 0.062146
Si Si8 0.832303 0.176777 0.284900
O O1 0.709350 0.770822 0.380227
O O2 0.672690 0.740210 0.251888
O O3 0.600838 0.787085 0.356345
O O4 0.668717 0.000000 0.308839
O O5 0.731561 0.500000 0.916147
O O6 0.679080 0.272184 0.865172
O O7 0.726950 0.266454 0.993661
O O8 0.732257 0.500000 0.230349
O O9 0.721492 0.700769 0.129588
O O10 0.785046 0.752796 0.235719
O O11 0.917669 0.230743 0.124853
O O12 0.894025 0.233480 0.260249
O O13 0.000000 0.243129 0.216350
O O14 0.939892 0.000000 0.201878
O O15 0.073566 0.500000 0.944551
O O16 0.000000 0.288033 0.909701
O O17 0.086925 0.232629 0.990184
O O18 0.819084 0.238845 0.067337
O O19 0.877609 0.000000 0.054834
O O20 0.776299 0.500000 0.054316
O O21 0.826874 0.000000 0.276419
#
# Coordination Sequence:
#
# PCOD8188166 Si02
#       8
#     8   8   8   8   8   8   8   8
#     4   9  17  31  48  64  87 118 150 185 225 272
#     4   8  14  26  45  62  80 111 146 179 219 263
#     4  10  19  28  44  66  90 115 145 189 230 268
#     4   9  17  28  42  62  89 119 150 184 221 259
#     4  10  20  34  50  66  88 123 162 193 223 267
#     4  11  20  29  43  65  96 125 154 188 221 262
#     4  10  18  30  45  64  91 121 153 184 223 274
#     4   9  16  29  46  62  83 114 150 185 222 268
#
# _framework density 15.717801
#
# number of rings (size 3 to 8) (size 9 to 14) (size 15 to 20)
#    0.000    2.500    2.500    1.875    0.000    1.750 
#    0.000    0.000    0.000    1.125    0.000    0.875 
#    0.000    3.000    0.000    0.000    0.000    0.000 
#
# Total GULP energy -396591.388246 kJ/mol
# GULP energy per Si atom -12393.480883 kJ/mol
# Density = 1.568203 g / cm^3
# Si number density = 15.717801 Si / 1000 Ang^3
#
#
#
# Elastic Constant Matrix: (Units=GPa)
#
#
# Indices 1 2 3 4 5 6 
#
# 1 98.3171 28.4323 68.9050 0.0000 0.0000 0.0000
# 2 28.4323 39.7054 34.8957 0.0000 0.0000 0.0000
# 3 68.9050 34.8957 129.2912 0.0000 0.0000 0.0000
# 4 0.0000 0.0000 0.0000 20.1363 0.0000 0.0000
# 5 0.0000 0.0000 0.0000 0.0000 23.8871 0.0000
# 6 0.0000 0.0000 0.0000 0.0000 0.0000 15.2493
#
#
#
# Elastic Compliance Matrix: (Units=1/GPa)
#
#
# Indices 1 2 3 4 5 6 
#
# 1 0.017123 -0.005560 -0.007625 0.000000 0.000000 0.000000
# 2 -0.005560 0.034823 -0.006435 0.000000 0.000000 0.000000
# 3 -0.007625 -0.006435 0.013535 0.000000 0.000000 0.000000
# 4 0.000000 0.000000 0.000000 0.049662 0.000000 0.000000
# 5 0.000000 0.000000 0.000000 0.000000 0.041864 0.000000
# 6 0.000000 0.000000 0.000000 0.000000 0.000000 0.065577
#
#
# Mechanical properties :
#
#
# Convention : Reuss Voigt Hill
#
# Bulk Modulus (GPa) = 38.10993 59.08665 48.59829
# Shear Modulus (GPa) = 18.47946 20.85991 19.66968
#
# Velocity S-wave (km/s) = 3.43257 3.64696 3.54139
# Velocity P-wave (km/s) = 6.32527 7.44363 6.90712
#
# Compressibility (1/GPa) = 0.02623988
#
# Stress axis : x y z
#
# Youngs Moduli (GPa) = 58.40103 28.71677 73.88229
#
# Poissons Ratio (x) = 0.15967 0.56335
# Poissons Ratio (y) = 0.32472 0.47546
# Poissons Ratio (z) = 0.44530 0.18480
#
# Static dielectric constant tensor:
#      x y z
#    x 3.084240 0.000000 0.000000 
#    y 0.000000 2.847460 0.000000 
#    z 0.000000 0.000000 3.411090 
# 
# 
# High freq. dielectric constant tensor:
#      x y z
#    x 1.578560 0.000000 0.000000 
#    y 0.000000 1.586510 0.000000 
#    z 0.000000 0.000000 1.604060 
# 
# From -- ./inp_files/20853.got.cif
#   From: 2010.03.12/outbox.cif.g09.slc.cpg/sg44_11_cif.got.tgz:20853.got - 2010.04.14 02:36:11.
