data_PCOD8188245
_publ_section_title
;
Structure prediction by ZEFSAII (Michael W. Deem and Ramdas Pophale) SiO2 
 PCOD8188245
Probable space group: I M M 2
;
_chemical_formula_sum "Si O2"
_cell_formula_units_Z 64
_cell_length_a 13.349175
_cell_length_b 22.585860
_cell_length_c 12.417507
_cell_angle_alpha 90.000000
_cell_angle_beta 90.000000
_cell_angle_gamma 90.000000
_cell_volume 3743.910617
_symmetry_space_group_name_H-M "I M M 2"
_symmetry_group_IT_number 44
_symmetry_cell_setting 'orthorhombic'
loop_
_space_group_symop_operation_xyz
x,y,z
-x,-y,z
-x,y,z
x,-y,z
1/2+x,1/2+y,1/2+z
1/2-x,1/2-y,1/2+z
1/2-x,1/2+y,1/2+z
1/2+x,1/2-y,1/2+z
loop_
_atom_site_type_symbol
_atom_site_label
_atom_site_fract_x
_atom_site_fract_y
_atom_site_fract_z
Si Si1 0.382816 0.667903 0.561790
Si Si2 0.615375 0.567120 0.395943
Si Si3 0.382488 0.066766 0.598516
Si Si4 0.241836 0.856416 0.740910
Si Si5 0.773643 0.331287 0.745917
Si Si6 0.615188 0.737834 0.115542
Si Si7 0.114551 0.431729 0.852482
Si Si8 0.736328 0.237304 0.917223
O O1 0.500000 0.682632 0.577980
O O2 0.366168 0.604822 0.504101
O O3 0.329019 0.665342 0.677560
O O4 0.333912 0.719441 0.488211
O O5 0.500000 0.569938 0.362067
O O6 0.650115 0.500000 0.419414
O O7 0.675703 0.592709 0.295165
O O8 0.500000 0.074444 0.613695
O O9 0.331004 0.113779 0.675958
O O10 0.351865 0.079408 0.475384
O O11 0.350081 0.000000 0.629729
O O12 0.175990 0.818375 0.658647
O O13 0.289702 0.813911 0.831512
O O14 0.859764 0.296568 0.682316
O O15 0.813487 0.396614 0.771340
O O16 0.756632 0.298936 0.858857
O O17 0.500000 0.721987 0.127829
O O18 0.640411 0.751947 0.991891
O O19 0.126165 0.500000 0.821623
O O20 0.000000 0.411075 0.837050
#
# Coordination Sequence:
#
# PCOD8188245 Si02
#       8
#     8   8   8   8   8   8   8   8
#     4   9  19  34  50  71  99 127 160 200 238 284
#     4   9  17  30  49  72  96 124 159 199 242 286
#     4   9  18  32  50  73 100 129 162 200 241 286
#     4  10  18  31  50  72  96 126 162 200 241 288
#     4  10  19  33  51  72  95 127 163 196 239 289
#     4  10  20  33  48  69  97 126 157 196 241 286
#     4   9  18  32  50  72  96 124 161 203 244 289
#     4   9  20  33  47  70  97 126 161 197 242 289
#
# _framework density 17.094424
#
# number of rings (size 3 to 8) (size 9 to 14) (size 15 to 20)
#    0.000    2.625    0.000    2.625    0.000    5.000 
#    0.000    7.500    0.000    0.000    0.000   15.750 
#    0.000    0.000    0.000    0.000    0.000    0.000 
#
# Total GULP energy -396799.963347 kJ/mol
# GULP energy per Si atom -12399.998855 kJ/mol
# Density = 1.705552 g / cm^3
# Si number density = 17.094424 Si / 1000 Ang^3
#
#
#
# Elastic Constant Matrix: (Units=GPa)
#
#
# Indices 1 2 3 4 5 6 
#
# 1 81.1083 41.9596 53.7944 -0.0001 0.0000 0.0000
# 2 41.9596 93.2640 49.1499 0.0002 0.0000 0.0000
# 3 53.7944 49.1499 95.7666 0.0005 0.0000 0.0000
# 4 -0.0001 0.0002 0.0005 25.5335 0.0000 0.0000
# 5 0.0000 0.0000 0.0000 0.0000 25.7187 0.0000
# 6 0.0000 0.0000 0.0000 0.0000 0.0000 27.4551
#
#
#
# Elastic Compliance Matrix: (Units=1/GPa)
#
#
# Indices 1 2 3 4 5 6 
#
# 1 0.020893 -0.004407 -0.009474 0.000000 0.000000 0.000000
# 2 -0.004407 0.015627 -0.005545 0.000000 0.000000 0.000000
# 3 -0.009474 -0.005545 0.018610 0.000000 0.000000 0.000000
# 4 0.000000 0.000000 0.000000 0.039164 0.000000 0.000000
# 5 0.000000 0.000000 0.000000 0.000000 0.038882 0.000000
# 6 0.000000 0.000000 0.000000 0.000000 0.000000 0.036423
#
#
# Mechanical properties :
#
#
# Convention : Reuss Voigt Hill
#
# Bulk Modulus (GPa) = 61.43354 62.21629 61.82492
# Shear Modulus (GPa) = 23.37800 24.09045 23.73422
#
# Velocity S-wave (km/s) = 3.70209 3.75808 3.73019
# Velocity P-wave (km/s) = 7.36816 7.43677 7.40254
#
# Compressibility (1/GPa) = 0.01627775
#
# Stress axis : x y z
#
# Youngs Moduli (GPa) = 47.86374 63.99213 53.73536
#
# Poissons Ratio (x) = 0.28199 0.50910
# Poissons Ratio (y) = 0.21092 0.29795
# Poissons Ratio (z) = 0.45347 0.35482
#
# Static dielectric constant tensor:
#      x y z
#    x 2.992320 0.000000 0.000000 
#    y 0.000000 3.239110 0.000000 
#    z 0.000000 0.000000 3.216880 
# 
# 
# High freq. dielectric constant tensor:
#      x y z
#    x 1.645970 0.000000 0.000000 
#    y 0.000000 1.665320 0.000000 
#    z 0.000000 0.000000 1.660990 
# 
# From -- ./inp_files/12632.got.cif
#   From: 2010.03.12/outbox.cif.g09.slc.cpg/sg44_7_cif.got.tgz:12632.got - 2010.04.14 02:36:11.
