data_PCOD8188269
_publ_section_title
;
Structure prediction by ZEFSAII (Michael W. Deem and Ramdas Pophale) SiO2 
 PCOD8188269
Probable space group: I M M 2
;
_chemical_formula_sum "Si O2"
_cell_formula_units_Z 64
_cell_length_a 18.569582
_cell_length_b 14.315919
_cell_length_c 12.238280
_cell_angle_alpha 90.000000
_cell_angle_beta 90.000000
_cell_angle_gamma 90.000000
_cell_volume 3253.432087
_symmetry_space_group_name_H-M "I M M 2"
_symmetry_group_IT_number 44
_symmetry_cell_setting 'orthorhombic'
loop_
_space_group_symop_operation_xyz
x,y,z
-x,-y,z
-x,y,z
x,-y,z
1/2+x,1/2+y,1/2+z
1/2-x,1/2-y,1/2+z
1/2-x,1/2+y,1/2+z
1/2+x,1/2-y,1/2+z
loop_
_atom_site_type_symbol
_atom_site_label
_atom_site_fract_x
_atom_site_fract_y
_atom_site_fract_z
Si Si1 0.730011 0.337039 0.498710
Si Si2 0.417602 0.300622 0.109585
Si Si3 0.665439 0.770047 0.690302
Si Si4 0.671986 0.676618 0.909204
Si Si5 0.187040 0.397909 0.862886
Si Si6 0.857003 0.395380 0.629199
Si Si7 0.696942 0.390708 0.262270
Si Si8 0.581618 0.890792 0.543526
O O1 0.677114 0.309385 0.597942
O O2 0.769009 0.244539 0.460228
O O3 0.791532 0.406558 0.544027
O O4 0.690206 0.382667 0.394281
O O5 0.500000 0.328152 0.126285
O O6 0.411815 0.187251 0.095373
O O7 0.374531 0.345497 0.210211
O O8 0.389576 0.347818 0.996412
O O9 0.637591 0.718255 0.799235
O O10 0.735644 0.833434 0.713987
O O11 0.600143 0.837954 0.655916
O O12 0.727044 0.591815 0.884616
O O13 0.152937 0.500000 0.858464
O O14 0.174730 0.354334 0.743408
O O15 0.137552 0.346998 0.954249
O O16 0.892725 0.500000 0.637223
O O17 0.703838 0.500000 0.230069
O O18 0.500000 0.869607 0.506585
O O19 0.593760 0.000000 0.564606
#
# Coordination Sequence:
#
# PCOD8188269 Si02
#       8
#     8   8   8   8   8   8   8   8
#     4  10  18  34  58  89 116 142 190 244 294 350
#     4  11  24  40  57  81 119 162 202 243 289 353
#     4  11  19  35  62  82 118 154 194 242 298 353
#     4  10  19  35  56  82 112 149 193 243 285 338
#     4  10  18  31  54  83 112 144 186 237 291 344
#     4  10  19  35  58  88 119 148 188 243 307 363
#     4  11  22  38  62  89 117 156 203 254 298 345
#     4  10  21  34  50  81 120 154 193 237 286 352
#
# _framework density 19.671534999999999
#
# number of rings (size 3 to 8) (size 9 to 14) (size 15 to 20)
#    0.000    1.625    5.000    1.500    0.000    3.000 
#    0.000    1.875    0.000    0.000    0.000    0.000 
#    0.000    0.000    0.000    0.000    0.000    0.000 
#
# Total GULP energy -396468.149275 kJ/mol
# GULP energy per Si atom -12389.629665 kJ/mol
# Density = 1.962676 g / cm^3
# Si number density = 19.671535 Si / 1000 Ang^3
#
#
#
# Elastic Constant Matrix: (Units=GPa)
#
#
# Indices 1 2 3 4 5 6 
#
# 1 102.6613 19.1155 47.6852 0.0000 0.0000 0.0000
# 2 19.1155 52.8628 17.7422 0.0000 0.0000 0.0000
# 3 47.6852 17.7422 129.5429 0.0000 0.0000 0.0000
# 4 0.0000 0.0000 0.0000 19.2392 0.0000 0.0000
# 5 0.0000 0.0000 0.0000 0.0000 16.5872 0.0000
# 6 0.0000 0.0000 0.0000 0.0000 0.0000 15.1701
#
#
#
# Elastic Compliance Matrix: (Units=1/GPa)
#
#
# Indices 1 2 3 4 5 6 
#
# 1 0.012200 -0.003044 -0.004074 0.000000 0.000000 0.000000
# 2 -0.003044 0.020588 -0.001699 0.000000 0.000000 0.000000
# 3 -0.004074 -0.001699 0.009452 0.000000 0.000000 0.000000
# 4 0.000000 0.000000 0.000000 0.051977 0.000000 0.000000
# 5 0.000000 0.000000 0.000000 0.000000 0.060287 0.000000
# 6 0.000000 0.000000 0.000000 0.000000 0.000000 0.065919
#
#
# Mechanical properties :
#
#
# Convention : Reuss Voigt Hill
#
# Bulk Modulus (GPa) = 40.64194 50.46143 45.55168
# Shear Modulus (GPa) = 20.30378 23.56758 21.93568
#
# Velocity S-wave (km/s) = 3.21618 3.46505 3.34293
# Velocity P-wave (km/s) = 5.87340 6.45883 6.17306
#
# Compressibility (1/GPa) = 0.02460513
#
# Stress axis : x y z
#
# Youngs Moduli (GPa) = 81.96797 48.57195 105.80022
#
# Poissons Ratio (x) = 0.14787 0.43102
# Poissons Ratio (y) = 0.24953 0.17977
# Poissons Ratio (z) = 0.33393 0.08253
#
# Static dielectric constant tensor:
#      x y z
#    x 3.295740 0.000000 0.000000 
#    y 0.000000 3.605490 0.000000 
#    z 0.000000 0.000000 4.148070 
# 
# 
# High freq. dielectric constant tensor:
#      x y z
#    x 1.724910 0.000000 0.000000 
#    y 0.000000 1.758720 0.000000 
#    z 0.000000 0.000000 1.780260 
# 
# From -- ./inp_files/13423.got.cif
#   From: 2010.03.12/outbox.cif.g09.slc.cpg/sg44_7_cif.got.tgz:13423.got - 2010.04.14 02:36:11.
