data_PCOD8188399
_publ_section_title
;
Structure prediction by ZEFSAII (Michael W. Deem and Ramdas Pophale) SiO2 
 PCOD8188399
Probable space group: I M M 2
;
_chemical_formula_sum "Si O2"
_cell_formula_units_Z 38
_cell_length_a 11.319700
_cell_length_b 11.725964
_cell_length_c 14.638500
_cell_angle_alpha 90.000000
_cell_angle_beta 90.000000
_cell_angle_gamma 90.000000
_cell_volume 1943.032437
_symmetry_space_group_name_H-M "I M M 2"
_symmetry_group_IT_number 44
_symmetry_cell_setting 'orthorhombic'
loop_
_space_group_symop_operation_xyz
x,y,z
-x,-y,z
-x,y,z
x,-y,z
1/2+x,1/2+y,1/2+z
1/2-x,1/2-y,1/2+z
1/2-x,1/2+y,1/2+z
1/2+x,1/2-y,1/2+z
loop_
_atom_site_type_symbol
_atom_site_label
_atom_site_fract_x
_atom_site_fract_y
_atom_site_fract_z
Si Si1 0.000000 0.500000 0.378391
Si Si2 0.865175 0.205759 0.788806
Si Si3 0.636303 0.868092 0.452280
Si Si4 0.740147 0.500000 0.390333
Si Si5 0.500000 0.127080 0.705413
Si Si6 0.217343 0.245230 0.124230
Si Si7 0.136601 0.000000 0.080637
O O1 0.874959 0.500000 0.433081
O O2 0.000000 0.387259 0.314763
O O3 0.846975 0.318287 0.850904
O O4 0.778737 0.108584 0.826136
O O5 0.835697 0.232735 0.682825
O O6 0.000000 0.163224 0.793086
O O7 0.500000 0.851842 0.485109
O O8 0.721327 0.800154 0.522776
O O9 0.673134 0.000000 0.449888
O O10 0.645622 0.500000 0.471093
O O11 0.386585 0.197587 0.679732
O O12 0.500000 0.000000 0.658125
O O13 0.200629 0.110172 0.120322
O O14 0.000000 0.000000 0.108038
#
# Coordination Sequence:
#
# PCOD8188399 Si02
#       7
#     2   8   8   4   4   8   4
#     4  10  22  38  64  92 120 154 212 264 308 368
#     4  11  24  41  62  91 127 166 206 258 316 377
#     4  10  21  38  63  88 116 158 211 258 300 364
#     4  12  22  42  64  93 121 163 210 261 318 375
#     4  10  18  35  61  92 111 149 209 263 304 357
#     4  12  22  38  63  92 121 160 212 259 311 372
#     4  12  24  40  62  90 127 165 211 265 319 371
#
# _framework density 19.557058999999999
#
# number of rings (size 3 to 8) (size 9 to 14) (size 15 to 20)
#    0.316    0.632    6.316    1.579    2.947    0.000 
#    1.895    0.000    2.316    0.000    0.000    0.000 
#    0.000    0.000    0.000    0.000    0.000    0.000 
#
# Total GULP energy -235560.229265 kJ/mol
# GULP energy per Si atom -12397.906803 kJ/mol
# Density = 1.951255 g / cm^3
# Si number density = 19.557059 Si / 1000 Ang^3
#
#
#
# Elastic Constant Matrix: (Units=GPa)
#
#
# Indices 1 2 3 4 5 6 
#
# 1 78.8958 29.6560 25.2621 0.0000 0.0000 0.0000
# 2 29.6560 144.6426 25.8015 0.0000 0.0000 0.0000
# 3 25.2621 25.8015 83.7341 0.0000 0.0000 0.0000
# 4 0.0000 0.0000 0.0000 31.9224 0.0000 0.0000
# 5 0.0000 0.0000 0.0000 0.0000 40.0420 0.0000
# 6 0.0000 0.0000 0.0000 0.0000 0.0000 -6.8436
#
#
#
# Elastic Compliance Matrix: (Units=1/GPa)
#
#
# Indices 1 2 3 4 5 6 
#
# 1 0.014755 -0.002361 -0.003724 0.000000 0.000000 0.000000
# 2 -0.002361 0.007693 -0.001658 0.000000 0.000000 0.000000
# 3 -0.003724 -0.001658 0.013577 0.000000 0.000000 0.000000
# 4 0.000000 0.000000 0.000000 0.031326 0.000000 0.000000
# 5 0.000000 0.000000 0.000000 0.000000 0.024974 0.000000
# 6 0.000000 0.000000 0.000000 0.000000 0.000000 -0.146122
#
#
# Mechanical properties :
#
#
# Convention : Reuss Voigt Hill
#
# Bulk Modulus (GPa) = 48.68812 52.07907 50.38359
# Shear Modulus (GPa) = -158.91143 28.12768 -65.39188
#
# Velocity S-wave (km/s) = -9.02395 3.79652 -5.78870
# Velocity P-wave (km/s) = 9.14473 6.77534 4.34286
#
# Compressibility (1/GPa) = 0.02053889
#
# Stress axis : x y z
#
# Youngs Moduli (GPa) = 67.77467 129.98043 73.65368
#
# Poissons Ratio (x) = 0.30687 0.27428
# Poissons Ratio (y) = 0.16001 0.12214
# Poissons Ratio (z) = 0.25239 0.21556
#
# Static dielectric constant tensor:
#      x y z
#    x 3.356540 0.000000 0.000000 
#    y 0.000000 3.611540 0.000000 
#    z 0.000000 0.000000 3.493940 
# 
# 
# High freq. dielectric constant tensor:
#      x y z
#    x 1.740540 0.000000 0.000000 
#    y 0.000000 1.771400 0.000000 
#    z 0.000000 0.000000 1.752900 
# 
# From -- ./inp_files/17524.got.cif
#   From: 2010.03.12/outbox.cif.g09.slc.cpg/sg44_9_cif.got.tgz:17524.got - 2010.04.14 02:36:11.
