data_PCOD8188494
_publ_section_title
;
Structure prediction by ZEFSAII (Michael W. Deem and Ramdas Pophale) SiO2 
 PCOD8188494
Probable space group: I M M 2
;
_chemical_formula_sum "Si O2"
_cell_formula_units_Z 56
_cell_length_a 9.129048
_cell_length_b 18.452792
_cell_length_c 20.428570
_cell_angle_alpha 90.000000
_cell_angle_beta 90.000000
_cell_angle_gamma 90.000000
_cell_volume 3441.323848
_symmetry_space_group_name_H-M "I M M 2"
_symmetry_group_IT_number 44
_symmetry_cell_setting 'orthorhombic'
loop_
_space_group_symop_operation_xyz
x,y,z
-x,-y,z
-x,y,z
x,-y,z
1/2+x,1/2+y,1/2+z
1/2-x,1/2-y,1/2+z
1/2-x,1/2+y,1/2+z
1/2+x,1/2-y,1/2+z
loop_
_atom_site_type_symbol
_atom_site_label
_atom_site_fract_x
_atom_site_fract_y
_atom_site_fract_z
Si Si1 0.828555 0.081958 0.719850
Si Si2 0.829981 0.153622 0.338633
Si Si3 0.837861 0.717666 0.648237
Si Si4 0.826677 0.652358 0.098502
Si Si5 0.831593 0.084550 0.478051
Si Si6 0.671934 0.081586 0.219299
Si Si7 0.161555 0.783006 0.792434
O O1 0.738167 0.102289 0.655494
O O2 0.786249 0.133445 0.781811
O O3 0.000000 0.091997 0.702608
O O4 0.791419 0.000000 0.740293
O O5 0.796583 0.120900 0.409017
O O6 0.753715 0.102557 0.285672
O O7 0.771135 0.236570 0.337218
O O8 0.000000 0.155429 0.322000
O O9 0.727157 0.764080 0.603949
O O10 0.784319 0.634250 0.658261
O O11 0.843748 0.750100 0.720402
O O12 0.000000 0.720635 0.616093
O O13 0.775935 0.620712 0.029753
O O14 0.000000 0.651045 0.103104
O O15 0.000000 0.097513 0.498853
O O16 0.796185 0.000000 0.472771
O O17 0.500000 0.090029 0.233850
O O18 0.714471 0.000000 0.199168
O O19 0.000000 0.780352 0.824709
#
# Coordination Sequence:
#
# PCOD8188494 Si02
#       7
#     8   8   8   8   8   8   8
#     4   9  17  30  47  65  88 119 149 176 213 263
#     4  10  19  30  45  65  89 118 150 181 215 256
#     4   8  15  29  46  62  85 118 148 173 211 264
#     4  11  21  30  43  65  90 115 147 186 222 254
#     4  10  21  35  47  60  84 120 155 181 211 257
#     4   9  17  29  46  68  92 117 145 178 216 257
#     4   8  15  28  45  64  86 114 146 178 215 259
#
# _framework density 16.272808000000001
#
# number of rings (size 3 to 8) (size 9 to 14) (size 15 to 20)
#    0.000    2.714    0.000    4.286    0.000    9.429 
#    0.000    0.000    0.000    0.000    0.000    1.000 
#    0.000    1.143    0.000    0.000    0.000    0.000 
#
# Total GULP energy -347061.574792 kJ/mol
# GULP energy per Si atom -12395.056243 kJ/mol
# Density = 1.623577 g / cm^3
# Si number density = 16.272808 Si / 1000 Ang^3
#
#
#
# Elastic Constant Matrix: (Units=GPa)
#
#
# Indices 1 2 3 4 5 6 
#
# 1 84.0809 57.9811 40.5015 0.0000 0.0000 0.0000
# 2 57.9811 161.8947 51.8517 0.0000 0.0000 0.0000
# 3 40.5015 51.8517 52.7455 0.0000 0.0000 0.0000
# 4 0.0000 0.0000 0.0000 24.2724 0.0000 0.0000
# 5 0.0000 0.0000 0.0000 0.0000 14.2608 0.0000
# 6 0.0000 0.0000 0.0000 0.0000 0.0000 20.4968
#
#
#
# Elastic Compliance Matrix: (Units=1/GPa)
#
#
# Indices 1 2 3 4 5 6 
#
# 1 0.019998 -0.003275 -0.012136 0.000000 0.000000 0.000000
# 2 -0.003275 0.009552 -0.006875 0.000000 0.000000 0.000000
# 3 -0.012136 -0.006875 0.035036 0.000000 0.000000 0.000000
# 4 0.000000 0.000000 0.000000 0.041199 0.000000 0.000000
# 5 0.000000 0.000000 0.000000 0.000000 0.070122 0.000000
# 6 0.000000 0.000000 0.000000 0.000000 0.000000 0.048788
#
#
# Mechanical properties :
#
#
# Convention : Reuss Voigt Hill
#
# Bulk Modulus (GPa) = 49.96620 66.59884 58.28252
# Shear Modulus (GPa) = 18.12000 21.69845 19.90922
#
# Velocity S-wave (km/s) = 3.34056 3.65556 3.50160
# Velocity P-wave (km/s) = 6.75656 7.67025 7.22786
#
# Compressibility (1/GPa) = 0.02001353
#
# Stress axis : x y z
#
# Youngs Moduli (GPa) = 50.00615 104.69308 28.54189
#
# Poissons Ratio (x) = 0.34288 0.34638
# Poissons Ratio (y) = 0.16377 0.19623
# Poissons Ratio (z) = 0.60687 0.71977
#
# Static dielectric constant tensor:
#      x y z
#    x 3.144820 0.000000 0.000000 
#    y 0.000000 3.819830 0.000000 
#    z 0.000000 0.000000 2.734240 
# 
# 
# High freq. dielectric constant tensor:
#      x y z
#    x 1.624550 0.000000 0.000000 
#    y 0.000000 1.638950 0.000000 
#    z 0.000000 0.000000 1.578440 
# 
# From -- ./inp_files/23216.got.cif
#   From: 2010.03.12/outbox.cif.g09.slc.cpg/sg44_12_cif.got.tgz:23216.got - 2010.04.14 02:36:11.
