data_PCOD8188555
_publ_section_title
;
Structure prediction by ZEFSAII (Michael W. Deem and Ramdas Pophale) SiO2 
 PCOD8188555
Probable space group: I M M 2
;
_chemical_formula_sum "Si O2"
_cell_formula_units_Z 64
_cell_length_a 13.938919
_cell_length_b 29.360302
_cell_length_c 8.711225
_cell_angle_alpha 90.000000
_cell_angle_beta 90.000000
_cell_angle_gamma 90.000000
_cell_volume 3565.076422
_symmetry_space_group_name_H-M "I M M 2"
_symmetry_group_IT_number 44
_symmetry_cell_setting 'orthorhombic'
loop_
_space_group_symop_operation_xyz
x,y,z
-x,-y,z
-x,y,z
x,-y,z
1/2+x,1/2+y,1/2+z
1/2-x,1/2-y,1/2+z
1/2-x,1/2+y,1/2+z
1/2+x,1/2-y,1/2+z
loop_
_atom_site_type_symbol
_atom_site_label
_atom_site_fract_x
_atom_site_fract_y
_atom_site_fract_z
Si Si1 0.894483 0.669722 0.701460
Si Si2 0.388978 0.686727 0.609759
Si Si3 0.387252 0.374652 0.891644
Si Si4 0.781337 0.629927 0.123575
Si Si5 0.776659 0.050590 0.209681
Si Si6 0.386510 0.215258 0.504872
Si Si7 0.747978 0.874086 0.975027
Si Si8 0.893307 0.577593 0.893280
O O1 0.863036 0.709647 0.821533
O O2 0.822476 0.662286 0.560624
O O3 0.896825 0.624483 0.801775
O O4 0.000000 0.680279 0.632995
O O5 0.500000 0.687762 0.580693
O O6 0.364410 0.669129 0.782614
O O7 0.348279 0.736739 0.571015
O O8 0.350693 0.650121 0.487065
O O9 0.500000 0.377495 0.933318
O O10 0.355989 0.420653 0.803137
O O11 0.324281 0.369579 0.045225
O O12 0.777273 0.617879 0.300863
O O13 0.830031 0.678722 0.105461
O O14 0.848316 0.589602 0.058188
O O15 0.749780 0.076202 0.052252
O O16 0.678343 0.043712 0.306041
O O17 0.817182 0.000000 0.174406
O O18 0.500000 0.208296 0.530664
O O19 0.000000 0.556170 0.909695
#
# Coordination Sequence:
#
# PCOD8188555 Si02
#       8
#     8   8   8   8   8   8   8   8
#     4   8  15  29  48  68  94 129 166 201 237 283
#     4   9  18  33  51  70  96 132 174 218 256 290
#     4   9  19  36  55  74  98 130 169 212 256 298
#     4  10  19  30  49  75 104 137 165 199 249 304
#     4   9  18  34  55  75  94 124 169 213 254 304
#     4   9  17  31  51  73  98 133 177 215 244 284
#     4  10  20  31  47  74 105 136 164 201 254 306
#     4   8  15  30  50  71  96 126 161 201 244 291
#
# _framework density 17.951930000000001
#
# number of rings (size 3 to 8) (size 9 to 14) (size 15 to 20)
#    0.000    3.000    0.000    3.375    0.000    4.000 
#    0.000    2.500    0.000    5.250    0.000    0.000 
#    0.000    0.000    0.000    0.000    0.000    0.000 
#
# Total GULP energy -396536.552986 kJ/mol
# GULP energy per Si atom -12391.767281 kJ/mol
# Density = 1.791107 g / cm^3
# Si number density = 17.951930 Si / 1000 Ang^3
#
#
#
# Elastic Constant Matrix: (Units=GPa)
#
#
# Indices 1 2 3 4 5 6 
#
# 1 66.9546 29.2744 37.5959 0.0018 0.0001 0.0002
# 2 29.2744 107.6741 43.9307 0.0005 -0.0001 0.0000
# 3 37.5959 43.9307 121.0350 -0.0069 0.0047 0.0004
# 4 0.0018 0.0005 -0.0069 11.1623 0.0005 0.0001
# 5 0.0001 -0.0001 0.0047 0.0005 17.3598 0.0000
# 6 0.0002 0.0000 0.0004 0.0001 0.0000 15.9539
#
#
#
# Elastic Compliance Matrix: (Units=1/GPa)
#
#
# Indices 1 2 3 4 5 6 
#
# 1 0.019006 -0.003238 -0.004728 -0.000006 0.000001 0.000000
# 2 -0.003238 0.011453 -0.003151 -0.000002 0.000001 0.000000
# 3 -0.004728 -0.003151 0.010875 0.000008 -0.000003 0.000000
# 4 -0.000006 -0.000002 0.000008 0.089587 -0.000003 -0.000001
# 5 0.000001 0.000001 -0.000003 -0.000003 0.057604 0.000000
# 6 0.000000 0.000000 0.000000 -0.000001 0.000000 0.062681
#
#
# Mechanical properties :
#
#
# Convention : Reuss Voigt Hill
#
# Bulk Modulus (GPa) = 52.36003 57.47398 54.91701
# Shear Modulus (GPa) = 17.86938 21.21940 19.54439
#
# Velocity S-wave (km/s) = 3.15842 3.44177 3.30314
# Velocity P-wave (km/s) = 6.52158 6.91949 6.72348
#
# Compressibility (1/GPa) = 0.01909854
#
# Stress axis : x y z
#
# Youngs Moduli (GPa) = 52.61382 87.31031 91.95759
#
# Poissons Ratio (x) = 0.28274 0.43481
# Poissons Ratio (y) = 0.17038 0.28978
# Poissons Ratio (z) = 0.24878 0.27514
#
# Static dielectric constant tensor:
#      x y z
#    x 3.585060 0.000000 0.000010 
#    y 0.000000 3.216090 -0.000010 
#    z 0.000010 -0.000010 3.137420 
# 
# 
# High freq. dielectric constant tensor:
#      x y z
#    x 1.703280 0.000000 0.000000 
#    y 0.000000 1.676060 0.000000 
#    z 0.000000 0.000000 1.672720 
# 
# From -- ./inp_files/7696.got.cif
#   From: 2010.03.12/outbox.cif.g09.slc.cpg/sg44_4_cif.got.tgz:7696.got - 2010.04.14 02:36:11.
