data_PCOD8188507
_publ_section_title
;
Structure prediction by ZEFSAII (Michael W. Deem and Ramdas Pophale) SiO2 
 PCOD8188507
Probable space group: I M M 2
;
_chemical_formula_sum "Si O2"
_cell_formula_units_Z 48
_cell_length_a 13.587794
_cell_length_b 9.182377
_cell_length_c 23.745258
_cell_angle_alpha 90.000000
_cell_angle_beta 90.000000
_cell_angle_gamma 90.000000
_cell_volume 2962.654218
_symmetry_space_group_name_H-M "I M M 2"
_symmetry_group_IT_number 44
_symmetry_cell_setting 'orthorhombic'
loop_
_space_group_symop_operation_xyz
x,y,z
-x,-y,z
-x,y,z
x,-y,z
1/2+x,1/2+y,1/2+z
1/2-x,1/2-y,1/2+z
1/2-x,1/2+y,1/2+z
1/2+x,1/2-y,1/2+z
loop_
_atom_site_type_symbol
_atom_site_label
_atom_site_fract_x
_atom_site_fract_y
_atom_site_fract_z
Si Si1 0.889940 0.667149 0.214290
Si Si2 0.114194 0.670465 0.419797
Si Si3 0.390316 0.832416 0.249388
Si Si4 0.299568 0.328768 0.815461
Si Si5 0.614080 0.667753 0.032606
Si Si6 0.799643 0.169497 0.648824
O O1 0.875493 0.500000 0.233912
O O2 0.873456 0.769174 0.268072
O O3 0.813797 0.705938 0.164330
O O4 0.000000 0.693580 0.191049
O O5 0.136419 0.500000 0.418603
O O6 0.180953 0.749784 0.374002
O O7 0.145103 0.732786 0.480292
O O8 0.000000 0.704190 0.407186
O O9 0.500000 0.799103 0.272260
O O10 0.312411 0.789916 0.297802
O O11 0.372951 0.744845 0.192316
O O12 0.376887 0.000000 0.233119
O O13 0.317349 0.500000 0.822599
O O14 0.500000 0.688855 0.048032
O O15 0.636812 0.500000 0.017521
O O16 0.678445 0.723243 0.085593
O O17 0.823048 0.000000 0.652854
#
# Coordination Sequence:
#
# PCOD8188507 Si02
#       6
#     8   8   8   8   8   8
#     4   9  17  29  45  66  93 122 149 179 216 258
#     4  10  20  32  46  65  89 117 148 182 221 264
#     4   9  18  31  46  66  92 119 146 178 218 263
#     4  10  19  30  46  67  90 117 148 182 220 261
#     4   9  17  29  45  65  88 114 146 184 223 262
#     4   9  17  29  46  68  92 118 149 182 216 257
#
# _framework density 16.201688000000001
#
# number of rings (size 3 to 8) (size 9 to 14) (size 15 to 20)
#    0.000    2.667    0.000    2.000    0.000    5.667 
#    0.000    1.667    0.000    1.000    0.000    4.667 
#    0.000    0.000    0.000    0.000    0.000    0.000 
#
# Total GULP energy -297606.219657 kJ/mol
# GULP energy per Si atom -12400.259152 kJ/mol
# Density = 1.616481 g / cm^3
# Si number density = 16.201688 Si / 1000 Ang^3
#
#
#
# Elastic Constant Matrix: (Units=GPa)
#
#
# Indices 1 2 3 4 5 6 
#
# 1 98.9480 39.2936 63.6595 0.0000 0.0000 0.0000
# 2 39.2936 70.0587 61.2629 0.0000 0.0000 0.0000
# 3 63.6595 61.2629 136.5879 0.0000 0.0000 0.0000
# 4 0.0000 0.0000 0.0000 29.4602 0.0000 0.0000
# 5 0.0000 0.0000 0.0000 0.0000 22.7432 0.0000
# 6 0.0000 0.0000 0.0000 0.0000 0.0000 20.3481
#
#
#
# Elastic Compliance Matrix: (Units=1/GPa)
#
#
# Indices 1 2 3 4 5 6 
#
# 1 0.015022 -0.003789 -0.005302 0.000000 0.000000 0.000000
# 2 -0.003789 0.024441 -0.009196 0.000000 0.000000 0.000000
# 3 -0.005302 -0.009196 0.013917 0.000000 0.000000 0.000000
# 4 0.000000 0.000000 0.000000 0.033944 0.000000 0.000000
# 5 0.000000 0.000000 0.000000 0.000000 0.043969 0.000000
# 6 0.000000 0.000000 0.000000 0.000000 0.000000 0.049145
#
#
# Mechanical properties :
#
#
# Convention : Reuss Voigt Hill
#
# Bulk Modulus (GPa) = 59.50493 70.44738 64.97615
# Shear Modulus (GPa) = 22.46046 23.93554 23.19800
#
# Velocity S-wave (km/s) = 3.72735 3.84780 3.78805
# Velocity P-wave (km/s) = 7.43852 7.95718 7.70221
#
# Compressibility (1/GPa) = 0.01680533
#
# Stress axis : x y z
#
# Youngs Moduli (GPa) = 66.56888 40.91563 71.85480
#
# Poissons Ratio (x) = 0.15504 0.38096
# Poissons Ratio (y) = 0.25225 0.66078
# Poissons Ratio (z) = 0.35293 0.37626
#
# Static dielectric constant tensor:
#      x y z
#    x 3.147290 0.000000 0.000000 
#    y 0.000000 3.119570 0.000000 
#    z 0.000000 0.000000 3.002880 
# 
# 
# High freq. dielectric constant tensor:
#      x y z
#    x 1.613600 0.000000 0.000000 
#    y 0.000000 1.628770 0.000000 
#    z 0.000000 0.000000 1.610920 
# 
# From -- ./inp_files/22893.got.cif
#   From: 2010.03.12/outbox.cif.g09.slc.cpg/sg44_12_cif.got.tgz:22893.got - 2010.04.14 02:36:11.
