data_PCOD8188315
_publ_section_title
;
Structure prediction by ZEFSAII (Michael W. Deem and Ramdas Pophale) SiO2 
 PCOD8188315
Probable space group: I M M 2
;
_chemical_formula_sum "Si O2"
_cell_formula_units_Z 64
_cell_length_a 9.082957
_cell_length_b 15.559900
_cell_length_c 24.071214
_cell_angle_alpha 90.000000
_cell_angle_beta 90.000000
_cell_angle_gamma 90.000000
_cell_volume 3401.982331
_symmetry_space_group_name_H-M "I M M 2"
_symmetry_group_IT_number 44
_symmetry_cell_setting 'orthorhombic'
loop_
_space_group_symop_operation_xyz
x,y,z
-x,-y,z
-x,y,z
x,-y,z
1/2+x,1/2+y,1/2+z
1/2-x,1/2-y,1/2+z
1/2-x,1/2+y,1/2+z
1/2+x,1/2-y,1/2+z
loop_
_atom_site_type_symbol
_atom_site_label
_atom_site_fract_x
_atom_site_fract_y
_atom_site_fract_z
Si Si1 0.173989 0.654181 0.406090
Si Si2 0.824644 0.247390 0.720019
Si Si3 0.174743 0.405421 0.525570
Si Si4 0.830406 0.597775 0.027084
Si Si5 0.330366 0.167242 0.407314
Si Si6 0.324675 0.255654 0.094691
Si Si7 0.673566 0.906152 0.290038
Si Si8 0.330545 0.596176 0.298314
O O1 0.228813 0.609726 0.462767
O O2 0.224778 0.751765 0.406943
O O3 0.241940 0.602378 0.355218
O O4 0.000000 0.650926 0.400498
O O5 0.763680 0.243887 0.657471
O O6 0.759234 0.332046 0.750491
O O7 0.768425 0.163101 0.752886
O O8 0.000000 0.249781 0.719505
O O9 0.230185 0.500000 0.545193
O O10 0.238276 0.330705 0.565409
O O11 0.000000 0.401659 0.527792
O O12 0.788207 0.500000 0.041956
O O13 0.730823 0.660042 0.063560
O O14 0.000000 0.616754 0.041082
O O15 0.800163 0.611355 0.961901
O O16 0.500000 0.197986 0.403868
O O17 0.287838 0.110246 0.354251
O O18 0.500000 0.257307 0.093033
O O19 0.500000 0.906717 0.281582
O O20 0.738153 0.000000 0.273470
O O21 0.500000 0.617708 0.311536
O O22 0.312358 0.500000 0.274103
#
# Coordination Sequence:
#
# PCOD8188315 Si02
#       8
#     8   8   8   8   8   8   8   8
#     4  11  20  32  53  79 108 139 171 210 262 317
#     4   9  18  32  51  77 105 134 174 220 259 302
#     4   9  18  32  50  75 108 139 167 208 262 312
#     4  10  21  36  55  80 109 140 174 217 268 317
#     4  10  18  32  55  79 106 136 169 211 261 317
#     4  10  20  35  55  78 105 140 181 221 261 308
#     4   9  16  28  51  81 106 128 162 212 264 311
#     4  10  20  35  54  76 104 138 175 216 262 310
#
# _framework density 18.812560000000001
#
# number of rings (size 3 to 8) (size 9 to 14) (size 15 to 20)
#    0.000    2.250    2.500    1.125    0.000    3.500 
#    0.000    4.375    0.000    2.250    0.000    0.000 
#    0.000    0.000    0.000    0.000    0.000    0.000 
#
# Total GULP energy -396751.068115 kJ/mol
# GULP energy per Si atom -12398.470879 kJ/mol
# Density = 1.876974 g / cm^3
# Si number density = 18.812560 Si / 1000 Ang^3
#
#
#
# Elastic Constant Matrix: (Units=GPa)
#
#
# Indices 1 2 3 4 5 6 
#
# 1 26.1977 22.1387 25.3639 0.0000 0.0000 0.0000
# 2 22.1387 165.5097 76.9756 0.0000 0.0000 0.0000
# 3 25.3639 76.9756 154.5878 0.0000 0.0000 0.0000
# 4 0.0000 0.0000 0.0000 16.2483 0.0000 0.0000
# 5 0.0000 0.0000 0.0000 0.0000 21.7559 0.0000
# 6 0.0000 0.0000 0.0000 0.0000 0.0000 21.2707
#
#
#
# Elastic Compliance Matrix: (Units=1/GPa)
#
#
# Indices 1 2 3 4 5 6 
#
# 1 0.046893 -0.003506 -0.005948 0.000000 0.000000 0.000000
# 2 -0.003506 0.008125 -0.003471 0.000000 0.000000 0.000000
# 3 -0.005948 -0.003471 0.009173 0.000000 0.000000 0.000000
# 4 0.000000 0.000000 0.000000 0.061545 0.000000 0.000000
# 5 0.000000 0.000000 0.000000 0.000000 0.045965 0.000000
# 6 0.000000 0.000000 0.000000 0.000000 0.000000 0.047013
#
#
# Mechanical properties :
#
#
# Convention : Reuss Voigt Hill
#
# Bulk Modulus (GPa) = 26.08149 66.13905 46.11027
# Shear Modulus (GPa) = 19.42933 26.64279 23.03606
#
# Velocity S-wave (km/s) = 3.21718 3.76736 3.50309
# Velocity P-wave (km/s) = 5.26254 7.35915 6.39732
#
# Compressibility (1/GPa) = 0.03834137
#
# Stress axis : x y z
#
# Youngs Moduli (GPa) = 21.32521 123.07714 109.01733
#
# Poissons Ratio (x) = 0.43152 0.64845
# Poissons Ratio (y) = 0.07477 0.37835
# Poissons Ratio (z) = 0.12684 0.42714
#
# Static dielectric constant tensor:
#      x y z
#    x 3.017200 0.000000 0.000000 
#    y 0.000000 3.724230 0.000000 
#    z 0.000000 0.000000 3.637520 
# 
# 
# High freq. dielectric constant tensor:
#      x y z
#    x 1.680560 0.000000 0.000000 
#    y 0.000000 1.748050 0.000000 
#    z 0.000000 0.000000 1.732120 
# 
# From -- ./inp_files/25106.got.cif
#   From: 2010.03.12/outbox.cif.g09.slc.cpg/sg44_13_cif.got.tgz:25106.got - 2010.04.14 02:36:11.
