data_PCOD8188155
_publ_section_title
;
Structure prediction by ZEFSAII (Michael W. Deem and Ramdas Pophale) SiO2 
 PCOD8188155
Probable space group: I M M 2
;
_chemical_formula_sum "Si O2"
_cell_formula_units_Z 64
_cell_length_a 25.121830
_cell_length_b 9.471191
_cell_length_c 15.080464
_cell_angle_alpha 90.000000
_cell_angle_beta 90.000000
_cell_angle_gamma 90.000000
_cell_volume 3588.149846
_symmetry_space_group_name_H-M "I M M 2"
_symmetry_group_IT_number 44
_symmetry_cell_setting 'orthorhombic'
loop_
_space_group_symop_operation_xyz
x,y,z
-x,-y,z
-x,y,z
x,-y,z
1/2+x,1/2+y,1/2+z
1/2-x,1/2-y,1/2+z
1/2-x,1/2+y,1/2+z
1/2+x,1/2-y,1/2+z
loop_
_atom_site_type_symbol
_atom_site_label
_atom_site_fract_x
_atom_site_fract_y
_atom_site_fract_z
Si Si1 0.741036 0.832890 0.462180
Si Si2 0.559980 0.832165 0.414784
Si Si3 0.336464 0.663569 0.728947
Si Si4 0.721205 0.832467 0.269336
Si Si5 0.642249 0.663967 0.933558
Si Si6 0.606411 0.167845 0.230414
Si Si7 0.859977 0.332965 0.067314
Si Si8 0.061320 0.335308 0.546191
O O1 0.721098 0.769141 0.368728
O O2 0.802120 0.784961 0.479317
O O3 0.699466 0.785083 0.537215
O O4 0.740575 0.000000 0.453446
O O5 0.500000 0.778125 0.431826
O O6 0.580428 0.770520 0.320528
O O7 0.597353 0.779136 0.494887
O O8 0.562113 0.000000 0.410911
O O9 0.342852 0.500000 0.703944
O O10 0.274865 0.714633 0.719023
O O11 0.356233 0.691636 0.828427
O O12 0.371450 0.755607 0.660513
O O13 0.667661 0.779229 0.220832
O O14 0.721349 0.000000 0.276282
O O15 0.631808 0.500000 0.953572
O O16 0.594491 0.754303 0.972353
O O17 0.574858 0.223076 0.144512
O O18 0.603578 0.000000 0.234997
O O19 0.864418 0.500000 0.081334
O O20 0.075356 0.500000 0.539737
O O21 0.000000 0.305651 0.526290
#
# Coordination Sequence:
#
# PCOD8188155 Si02
#       8
#     8   8   8   8   8   8   8   8
#     4   8  14  27  46  71  99 127 162 202 241 287
#     4   9  16  27  46  73 103 133 165 199 239 296
#     4   9  19  33  50  72 100 131 168 209 246 293
#     4   8  13  25  45  69  97 130 161 190 233 290
#     4   9  19  36  54  70  95 134 176 212 247 297
#     4   9  15  26  46  73 104 132 157 192 243 299
#     4  10  18  29  49  76 104 132 163 204 252 295
#     4  10  21  34  50  77 106 128 162 214 260 295
#
# _framework density 17.836489
#
# number of rings (size 3 to 8) (size 9 to 14) (size 15 to 20)
#    0.000    3.000    1.250    1.875    1.750    2.250 
#    0.000    0.625    0.000    4.125    0.000    0.000 
#    0.000    0.000    0.000    0.000    0.000    0.000 
#
# Total GULP energy -396574.377768 kJ/mol
# GULP energy per Si atom -12392.949305 kJ/mol
# Density = 1.779589 g / cm^3
# Si number density = 17.836489 Si / 1000 Ang^3
#
#
#
# Elastic Constant Matrix: (Units=GPa)
#
#
# Indices 1 2 3 4 5 6 
#
# 1 126.4621 36.4030 69.1639 0.0000 0.0000 0.0000
# 2 36.4030 29.8581 38.4489 0.0000 0.0000 0.0000
# 3 69.1639 38.4489 108.4237 0.0000 0.0000 0.0000
# 4 0.0000 0.0000 0.0000 23.7401 0.0000 0.0000
# 5 0.0000 0.0000 0.0000 0.0000 28.5843 0.0000
# 6 0.0000 0.0000 0.0000 0.0000 0.0000 18.0137
#
#
#
# Elastic Compliance Matrix: (Units=1/GPa)
#
#
# Indices 1 2 3 4 5 6 
#
# 1 0.013578 -0.009940 -0.005137 0.000000 0.000000 0.000000
# 2 -0.009940 0.068915 -0.018098 0.000000 0.000000 0.000000
# 3 -0.005137 -0.018098 0.018918 0.000000 0.000000 0.000000
# 4 0.000000 0.000000 0.000000 0.042123 0.000000 0.000000
# 5 0.000000 0.000000 0.000000 0.000000 0.034984 0.000000
# 6 0.000000 0.000000 0.000000 0.000000 0.000000 0.055513
#
#
# Mechanical properties :
#
#
# Convention : Reuss Voigt Hill
#
# Bulk Modulus (GPa) = 28.52067 61.41947 44.97007
# Shear Modulus (GPa) = 16.02217 22.11616 19.06916
#
# Velocity S-wave (km/s) = 3.00038 3.52510 3.27327
# Velocity P-wave (km/s) = 5.29413 7.14688 6.28911
#
# Compressibility (1/GPa) = 0.03506229
#
# Stress axis : x y z
#
# Youngs Moduli (GPa) = 73.64822 14.51055 52.86077
#
# Poissons Ratio (x) = 0.14423 0.27153
# Poissons Ratio (y) = 0.73204 0.95667
# Poissons Ratio (z) = 0.37831 0.26261
#
# Static dielectric constant tensor:
#      x y z
#    x 3.482210 0.000000 0.000000 
#    y 0.000000 2.714890 0.000000 
#    z 0.000000 0.000000 3.284170 
# 
# 
# High freq. dielectric constant tensor:
#      x y z
#    x 1.692860 0.000000 0.000000 
#    y 0.000000 1.628820 0.000000 
#    z 0.000000 0.000000 1.692290 
# 
# From -- ./inp_files/19489.got.cif
#   From: 2010.03.12/outbox.cif.g09.slc.cpg/sg44_10_cif.got.tgz:19489.got - 2010.04.14 02:36:11.
