data_PCOD8188238
_publ_section_title
;
Structure prediction by ZEFSAII (Michael W. Deem and Ramdas Pophale) SiO2 
 PCOD8188238
Probable space group: I M M 2
;
_chemical_formula_sum "Si O2"
_cell_formula_units_Z 64
_cell_length_a 8.629094
_cell_length_b 29.893672
_cell_length_c 14.855521
_cell_angle_alpha 90.000000
_cell_angle_beta 90.000000
_cell_angle_gamma 90.000000
_cell_volume 3832.060461
_symmetry_space_group_name_H-M "I M M 2"
_symmetry_group_IT_number 44
_symmetry_cell_setting 'orthorhombic'
loop_
_space_group_symop_operation_xyz
x,y,z
-x,-y,z
-x,y,z
x,-y,z
1/2+x,1/2+y,1/2+z
1/2-x,1/2-y,1/2+z
1/2-x,1/2+y,1/2+z
1/2+x,1/2-y,1/2+z
loop_
_atom_site_type_symbol
_atom_site_label
_atom_site_fract_x
_atom_site_fract_y
_atom_site_fract_z
Si Si1 0.173066 0.674843 0.516530
Si Si2 0.316314 0.866164 0.196907
Si Si3 0.818043 0.051034 0.119274
Si Si4 0.316499 0.705781 0.206229
Si Si5 0.680308 0.950292 0.928236
Si Si6 0.315577 0.290553 0.814516
Si Si7 0.818411 0.362939 0.333997
Si Si8 0.672791 0.720625 0.012141
O O1 0.253690 0.654074 0.604226
O O2 0.252358 0.660755 0.423133
O O3 0.171292 0.727032 0.527795
O O4 0.000000 0.654533 0.512673
O O5 0.500000 0.860752 0.207262
O O6 0.266135 0.918260 0.194900
O O7 0.235045 0.838484 0.276093
O O8 0.000000 0.057181 0.129252
O O9 0.766741 0.000000 0.137789
O O10 0.768831 0.065128 0.018238
O O11 0.500000 0.712967 0.202942
O O12 0.247239 0.748347 0.258555
O O13 0.273832 0.658364 0.251122
O O14 0.248538 0.701692 0.103757
O O15 0.500000 0.949339 0.952945
O O16 0.714767 0.916099 0.845778
O O17 0.733249 0.000000 0.897677
O O18 0.500000 0.285596 0.816614
O O19 0.244994 0.290109 0.916691
O O20 0.000000 0.352640 0.320105
O O21 0.500000 0.700992 0.005801
#
# Coordination Sequence:
#
# PCOD8188238 Si02
#       8
#     8   8   8   8   8   8   8   8
#     4   9  15  27  46  67  95 130 160 190 237 289
#     4  11  20  33  51  72  99 133 168 204 244 294
#     4  10  20  32  47  72 104 132 163 205 246 288
#     4  11  21  33  49  71  96 129 169 206 241 291
#     4   9  17  30  49  71  97 133 170 200 243 303
#     4  11  21  34  51  71  95 129 166 204 248 294
#     4  10  18  31  48  69  97 131 164 201 246 294
#     4   9  18  33  48  63  95 133 163 196 244 290
#
# _framework density 16.701198000000002
#
# number of rings (size 3 to 8) (size 9 to 14) (size 15 to 20)
#    0.000    2.000    3.750    1.500    0.000    1.250 
#    0.000    3.750    0.000    0.000    0.000    0.875 
#    0.000    5.000    0.000    0.000    0.000    0.000 
#
# Total GULP energy -396544.619101 kJ/mol
# GULP energy per Si atom -12392.019347 kJ/mol
# Density = 1.666319 g / cm^3
# Si number density = 16.701198 Si / 1000 Ang^3
#
#
#
# Elastic Constant Matrix: (Units=GPa)
#
#
# Indices 1 2 3 4 5 6 
#
# 1 42.8361 21.4325 28.1596 -0.0002 0.0000 0.0000
# 2 21.4325 93.9452 53.4444 0.0000 0.0000 0.0000
# 3 28.1596 53.4444 126.4182 -0.0002 0.0000 -0.0002
# 4 -0.0002 0.0000 -0.0002 25.2009 0.0000 0.0000
# 5 0.0000 0.0000 0.0000 0.0000 20.1891 0.0000
# 6 0.0000 0.0000 -0.0002 0.0000 0.0000 22.8552
#
#
#
# Elastic Compliance Matrix: (Units=1/GPa)
#
#
# Indices 1 2 3 4 5 6 
#
# 1 0.028336 -0.003784 -0.004712 0.000000 0.000000 0.000000
# 2 -0.003784 0.014520 -0.005296 0.000000 0.000000 0.000000
# 3 -0.004712 -0.005296 0.011199 0.000000 0.000000 0.000000
# 4 0.000000 0.000000 0.000000 0.039681 0.000000 0.000000
# 5 0.000000 0.000000 0.000000 0.000000 0.049532 0.000000
# 6 0.000000 0.000000 0.000000 0.000000 0.000000 0.043754
#
#
# Mechanical properties :
#
#
# Convention : Reuss Voigt Hill
#
# Bulk Modulus (GPa) = 37.77662 52.14137 44.95899
# Shear Modulus (GPa) = 22.37853 24.32658 23.35255
#
# Velocity S-wave (km/s) = 3.66448 3.82065 3.74338
# Velocity P-wave (km/s) = 6.36968 7.12398 6.75736
#
# Compressibility (1/GPa) = 0.02647140
#
# Stress axis : x y z
#
# Youngs Moduli (GPa) = 35.29130 68.86835 89.29583
#
# Poissons Ratio (x) = 0.26058 0.42077
# Poissons Ratio (y) = 0.13353 0.47290
# Poissons Ratio (z) = 0.16630 0.36471
#
# Static dielectric constant tensor:
#      x y z
#    x 3.009320 0.000000 0.000000 
#    y 0.000000 3.215520 0.000000 
#    z 0.000000 0.000000 3.244810 
# 
# 
# High freq. dielectric constant tensor:
#      x y z
#    x 1.625860 0.000000 0.000000 
#    y 0.000000 1.638360 0.000000 
#    z 0.000000 0.000000 1.623620 
# 
# From -- ./inp_files/17113.got.cif
#   From: 2010.03.12/outbox.cif.g09.slc.cpg/sg44_9_cif.got.tgz:17113.got - 2010.04.14 02:36:11.
