data_PCOD8188080
_publ_section_title
;
Structure prediction by ZEFSAII (Michael W. Deem and Ramdas Pophale) SiO2 
 PCOD8188080
Probable space group: I M M 2
;
_chemical_formula_sum "Si O2"
_cell_formula_units_Z 64
_cell_length_a 9.127847
_cell_length_b 28.085321
_cell_length_c 14.473415
_cell_angle_alpha 90.000000
_cell_angle_beta 90.000000
_cell_angle_gamma 90.000000
_cell_volume 3710.383148
_symmetry_space_group_name_H-M "I M M 2"
_symmetry_group_IT_number 44
_symmetry_cell_setting 'orthorhombic'
loop_
_space_group_symop_operation_xyz
x,y,z
-x,-y,z
-x,y,z
x,-y,z
1/2+x,1/2+y,1/2+z
1/2-x,1/2-y,1/2+z
1/2-x,1/2+y,1/2+z
1/2+x,1/2-y,1/2+z
loop_
_atom_site_type_symbol
_atom_site_label
_atom_site_fract_x
_atom_site_fract_y
_atom_site_fract_z
Si Si1 0.327313 0.766518 0.810750
Si Si2 0.335020 0.670107 0.569429
Si Si3 0.166045 0.366904 0.939280
Si Si4 0.826736 0.857222 0.863528
Si Si5 0.672062 0.553818 0.047093
Si Si6 0.671717 0.177848 0.243452
Si Si7 0.326079 0.447605 0.253560
Si Si8 0.335346 0.765327 0.483240
O O1 0.500000 0.768587 0.792322
O O2 0.256537 0.818832 0.799434
O O3 0.252069 0.728952 0.742112
O O4 0.292720 0.749122 0.913852
O O5 0.500000 0.653344 0.590609
O O6 0.283003 0.648334 0.471266
O O7 0.231445 0.650854 0.651734
O O8 0.326767 0.728357 0.567751
O O9 0.212093 0.352048 0.835084
O O10 0.187093 0.321100 0.008136
O O11 0.000000 0.384795 0.940505
O O12 0.263007 0.410394 0.972333
O O13 0.772861 0.908835 0.828103
O O14 0.000000 0.849757 0.850879
O O15 0.500000 0.560491 0.043907
O O16 0.716104 0.500000 0.019552
O O17 0.731280 0.565140 0.150454
O O18 0.500000 0.185739 0.234646
O O19 0.500000 0.449042 0.249951
O O20 0.267065 0.500000 0.283035
O O21 0.500000 0.760702 0.437066
#
# Coordination Sequence:
#
# PCOD8188080 Si02
#       8
#     8   8   8   8   8   8   8   8
#     4  10  18  28  44  66  92 123 160 197 230 270
#     4   9  17  29  46  69  97 129 162 195 231 273
#     4   9  18  32  49  68  92 125 160 193 233 281
#     4   9  17  31  50  71  98 129 157 191 236 282
#     4   9  18  32  50  73  97 118 147 192 239 281
#     4  10  20  33  47  65  94 131 166 199 236 277
#     4   8  15  30  52  75  96 120 152 188 231 286
#     4   8  16  31  46  64  94 125 154 191 232 272
#
# _framework density 17.248892999999999
#
# number of rings (size 3 to 8) (size 9 to 14) (size 15 to 20)
#    0.000    3.000    0.000    3.750    0.000    5.750 
#    0.000    3.125    0.000    1.875    0.000    1.750 
#    0.000    0.000    0.000    0.000    0.000    0.000 
#
# Total GULP energy -396471.165124 kJ/mol
# GULP energy per Si atom -12389.723910 kJ/mol
# Density = 1.720963 g / cm^3
# Si number density = 17.248893 Si / 1000 Ang^3
#
#
#
# Elastic Constant Matrix: (Units=GPa)
#
#
# Indices 1 2 3 4 5 6 
#
# 1 60.1263 41.4380 37.6427 -0.0001 0.0000 0.0000
# 2 41.4380 125.0528 61.3709 -0.0001 0.0000 0.0000
# 3 37.6427 61.3709 91.9062 -0.0004 0.0001 0.0000
# 4 -0.0001 -0.0001 -0.0004 22.6724 0.0000 0.0000
# 5 0.0000 0.0000 0.0001 0.0000 21.9422 0.0000
# 6 0.0000 0.0000 0.0000 0.0000 0.0000 22.4771
#
#
#
# Elastic Compliance Matrix: (Units=1/GPa)
#
#
# Indices 1 2 3 4 5 6 
#
# 1 0.024069 -0.004667 -0.006742 0.000000 0.000000 0.000000
# 2 -0.004667 0.012800 -0.006635 0.000000 0.000000 0.000000
# 3 -0.006742 -0.006635 0.018073 0.000000 0.000000 0.000000
# 4 0.000000 0.000000 0.000000 0.044107 0.000000 0.000000
# 5 0.000000 0.000000 0.000000 0.000000 0.045574 0.000000
# 6 0.000000 0.000000 0.000000 0.000000 0.000000 0.044490
#
#
# Mechanical properties :
#
#
# Convention : Reuss Voigt Hill
#
# Bulk Modulus (GPa) = 53.04229 61.99870 57.52049
# Shear Modulus (GPa) = 21.59979 22.52726 22.06353
#
# Velocity S-wave (km/s) = 3.54254 3.61780 3.58037
# Velocity P-wave (km/s) = 6.89570 7.31252 7.10717
#
# Compressibility (1/GPa) = 0.01885288
#
# Stress axis : x y z
#
# Youngs Moduli (GPa) = 41.54768 78.12803 55.33202
#
# Poissons Ratio (x) = 0.36462 0.37303
# Poissons Ratio (y) = 0.19390 0.36715
# Poissons Ratio (z) = 0.28010 0.51841
#
# Static dielectric constant tensor:
#      x y z
#    x 3.008560 0.000000 0.000000 
#    y 0.000000 3.294230 0.000000 
#    z 0.000000 0.000000 3.112970 
# 
# 
# High freq. dielectric constant tensor:
#      x y z
#    x 1.650740 0.000000 0.000000 
#    y 0.000000 1.649120 0.000000 
#    z 0.000000 0.000000 1.651730 
# 
# From -- ./inp_files/17149.got.cif
#   From: 2010.03.12/outbox.cif.g09.slc.cpg/sg44_9_cif.got.tgz:17149.got - 2010.04.14 02:36:11.
