data_PCOD8188393
_publ_section_title
;
Structure prediction by ZEFSAII (Michael W. Deem and Ramdas Pophale) SiO2 
 PCOD8188393
Probable space group: I M M 2
;
_chemical_formula_sum "Si O2"
_cell_formula_units_Z 48
_cell_length_a 16.384579
_cell_length_b 17.455202
_cell_length_c 9.001753
_cell_angle_alpha 90.000000
_cell_angle_beta 90.000000
_cell_angle_gamma 90.000000
_cell_volume 2574.466576
_symmetry_space_group_name_H-M "I M M 2"
_symmetry_group_IT_number 44
_symmetry_cell_setting 'orthorhombic'
loop_
_space_group_symop_operation_xyz
x,y,z
-x,-y,z
-x,y,z
x,-y,z
1/2+x,1/2+y,1/2+z
1/2-x,1/2-y,1/2+z
1/2-x,1/2+y,1/2+z
1/2+x,1/2-y,1/2+z
loop_
_atom_site_type_symbol
_atom_site_label
_atom_site_fract_x
_atom_site_fract_y
_atom_site_fract_z
Si Si1 0.676394 0.090822 0.375000
Si Si2 0.409840 0.866505 0.652027
Si Si3 0.255505 0.415192 0.289981
Si Si4 0.745180 0.344407 0.602086
Si Si5 0.191142 0.179555 0.542038
Si Si6 0.590616 0.304844 0.769503
O O1 0.601655 0.124984 0.472854
O O2 0.681064 0.130552 0.212465
O O3 0.758898 0.112426 0.461037
O O4 0.668376 0.000000 0.357041
O O5 0.500000 0.899003 0.692067
O O6 0.338351 0.912574 0.733983
O O7 0.403809 0.779711 0.704720
O O8 0.289533 0.500000 0.261016
O O9 0.255621 0.400658 0.464200
O O10 0.317009 0.354051 0.209541
O O11 0.757642 0.257739 0.548127
O O12 0.657918 0.354783 0.683660
O O13 0.108841 0.194624 0.448130
O O14 0.500000 0.339134 0.745890
#
# Coordination Sequence:
#
# PCOD8188393 Si02
#       6
#     8   8   8   8   8   8
#     4  10  20  33  53  79 110 149 186 225 273 329
#     4  10  19  34  54  81 113 147 186 224 275 335
#     4  11  21  34  58  86 112 147 184 231 284 333
#     4  11  19  36  58  82 112 146 189 233 272 329
#     4  10  18  35  57  78 107 145 188 226 268 326
#     4  10  20  35  58  84 109 141 188 238 282 320
#
# _framework density 18.644638
#
# number of rings (size 3 to 8) (size 9 to 14) (size 15 to 20)
#    0.000    1.667    5.000    3.500    0.000    1.333 
#    0.000    2.500    0.000   21.000    0.000    0.000 
#    0.000    0.000    0.000    0.000    0.000    0.000 
#
# Total GULP energy -297369.547493 kJ/mol
# GULP energy per Si atom -12390.397812 kJ/mol
# Density = 1.860220 g / cm^3
# Si number density = 18.644638 Si / 1000 Ang^3
#
#
#
# Elastic Constant Matrix: (Units=GPa)
#
#
# Indices 1 2 3 4 5 6 
#
# 1 89.8002 28.9636 44.6807 0.0000 0.0000 0.0000
# 2 28.9636 82.2247 32.1099 0.0000 0.0000 0.0000
# 3 44.6807 32.1099 120.1185 0.0000 0.0000 0.0000
# 4 0.0000 0.0000 0.0000 27.9724 0.0000 0.0000
# 5 0.0000 0.0000 0.0000 0.0000 22.6842 0.0000
# 6 0.0000 0.0000 0.0000 0.0000 0.0000 10.5963
#
#
#
# Elastic Compliance Matrix: (Units=1/GPa)
#
#
# Indices 1 2 3 4 5 6 
#
# 1 0.014441 -0.003338 -0.004479 0.000000 0.000000 0.000000
# 2 -0.003338 0.014351 -0.002595 0.000000 0.000000 0.000000
# 3 -0.004479 -0.002595 0.010685 0.000000 0.000000 0.000000
# 4 0.000000 0.000000 0.000000 0.035750 0.000000 0.000000
# 5 0.000000 0.000000 0.000000 0.000000 0.044084 0.000000
# 6 0.000000 0.000000 0.000000 0.000000 0.000000 0.094373
#
#
# Mechanical properties :
#
#
# Convention : Reuss Voigt Hill
#
# Bulk Modulus (GPa) = 53.61002 55.96130 54.78566
# Shear Modulus (GPa) = 20.77068 24.67652 22.72360
#
# Velocity S-wave (km/s) = 3.34133 3.64197 3.49488
# Velocity P-wave (km/s) = 6.61075 6.91123 6.76266
#
# Compressibility (1/GPa) = 0.01865323
#
# Stress axis : x y z
#
# Youngs Moduli (GPa) = 69.24677 69.68288 93.58933
#
# Poissons Ratio (x) = 0.23257 0.41923
# Poissons Ratio (y) = 0.23112 0.24284
# Poissons Ratio (z) = 0.31019 0.18081
#
# Static dielectric constant tensor:
#      x y z
#    x 3.499450 0.000000 0.000000 
#    y 0.000000 3.267870 0.000000 
#    z 0.000000 0.000000 3.834300 
# 
# 
# High freq. dielectric constant tensor:
#      x y z
#    x 1.687160 0.000000 0.000000 
#    y 0.000000 1.718520 0.000000 
#    z 0.000000 0.000000 1.734700 
# 
# From -- ./inp_files/7089.got.cif
#   From: 2010.03.12/outbox.cif.g09.slc.cpg/sg44_4_cif.got.tgz:7089.got - 2010.04.14 02:36:11.
