data_PCOD8188634
_publ_section_title
;
Structure prediction by ZEFSAII (Michael W. Deem and Ramdas Pophale) SiO2 
 PCOD8188634
Probable space group: I M M 2
;
_chemical_formula_sum "Si O2"
_cell_formula_units_Z 64
_cell_length_a 20.737703
_cell_length_b 8.637007
_cell_length_c 19.638971
_cell_angle_alpha 90.000000
_cell_angle_beta 90.000000
_cell_angle_gamma 90.000000
_cell_volume 3517.569207
_symmetry_space_group_name_H-M "I M M 2"
_symmetry_group_IT_number 44
_symmetry_cell_setting 'orthorhombic'
loop_
_space_group_symop_operation_xyz
x,y,z
-x,-y,z
-x,y,z
x,-y,z
1/2+x,1/2+y,1/2+z
1/2-x,1/2-y,1/2+z
1/2-x,1/2+y,1/2+z
1/2+x,1/2-y,1/2+z
loop_
_atom_site_type_symbol
_atom_site_label
_atom_site_fract_x
_atom_site_fract_y
_atom_site_fract_z
Si Si1 0.258323 0.821885 0.871940
Si Si2 0.570338 0.815499 0.093034
Si Si3 0.772255 0.817385 0.234424
Si Si4 0.186198 0.680580 0.098016
Si Si5 0.073561 0.177829 0.014013
Si Si6 0.126290 0.682934 0.731165
Si Si7 0.620674 0.181342 0.380544
Si Si8 0.695374 0.178607 0.017706
O O1 0.296030 0.762517 0.804753
O O2 0.196298 0.716818 0.887044
O O3 0.237041 0.000000 0.863182
O O4 0.305453 0.802282 0.936406
O O5 0.500000 0.753105 0.069444
O O6 0.583061 0.751914 0.169673
O O7 0.626755 0.754390 0.043552
O O8 0.570066 0.000000 0.092989
O O9 0.815452 0.765437 0.170881
O O10 0.699400 0.757627 0.221411
O O11 0.777279 0.000000 0.243642
O O12 0.190547 0.500000 0.111415
O O13 0.119583 0.717883 0.060117
O O14 0.246068 0.730533 0.051710
O O15 0.000000 0.203819 0.037379
O O16 0.094568 0.000000 0.022244
O O17 0.079580 0.223573 0.934882
O O18 0.128740 0.500000 0.728004
O O19 0.097674 0.732813 0.804639
O O20 0.609724 0.000000 0.393466
O O21 0.703657 0.000000 0.039885
#
# Coordination Sequence:
#
# PCOD8188634 Si02
#       8
#     8   8   8   8   8   8   8   8
#     4  10  19  31  51  79 111 143 182 227 274 322
#     4   9  16  28  49  77 106 140 181 219 260 312
#     4  10  19  34  55  78 109 141 178 226 278 326
#     4  12  23  35  57  84 108 139 182 228 277 332
#     4  11  24  40  56  76 107 148 186 225 279 336
#     4   8  15  27  46  75 108 141 177 218 261 309
#     4  10  19  31  50  78 109 144 185 225 267 318
#     4  10  19  33  54  79 109 144 180 226 273 318
#
# _framework density 18.194382999999998
#
# number of rings (size 3 to 8) (size 9 to 14) (size 15 to 20)
#    0.000    2.000    2.500    3.375    0.000    2.000 
#    0.000    1.250    0.000    1.125    0.000    1.750 
#    0.000    0.000    0.000    0.000    0.000    0.000 
#
# Total GULP energy -396733.551881 kJ/mol
# GULP energy per Si atom -12397.923496 kJ/mol
# Density = 1.815297 g / cm^3
# Si number density = 18.194383 Si / 1000 Ang^3
#
#
#
# Elastic Constant Matrix: (Units=GPa)
#
#
# Indices 1 2 3 4 5 6 
#
# 1 90.8123 18.3586 47.1510 0.0000 0.0000 0.0000
# 2 18.3586 51.0349 25.4297 0.0000 0.0000 0.0000
# 3 47.1510 25.4297 115.0822 0.0000 0.0000 0.0000
# 4 0.0000 0.0000 0.0000 28.2128 0.0000 0.0000
# 5 0.0000 0.0000 0.0000 0.0000 23.6158 0.0000
# 6 0.0000 0.0000 0.0000 0.0000 0.0000 10.3270
#
#
#
# Elastic Compliance Matrix: (Units=1/GPa)
#
#
# Indices 1 2 3 4 5 6 
#
# 1 0.014264 -0.002494 -0.005293 0.000000 0.000000 0.000000
# 2 -0.002494 0.022455 -0.003940 0.000000 0.000000 0.000000
# 3 -0.005293 -0.003940 0.011729 0.000000 0.000000 0.000000
# 4 0.000000 0.000000 0.000000 0.035445 0.000000 0.000000
# 5 0.000000 0.000000 0.000000 0.000000 0.042345 0.000000
# 6 0.000000 0.000000 0.000000 0.000000 0.000000 0.096834
#
#
# Mechanical properties :
#
#
# Convention : Reuss Voigt Hill
#
# Bulk Modulus (GPa) = 40.01012 48.75645 44.38328
# Shear Modulus (GPa) = 19.61892 23.49713 21.55802
#
# Velocity S-wave (km/s) = 3.28730 3.59757 3.44593
# Velocity P-wave (km/s) = 6.03710 6.64172 6.34661
#
# Compressibility (1/GPa) = 0.02499368
#
# Stress axis : x y z
#
# Youngs Moduli (GPa) = 70.10579 44.53396 85.26013
#
# Poissons Ratio (x) = 0.11105 0.45130
# Poissons Ratio (y) = 0.17482 0.33594
# Poissons Ratio (z) = 0.37109 0.17547
#
# Static dielectric constant tensor:
#      x y z
#    x 3.256150 0.000000 0.000000 
#    y 0.000000 3.215610 0.000000 
#    z 0.000000 0.000000 3.660930 
# 
# 
# High freq. dielectric constant tensor:
#      x y z
#    x 1.674210 0.000000 0.000000 
#    y 0.000000 1.690620 0.000000 
#    z 0.000000 0.000000 1.713920 
# 
# From -- ./inp_files/24482.got.cif
#   From: 2010.03.12/outbox.cif.g09.slc.cpg/sg44_13_cif.got.tgz:24482.got - 2010.04.14 02:36:11.
