data_PCOD8188556
_publ_section_title
;
Structure prediction by ZEFSAII (Michael W. Deem and Ramdas Pophale) SiO2 
 PCOD8188556
Probable space group: I M M 2
;
_chemical_formula_sum "Si O2"
_cell_formula_units_Z 64
_cell_length_a 15.530210
_cell_length_b 9.405966
_cell_length_c 22.934315
_cell_angle_alpha 90.000000
_cell_angle_beta 90.000000
_cell_angle_gamma 90.000000
_cell_volume 3350.167383
_symmetry_space_group_name_H-M "I M M 2"
_symmetry_group_IT_number 44
_symmetry_cell_setting 'orthorhombic'
loop_
_space_group_symop_operation_xyz
x,y,z
-x,-y,z
-x,y,z
x,-y,z
1/2+x,1/2+y,1/2+z
1/2-x,1/2-y,1/2+z
1/2-x,1/2+y,1/2+z
1/2+x,1/2-y,1/2+z
loop_
_atom_site_type_symbol
_atom_site_label
_atom_site_fract_x
_atom_site_fract_y
_atom_site_fract_z
Si Si1 0.319210 0.338724 0.983160
Si Si2 0.401781 0.345347 0.095488
Si Si3 0.861710 0.336483 0.042427
Si Si4 0.093005 0.160716 0.935289
Si Si5 0.733605 0.832612 0.876815
Si Si6 0.599313 0.335816 0.658512
Si Si7 0.270908 0.334800 0.762353
Si Si8 0.902268 0.335346 0.701203
O O1 0.326845 0.500000 0.958889
O O2 0.323062 0.230014 0.929648
O O3 0.394913 0.296024 0.028036
O O4 0.237043 0.321074 0.024789
O O5 0.500000 0.361631 0.111885
O O6 0.355514 0.500000 0.102227
O O7 0.364536 0.236063 0.142470
O O8 0.891396 0.500000 0.046800
O O9 0.878824 0.261856 0.103704
O O10 0.915201 0.260015 0.991663
O O11 0.166749 0.208758 0.890036
O O12 0.000000 0.168682 0.903167
O O13 0.113230 0.000000 0.956354
O O14 0.703040 0.759572 0.817596
O O15 0.718114 0.000000 0.871942
O O16 0.500000 0.311361 0.678056
O O17 0.614417 0.500000 0.641168
O O18 0.663869 0.292276 0.710673
O O19 0.281989 0.500000 0.778211
O O20 0.170038 0.300311 0.749390
O O21 0.903834 0.500000 0.686725
O O22 0.000000 0.286141 0.719905
#
# Coordination Sequence:
#
# PCOD8188556 Si02
#       8
#     8   8   8   8   8   8   8   8
#     4   9  18  33  51  72 101 133 162 197 245 298
#     4   9  17  30  50  76 102 128 161 200 242 291
#     4  10  19  30  49  78 106 130 159 199 248 297
#     4   9  18  33  51  72 101 133 161 193 238 295
#     4  10  21  35  52  73  95 125 168 210 246 289
#     4  10  21  36  53  73  98 132 172 208 245 293
#     4  10  21  37  54  71  97 134 171 207 248 293
#     4   9  18  32  51  77 106 133 161 196 244 301
#
# _framework density 19.103524
#
# number of rings (size 3 to 8) (size 9 to 14) (size 15 to 20)
#    0.000    2.500    0.000    1.875    0.000    5.000 
#    0.000    0.625    0.000    3.750    0.000    0.000 
#    0.000    0.000    0.000    0.000    0.000    0.000 
#
# Total GULP energy -396579.719387 kJ/mol
# GULP energy per Si atom -12393.116231 kJ/mol
# Density = 1.906004 g / cm^3
# Si number density = 19.103524 Si / 1000 Ang^3
#
#
#
# Elastic Constant Matrix: (Units=GPa)
#
#
# Indices 1 2 3 4 5 6 
#
# 1 44.4953 20.0827 22.4256 0.0000 0.0000 0.0000
# 2 20.0827 76.4645 53.8165 0.0000 0.0000 0.0000
# 3 22.4256 53.8165 100.9771 0.0000 0.0000 0.0000
# 4 0.0000 0.0000 0.0000 37.3629 0.0000 0.0000
# 5 0.0000 0.0000 0.0000 0.0000 16.6577 0.0000
# 6 0.0000 0.0000 0.0000 0.0000 0.0000 18.3110
#
#
#
# Elastic Compliance Matrix: (Units=1/GPa)
#
#
# Indices 1 2 3 4 5 6 
#
# 1 0.026225 -0.004463 -0.003446 0.000000 0.000000 0.000000
# 2 -0.004463 0.021687 -0.010567 0.000000 0.000000 0.000000
# 3 -0.003446 -0.010567 0.016301 0.000000 0.000000 0.000000
# 4 0.000000 0.000000 0.000000 0.026765 0.000000 0.000000
# 5 0.000000 0.000000 0.000000 0.000000 0.060032 0.000000
# 6 0.000000 0.000000 0.000000 0.000000 0.000000 0.054612
#
#
# Mechanical properties :
#
#
# Convention : Reuss Voigt Hill
#
# Bulk Modulus (GPa) = 36.68191 46.06518 41.37355
# Shear Modulus (GPa) = 19.86800 22.84045 21.35422
#
# Velocity S-wave (km/s) = 3.22843 3.46152 3.34700
# Velocity P-wave (km/s) = 5.75676 6.33577 6.05319
#
# Compressibility (1/GPa) = 0.02726139
#
# Stress axis : x y z
#
# Youngs Moduli (GPa) = 38.13136 46.10954 61.34780
#
# Poissons Ratio (x) = 0.20577 0.21140
# Poissons Ratio (y) = 0.17016 0.64829
# Poissons Ratio (z) = 0.13140 0.48726
#
# Static dielectric constant tensor:
#      x y z
#    x 3.638080 0.000000 0.000000 
#    y 0.000000 3.662150 0.000000 
#    z 0.000000 0.000000 3.294300 
# 
# 
# High freq. dielectric constant tensor:
#      x y z
#    x 1.737600 0.000000 0.000000 
#    y 0.000000 1.742820 0.000000 
#    z 0.000000 0.000000 1.727910 
# 
# From -- ./inp_files/23282.got.cif
#   From: 2010.03.12/outbox.cif.g09.slc.cpg/sg44_12_cif.got.tgz:23282.got - 2010.04.14 02:36:11.
