data_PCOD8188258
_publ_section_title
;
Structure prediction by ZEFSAII (Michael W. Deem and Ramdas Pophale) SiO2 
 PCOD8188258
Probable space group: I M M 2
;
_chemical_formula_sum "Si O2"
_cell_formula_units_Z 56
_cell_length_a 24.782201
_cell_length_b 8.719502
_cell_length_c 14.405990
_cell_angle_alpha 90.000000
_cell_angle_beta 90.000000
_cell_angle_gamma 90.000000
_cell_volume 3112.968067
_symmetry_space_group_name_H-M "I M M 2"
_symmetry_group_IT_number 44
_symmetry_cell_setting 'orthorhombic'
loop_
_space_group_symop_operation_xyz
x,y,z
-x,-y,z
-x,y,z
x,-y,z
1/2+x,1/2+y,1/2+z
1/2-x,1/2-y,1/2+z
1/2-x,1/2+y,1/2+z
1/2+x,1/2-y,1/2+z
loop_
_atom_site_type_symbol
_atom_site_label
_atom_site_fract_x
_atom_site_fract_y
_atom_site_fract_z
Si Si1 0.398044 0.324823 0.438900
Si Si2 0.500000 0.178077 0.354248
Si Si3 0.785045 0.823211 0.279301
Si Si4 0.294370 0.682572 0.984892
Si Si5 0.689316 0.681305 0.582417
Si Si6 0.892061 0.673698 0.595921
Si Si7 0.000000 0.181362 0.649270
Si Si8 0.663465 0.830088 0.287982
O O1 0.417784 0.500000 0.438314
O O2 0.448580 0.216439 0.418121
O O3 0.368449 0.281856 0.535355
O O4 0.353006 0.300382 0.360193
O O5 0.500000 0.265909 0.256596
O O6 0.500000 0.000000 0.329753
O O7 0.798760 0.749326 0.379374
O O8 0.816385 0.756846 0.188965
O O9 0.722963 0.794285 0.252297
O O10 0.799504 0.000000 0.288672
O O11 0.292661 0.500000 0.985390
O O12 0.238849 0.739222 0.029897
O O13 0.347163 0.738307 0.037703
O O14 0.701695 0.500000 0.580891
O O15 0.897245 0.500000 0.558711
O O16 0.949107 0.759140 0.590143
O O17 0.877447 0.674581 0.703541
O O18 0.000000 0.000000 0.650045
O O19 0.661662 0.000000 0.334770
#
# Coordination Sequence:
#
# PCOD8188258 Si02
#       8
#     8   4   8   8   8   8   4   8
#     4  11  22  34  54  82 112 142 185 236 274 322
#     4  12  24  38  56  77 112 153 182 217 280 344
#     4   9  18  34  53  76 110 150 185 220 269 329
#     4  11  21  33  54  82 111 146 188 232 272 323
#     4  10  20  36  55  78 110 148 185 228 283 334
#     4  11  22  37  56  79 113 153 184 218 278 337
#     4  12  24  38  58  85 112 139 186 235 270 322
#     4  10  18  31  53  77 111 151 182 213 265 338
#
# _framework density 17.989263999999999
#
# number of rings (size 3 to 8) (size 9 to 14) (size 15 to 20)
#    0.000    1.429    4.286    2.571    0.000    1.143 
#    0.000    1.429    0.000    0.857    0.000    3.000 
#    0.000    0.000    0.000    0.000    0.000    0.000 
#
# Total GULP energy -347075.062465 kJ/mol
# GULP energy per Si atom -12395.537945 kJ/mol
# Density = 1.794832 g / cm^3
# Si number density = 17.989264 Si / 1000 Ang^3
#
#
#
# Elastic Constant Matrix: (Units=GPa)
#
#
# Indices 1 2 3 4 5 6 
#
# 1 74.8338 27.0974 25.1646 0.0000 0.0000 0.0000
# 2 27.0974 69.9640 26.0368 0.0000 0.0000 0.0000
# 3 25.1646 26.0368 94.9738 0.0000 0.0000 0.0000
# 4 0.0000 0.0000 0.0000 18.3141 0.0000 0.0000
# 5 0.0000 0.0000 0.0000 0.0000 29.0027 0.0000
# 6 0.0000 0.0000 0.0000 0.0000 0.0000 28.6074
#
#
#
# Elastic Compliance Matrix: (Units=1/GPa)
#
#
# Indices 1 2 3 4 5 6 
#
# 1 0.016215 -0.005213 -0.002867 0.000000 0.000000 0.000000
# 2 -0.005213 0.017593 -0.003442 0.000000 0.000000 0.000000
# 3 -0.002867 -0.003442 0.012232 0.000000 0.000000 0.000000
# 4 0.000000 0.000000 0.000000 0.054603 0.000000 0.000000
# 5 0.000000 0.000000 0.000000 0.000000 0.034480 0.000000
# 6 0.000000 0.000000 0.000000 0.000000 0.000000 0.034956
#
#
# Mechanical properties :
#
#
# Convention : Reuss Voigt Hill
#
# Bulk Modulus (GPa) = 43.48555 44.04103 43.76329
# Shear Modulus (GPa) = 24.90193 25.94971 25.42582
#
# Velocity S-wave (km/s) = 3.72461 3.80216 3.76358
# Velocity P-wave (km/s) = 6.53624 6.61893 6.57772
#
# Compressibility (1/GPa) = 0.02299614
#
# Stress axis : x y z
#
# Youngs Moduli (GPa) = 61.67232 56.84099 81.74962
#
# Poissons Ratio (x) = 0.29631 0.23439
# Poissons Ratio (y) = 0.32150 0.28137
# Poissons Ratio (z) = 0.17682 0.19564
#
# Static dielectric constant tensor:
#      x y z
#    x 3.323560 0.000000 0.000000 
#    y 0.000000 3.305700 0.000000 
#    z 0.000000 0.000000 3.534080 
# 
# 
# High freq. dielectric constant tensor:
#      x y z
#    x 1.689650 0.000000 0.000000 
#    y 0.000000 1.691070 0.000000 
#    z 0.000000 0.000000 1.687560 
# 
# From -- ./inp_files/19274.got.cif
#   From: 2010.03.12/outbox.cif.g09.slc.cpg/sg44_10_cif.got.tgz:19274.got - 2010.04.14 02:36:11.
