data_PCOD8188397
_publ_section_title
;
Structure prediction by ZEFSAII (Michael W. Deem and Ramdas Pophale) SiO2 
 PCOD8188397
Probable space group: I M M 2
;
_chemical_formula_sum "Si O2"
_cell_formula_units_Z 32
_cell_length_a 35.407879
_cell_length_b 5.323860
_cell_length_c 8.465245
_cell_angle_alpha 90.000000
_cell_angle_beta 90.000000
_cell_angle_gamma 90.000000
_cell_volume 1595.754474
_symmetry_space_group_name_H-M "I M M 2"
_symmetry_group_IT_number 44
_symmetry_cell_setting 'orthorhombic'
loop_
_space_group_symop_operation_xyz
x,y,z
-x,-y,z
-x,y,z
x,-y,z
1/2+x,1/2+y,1/2+z
1/2-x,1/2-y,1/2+z
1/2-x,1/2+y,1/2+z
1/2+x,1/2-y,1/2+z
loop_
_atom_site_type_symbol
_atom_site_label
_atom_site_fract_x
_atom_site_fract_y
_atom_site_fract_z
Si Si1 0.456723 0.500000 0.545090
Si Si2 0.456884 0.000000 0.345842
Si Si3 0.773330 0.000000 0.549867
Si Si4 0.612816 0.000000 0.141770
Si Si5 0.267063 0.000000 0.872761
Si Si6 0.611251 0.500000 0.766737
Si Si7 0.854801 0.500000 0.293436
Si Si8 0.859614 0.000000 0.607067
O O1 0.500000 0.500000 0.602107
O O2 0.447827 0.249870 0.445304
O O3 0.431406 0.500000 0.702556
O O4 0.431181 0.000000 0.188361
O O5 0.500000 0.000000 0.287219
O O6 0.761861 0.000000 0.730245
O O7 0.757051 0.748824 0.471105
O O8 0.818329 0.000000 0.532333
O O9 0.632801 0.748693 0.212392
O O10 0.620918 0.000000 0.955152
O O11 0.310238 0.000000 0.818581
O O12 0.633188 0.747439 0.700451
O O13 0.611132 0.500000 0.958402
#
# Coordination Sequence:
#
# PCOD8188397 Si02
#       8
#     4   4   4   4   4   4   4   4
#     4  10  21  37  55  83 122 156 189 241 301 358
#     4  10  21  37  55  83 122 156 189 241 301 358
#     4  12  23  43  66  91 127 169 205 261 326 376
#     4  10  18  35  61  81 107 156 192 235 293 348
#     4  12  23  43  66  91 127 169 205 261 326 376
#     4  10  18  35  61  81 107 156 192 235 293 348
#     4  10  19  37  61  79 113 147 195 246 294 343
#     4  10  19  37  61  79 113 147 195 246 294 343
#
# _framework density 20.053211000000001
#
# number of rings (size 3 to 8) (size 9 to 14) (size 15 to 20)
#    0.000    1.500    5.000    2.250    0.000    0.000 
#    0.000   12.500    0.000    0.000    0.000    0.000 
#    0.000    0.000    0.000    0.000    0.000    0.000 
#
# Total GULP energy -198297.464300 kJ/mol
# GULP energy per Si atom -12393.591519 kJ/mol
# Density = 2.000757 g / cm^3
# Si number density = 20.053211 Si / 1000 Ang^3
#
#
#
# Elastic Constant Matrix: (Units=GPa)
#
#
# Indices 1 2 3 4 5 6 
#
# 1 59.1729 23.4958 37.9670 0.0000 0.0000 0.0000
# 2 23.4958 223.0364 21.0805 0.0000 0.0000 0.0000
# 3 37.9670 21.0805 49.1096 0.0000 0.0000 0.0000
# 4 0.0000 0.0000 0.0000 22.4256 0.0000 0.0000
# 5 0.0000 0.0000 0.0000 0.0000 30.0794 0.0000
# 6 0.0000 0.0000 0.0000 0.0000 0.0000 4.9695
#
#
#
# Elastic Compliance Matrix: (Units=1/GPa)
#
#
# Indices 1 2 3 4 5 6 
#
# 1 0.033809 -0.001137 -0.025650 0.000000 0.000000 0.000000
# 2 -0.001137 0.004711 -0.001143 0.000000 0.000000 0.000000
# 3 -0.025650 -0.001143 0.040683 0.000000 0.000000 0.000000
# 4 0.000000 0.000000 0.000000 0.044592 0.000000 0.000000
# 5 0.000000 0.000000 0.000000 0.000000 0.033245 0.000000
# 6 0.000000 0.000000 0.000000 0.000000 0.000000 0.201226
#
#
# Mechanical properties :
#
#
# Convention : Reuss Voigt Hill
#
# Bulk Modulus (GPa) = 42.83883 55.15616 48.99749
# Shear Modulus (GPa) = 11.85093 28.07995 19.96544
#
# Velocity S-wave (km/s) = 2.43363 3.74608 3.15877
# Velocity P-wave (km/s) = 5.41348 6.80261 6.14740
#
# Compressibility (1/GPa) = 0.02334331
#
# Stress axis : x y z
#
# Youngs Moduli (GPa) = 29.57820 212.24993 24.58019
#
# Poissons Ratio (x) = 0.24139 0.63047
# Poissons Ratio (y) = 0.03364 0.02810
# Poissons Ratio (z) = 0.75867 0.24263
#
# Static dielectric constant tensor:
#      x y z
#    x 3.499090 0.000000 0.000000 
#    y 0.000000 4.871750 0.000000 
#    z 0.000000 0.000000 3.119430 
# 
# 
# High freq. dielectric constant tensor:
#      x y z
#    x 1.772910 0.000000 0.000000 
#    y 0.000000 1.831260 0.000000 
#    z 0.000000 0.000000 1.731360 
# 
# From -- ./inp_files/9829.got.cif
#   From: 2010.03.12/outbox.cif.g09.slc.cpg/sg44_5_cif.got.tgz:9829.got - 2010.04.14 02:36:11.
