data_PCOD8188773
_publ_section_title
;
Structure prediction by ZEFSAII (Michael W. Deem and Ramdas Pophale) SiO2 
 PCOD8188773
Probable space group: I M M 2
;
_chemical_formula_sum "Si O2"
_cell_formula_units_Z 64
_cell_length_a 8.610407
_cell_length_b 28.644974
_cell_length_c 12.857977
_cell_angle_alpha 90.000000
_cell_angle_beta 90.000000
_cell_angle_gamma 90.000000
_cell_volume 3171.354254
_symmetry_space_group_name_H-M "I M M 2"
_symmetry_group_IT_number 44
_symmetry_cell_setting 'orthorhombic'
loop_
_space_group_symop_operation_xyz
x,y,z
-x,-y,z
-x,y,z
x,-y,z
1/2+x,1/2+y,1/2+z
1/2-x,1/2-y,1/2+z
1/2-x,1/2+y,1/2+z
1/2+x,1/2-y,1/2+z
loop_
_atom_site_type_symbol
_atom_site_label
_atom_site_fract_x
_atom_site_fract_y
_atom_site_fract_z
Si Si1 0.182532 0.703056 0.913990
Si Si2 0.184373 0.445667 0.607614
Si Si3 0.180791 0.612982 0.801924
Si Si4 0.170644 0.182241 0.633894
Si Si5 0.680237 0.448740 0.974545
Si Si6 0.831410 0.076042 0.689549
Si Si7 0.314049 0.603514 0.405908
Si Si8 0.318775 0.799044 0.844160
O O1 0.236516 0.666561 0.822140
O O2 0.225911 0.755324 0.887382
O O3 0.000000 0.697963 0.930163
O O4 0.264576 0.690762 0.020612
O O5 0.231052 0.500000 0.625290
O O6 0.253937 0.413402 0.701466
O O7 0.263683 0.426483 0.504001
O O8 0.000000 0.440953 0.596861
O O9 0.218456 0.585539 0.906525
O O10 0.000000 0.611617 0.782125
O O11 0.149811 0.128098 0.649667
O O12 0.288664 0.200996 0.720912
O O13 0.000000 0.206288 0.645481
O O14 0.500000 0.432311 0.976781
O O15 0.695284 0.500000 0.925454
O O16 0.750899 0.450360 0.093054
O O17 0.748152 0.076145 0.802705
O O18 0.000000 0.052670 0.705878
O O19 0.500000 0.608506 0.399907
O O20 0.242036 0.655338 0.405648
O O21 0.500000 0.793362 0.866435
#
# Coordination Sequence:
#
# PCOD8188773 Si02
#       8
#     8   8   8   8   8   8   8   8
#     4  11  22  37  59  88 118 156 208 258 310 373
#     4  10  22  41  62  85 121 169 215 260 314 375
#     4  10  22  39  59  83 116 157 202 252 303 360
#     4  10  19  36  59  82 115 155 192 241 301 362
#     4  10  19  32  54  84 115 147 187 235 290 355
#     4   8  16  32  54  80 111 146 183 231 293 352
#     4  10  21  39  62  88 119 156 204 259 309 367
#     4  11  23  39  60  88 122 162 203 252 313 374
#
# _framework density 20.180653
#
# number of rings (size 3 to 8) (size 9 to 14) (size 15 to 20)
#    0.000    2.000    1.250    3.375    0.000    3.500 
#    0.000    5.625    0.000    0.000    0.000    0.000 
#    0.000    0.000    0.000    0.000    0.000    0.000 
#
# Total GULP energy -396489.469502 kJ/mol
# GULP energy per Si atom -12390.295922 kJ/mol
# Density = 2.013472 g / cm^3
# Si number density = 20.180653 Si / 1000 Ang^3
#
#
#
# Elastic Constant Matrix: (Units=GPa)
#
#
# Indices 1 2 3 4 5 6 
#
# 1 335.3943 -70.5356 296.7404 -0.0663 -0.0016 0.0002
# 2 -70.5356 92.9246 -41.0406 0.0398 0.0011 0.0000
# 3 296.7404 -41.0406 378.3115 -0.0206 0.0000 0.0003
# 4 -0.0663 0.0398 -0.0206 -153.1975 0.0066 -0.0002
# 5 -0.0016 0.0011 0.0000 0.0066 24.9256 0.0001
# 6 0.0002 0.0000 0.0003 -0.0002 0.0001 23.8704
#
#
#
# Elastic Compliance Matrix: (Units=1/GPa)
#
#
# Indices 1 2 3 4 5 6 
#
# 1 0.011625 0.005038 -0.008572 -0.000003 0.000000 0.000000
# 2 0.005038 0.013487 -0.002489 0.000002 0.000000 0.000000
# 3 -0.008572 -0.002489 0.009097 0.000002 0.000000 0.000000
# 4 -0.000003 0.000002 0.000002 -0.006528 0.000002 0.000000
# 5 0.000000 0.000000 0.000000 0.000002 0.040119 0.000000
# 6 0.000000 0.000000 0.000000 0.000000 0.000000 0.041893
#
#
# Mechanical properties :
#
#
# Convention : Reuss Voigt Hill
#
# Bulk Modulus (GPa) = 45.11855 130.77320 87.94587
# Shear Modulus (GPa) = 38.72145 20.55078 29.63612
#
# Velocity S-wave (km/s) = 4.38510 3.19461 3.83631
# Velocity P-wave (km/s) = 6.93142 8.86280 7.95594
#
# Compressibility (1/GPa) = 0.02216383
#
# Stress axis : x y z
#
# Youngs Moduli (GPa) = 86.01833 74.14741 109.92444
#
# Poissons Ratio (x) = -0.37359 0.94229
# Poissons Ratio (y) = -0.43340 0.27360
# Poissons Ratio (z) = 0.73736 0.18455
#
# Static dielectric constant tensor:
#      x y z
#    x 3.673710 -0.000100 -0.000040 
#    y -0.000100 4.918530 -0.000720 
#    z -0.000040 -0.000720 0.057070 
# 
# 
# High freq. dielectric constant tensor:
#      x y z
#    x 1.768030 0.000000 0.000000 
#    y 0.000000 1.789870 0.000000 
#    z 0.000000 0.000000 1.796930 
# 
# From -- ./inp_files/11579.got.cif
#   From: 2010.03.12/outbox.cif.g09.slc.cpg/sg44_6_cif.got.tgz:11579.got - 2010.04.14 02:36:11.
