data_PCOD8188463
_publ_section_title
;
Structure prediction by ZEFSAII (Michael W. Deem and Ramdas Pophale) SiO2 
 PCOD8188463
Probable space group: I M M 2
;
_chemical_formula_sum "Si O2"
_cell_formula_units_Z 40
_cell_length_a 8.738870
_cell_length_b 9.731975
_cell_length_c 25.934411
_cell_angle_alpha 90.000000
_cell_angle_beta 90.000000
_cell_angle_gamma 90.000000
_cell_volume 2205.629961
_symmetry_space_group_name_H-M "I M M 2"
_symmetry_group_IT_number 44
_symmetry_cell_setting 'orthorhombic'
loop_
_space_group_symop_operation_xyz
x,y,z
-x,-y,z
-x,y,z
x,-y,z
1/2+x,1/2+y,1/2+z
1/2-x,1/2-y,1/2+z
1/2-x,1/2+y,1/2+z
1/2+x,1/2-y,1/2+z
loop_
_atom_site_type_symbol
_atom_site_label
_atom_site_fract_x
_atom_site_fract_y
_atom_site_fract_z
Si Si1 0.681718 0.207831 0.409810
Si Si2 0.817744 0.500000 0.109156
Si Si3 0.179189 0.500000 0.721623
Si Si4 0.680953 0.000000 0.494468
Si Si5 0.821281 0.273838 0.187880
Si Si6 0.820320 0.000000 0.881043
Si Si7 0.325220 0.000000 0.771761
Si Si8 0.180529 0.000000 0.333350
O O1 0.500000 0.196794 0.403670
O O2 0.735106 0.134794 0.462799
O O3 0.742537 0.364491 0.410087
O O4 0.754395 0.135770 0.360221
O O5 0.763778 0.362418 0.138707
O O6 0.000000 0.500000 0.109122
O O7 0.746161 0.500000 0.051546
O O8 0.223474 0.634769 0.688942
O O9 0.273901 0.500000 0.774078
O O10 0.000000 0.500000 0.733457
O O11 0.500000 0.000000 0.500286
O O12 0.790737 0.363407 0.238996
O O13 0.000000 0.236911 0.183168
O O14 0.781830 0.000000 0.821048
O O15 0.000000 0.000000 0.885640
O O16 0.500000 0.000000 0.790368
O O17 0.000000 0.000000 0.337858
#
# Coordination Sequence:
#
# PCOD8188463 Si02
#       8
#     8   4   4   4   8   4   4   4
#     4   9  18  32  49  73 104 133 164 201 241 288
#     4   8  15  31  56  79  95 120 163 210 250 289
#     4  12  23  33  47  71 103 134 163 197 244 295
#     4   8  14  29  53  75  97 126 161 204 248 288
#     4   9  18  33  51  73  99 125 160 204 246 289
#     4  10  19  29  44  69 101 132 159 193 236 284
#     4   9  18  31  48  69  95 129 163 196 236 285
#     4  11  21  33  50  71  97 133 173 204 238 285
#
# _framework density 18.13541
#
# number of rings (size 3 to 8) (size 9 to 14) (size 15 to 20)
#    0.000    2.600    0.000    4.800    0.000    4.800 
#    0.000    2.500    0.000    9.600    0.000    1.400 
#    0.000    0.000    0.000    0.000    0.000    0.000 
#
# Total GULP energy -247950.173806 kJ/mol
# GULP energy per Si atom -12397.508690 kJ/mol
# Density = 1.809413 g / cm^3
# Si number density = 18.135410 Si / 1000 Ang^3
#
#
#
# Elastic Constant Matrix: (Units=GPa)
#
#
# Indices 1 2 3 4 5 6 
#
# 1 31.0159 27.8006 6.9361 0.0000 0.0000 0.0000
# 2 27.8006 170.4738 64.1165 0.0000 0.0000 0.0000
# 3 6.9361 64.1165 121.0192 0.0000 0.0000 0.0000
# 4 0.0000 0.0000 0.0000 6.6227 0.0000 0.0000
# 5 0.0000 0.0000 0.0000 0.0000 17.0656 0.0000
# 6 0.0000 0.0000 0.0000 0.0000 0.0000 17.6916
#
#
#
# Elastic Compliance Matrix: (Units=1/GPa)
#
#
# Indices 1 2 3 4 5 6 
#
# 1 0.037944 -0.006706 0.001378 0.000000 0.000000 0.000000
# 2 -0.006706 0.008511 -0.004125 0.000000 0.000000 0.000000
# 3 0.001378 -0.004125 0.010370 0.000000 0.000000 0.000000
# 4 0.000000 0.000000 0.000000 0.150996 0.000000 0.000000
# 5 0.000000 0.000000 0.000000 0.000000 0.058598 0.000000
# 6 0.000000 0.000000 0.000000 0.000000 0.000000 0.056524
#
#
# Mechanical properties :
#
#
# Convention : Reuss Voigt Hill
#
# Bulk Modulus (GPa) = 26.37183 57.80172 42.08677
# Shear Modulus (GPa) = 14.10484 23.18634 18.64559
#
# Velocity S-wave (km/s) = 2.79185 3.57951 3.20993
# Velocity P-wave (km/s) = 4.99657 7.00181 6.08239
#
# Compressibility (1/GPa) = 0.03791925
#
# Stress axis : x y z
#
# Youngs Moduli (GPa) = 26.35435 117.49450 96.43663
#
# Poissons Ratio (x) = 0.78795 -0.13292
# Poissons Ratio (y) = 0.17674 0.39778
# Poissons Ratio (z) = -0.03632 0.48464
#
# Static dielectric constant tensor:
#      x y z
#    x 3.045680 0.000000 0.000000 
#    y 0.000000 4.331820 0.000000 
#    z 0.000000 0.000000 3.427540 
# 
# 
# High freq. dielectric constant tensor:
#      x y z
#    x 1.674630 0.000000 0.000000 
#    y 0.000000 1.714370 0.000000 
#    z 0.000000 0.000000 1.686340 
# 
# From -- ./inp_files/26008.got.cif
#   From: 2010.03.12/outbox.cif.g09.slc.cpg/sg44_14_cif.got.tgz:26008.got - 2010.04.14 02:36:11.
