data_PCOD8188078
_publ_section_title
;
Structure prediction by ZEFSAII (Michael W. Deem and Ramdas Pophale) SiO2 
 PCOD8188078
Probable space group: I M M 2
;
_chemical_formula_sum "Si O2"
_cell_formula_units_Z 48
_cell_length_a 11.872450
_cell_length_b 9.485948
_cell_length_c 25.722929
_cell_angle_alpha 90.000000
_cell_angle_beta 90.000000
_cell_angle_gamma 90.000000
_cell_volume 2896.953391
_symmetry_space_group_name_H-M "I M M 2"
_symmetry_group_IT_number 44
_symmetry_cell_setting 'orthorhombic'
loop_
_space_group_symop_operation_xyz
x,y,z
-x,-y,z
-x,y,z
x,-y,z
1/2+x,1/2+y,1/2+z
1/2-x,1/2-y,1/2+z
1/2-x,1/2+y,1/2+z
1/2+x,1/2-y,1/2+z
loop_
_atom_site_type_symbol
_atom_site_label
_atom_site_fract_x
_atom_site_fract_y
_atom_site_fract_z
Si Si1 0.242446 0.667549 0.336330
Si Si2 0.267136 0.339058 0.020993
Si Si3 0.873414 0.832521 0.738249
Si Si4 0.873494 0.832358 0.623798
Si Si5 0.000000 0.845069 0.463072
Si Si6 0.000000 0.666107 0.363943
Si Si7 0.868471 0.834862 0.939768
O O1 0.252617 0.500000 0.335879
O O2 0.297898 0.733109 0.284418
O O3 0.112548 0.718186 0.334779
O O4 0.304620 0.723294 0.388372
O O5 0.222958 0.500000 0.019546
O O6 0.391014 0.326967 0.997926
O O7 0.177739 0.243630 0.990688
O O8 0.283101 0.282055 0.080353
O O9 0.830119 0.784197 0.681127
O O10 0.000000 0.778044 0.746978
O O11 0.870240 0.000000 0.741746
O O12 0.000000 0.771630 0.614389
O O13 0.881678 0.000000 0.620936
O O14 0.000000 0.722506 0.421737
O O15 0.000000 0.000000 0.436417
O O16 0.000000 0.500000 0.369264
O O17 0.000000 0.801849 0.933133
O O18 0.846047 0.000000 0.947430
#
# Coordination Sequence:
#
# PCOD8188078 Si02
#       7
#     8   8   8   8   4   4   8
#     4   9  16  26  41  63  90 116 144 181 224 266
#     4  10  18  29  47  69  94 118 146 186 225 265
#     4   8  13  22  39  62  88 117 145 176 219 268
#     4   8  13  23  41  65  90 116 145 178 220 265
#     4  10  18  28  44  68  94 120 146 177 222 270
#     4  10  18  28  44  66  92 118 146 183 224 266
#     4  10  20  32  46  65  91 122 153 184 221 269
#
# _framework density 16.569130999999999
#
# number of rings (size 3 to 8) (size 9 to 14) (size 15 to 20)
#    0.000    2.833    2.500    1.500    0.000    2.333 
#    0.000    0.000    1.833    0.000    0.000    2.333 
#    0.000    2.667    0.000    0.000    0.000    0.000 
#
# Total GULP energy -297400.423916 kJ/mol
# GULP energy per Si atom -12391.684330 kJ/mol
# Density = 1.653142 g / cm^3
# Si number density = 16.569131 Si / 1000 Ang^3
#
#
#
# Elastic Constant Matrix: (Units=GPa)
#
#
# Indices 1 2 3 4 5 6 
#
# 1 109.1419 26.0943 72.7441 0.0000 0.0000 0.0000
# 2 26.0943 18.0753 24.2476 0.0000 0.0000 0.0000
# 3 72.7441 24.2476 157.5113 0.0000 0.0000 0.0000
# 4 0.0000 0.0000 0.0000 16.1727 0.0000 0.0000
# 5 0.0000 0.0000 0.0000 0.0000 47.2713 0.0000
# 6 0.0000 0.0000 0.0000 0.0000 0.0000 28.1682
#
#
#
# Elastic Compliance Matrix: (Units=1/GPa)
#
#
# Indices 1 2 3 4 5 6 
#
# 1 0.016646 -0.017288 -0.005026 0.000000 0.000000 0.000000
# 2 -0.017288 0.087677 -0.005513 0.000000 0.000000 0.000000
# 3 -0.005026 -0.005513 0.009519 0.000000 0.000000 0.000000
# 4 0.000000 0.000000 0.000000 0.061833 0.000000 0.000000
# 5 0.000000 0.000000 0.000000 0.000000 0.021154 0.000000
# 6 0.000000 0.000000 0.000000 0.000000 0.000000 0.035501
#
#
# Mechanical properties :
#
#
# Convention : Reuss Voigt Hill
#
# Bulk Modulus (GPa) = 17.18589 58.98895 38.08742
# Shear Modulus (GPa) = 16.26651 29.09861 22.68256
#
# Velocity S-wave (km/s) = 3.13667 4.19524 3.70397
# Velocity P-wave (km/s) = 4.84902 7.69063 6.42879
#
# Compressibility (1/GPa) = 0.05818727
#
# Stress axis : x y z
#
# Youngs Moduli (GPa) = 60.07552 11.40547 105.05617
#
# Poissons Ratio (x) = 0.19718 0.52804
# Poissons Ratio (y) = 1.03858 0.57918
# Poissons Ratio (z) = 0.30195 0.06288
#
# Static dielectric constant tensor:
#      x y z
#    x 3.183570 0.000000 0.000000 
#    y 0.000000 2.666120 0.000000 
#    z 0.000000 0.000000 3.521120 
# 
# 
# High freq. dielectric constant tensor:
#      x y z
#    x 1.629190 0.000000 0.000000 
#    y 0.000000 1.579760 0.000000 
#    z 0.000000 0.000000 1.646800 
# 
# From -- ./inp_files/23742.got.cif
#   From: 2010.03.12/outbox.cif.g09.slc.cpg/sg44_12_cif.got.tgz:23742.got - 2010.04.14 02:36:11.
