data_PCOD8188447
_publ_section_title
;
Structure prediction by ZEFSAII (Michael W. Deem and Ramdas Pophale) SiO2 
 PCOD8188447
Probable space group: I M M 2
;
_chemical_formula_sum "Si O2"
_cell_formula_units_Z 64
_cell_length_a 18.118851
_cell_length_b 9.082375
_cell_length_c 26.323666
_cell_angle_alpha 90.000000
_cell_angle_beta 90.000000
_cell_angle_gamma 90.000000
_cell_volume 4331.880372
_symmetry_space_group_name_H-M "I M M 2"
_symmetry_group_IT_number 44
_symmetry_cell_setting 'orthorhombic'
loop_
_space_group_symop_operation_xyz
x,y,z
-x,-y,z
-x,y,z
x,-y,z
1/2+x,1/2+y,1/2+z
1/2-x,1/2-y,1/2+z
1/2-x,1/2+y,1/2+z
1/2+x,1/2-y,1/2+z
loop_
_atom_site_type_symbol
_atom_site_label
_atom_site_fract_x
_atom_site_fract_y
_atom_site_fract_z
Si Si1 0.846851 0.174824 0.654150
Si Si2 0.584912 0.669541 0.957102
Si Si3 0.703066 0.162663 0.706393
Si Si4 0.702729 0.334666 0.308318
Si Si5 0.671491 0.327073 0.856921
Si Si6 0.414241 0.830487 0.249380
Si Si7 0.417517 0.326717 0.758200
Si Si8 0.086046 0.670785 0.559655
O O1 0.760234 0.214647 0.662790
O O2 0.898223 0.250412 0.696230
O O3 0.867343 0.234825 0.599203
O O4 0.859481 0.000000 0.657566
O O5 0.500000 0.693312 0.941400
O O6 0.599006 0.500000 0.972077
O O7 0.634859 0.718440 0.909900
O O8 0.607340 0.772488 0.003892
O O9 0.749279 0.163072 0.757824
O O10 0.632347 0.268081 0.711512
O O11 0.672894 0.000000 0.694419
O O12 0.682147 0.500000 0.325656
O O13 0.750167 0.255958 0.352464
O O14 0.628428 0.243903 0.296608
O O15 0.686573 0.500000 0.853440
O O16 0.616184 0.276855 0.812104
O O17 0.500000 0.816834 0.261979
O O18 0.389300 0.000000 0.244290
O O19 0.500000 0.261121 0.753858
O O20 0.419575 0.500000 0.753677
O O21 0.107066 0.500000 0.564240
O O22 0.000000 0.697389 0.570558
#
# Coordination Sequence:
#
# PCOD8188447 Si02
#       8
#     8   8   8   8   8   8   8   8
#     4  10  19  30  44  60  80 108 141 173 206 247
#     4   9  17  29  44  61  82 110 143 176 209 244
#     4   8  16  28  39  55  78 104 134 166 200 238
#     4   9  17  28  41  58  81 108 138 170 203 242
#     4   9  16  27  43  60  81 110 141 172 205 240
#     4  10  19  29  42  61  84 109 138 171 206 245
#     4   9  16  25  39  60  83 107 136 167 198 235
#     4  10  20  31  42  59  83 109 139 175 211 245
#
# _framework density 14.774184999999999
#
# number of rings (size 3 to 8) (size 9 to 14) (size 15 to 20)
#    0.000    2.750    0.000    3.000    0.000    9.000 
#    0.000    0.000    0.000    2.250    0.000    0.000 
#    0.000    1.000    0.000    5.500    0.000    4.125 
#
# Total GULP energy -396742.771548 kJ/mol
# GULP energy per Si atom -12398.211611 kJ/mol
# Density = 1.474056 g / cm^3
# Si number density = 14.774185 Si / 1000 Ang^3
#
#
#
# Elastic Constant Matrix: (Units=GPa)
#
#
# Indices 1 2 3 4 5 6 
#
# 1 88.8153 49.8773 48.6694 0.0000 0.0000 0.0000
# 2 49.8773 79.4471 40.4094 0.0000 0.0000 0.0000
# 3 48.6694 40.4094 74.3203 0.0000 0.0000 0.0000
# 4 0.0000 0.0000 0.0000 22.2090 0.0000 0.0000
# 5 0.0000 0.0000 0.0000 0.0000 26.3360 0.0000
# 6 0.0000 0.0000 0.0000 0.0000 0.0000 22.5724
#
#
#
# Elastic Compliance Matrix: (Units=1/GPa)
#
#
# Indices 1 2 3 4 5 6 
#
# 1 0.021095 -0.008594 -0.009142 0.000000 0.000000 0.000000
# 2 -0.008594 0.020900 -0.005736 0.000000 0.000000 0.000000
# 3 -0.009142 -0.005736 0.022560 0.000000 0.000000 0.000000
# 4 0.000000 0.000000 0.000000 0.045027 0.000000 0.000000
# 5 0.000000 0.000000 0.000000 0.000000 0.037971 0.000000
# 6 0.000000 0.000000 0.000000 0.000000 0.000000 0.044302
#
#
# Mechanical properties :
#
#
# Convention : Reuss Voigt Hill
#
# Bulk Modulus (GPa) = 56.77767 57.83277 57.30522
# Shear Modulus (GPa) = 20.43587 21.13191 20.78389
#
# Velocity S-wave (km/s) = 3.72319 3.78607 3.75476
# Velocity P-wave (km/s) = 7.54961 7.63819 7.59403
#
# Compressibility (1/GPa) = 0.01761256
#
# Stress axis : x y z
#
# Youngs Moduli (GPa) = 47.40483 47.84766 44.32544
#
# Poissons Ratio (x) = 0.41119 0.40520
# Poissons Ratio (y) = 0.40739 0.25424
# Poissons Ratio (z) = 0.43336 0.27445
#
# Static dielectric constant tensor:
#      x y z
#    x 2.928040 0.000000 0.000000 
#    y 0.000000 2.990250 0.000000 
#    z 0.000000 0.000000 2.677850 
# 
# 
# High freq. dielectric constant tensor:
#      x y z
#    x 1.552550 0.000000 0.000000 
#    y 0.000000 1.575950 0.000000 
#    z 0.000000 0.000000 1.531490 
# 
# From -- ./inp_files/25215.got.cif
#   From: 2010.03.12/outbox.cif.g09.slc.cpg/sg44_13_cif.got.tgz:25215.got - 2010.04.14 02:36:11.
