data_PCOD8188208
_publ_section_title
;
Structure prediction by ZEFSAII (Michael W. Deem and Ramdas Pophale) SiO2 
 PCOD8188208
Probable space group: I M M 2
;
_chemical_formula_sum "Si O2"
_cell_formula_units_Z 40
_cell_length_a 9.638372
_cell_length_b 11.600127
_cell_length_c 20.241038
_cell_angle_alpha 90.000000
_cell_angle_beta 90.000000
_cell_angle_gamma 90.000000
_cell_volume 2263.076362
_symmetry_space_group_name_H-M "I M M 2"
_symmetry_group_IT_number 44
_symmetry_cell_setting 'orthorhombic'
loop_
_space_group_symop_operation_xyz
x,y,z
-x,-y,z
-x,y,z
x,-y,z
1/2+x,1/2+y,1/2+z
1/2-x,1/2-y,1/2+z
1/2-x,1/2+y,1/2+z
1/2+x,1/2-y,1/2+z
loop_
_atom_site_type_symbol
_atom_site_label
_atom_site_fract_x
_atom_site_fract_y
_atom_site_fract_z
Si Si1 0.152663 0.500000 0.244830
Si Si2 0.662271 0.500000 0.120102
Si Si3 0.665473 0.870449 0.958679
Si Si4 0.660628 0.134957 0.223432
Si Si5 0.836042 0.749976 0.589050
Si Si6 0.341694 0.232979 0.823805
O O1 0.270774 0.500000 0.191293
O O2 0.171291 0.389987 0.290119
O O3 0.000000 0.500000 0.211397
O O4 0.500000 0.500000 0.133893
O O5 0.706486 0.615458 0.080969
O O6 0.500000 0.875356 0.960424
O O7 0.711449 0.786483 0.898881
O O8 0.724739 0.000000 0.950087
O O9 0.727105 0.818229 0.026756
O O10 0.500000 0.166649 0.235014
O O11 0.721060 0.199235 0.158295
O O12 0.745610 0.173675 0.287812
O O13 0.681146 0.000000 0.212251
O O14 0.000000 0.733500 0.589046
O O15 0.500000 0.278527 0.822344
#
# Coordination Sequence:
#
# PCOD8188208 Si02
#       6
#     4   4   8   8   8   8
#     4  10  18  30  50  76 102 127 160 202 248 299
#     4  10  18  30  50  76 100 125 164 208 248 291
#     4   9  16  29  49  73 101 129 160 202 249 294
#     4  10  20  34  52  74 100 132 168 204 248 299
#     4   9  17  29  48  74 100 126 161 207 250 288
#     4  10  19  32  52  77 101 128 165 206 248 294
#
# _framework density 17.675055
#
# number of rings (size 3 to 8) (size 9 to 14) (size 15 to 20)
#    0.000    2.400    3.000    0.600    0.000    2.800 
#    1.800    0.000    0.000    2.400    0.000    0.000 
#    0.000    0.000    0.000    0.000    0.000    0.000 
#
# Total GULP energy -247936.528660 kJ/mol
# GULP energy per Si atom -12396.826433 kJ/mol
# Density = 1.763483 g / cm^3
# Si number density = 17.675055 Si / 1000 Ang^3
#
#
#
# Elastic Constant Matrix: (Units=GPa)
#
#
# Indices 1 2 3 4 5 6 
#
# 1 32.2613 29.5735 30.4677 0.0000 0.0000 0.0000
# 2 29.5735 100.2224 52.7311 0.0000 0.0000 0.0000
# 3 30.4677 52.7311 135.1875 0.0000 0.0000 0.0000
# 4 0.0000 0.0000 0.0000 27.0838 0.0000 0.0000
# 5 0.0000 0.0000 0.0000 0.0000 20.2036 0.0000
# 6 0.0000 0.0000 0.0000 0.0000 0.0000 25.1245
#
#
#
# Elastic Compliance Matrix: (Units=1/GPa)
#
#
# Indices 1 2 3 4 5 6 
#
# 1 0.046585 -0.010345 -0.006464 0.000000 0.000000 0.000000
# 2 -0.010345 0.014852 -0.003461 0.000000 0.000000 0.000000
# 3 -0.006464 -0.003461 0.010204 0.000000 0.000000 0.000000
# 4 0.000000 0.000000 0.000000 0.036922 0.000000 0.000000
# 5 0.000000 0.000000 0.000000 0.000000 0.049496 0.000000
# 6 0.000000 0.000000 0.000000 0.000000 0.000000 0.039802
#
#
# Mechanical properties :
#
#
# Convention : Reuss Voigt Hill
#
# Bulk Modulus (GPa) = 32.15493 54.80177 43.47835
# Shear Modulus (GPa) = 20.09903 24.80897 22.45400
#
# Velocity S-wave (km/s) = 3.37581 3.75055 3.56810
# Velocity P-wave (km/s) = 5.78157 7.05889 6.45192
#
# Compressibility (1/GPa) = 0.03109943
#
# Stress axis : x y z
#
# Youngs Moduli (GPa) = 21.46632 67.33214 98.00031
#
# Poissons Ratio (x) = 0.69658 0.63344
# Poissons Ratio (y) = 0.22208 0.33923
# Poissons Ratio (z) = 0.13875 0.23307
#
# Static dielectric constant tensor:
#      x y z
#    x 2.951610 0.000000 0.000000 
#    y 0.000000 3.405080 0.000000 
#    z 0.000000 0.000000 3.470410 
# 
# 
# High freq. dielectric constant tensor:
#      x y z
#    x 1.632130 0.000000 0.000000 
#    y 0.000000 1.691730 0.000000 
#    z 0.000000 0.000000 1.685950 
# 
# From -- ./inp_files/22765.got.cif
#   From: 2010.03.12/outbox.cif.g09.slc.cpg/sg44_12_cif.got.tgz:22765.got - 2010.04.14 02:36:11.
