data_PCOD8188882
_publ_section_title
;
Structure prediction by ZEFSAII (Michael W. Deem and Ramdas Pophale) SiO2 
 PCOD8188882
Probable space group: I M M 2
;
_chemical_formula_sum "Si O2"
_cell_formula_units_Z 64
_cell_length_a 28.505342
_cell_length_b 9.019591
_cell_length_c 12.601125
_cell_angle_alpha 90.000000
_cell_angle_beta 90.000000
_cell_angle_gamma 90.000000
_cell_volume 3239.831474
_symmetry_space_group_name_H-M "I M M 2"
_symmetry_group_IT_number 44
_symmetry_cell_setting 'orthorhombic'
loop_
_space_group_symop_operation_xyz
x,y,z
-x,-y,z
-x,y,z
x,-y,z
1/2+x,1/2+y,1/2+z
1/2-x,1/2-y,1/2+z
1/2-x,1/2+y,1/2+z
1/2+x,1/2-y,1/2+z
loop_
_atom_site_type_symbol
_atom_site_label
_atom_site_fract_x
_atom_site_fract_y
_atom_site_fract_z
Si Si1 0.448500 0.167782 0.932650
Si Si2 0.390347 0.674482 0.100923
Si Si3 0.794417 0.826779 0.505576
Si Si4 0.554633 0.175494 0.292090
Si Si5 0.298897 0.336255 0.559494
Si Si6 0.403694 0.675598 0.500437
Si Si7 0.832876 0.166324 0.283810
Si Si8 0.579540 0.169905 0.707096
O O1 0.500000 0.184295 0.984345
O O2 0.454795 0.199128 0.806548
O O3 0.429523 0.000000 0.950708
O O4 0.414152 0.284830 0.988353
O O5 0.396430 0.500000 0.122366
O O6 0.414854 0.765683 0.194069
O O7 0.335266 0.719587 0.089769
O O8 0.743443 0.765662 0.526717
O O9 0.807452 0.773806 0.387952
O O10 0.789273 0.000000 0.509184
O O11 0.500000 0.219166 0.277382
O O12 0.574598 0.248009 0.398163
O O13 0.560741 0.000000 0.299121
O O14 0.290748 0.500000 0.512338
O O15 0.349108 0.277298 0.515193
O O16 0.296771 0.341571 0.686715
O O17 0.409107 0.500000 0.490848
O O18 0.432589 0.729809 0.604474
O O19 0.870263 0.289809 0.254624
O O20 0.854613 0.000000 0.301172
O O21 0.578244 0.000000 0.669162
#
# Coordination Sequence:
#
# PCOD8188882 Si02
#       8
#     8   8   8   8   8   8   8   8
#     4  10  21  36  55  83 118 152 190 238 291 351
#     4  11  23  39  60  87 119 156 202 254 304 361
#     4  10  21  36  57  84 117 155 201 253 305 361
#     4  11  25  44  65  89 121 163 209 258 312 373
#     4   9  20  36  57  85 116 153 198 249 304 361
#     4  10  22  41  63  88 121 157 200 251 302 361
#     4   9  18  36  55  75 110 151 189 240 298 350
#     4  10  19  33  57  86 114 150 192 237 293 353
#
# _framework density 19.754114999999999
#
# number of rings (size 3 to 8) (size 9 to 14) (size 15 to 20)
#    0.000    2.000    1.250    2.625    0.000    8.750 
#    0.000    3.750    0.000    0.000    0.000    0.000 
#    0.000    0.000    0.000    0.000    0.000    0.000 
#
# Total GULP energy -396624.095354 kJ/mol
# GULP energy per Si atom -12394.502980 kJ/mol
# Density = 1.970915 g / cm^3
# Si number density = 19.754115 Si / 1000 Ang^3
#
#
#
# Elastic Constant Matrix: (Units=GPa)
#
#
# Indices 1 2 3 4 5 6 
#
# 1 72.4740 32.3406 36.4004 0.0000 0.0000 0.0000
# 2 32.3406 65.3441 42.4156 0.0000 0.0000 0.0000
# 3 36.4004 42.4156 109.9982 0.0000 0.0000 0.0000
# 4 0.0000 0.0000 0.0000 37.5018 0.0000 0.0000
# 5 0.0000 0.0000 0.0000 0.0000 23.8584 0.0000
# 6 0.0000 0.0000 0.0000 0.0000 0.0000 29.2493
#
#
#
# Elastic Compliance Matrix: (Units=1/GPa)
#
#
# Indices 1 2 3 4 5 6 
#
# 1 0.018661 -0.006972 -0.003487 0.000000 0.000000 0.000000
# 2 -0.006972 0.023018 -0.006569 0.000000 0.000000 0.000000
# 3 -0.003487 -0.006569 0.012778 0.000000 0.000000 0.000000
# 4 0.000000 0.000000 0.000000 0.026665 0.000000 0.000000
# 5 0.000000 0.000000 0.000000 0.000000 0.041914 0.000000
# 6 0.000000 0.000000 0.000000 0.000000 0.000000 0.034189
#
#
# Mechanical properties :
#
#
# Convention : Reuss Voigt Hill
#
# Bulk Modulus (GPa) = 49.01646 52.23661 50.62654
# Shear Modulus (GPa) = 25.24230 27.23253 26.23741
#
# Velocity S-wave (km/s) = 3.57855 3.71694 3.64840
# Velocity P-wave (km/s) = 6.47625 6.70237 6.59028
#
# Compressibility (1/GPa) = 0.02040131
#
# Stress axis : x y z
#
# Youngs Moduli (GPa) = 53.58899 43.44389 78.26164
#
# Poissons Ratio (x) = 0.30291 0.27286
# Poissons Ratio (y) = 0.37365 0.51407
# Poissons Ratio (z) = 0.18684 0.28536
#
# Static dielectric constant tensor:
#      x y z
#    x 3.638720 0.000000 0.000000 
#    y 0.000000 3.595590 0.000000 
#    z 0.000000 0.000000 3.964900 
# 
# 
# High freq. dielectric constant tensor:
#      x y z
#    x 1.761820 0.000000 0.000000 
#    y 0.000000 1.771360 0.000000 
#    z 0.000000 0.000000 1.777480 
# 
# From -- ./inp_files/15088.got.cif
#   From: 2010.03.12/outbox.cif.g09.slc.cpg/sg44_8_cif.got.tgz:15088.got - 2010.04.14 02:36:11.
