data_PCOD8188898
_publ_section_title
;
Structure prediction by ZEFSAII (Michael W. Deem and Ramdas Pophale) SiO2 
 PCOD8188898
Probable space group: I M M 2
;
_chemical_formula_sum "Si O2"
_cell_formula_units_Z 64
_cell_length_a 20.220835
_cell_length_b 9.079175
_cell_length_c 19.615406
_cell_angle_alpha 90.000000
_cell_angle_beta 90.000000
_cell_angle_gamma 90.000000
_cell_volume 3601.162957
_symmetry_space_group_name_H-M "I M M 2"
_symmetry_group_IT_number 44
_symmetry_cell_setting 'orthorhombic'
loop_
_space_group_symop_operation_xyz
x,y,z
-x,-y,z
-x,y,z
x,-y,z
1/2+x,1/2+y,1/2+z
1/2-x,1/2-y,1/2+z
1/2-x,1/2+y,1/2+z
1/2+x,1/2-y,1/2+z
loop_
_atom_site_type_symbol
_atom_site_label
_atom_site_fract_x
_atom_site_fract_y
_atom_site_fract_z
Si Si1 0.619014 0.173953 0.059310
Si Si2 0.880986 0.826047 0.422207
Si Si3 0.817623 0.827597 0.203987
Si Si4 0.925165 0.668561 0.290164
Si Si5 0.074835 0.831439 0.691353
Si Si6 0.728874 0.329947 0.557101
Si Si7 0.182377 0.327598 0.777530
Si Si8 0.271125 0.829947 0.424417
O O1 0.578793 0.238533 0.122225
O O2 0.695530 0.216528 0.070671
O O3 0.607468 0.000000 0.054872
O O4 0.591995 0.250002 0.990759
O O5 0.921208 0.761464 0.359293
O O6 0.804470 0.783468 0.410846
O O7 0.892530 0.000000 0.426643
O O8 0.878366 0.735096 0.232313
O O9 0.813269 0.790150 0.123866
O O10 0.750000 0.779418 0.240759
O O11 0.830514 0.000000 0.217467
O O12 0.904603 0.500000 0.304624
O O13 0.000000 0.678469 0.262722
O O14 0.121635 0.764907 0.749205
O O15 0.000000 0.821530 0.718795
O O16 0.095397 0.000000 0.676892
O O17 0.725043 0.500000 0.540231
O O18 0.699055 0.250000 0.490758
O O19 0.169485 0.500000 0.764048
O O20 0.186730 0.290156 0.857651
O O21 0.274953 0.000000 0.441288
#
# Coordination Sequence:
#
# PCOD8188898 Si02
#       8
#     8   8   8   8   8   8   8   8
#     4  10  19  34  54  78 109 145 183 222 266 319
#     4  10  19  34  54  78 109 145 183 222 266 319
#     4  10  19  36  58  81 108 140 180 225 272 322
#     4  11  24  38  52  77 111 146 185 226 270 322
#     4  11  24  38  52  77 111 146 185 226 270 322
#     4   9  18  32  53  81 110 137 171 219 268 319
#     4  10  19  36  58  81 108 140 180 225 272 322
#     4   9  18  32  53  81 110 137 171 219 268 319
#
# _framework density 17.772037000000001
#
# number of rings (size 3 to 8) (size 9 to 14) (size 15 to 20)
#    0.000    2.000    2.500    1.500    0.000    5.000 
#    0.000    0.000    0.000    0.750    0.000    0.000 
#    0.000    0.000    0.000    0.000    0.000    0.000 
#
# Total GULP energy -396884.230724 kJ/mol
# GULP energy per Si atom -12402.632210 kJ/mol
# Density = 1.773159 g / cm^3
# Si number density = 17.772037 Si / 1000 Ang^3
#
#
#
# Elastic Constant Matrix: (Units=GPa)
#
#
# Indices 1 2 3 4 5 6 
#
# 1 79.8811 46.8460 51.0109 0.0000 0.0000 0.0000
# 2 46.8460 90.9874 55.2320 0.0000 0.0000 0.0000
# 3 51.0109 55.2320 114.4000 0.0000 0.0000 0.0000
# 4 0.0000 0.0000 0.0000 38.1370 0.0000 0.0000
# 5 0.0000 0.0000 0.0000 0.0000 19.8023 0.0000
# 6 0.0000 0.0000 0.0000 0.0000 0.0000 25.9193
#
#
#
# Elastic Compliance Matrix: (Units=1/GPa)
#
#
# Indices 1 2 3 4 5 6 
#
# 1 0.020218 -0.006984 -0.005643 0.000000 0.000000 0.000000
# 2 -0.006984 0.017959 -0.005557 0.000000 0.000000 0.000000
# 3 -0.005643 -0.005557 0.013940 0.000000 0.000000 0.000000
# 4 0.000000 0.000000 0.000000 0.026221 0.000000 0.000000
# 5 0.000000 0.000000 0.000000 0.000000 0.050499 0.000000
# 6 0.000000 0.000000 0.000000 0.000000 0.000000 0.038581
#
#
# Mechanical properties :
#
#
# Convention : Reuss Voigt Hill
#
# Bulk Modulus (GPa) = 63.49214 65.71626 64.60420
# Shear Modulus (GPa) = 23.91920 25.58369 24.75144
#
# Velocity S-wave (km/s) = 3.67262 3.79825 3.73596
# Velocity P-wave (km/s) = 7.33400 7.50288 7.41892
#
# Compressibility (1/GPa) = 0.01574998
#
# Stress axis : x y z
#
# Youngs Moduli (GPa) = 49.46081 55.68163 71.73397
#
# Poissons Ratio (x) = 0.38887 0.40483
# Poissons Ratio (y) = 0.34542 0.39860
# Poissons Ratio (z) = 0.27913 0.30940
#
# Static dielectric constant tensor:
#      x y z
#    x 3.078940 0.000000 0.000000 
#    y 0.000000 3.316450 0.000000 
#    z 0.000000 0.000000 3.446960 
# 
# 
# High freq. dielectric constant tensor:
#      x y z
#    x 1.659160 0.000000 0.000000 
#    y 0.000000 1.694110 0.000000 
#    z 0.000000 0.000000 1.692460 
# 
# From -- ./inp_files/20774.got.cif
#   From: 2010.03.12/outbox.cif.g09.slc.cpg/sg44_11_cif.got.tgz:20774.got - 2010.04.14 02:36:11.
