data_PCOD8188176
_publ_section_title
;
Structure prediction by ZEFSAII (Michael W. Deem and Ramdas Pophale) SiO2 
 PCOD8188176
Probable space group: I M M 2
;
_chemical_formula_sum "Si O2"
_cell_formula_units_Z 64
_cell_length_a 8.620919
_cell_length_b 23.522219
_cell_length_c 19.015137
_cell_angle_alpha 90.000000
_cell_angle_beta 90.000000
_cell_angle_gamma 90.000000
_cell_volume 3855.949278
_symmetry_space_group_name_H-M "I M M 2"
_symmetry_group_IT_number 44
_symmetry_cell_setting 'orthorhombic'
loop_
_space_group_symop_operation_xyz
x,y,z
-x,-y,z
-x,y,z
x,-y,z
1/2+x,1/2+y,1/2+z
1/2-x,1/2-y,1/2+z
1/2-x,1/2+y,1/2+z
1/2+x,1/2-y,1/2+z
loop_
_atom_site_type_symbol
_atom_site_label
_atom_site_fract_x
_atom_site_fract_y
_atom_site_fract_z
Si Si1 0.819250 0.729936 0.151690
Si Si2 0.181398 0.246859 0.995599
Si Si3 0.817875 0.335855 0.728515
Si Si4 0.183832 0.937252 0.859577
Si Si5 0.684461 0.381928 0.501834
Si Si6 0.818417 0.774945 0.353840
Si Si7 0.182167 0.830445 0.775245
Si Si8 0.683197 0.434700 0.647139
O O1 0.766116 0.792286 0.175762
O O2 0.729150 0.680727 0.194407
O O3 0.000000 0.724554 0.168412
O O4 0.784650 0.721692 0.069309
O O5 0.270716 0.281358 0.935193
O O6 0.000000 0.246461 0.977726
O O7 0.245899 0.182608 0.000212
O O8 0.767294 0.323547 0.808637
O O9 0.767521 0.399457 0.708472
O O10 0.000000 0.327568 0.721025
O O11 0.231862 0.894245 0.797008
O O12 0.000000 0.940490 0.865335
O O13 0.252323 0.000000 0.843359
O O14 0.250663 0.914959 0.933916
O O15 0.500000 0.382079 0.501446
O O16 0.745453 0.413462 0.571494
O O17 0.769714 0.712929 0.326408
O O18 0.000000 0.783548 0.345111
O O19 0.000000 0.820648 0.785762
O O20 0.500000 0.425590 0.653278
O O21 0.730140 0.500000 0.657100
#
# Coordination Sequence:
#
# PCOD8188176 Si02
#       8
#     8   8   8   8   8   8   8   8
#     4  10  19  32  50  69  95 127 161 200 244 295
#     4  10  18  31  50  71  96 127 161 197 242 292
#     4  11  21  33  49  69  97 130 166 205 247 289
#     4   9  16  26  44  69  94 125 164 200 230 268
#     4   9  15  27  45  68  98 129 165 198 229 275
#     4  11  21  32  49  70  96 125 160 201 248 298
#     4  10  18  30  47  69  96 125 161 203 241 281
#     4  10  19  32  51  73  98 133 174 208 241 285
#
# _framework density 16.597728
#
# number of rings (size 3 to 8) (size 9 to 14) (size 15 to 20)
#    0.000    2.000    2.500    4.875    0.000    2.750 
#    0.000    0.000    0.000    1.500    0.000    0.875 
#    0.000    3.000    0.000    0.000    0.000    0.000 
#
# Total GULP energy -396795.721739 kJ/mol
# GULP energy per Si atom -12399.866304 kJ/mol
# Density = 1.655995 g / cm^3
# Si number density = 16.597728 Si / 1000 Ang^3
#
#
#
# Elastic Constant Matrix: (Units=GPa)
#
#
# Indices 1 2 3 4 5 6 
#
# 1 27.5323 13.2327 20.2160 0.0000 0.0000 0.0000
# 2 13.2327 100.3533 59.1448 0.0000 0.0000 0.0000
# 3 20.2160 59.1448 112.7992 0.0000 0.0000 0.0000
# 4 0.0000 0.0000 0.0000 25.8748 0.0000 0.0000
# 5 0.0000 0.0000 0.0000 0.0000 25.2899 0.0000
# 6 0.0000 0.0000 0.0000 0.0000 0.0000 18.5264
#
#
#
# Elastic Compliance Matrix: (Units=1/GPa)
#
#
# Indices 1 2 3 4 5 6 
#
# 1 0.042001 -0.001595 -0.006691 0.000000 0.000000 0.000000
# 2 -0.001595 0.014482 -0.007308 0.000000 0.000000 0.000000
# 3 -0.006691 -0.007308 0.013896 0.000000 0.000000 0.000000
# 4 0.000000 0.000000 0.000000 0.038648 0.000000 0.000000
# 5 0.000000 0.000000 0.000000 0.000000 0.039541 0.000000
# 6 0.000000 0.000000 0.000000 0.000000 0.000000 0.053977
#
#
# Mechanical properties :
#
#
# Convention : Reuss Voigt Hill
#
# Bulk Modulus (GPa) = 25.51563 47.31910 36.41736
# Shear Modulus (GPa) = 20.25965 23.81095 22.03530
#
# Velocity S-wave (km/s) = 3.49754 3.79171 3.64759
# Velocity P-wave (km/s) = 5.63176 6.90946 6.30307
#
# Compressibility (1/GPa) = 0.03919167
#
# Stress axis : x y z
#
# Youngs Moduli (GPa) = 23.80916 69.05153 71.96214
#
# Poissons Ratio (x) = 0.11011 0.48152
# Poissons Ratio (y) = 0.03797 0.52587
# Poissons Ratio (z) = 0.15931 0.50460
#
# Static dielectric constant tensor:
#      x y z
#    x 2.939330 0.000000 0.000000 
#    y 0.000000 3.084840 0.000000 
#    z 0.000000 0.000000 3.239730 
# 
# 
# High freq. dielectric constant tensor:
#      x y z
#    x 1.625530 0.000000 0.000000 
#    y 0.000000 1.612530 0.000000 
#    z 0.000000 0.000000 1.637340 
# 
# From -- ./inp_files/23473.got.cif
#   From: 2010.03.12/outbox.cif.g09.slc.cpg/sg44_12_cif.got.tgz:23473.got - 2010.04.14 02:36:11.
