data_PCOD8188741
_publ_section_title
;
Structure prediction by ZEFSAII (Michael W. Deem and Ramdas Pophale) SiO2 
 PCOD8188741
Probable space group: I M M 2
;
_chemical_formula_sum "Si O2"
_cell_formula_units_Z 64
_cell_length_a 28.712894
_cell_length_b 9.591596
_cell_length_c 12.667789
_cell_angle_alpha 90.000000
_cell_angle_beta 90.000000
_cell_angle_gamma 90.000000
_cell_volume 3488.740497
_symmetry_space_group_name_H-M "I M M 2"
_symmetry_group_IT_number 44
_symmetry_cell_setting 'orthorhombic'
loop_
_space_group_symop_operation_xyz
x,y,z
-x,-y,z
-x,y,z
x,-y,z
1/2+x,1/2+y,1/2+z
1/2-x,1/2-y,1/2+z
1/2-x,1/2+y,1/2+z
1/2+x,1/2-y,1/2+z
loop_
_atom_site_type_symbol
_atom_site_label
_atom_site_fract_x
_atom_site_fract_y
_atom_site_fract_z
Si Si1 0.321624 0.153408 0.587440
Si Si2 0.948789 0.846157 0.981177
Si Si3 0.203381 0.333982 0.312546
Si Si4 0.604471 0.834422 0.885324
Si Si5 0.302022 0.662900 0.389285
Si Si6 0.554751 0.165399 0.098833
Si Si7 0.605966 0.336748 0.279825
Si Si8 0.425852 0.152803 0.662933
O O1 0.295174 0.213885 0.690281
O O2 0.318519 0.261858 0.494021
O O3 0.374344 0.136507 0.620730
O O4 0.302315 0.000000 0.554101
O O5 0.915564 0.784490 0.890880
O O6 0.000000 0.853546 0.930501
O O7 0.930783 0.000000 0.013309
O O8 0.953165 0.755500 0.086593
O O9 0.202161 0.500000 0.314998
O O10 0.157901 0.276383 0.376442
O O11 0.251093 0.276322 0.362260
O O12 0.575004 0.786254 0.782491
O O13 0.606763 0.000000 0.884939
O O14 0.577734 0.781545 0.989358
O O15 0.300026 0.500000 0.415039
O O16 0.338392 0.689200 0.292480
O O17 0.500000 0.205740 0.101571
O O18 0.583708 0.243677 0.188771
O O19 0.560943 0.000000 0.113891
O O20 0.594722 0.500000 0.258845
O O21 0.449989 0.000000 0.661640
#
# Coordination Sequence:
#
# PCOD8188741 Si02
#       8
#     8   8   8   8   8   8   8   8
#     4   9  17  31  50  72 102 133 162 207 260 304
#     4  10  20  33  49  71 101 133 164 205 256 304
#     4   8  16  31  51  76 104 137 172 208 259 318
#     4   8  16  33  54  76 105 136 167 212 269 313
#     4  10  19  32  53  77 101 136 179 214 252 311
#     4  10  21  36  55  78 104 138 181 226 265 310
#     4  10  21  36  52  72 103 141 176 213 260 313
#     4   9  17  31  53  76  98 129 166 206 256 311
#
# _framework density 18.344730999999999
#
# number of rings (size 3 to 8) (size 9 to 14) (size 15 to 20)
#    0.000    2.750    1.250    1.875    0.000    3.500 
#    0.000    2.500    0.000    1.500    0.000    0.000 
#    0.000    0.000    0.000    0.000    0.000    0.000 
#
# Total GULP energy -396527.112850 kJ/mol
# GULP energy per Si atom -12391.472277 kJ/mol
# Density = 1.830298 g / cm^3
# Si number density = 18.344731 Si / 1000 Ang^3
#
#
#
# Elastic Constant Matrix: (Units=GPa)
#
#
# Indices 1 2 3 4 5 6 
#
# 1 85.0436 25.6095 53.5032 0.0000 0.0000 0.0000
# 2 25.6095 45.1787 45.9309 0.0000 0.0000 0.0000
# 3 53.5032 45.9309 130.5968 0.0000 0.0000 0.0000
# 4 0.0000 0.0000 0.0000 4.1302 0.0000 0.0000
# 5 0.0000 0.0000 0.0000 0.0000 19.0858 0.0000
# 6 0.0000 0.0000 0.0000 0.0000 0.0000 18.0852
#
#
#
# Elastic Compliance Matrix: (Units=1/GPa)
#
#
# Indices 1 2 3 4 5 6 
#
# 1 0.016251 -0.003803 -0.005320 0.000000 0.000000 0.000000
# 2 -0.003803 0.035343 -0.010872 0.000000 0.000000 0.000000
# 3 -0.005320 -0.010872 0.013660 0.000000 0.000000 0.000000
# 4 0.000000 0.000000 0.000000 0.242118 0.000000 0.000000
# 5 0.000000 0.000000 0.000000 0.000000 0.052395 0.000000
# 6 0.000000 0.000000 0.000000 0.000000 0.000000 0.055294
#
#
# Mechanical properties :
#
#
# Convention : Reuss Voigt Hill
#
# Bulk Modulus (GPa) = 39.58225 56.76736 48.17480
# Shear Modulus (GPa) = 10.78810 17.31193 14.05001
#
# Velocity S-wave (km/s) = 2.42766 3.07530 2.77047
# Velocity P-wave (km/s) = 5.42971 6.60469 6.04581
#
# Compressibility (1/GPa) = 0.02526385
#
# Stress axis : x y z
#
# Youngs Moduli (GPa) = 61.53469 28.29388 73.20382
#
# Poissons Ratio (x) = 0.10760 0.38946
# Poissons Ratio (y) = 0.23402 0.79589
# Poissons Ratio (z) = 0.32738 0.30762
#
# Static dielectric constant tensor:
#      x y z
#    x 3.632110 0.000000 0.000000 
#    y 0.000000 3.255800 0.000000 
#    z 0.000000 0.000000 3.609520 
# 
# 
# High freq. dielectric constant tensor:
#      x y z
#    x 1.719330 0.000000 0.000000 
#    y 0.000000 1.676830 0.000000 
#    z 0.000000 0.000000 1.707750 
# 
# From -- ./inp_files/15070.got.cif
#   From: 2010.03.12/outbox.cif.g09.slc.cpg/sg44_8_cif.got.tgz:15070.got - 2010.04.14 02:36:11.
