data_PCOD8188880
_publ_section_title
;
Structure prediction by ZEFSAII (Michael W. Deem and Ramdas Pophale) SiO2 
 PCOD8188880
Probable space group: I M M 2
;
_chemical_formula_sum "Si O2"
_cell_formula_units_Z 64
_cell_length_a 9.177947
_cell_length_b 24.411994
_cell_length_c 14.969310
_cell_angle_alpha 90.000000
_cell_angle_beta 90.000000
_cell_angle_gamma 90.000000
_cell_volume 3353.903651
_symmetry_space_group_name_H-M "I M M 2"
_symmetry_group_IT_number 44
_symmetry_cell_setting 'orthorhombic'
loop_
_space_group_symop_operation_xyz
x,y,z
-x,-y,z
-x,y,z
x,-y,z
1/2+x,1/2+y,1/2+z
1/2-x,1/2-y,1/2+z
1/2-x,1/2+y,1/2+z
1/2+x,1/2-y,1/2+z
loop_
_atom_site_type_symbol
_atom_site_label
_atom_site_fract_x
_atom_site_fract_y
_atom_site_fract_z
Si Si1 0.830497 0.331708 0.796310
Si Si2 0.167583 0.724697 0.336801
Si Si3 0.165668 0.233889 0.012266
Si Si4 0.166860 0.564608 0.486397
Si Si5 0.332311 0.437242 0.124021
Si Si6 0.167635 0.867140 0.132060
Si Si7 0.665921 0.143386 0.499668
Si Si8 0.832860 0.603381 0.293748
O O1 0.761508 0.271341 0.789063
O O2 0.753680 0.371718 0.725283
O O3 0.000000 0.327026 0.773452
O O4 0.803590 0.356864 0.893894
O O5 0.224079 0.713145 0.436746
O O6 0.183598 0.668686 0.281355
O O7 0.000000 0.743756 0.341283
O O8 0.183979 0.195274 0.097697
O O9 0.200780 0.296423 0.039738
O O10 0.000000 0.231475 0.974032
O O11 0.180937 0.500000 0.493984
O O12 0.266705 0.590418 0.562313
O O13 0.225888 0.584297 0.390252
O O14 0.000000 0.584102 0.499436
O O15 0.500000 0.422115 0.135201
O O16 0.309076 0.500000 0.096039
O O17 0.268699 0.400685 0.044886
O O18 0.257602 0.426899 0.218515
O O19 0.000000 0.882623 0.148069
O O20 0.500000 0.126931 0.520625
O O21 0.000000 0.585085 0.283513
#
# Coordination Sequence:
#
# PCOD8188880 Si02
#       8
#     8   8   8   8   8   8   8   8
#     4  10  22  39  59  85 120 156 193 240 295 352
#     4  10  19  33  56  86 118 152 192 234 282 340
#     4   9  19  35  55  83 118 152 186 231 286 346
#     4  10  21  39  61  85 117 158 203 246 289 345
#     4  11  25  41  58  85 117 149 193 246 296 346
#     4  11  22  36  58  88 122 157 196 243 294 347
#     4   9  20  40  62  83 111 150 195 240 289 347
#     4  10  21  37  59  86 117 156 197 235 282 346
#
# _framework density 19.082242999999998
#
# number of rings (size 3 to 8) (size 9 to 14) (size 15 to 20)
#    0.000    2.000    1.250    2.625    1.750    6.250 
#    0.000    0.625    0.000    0.750    0.000    0.000 
#    0.000    0.000    0.000    0.000    0.000    0.000 
#
# Total GULP energy -396911.784676 kJ/mol
# GULP energy per Si atom -12403.493271 kJ/mol
# Density = 1.903881 g / cm^3
# Si number density = 19.082243 Si / 1000 Ang^3
#
#
#
# Elastic Constant Matrix: (Units=GPa)
#
#
# Indices 1 2 3 4 5 6 
#
# 1 116.1299 51.4548 54.2554 0.0000 0.0000 0.0000
# 2 51.4548 83.5791 42.8771 0.0001 0.0000 0.0000
# 3 54.2554 42.8771 91.2350 0.0006 0.0000 0.0000
# 4 0.0000 0.0001 0.0006 27.2678 0.0000 0.0000
# 5 0.0000 0.0000 0.0000 0.0000 32.5952 0.0000
# 6 0.0000 0.0000 0.0000 0.0000 0.0000 30.6574
#
#
#
# Elastic Compliance Matrix: (Units=1/GPa)
#
#
# Indices 1 2 3 4 5 6 
#
# 1 0.013653 -0.005587 -0.005493 0.000000 0.000000 0.000000
# 2 -0.005587 0.018052 -0.005161 0.000000 0.000000 0.000000
# 3 -0.005493 -0.005161 0.016653 0.000000 0.000000 0.000000
# 4 0.000000 0.000000 0.000000 0.036673 0.000000 0.000000
# 5 0.000000 0.000000 0.000000 0.000000 0.030679 0.000000
# 6 0.000000 0.000000 0.000000 0.000000 0.000000 0.032619
#
#
# Mechanical properties :
#
#
# Convention : Reuss Voigt Hill
#
# Bulk Modulus (GPa) = 62.99362 65.34653 64.17007
# Shear Modulus (GPa) = 26.86652 27.59453 27.23052
#
# Velocity S-wave (km/s) = 3.75631 3.80687 3.78167
# Velocity P-wave (km/s) = 7.20392 7.32407 7.26424
#
# Compressibility (1/GPa) = 0.01587462
#
# Stress axis : x y z
#
# Youngs Moduli (GPa) = 73.24318 55.39467 60.04875
#
# Poissons Ratio (x) = 0.30950 0.32987
# Poissons Ratio (y) = 0.40923 0.30993
# Poissons Ratio (z) = 0.40235 0.28591
#
# Static dielectric constant tensor:
#      x y z
#    x 3.589920 0.000000 0.000000 
#    y 0.000000 3.391130 0.000000 
#    z 0.000000 0.000000 3.386180 
# 
# 
# High freq. dielectric constant tensor:
#      x y z
#    x 1.747510 0.000000 0.000000 
#    y 0.000000 1.734710 0.000000 
#    z 0.000000 0.000000 1.738740 
# 
# From -- ./inp_files/16830.got.cif
#   From: 2010.03.12/outbox.cif.g09.slc.cpg/sg44_9_cif.got.tgz:16830.got - 2010.04.14 02:36:11.
