data_PCOD8188215
_publ_section_title
;
Structure prediction by ZEFSAII (Michael W. Deem and Ramdas Pophale) SiO2 
 PCOD8188215
Probable space group: I M M 2
;
_chemical_formula_sum "Si O2"
_cell_formula_units_Z 64
_cell_length_a 17.894234
_cell_length_b 12.741171
_cell_length_c 16.117404
_cell_angle_alpha 90.000000
_cell_angle_beta 90.000000
_cell_angle_gamma 90.000000
_cell_volume 3674.663273
_symmetry_space_group_name_H-M "I M M 2"
_symmetry_group_IT_number 44
_symmetry_cell_setting 'orthorhombic'
loop_
_space_group_symop_operation_xyz
x,y,z
-x,-y,z
-x,y,z
x,-y,z
1/2+x,1/2+y,1/2+z
1/2-x,1/2-y,1/2+z
1/2-x,1/2+y,1/2+z
1/2+x,1/2-y,1/2+z
loop_
_atom_site_type_symbol
_atom_site_label
_atom_site_fract_x
_atom_site_fract_y
_atom_site_fract_z
Si Si1 0.793828 0.815045 0.984380
Si Si2 0.584078 0.292055 0.773807
Si Si3 0.412671 0.624179 0.351753
Si Si4 0.317303 0.881102 0.845832
Si Si5 0.788372 0.880929 0.166612
Si Si6 0.218594 0.879999 0.539049
Si Si7 0.196980 0.189973 0.719457
Si Si8 0.420363 0.618570 0.942731
O O1 0.870108 0.833154 0.933459
O O2 0.721317 0.845008 0.930950
O O3 0.792191 0.885014 0.067140
O O4 0.789114 0.692752 0.014029
O O5 0.500000 0.275205 0.740194
O O6 0.610636 0.186920 0.821411
O O7 0.634908 0.327204 0.697211
O O8 0.588859 0.382205 0.843346
O O9 0.500000 0.650921 0.360877
O O10 0.398660 0.500000 0.343585
O O11 0.381565 0.682653 0.269051
O O12 0.257487 0.870840 0.773222
O O13 0.344766 0.000000 0.854319
O O14 0.719388 0.811858 0.202645
O O15 0.779253 0.000000 0.199512
O O16 0.194033 0.873038 0.634078
O O17 0.149678 0.829072 0.487803
O O18 0.237953 0.000000 0.515064
O O19 0.500000 0.673725 0.966330
O O20 0.422704 0.500000 0.974486
#
# Coordination Sequence:
#
# PCOD8188215 Si02
#       8
#     8   8   8   8   8   8   8   8
#     4  10  19  34  52  78 103 131 168 213 249 298
#     4  10  20  33  47  71 104 133 166 206 248 297
#     4  10  20  35  55  76 101 132 166 210 259 301
#     4  10  18  32  52  71  98 133 169 208 248 293
#     4  10  20  33  53  77 102 135 169 205 253 300
#     4  10  18  30  51  76 102 133 168 207 253 297
#     4   9  19  33  51  76 101 127 167 212 249 295
#     4   9  17  29  45  68 100 131 159 198 248 296
#
# _framework density 17.416561999999999
#
# number of rings (size 3 to 8) (size 9 to 14) (size 15 to 20)
#    0.000    2.250    1.250    3.375    0.000    2.000 
#    0.000    1.250    0.000    1.500    0.000    0.000 
#    0.000    0.000    0.000    0.000    0.000    0.000 
#
# Total GULP energy -396604.369033 kJ/mol
# GULP energy per Si atom -12393.886532 kJ/mol
# Density = 1.737692 g / cm^3
# Si number density = 17.416562 Si / 1000 Ang^3
#
#
#
# Elastic Constant Matrix: (Units=GPa)
#
#
# Indices 1 2 3 4 5 6 
#
# 1 95.0789 44.9253 40.3846 0.0000 0.0000 0.0000
# 2 44.9253 104.1953 27.9509 0.0000 0.0000 0.0000
# 3 40.3846 27.9509 97.5823 0.0000 0.0000 0.0000
# 4 0.0000 0.0000 0.0000 21.3155 0.0000 0.0000
# 5 0.0000 0.0000 0.0000 0.0000 13.4146 0.0000
# 6 0.0000 0.0000 0.0000 0.0000 0.0000 18.1092
#
#
#
# Elastic Compliance Matrix: (Units=1/GPa)
#
#
# Indices 1 2 3 4 5 6 
#
# 1 0.014971 -0.005192 -0.004709 0.000000 0.000000 0.000000
# 2 -0.005192 0.012197 -0.001345 0.000000 0.000000 0.000000
# 3 -0.004709 -0.001345 0.012582 0.000000 0.000000 0.000000
# 4 0.000000 0.000000 0.000000 0.046914 0.000000 0.000000
# 5 0.000000 0.000000 0.000000 0.000000 0.074546 0.000000
# 6 0.000000 0.000000 0.000000 0.000000 0.000000 0.055221
#
#
# Mechanical properties :
#
#
# Convention : Reuss Voigt Hill
#
# Bulk Modulus (GPa) = 57.94237 58.15312 58.04774
# Shear Modulus (GPa) = 20.43548 22.80758 21.62153
#
# Velocity S-wave (km/s) = 3.42912 3.62267 3.52722
# Velocity P-wave (km/s) = 7.00137 7.13865 7.07035
#
# Compressibility (1/GPa) = 0.01725853
#
# Stress axis : x y z
#
# Youngs Moduli (GPa) = 66.79744 81.98992 79.48097
#
# Poissons Ratio (x) = 0.42567 0.37424
# Poissons Ratio (y) = 0.34679 0.10690
# Poissons Ratio (z) = 0.31452 0.11027
#
# Static dielectric constant tensor:
#      x y z
#    x 3.277350 0.000000 0.000000 
#    y 0.000000 3.267770 0.000000 
#    z 0.000000 0.000000 3.282810 
# 
# 
# High freq. dielectric constant tensor:
#      x y z
#    x 1.656670 0.000000 0.000000 
#    y 0.000000 1.666680 0.000000 
#    z 0.000000 0.000000 1.678900 
# 
# From -- ./inp_files/17923.got.cif
#   From: 2010.03.12/outbox.cif.g09.slc.cpg/sg44_9_cif.got.tgz:17923.got - 2010.04.14 02:36:11.
