data_PCOD8188705
_publ_section_title
;
Structure prediction by ZEFSAII (Michael W. Deem and Ramdas Pophale) SiO2 
 PCOD8188705
Probable space group: I M M 2
;
_chemical_formula_sum "Si O2"
_cell_formula_units_Z 64
_cell_length_a 22.875729
_cell_length_b 8.910785
_cell_length_c 18.981825
_cell_angle_alpha 90.000000
_cell_angle_beta 90.000000
_cell_angle_gamma 90.000000
_cell_volume 3869.268549
_symmetry_space_group_name_H-M "I M M 2"
_symmetry_group_IT_number 44
_symmetry_cell_setting 'orthorhombic'
loop_
_space_group_symop_operation_xyz
x,y,z
-x,-y,z
-x,y,z
x,-y,z
1/2+x,1/2+y,1/2+z
1/2-x,1/2-y,1/2+z
1/2-x,1/2+y,1/2+z
1/2+x,1/2-y,1/2+z
loop_
_atom_site_type_symbol
_atom_site_label
_atom_site_fract_x
_atom_site_fract_y
_atom_site_fract_z
Si Si1 0.567573 0.172275 0.197790
Si Si2 0.335809 0.322858 0.558920
Si Si3 0.343468 0.328300 0.107110
Si Si4 0.115085 0.176764 0.835350
Si Si5 0.750085 0.324950 0.338385
Si Si6 0.776539 0.673110 0.182721
Si Si7 0.067809 0.673196 0.973694
Si Si8 0.231352 0.825130 0.477144
O O1 0.500000 0.196676 0.180111
O O2 0.603324 0.220617 0.128180
O O3 0.585845 0.276283 0.262423
O O4 0.581217 0.000000 0.216506
O O5 0.337817 0.500000 0.554301
O O6 0.322009 0.273006 0.638775
O O7 0.398075 0.257527 0.535947
O O8 0.287466 0.264332 0.504506
O O9 0.363653 0.500000 0.115671
O O10 0.289375 0.293648 0.158591
O O11 0.324555 0.293397 0.026742
O O12 0.182695 0.224755 0.834951
O O13 0.081628 0.258507 0.897806
O O14 0.108025 0.000000 0.845106
O O15 0.755391 0.500000 0.355477
O O16 0.781853 0.285988 0.264878
O O17 0.783390 0.231081 0.398682
O O18 0.791623 0.500000 0.167906
O O19 0.086273 0.500000 0.972748
O O20 0.000000 0.694268 0.990439
O O21 0.247235 0.000000 0.478082
#
# Coordination Sequence:
#
# PCOD8188705 Si02
#       8
#     8   8   8   8   8   8   8   8
#     4  11  23  35  48  70 100 135 174 212 250 294
#     4  11  21  33  50  74 100 129 168 207 248 296
#     4   9  18  34  51  70  96 130 169 208 249 293
#     4  11  21  34  50  72 101 135 174 208 242 290
#     4  10  19  32  51  76 103 133 167 203 246 298
#     4   9  18  34  52  71 100 130 162 204 249 295
#     4  11  23  37  52  71  98 135 175 210 248 292
#     4  10  20  33  51  73 101 131 163 205 253 301
#
# _framework density 16.540595
#
# number of rings (size 3 to 8) (size 9 to 14) (size 15 to 20)
#    0.000    1.750    2.500    3.750    0.000    7.000 
#    0.000    0.000    0.000    0.000    0.000    0.875 
#    0.000    5.000    0.000    0.000    0.000    0.000 
#
# Total GULP energy -396902.495344 kJ/mol
# GULP energy per Si atom -12403.202980 kJ/mol
# Density = 1.650295 g / cm^3
# Si number density = 16.540595 Si / 1000 Ang^3
#
#
#
# Elastic Constant Matrix: (Units=GPa)
#
#
# Indices 1 2 3 4 5 6 
#
# 1 69.5036 46.8206 50.7677 0.0000 0.0000 0.0000
# 2 46.8206 99.9780 56.8092 0.0000 0.0000 0.0000
# 3 50.7677 56.8092 119.8038 0.0000 0.0000 0.0000
# 4 0.0000 0.0000 0.0000 31.7741 0.0000 0.0000
# 5 0.0000 0.0000 0.0000 0.0000 21.9461 0.0000
# 6 0.0000 0.0000 0.0000 0.0000 0.0000 24.4276
#
#
#
# Elastic Compliance Matrix: (Units=1/GPa)
#
#
# Indices 1 2 3 4 5 6 
#
# 1 0.024446 -0.007613 -0.006749 0.000000 0.000000 0.000000
# 2 -0.007613 0.016062 -0.004390 0.000000 0.000000 0.000000
# 3 -0.006749 -0.004390 0.013289 0.000000 0.000000 0.000000
# 4 0.000000 0.000000 0.000000 0.031472 0.000000 0.000000
# 5 0.000000 0.000000 0.000000 0.000000 0.045566 0.000000
# 6 0.000000 0.000000 0.000000 0.000000 0.000000 0.040937
#
#
# Mechanical properties :
#
#
# Convention : Reuss Voigt Hill
#
# Bulk Modulus (GPa) = 61.38093 66.45336 63.91714
# Shear Modulus (GPa) = 23.28733 24.62208 23.95471
#
# Velocity S-wave (km/s) = 3.75626 3.86240 3.80970
# Velocity P-wave (km/s) = 7.48348 7.75590 7.62091
#
# Compressibility (1/GPa) = 0.01629171
#
# Stress axis : x y z
#
# Youngs Moduli (GPa) = 40.90615 62.25779 75.25170
#
# Poissons Ratio (x) = 0.47400 0.50788
# Poissons Ratio (y) = 0.31144 0.33037
# Poissons Ratio (z) = 0.27608 0.27333
#
# Static dielectric constant tensor:
#      x y z
#    x 2.932730 0.000000 0.000000 
#    y 0.000000 3.177200 0.000000 
#    z 0.000000 0.000000 3.216090 
# 
# 
# High freq. dielectric constant tensor:
#      x y z
#    x 1.605790 0.000000 0.000000 
#    y 0.000000 1.648170 0.000000 
#    z 0.000000 0.000000 1.635790 
# 
# From -- ./inp_files/20857.got.cif
#   From: 2010.03.12/outbox.cif.g09.slc.cpg/sg44_11_cif.got.tgz:20857.got - 2010.04.14 02:36:11.
