data_PCOD8188251
_publ_section_title
;
Structure prediction by ZEFSAII (Michael W. Deem and Ramdas Pophale) SiO2 
 PCOD8188251
Probable space group: I M M 2
;
_chemical_formula_sum "Si O2"
_cell_formula_units_Z 64
_cell_length_a 9.135014
_cell_length_b 19.691640
_cell_length_c 20.747557
_cell_angle_alpha 90.000000
_cell_angle_beta 90.000000
_cell_angle_gamma 90.000000
_cell_volume 3732.141242
_symmetry_space_group_name_H-M "I M M 2"
_symmetry_group_IT_number 44
_symmetry_cell_setting 'orthorhombic'
loop_
_space_group_symop_operation_xyz
x,y,z
-x,-y,z
-x,y,z
x,-y,z
1/2+x,1/2+y,1/2+z
1/2-x,1/2-y,1/2+z
1/2-x,1/2+y,1/2+z
1/2+x,1/2-y,1/2+z
loop_
_atom_site_type_symbol
_atom_site_label
_atom_site_fract_x
_atom_site_fract_y
_atom_site_fract_z
Si Si1 0.670900 0.076462 0.245970
Si Si2 0.173308 0.425870 0.353988
Si Si3 0.830459 0.422483 0.597507
Si Si4 0.825791 0.573687 0.209134
Si Si5 0.827454 0.203089 0.291254
Si Si6 0.326923 0.210824 0.915323
Si Si7 0.826013 0.715788 0.166862
Si Si8 0.673847 0.701838 0.543589
O O1 0.500000 0.088975 0.255413
O O2 0.714917 0.088069 0.171683
O O3 0.758272 0.128218 0.291154
O O4 0.712946 0.000000 0.266871
O O5 0.219759 0.500000 0.381966
O O6 0.235199 0.417499 0.281670
O O7 0.231046 0.365180 0.398783
O O8 0.000000 0.419772 0.350251
O O9 0.801588 0.500000 0.576559
O O10 0.731361 0.374725 0.553014
O O11 0.000000 0.403790 0.586753
O O12 0.773033 0.500000 0.181263
O O13 0.768563 0.637444 0.166933
O O14 0.000000 0.574968 0.211097
O O15 0.781807 0.239526 0.357330
O O16 0.766185 0.246035 0.230514
O O17 0.000000 0.195490 0.286165
O O18 0.500000 0.212589 0.927889
O O19 0.241890 0.234319 0.979139
O O20 0.767700 0.752263 0.102759
O O21 0.000000 0.717439 0.168252
O O22 0.500000 0.701518 0.538808
#
# Coordination Sequence:
#
# PCOD8188251 Si02
#       8
#     8   8   8   8   8   8   8   8
#     4   9  18  32  51  76 103 128 159 206 259 306
#     4   8  13  23  42  68  94 120 151 189 233 279
#     4   9  18  33  51  71  98 132 169 206 246 300
#     4   8  12  21  42  70  95 117 148 194 243 286
#     4  10  18  31  52  75  98 129 168 211 251 291
#     4  10  20  33  49  70 100 134 169 206 245 295
#     4   9  16  28  45  69  98 126 159 203 250 287
#     4  11  22  33  47  69 102 137 167 207 255 298
#
# _framework density 17.148333000000001
#
# number of rings (size 3 to 8) (size 9 to 14) (size 15 to 20)
#    0.000    2.750    2.500    1.875    0.000    1.500 
#    0.000    2.500    0.000    0.750    0.000    1.750 
#    0.000    4.000    0.000    0.000    0.000    0.000 
#
# Total GULP energy -396628.812232 kJ/mol
# GULP energy per Si atom -12394.650382 kJ/mol
# Density = 1.710930 g / cm^3
# Si number density = 17.148333 Si / 1000 Ang^3
#
#
#
# Elastic Constant Matrix: (Units=GPa)
#
#
# Indices 1 2 3 4 5 6 
#
# 1 31.3400 30.3375 35.0445 0.0000 0.0000 0.0000
# 2 30.3375 125.7515 66.5876 0.0000 0.0000 0.0000
# 3 35.0445 66.5876 114.3670 0.0000 0.0000 0.0000
# 4 0.0000 0.0000 0.0000 23.9753 0.0000 0.0000
# 5 0.0000 0.0000 0.0000 0.0000 23.2608 0.0000
# 6 0.0000 0.0000 0.0000 0.0000 0.0000 19.8988
#
#
#
# Elastic Compliance Matrix: (Units=1/GPa)
#
#
# Indices 1 2 3 4 5 6 
#
# 1 0.051368 -0.005866 -0.012325 0.000000 0.000000 0.000000
# 2 -0.005866 0.012167 -0.005286 0.000000 0.000000 0.000000
# 3 -0.012325 -0.005286 0.015598 0.000000 0.000000 0.000000
# 4 0.000000 0.000000 0.000000 0.041710 0.000000 0.000000
# 5 0.000000 0.000000 0.000000 0.000000 0.042991 0.000000
# 6 0.000000 0.000000 0.000000 0.000000 0.000000 0.050254
#
#
# Mechanical properties :
#
#
# Convention : Reuss Voigt Hill
#
# Bulk Modulus (GPa) = 31.07672 59.48862 45.28267
# Shear Modulus (GPa) = 18.39802 22.72625 20.56213
#
# Velocity S-wave (km/s) = 3.27903 3.64438 3.46652
# Velocity P-wave (km/s) = 5.70067 7.24394 6.51814
#
# Compressibility (1/GPa) = 0.03217843
#
# Stress axis : x y z
#
# Youngs Moduli (GPa) = 19.46722 82.19263 64.11053
#
# Poissons Ratio (x) = 0.48218 0.79015
# Poissons Ratio (y) = 0.11420 0.33889
# Poissons Ratio (z) = 0.23993 0.43448
#
# Static dielectric constant tensor:
#      x y z
#    x 2.751650 0.000000 0.000000 
#    y 0.000000 3.494830 0.000000 
#    z 0.000000 0.000000 3.104680 
# 
# 
# High freq. dielectric constant tensor:
#      x y z
#    x 1.618720 0.000000 0.000000 
#    y 0.000000 1.670460 0.000000 
#    z 0.000000 0.000000 1.641040 
# 
# From -- ./inp_files/23427.got.cif
#   From: 2010.03.12/outbox.cif.g09.slc.cpg/sg44_12_cif.got.tgz:23427.got - 2010.04.14 02:36:11.
