data_PCOD8188377
_publ_section_title
;
Structure prediction by ZEFSAII (Michael W. Deem and Ramdas Pophale) SiO2 
 PCOD8188377
Probable space group: I M M 2
;
_chemical_formula_sum "Si O2"
_cell_formula_units_Z 48
_cell_length_a 10.038407
_cell_length_b 8.549632
_cell_length_c 27.906327
_cell_angle_alpha 90.000000
_cell_angle_beta 90.000000
_cell_angle_gamma 90.000000
_cell_volume 2395.051744
_symmetry_space_group_name_H-M "I M M 2"
_symmetry_group_IT_number 44
_symmetry_cell_setting 'orthorhombic'
loop_
_space_group_symop_operation_xyz
x,y,z
-x,-y,z
-x,y,z
x,-y,z
1/2+x,1/2+y,1/2+z
1/2-x,1/2-y,1/2+z
1/2-x,1/2+y,1/2+z
1/2+x,1/2-y,1/2+z
loop_
_atom_site_type_symbol
_atom_site_label
_atom_site_fract_x
_atom_site_fract_y
_atom_site_fract_z
Si Si1 0.251779 0.182913 0.622720
Si Si2 0.749588 0.180677 0.837200
Si Si3 0.000000 0.186512 0.780367
Si Si4 0.000000 0.318625 0.673672
Si Si5 0.651704 0.185582 0.937832
Si Si6 0.000000 0.180445 0.173894
Si Si7 0.653568 0.184494 0.517490
Si Si8 0.500000 0.177184 0.771435
O O1 0.125351 0.276805 0.641028
O O2 0.372703 0.226276 0.656488
O O3 0.290632 0.233506 0.569180
O O4 0.220796 0.000000 0.626256
O O5 0.716179 0.256287 0.889010
O O6 0.625927 0.208080 0.803627
O O7 0.874663 0.257196 0.809614
O O8 0.781626 0.000000 0.845640
O O9 0.000000 0.234042 0.724836
O O10 0.000000 0.000000 0.780055
O O11 0.000000 0.500000 0.685081
O O12 0.500000 0.250145 0.945309
O O13 0.644144 0.000000 0.934284
O O14 0.749184 0.233414 0.980293
O O15 0.000000 0.191689 0.230927
O O16 0.000000 0.000000 0.157344
O O17 0.500000 0.242446 0.511916
O O18 0.660014 0.000000 0.510160
O O19 0.500000 0.000000 0.750576
#
# Coordination Sequence:
#
# PCOD8188377 Si02
#       8
#     8   8   4   4   8   4   8   4
#     4  11  23  44  67  87 119 169 216 249 297 379
#     4   9  18  34  58  86 116 155 208 254 288 352
#     4  10  20  36  59  86 117 163 216 251 293 366
#     4  12  26  42  61  94 133 161 200 265 323 362
#     4  10  21  38  61  93 128 159 198 251 308 362
#     4  12  24  38  61  96 129 155 196 263 323 364
#     4  10  23  43  64  89 119 156 206 256 302 363
#     4  10  18  34  59  82 113 161 206 245 295 366
#
# _framework density 20.041322000000001
#
# number of rings (size 3 to 8) (size 9 to 14) (size 15 to 20)
#    0.000    1.667    1.667    3.000    2.333    3.333 
#    0.000    1.667    0.000    0.000    0.000    0.000 
#    0.000    0.000    0.000    0.000    0.000    0.000 
#
# Total GULP energy -297561.792419 kJ/mol
# GULP energy per Si atom -12398.408017 kJ/mol
# Density = 1.999571 g / cm^3
# Si number density = 20.041322 Si / 1000 Ang^3
#
#
#
# Elastic Constant Matrix: (Units=GPa)
#
#
# Indices 1 2 3 4 5 6 
#
# 1 178.6361 22.6130 70.0107 0.0000 0.0000 0.0000
# 2 22.6130 30.8688 28.4460 0.0000 0.0000 0.0000
# 3 70.0107 28.4460 135.9889 0.0000 0.0000 0.0000
# 4 0.0000 0.0000 0.0000 27.8922 0.0000 0.0000
# 5 0.0000 0.0000 0.0000 0.0000 51.4015 0.0000
# 6 0.0000 0.0000 0.0000 0.0000 0.0000 28.0880
#
#
#
# Elastic Compliance Matrix: (Units=1/GPa)
#
#
# Indices 1 2 3 4 5 6 
#
# 1 0.007141 -0.002283 -0.003199 0.000000 0.000000 0.000000
# 2 -0.002283 0.040861 -0.007372 0.000000 0.000000 0.000000
# 3 -0.003199 -0.007372 0.010542 0.000000 0.000000 0.000000
# 4 0.000000 0.000000 0.000000 0.035852 0.000000 0.000000
# 5 0.000000 0.000000 0.000000 0.000000 0.019455 0.000000
# 6 0.000000 0.000000 0.000000 0.000000 0.000000 0.035602
#
#
# Mechanical properties :
#
#
# Convention : Reuss Voigt Hill
#
# Bulk Modulus (GPa) = 30.45384 65.29257 47.87320
# Shear Modulus (GPa) = 26.86641 36.43795 31.65218
#
# Velocity S-wave (km/s) = 3.66533 4.26859 3.97841
# Velocity P-wave (km/s) = 5.75685 7.54614 6.71139
#
# Compressibility (1/GPa) = 0.03283659
#
# Stress axis : x y z
#
# Youngs Moduli (GPa) = 140.04477 24.47322 94.85647
#
# Poissons Ratio (x) = 0.05588 0.30340
# Poissons Ratio (y) = 0.31977 0.69926
# Poissons Ratio (z) = 0.44794 0.18041
#
# Static dielectric constant tensor:
#      x y z
#    x 3.991740 0.000000 0.000000 
#    y 0.000000 3.337230 0.000000 
#    z 0.000000 0.000000 3.861620 
# 
# 
# High freq. dielectric constant tensor:
#      x y z
#    x 1.803070 0.000000 0.000000 
#    y 0.000000 1.752020 0.000000 
#    z 0.000000 0.000000 1.797800 
# 
# From -- ./inp_files/27029.got.cif
#   From: 2010.03.12/outbox.cif.g09.slc.cpg/sg44_14_cif.got.tgz:27029.got - 2010.04.14 02:36:11.
