data_PCOD8188940
_publ_section_title
;
Structure prediction by ZEFSAII (Michael W. Deem and Ramdas Pophale) SiO2 
 PCOD8188940
Probable space group: I M M 2
;
_chemical_formula_sum "Si O2"
_cell_formula_units_Z 64
_cell_length_a 17.079366
_cell_length_b 17.899487
_cell_length_c 11.628870
_cell_angle_alpha 90.000000
_cell_angle_beta 90.000000
_cell_angle_gamma 90.000000
_cell_volume 3555.083823
_symmetry_space_group_name_H-M "I M M 2"
_symmetry_group_IT_number 44
_symmetry_cell_setting 'orthorhombic'
loop_
_space_group_symop_operation_xyz
x,y,z
-x,-y,z
-x,y,z
x,-y,z
1/2+x,1/2+y,1/2+z
1/2-x,1/2-y,1/2+z
1/2-x,1/2+y,1/2+z
1/2+x,1/2-y,1/2+z
loop_
_atom_site_type_symbol
_atom_site_label
_atom_site_fract_x
_atom_site_fract_y
_atom_site_fract_z
Si Si1 0.089910 0.814436 0.945340
Si Si2 0.781315 0.084157 0.864373
Si Si3 0.690803 0.085426 0.454838
Si Si4 0.175254 0.708560 0.777662
Si Si5 0.590494 0.736128 0.066923
Si Si6 0.661437 0.582993 0.107515
Si Si7 0.830859 0.291197 0.343355
Si Si8 0.089374 0.687660 0.112660
O O1 0.142623 0.888449 0.935522
O O2 0.110699 0.757596 0.843497
O O3 0.000000 0.839386 0.935076
O O4 0.108057 0.770702 0.063842
O O5 0.793058 0.091901 0.727556
O O6 0.706290 0.133847 0.898484
O O7 0.764155 0.000000 0.902332
O O8 0.680056 0.125617 0.331289
O O9 0.779363 0.091872 0.500702
O O10 0.637731 0.123508 0.550662
O O11 0.665015 0.000000 0.438645
O O12 0.144375 0.709968 0.646718
O O13 0.261239 0.743586 0.786422
O O14 0.500000 0.760140 0.074901
O O15 0.597204 0.648359 0.100179
O O16 0.622843 0.745066 0.938712
O O17 0.622204 0.500000 0.102681
O O18 0.893282 0.312928 0.247115
O O19 0.000000 0.667286 0.090272
#
# Coordination Sequence:
#
# PCOD8188940 Si02
#       8
#     8   8   8   8   8   8   8   8
#     4   9  18  32  53  79 109 136 171 226 280 327
#     4  10  20  32  54  81 110 144 181 223 276 336
#     4  10  19  36  59  83 109 142 188 238 285 333
#     4  10  20  33  57  80 110 145 188 226 273 334
#     4  12  23  37  58  86 117 153 186 231 286 337
#     4  10  19  34  56  85 114 145 180 227 285 344
#     4  11  21  36  57  78 112 149 191 225 272 337
#     4  10  20  34  54  81 108 140 183 234 277 321
#
# _framework density 18.002389999999998
#
# number of rings (size 3 to 8) (size 9 to 14) (size 15 to 20)
#    0.000    1.750    5.000    0.750    3.500    1.250 
#    0.000    1.875    0.000    2.625    0.000    1.750 
#    0.000    0.000    0.000    0.000    0.000    0.000 
#
# Total GULP energy -396752.034314 kJ/mol
# GULP energy per Si atom -12398.501072 kJ/mol
# Density = 1.796142 g / cm^3
# Si number density = 18.002390 Si / 1000 Ang^3
#
#
#
# Elastic Constant Matrix: (Units=GPa)
#
#
# Indices 1 2 3 4 5 6 
#
# 1 62.6815 24.3797 30.4093 0.0000 0.0000 0.0000
# 2 24.3797 104.3779 28.8319 0.0000 0.0000 0.0000
# 3 30.4093 28.8319 57.2823 0.0000 0.0000 0.0000
# 4 0.0000 0.0000 0.0000 22.4412 0.0000 0.0000
# 5 0.0000 0.0000 0.0000 0.0000 17.4788 0.0000
# 6 0.0000 0.0000 0.0000 0.0000 0.0000 19.3578
#
#
#
# Elastic Compliance Matrix: (Units=1/GPa)
#
#
# Indices 1 2 3 4 5 6 
#
# 1 0.021919 -0.002213 -0.010522 0.000000 0.000000 0.000000
# 2 -0.002213 0.011351 -0.004538 0.000000 0.000000 0.000000
# 3 -0.010522 -0.004538 0.025328 0.000000 0.000000 0.000000
# 4 0.000000 0.000000 0.000000 0.044561 0.000000 0.000000
# 5 0.000000 0.000000 0.000000 0.000000 0.057212 0.000000
# 6 0.000000 0.000000 0.000000 0.000000 0.000000 0.051659
#
#
# Mechanical properties :
#
#
# Convention : Reuss Voigt Hill
#
# Bulk Modulus (GPa) = 41.57960 43.50928 42.54444
# Shear Modulus (GPa) = 19.63907 21.23694 20.43800
#
# Velocity S-wave (km/s) = 3.30648 3.43836 3.37307
# Velocity P-wave (km/s) = 6.14198 6.32331 6.23330
#
# Compressibility (1/GPa) = 0.02405025
#
# Stress axis : x y z
#
# Youngs Moduli (GPa) = 45.62198 88.09678 39.48251
#
# Poissons Ratio (x) = 0.19497 0.41545
# Poissons Ratio (y) = 0.10097 0.17919
# Poissons Ratio (z) = 0.48005 0.39982
#
# Static dielectric constant tensor:
#      x y z
#    x 3.211050 0.000000 0.000000 
#    y 0.000000 3.400470 0.000000 
#    z 0.000000 0.000000 3.317880 
# 
# 
# High freq. dielectric constant tensor:
#      x y z
#    x 1.690530 0.000000 0.000000 
#    y 0.000000 1.687070 0.000000 
#    z 0.000000 0.000000 1.686070 
# 
# From -- ./inp_files/13461.got.cif
#   From: 2010.03.12/outbox.cif.g09.slc.cpg/sg44_7_cif.got.tgz:13461.got - 2010.04.14 02:36:11.
