data_PCOD8188296
_publ_section_title
;
Structure prediction by ZEFSAII (Michael W. Deem and Ramdas Pophale) SiO2 
 PCOD8188296
Probable space group: I M M 2
;
_chemical_formula_sum "Si O2"
_cell_formula_units_Z 48
_cell_length_a 9.207207
_cell_length_b 10.369626
_cell_length_c 28.028997
_cell_angle_alpha 90.000000
_cell_angle_beta 90.000000
_cell_angle_gamma 90.000000
_cell_volume 2676.076704
_symmetry_space_group_name_H-M "I M M 2"
_symmetry_group_IT_number 44
_symmetry_cell_setting 'orthorhombic'
loop_
_space_group_symop_operation_xyz
x,y,z
-x,-y,z
-x,y,z
x,-y,z
1/2+x,1/2+y,1/2+z
1/2-x,1/2-y,1/2+z
1/2-x,1/2+y,1/2+z
1/2+x,1/2-y,1/2+z
loop_
_atom_site_type_symbol
_atom_site_label
_atom_site_fract_x
_atom_site_fract_y
_atom_site_fract_z
Si Si1 0.667352 0.000000 0.441970
Si Si2 0.333327 0.348812 0.202617
Si Si3 0.672974 0.500000 0.040800
Si Si4 0.330380 0.500000 0.452138
Si Si5 0.331648 0.739760 0.386878
Si Si6 0.827567 0.240408 0.601298
Si Si7 0.327255 0.000000 0.052013
Si Si8 0.170298 0.649371 0.296864
O O1 0.704569 0.124741 0.410902
O O2 0.500000 0.000000 0.458209
O O3 0.767733 0.000000 0.487751
O O4 0.500000 0.313045 0.213645
O O5 0.316804 0.500000 0.192599
O O6 0.273790 0.275401 0.155734
O O7 0.237028 0.302670 0.246994
O O8 0.500000 0.500000 0.038420
O O9 0.733384 0.374276 0.068183
O O10 0.500000 0.500000 0.464989
O O11 0.285390 0.626084 0.422572
O O12 0.238592 0.500000 0.499852
O O13 0.500000 0.726374 0.372987
O O14 0.238376 0.733106 0.338968
O O15 0.770627 0.375576 0.580754
O O16 0.000000 0.232994 0.601108
O O17 0.500000 0.000000 0.047097
O O18 0.210114 0.500000 0.305419
O O19 0.000000 0.673240 0.295341
#
# Coordination Sequence:
#
# PCOD8188296 Si02
#       8
#     4   8   4   4   8   8   4   8
#     4  10  22  36  51  76 107 135 170 215 255 298
#     4   9  16  30  53  74  96 131 172 207 246 300
#     4  10  18  32  53  74  99 135 176 209 245 298
#     4  10  20  34  53  74  99 135 176 209 245 302
#     4  10  20  36  55  75 102 137 174 209 251 305
#     4   9  17  31  51  76 101 131 171 209 245 296
#     4  10  20  32  49  74 105 133 164 211 257 292
#     4  10  20  33  52  80 107 128 164 216 261 302
#
# _framework density 17.936706000000001
#
# number of rings (size 3 to 8) (size 9 to 14) (size 15 to 20)
#    0.000    2.333    1.667    1.500    0.000    2.000 
#    0.000    2.500    0.000    3.000    0.000    0.000 
#    0.000    0.000    0.000    0.000    0.000    0.000 
#
# Total GULP energy -297661.833834 kJ/mol
# GULP energy per Si atom -12402.576410 kJ/mol
# Density = 1.789588 g / cm^3
# Si number density = 17.936706 Si / 1000 Ang^3
#
#
#
# Elastic Constant Matrix: (Units=GPa)
#
#
# Indices 1 2 3 4 5 6 
#
# 1 50.9837 35.2110 59.2365 0.0000 0.0000 0.0000
# 2 35.2110 135.8419 79.3531 0.0000 0.0000 0.0000
# 3 59.2365 79.3531 169.9128 0.0000 0.0000 0.0000
# 4 0.0000 0.0000 0.0000 17.9713 0.0000 0.0000
# 5 0.0000 0.0000 0.0000 0.0000 34.2212 0.0000
# 6 0.0000 0.0000 0.0000 0.0000 0.0000 4.0413
#
#
#
# Elastic Compliance Matrix: (Units=1/GPa)
#
#
# Indices 1 2 3 4 5 6 
#
# 1 0.033607 -0.002567 -0.010517 0.000000 0.000000 0.000000
# 2 -0.002567 0.010319 -0.003924 0.000000 0.000000 0.000000
# 3 -0.010517 -0.003924 0.011385 0.000000 0.000000 0.000000
# 4 0.000000 0.000000 0.000000 0.055644 0.000000 0.000000
# 5 0.000000 0.000000 0.000000 0.000000 0.029222 0.000000
# 6 0.000000 0.000000 0.000000 0.000000 0.000000 0.247443
#
#
# Mechanical properties :
#
#
# Convention : Reuss Voigt Hill
#
# Bulk Modulus (GPa) = 46.96355 78.25996 62.61175
# Shear Modulus (GPa) = 11.66218 23.44262 17.55240
#
# Velocity S-wave (km/s) = 2.55264 3.61912 3.13161
# Velocity P-wave (km/s) = 5.90997 7.82240 6.93245
#
# Compressibility (1/GPa) = 0.02129311
#
# Stress axis : x y z
#
# Youngs Moduli (GPa) = 29.75568 96.90485 87.83649
#
# Poissons Ratio (x) = 0.24879 0.92381
# Poissons Ratio (y) = 0.07639 0.34470
# Poissons Ratio (z) = 0.31295 0.38029
#
# Static dielectric constant tensor:
#      x y z
#    x 3.074760 0.000000 0.000000 
#    y 0.000000 3.430780 0.000000 
#    z 0.000000 0.000000 3.368050 
# 
# 
# High freq. dielectric constant tensor:
#      x y z
#    x 1.671380 0.000000 0.000000 
#    y 0.000000 1.686480 0.000000 
#    z 0.000000 0.000000 1.707400 
# 
# From -- ./inp_files/26990.got.cif
#   From: 2010.03.12/outbox.cif.g09.slc.cpg/sg44_14_cif.got.tgz:26990.got - 2010.04.14 02:36:11.
