data_PCOD8188884
_publ_section_title
;
Structure prediction by ZEFSAII (Michael W. Deem and Ramdas Pophale) SiO2 
 PCOD8188884
Probable space group: I M M 2
;
_chemical_formula_sum "Si O2"
_cell_formula_units_Z 40
_cell_length_a 7.539512
_cell_length_b 8.973327
_cell_length_c 29.086481
_cell_angle_alpha 90.000000
_cell_angle_beta 90.000000
_cell_angle_gamma 90.000000
_cell_volume 1967.831521
_symmetry_space_group_name_H-M "I M M 2"
_symmetry_group_IT_number 44
_symmetry_cell_setting 'orthorhombic'
loop_
_space_group_symop_operation_xyz
x,y,z
-x,-y,z
-x,y,z
x,-y,z
1/2+x,1/2+y,1/2+z
1/2-x,1/2-y,1/2+z
1/2-x,1/2+y,1/2+z
1/2+x,1/2-y,1/2+z
loop_
_atom_site_type_symbol
_atom_site_label
_atom_site_fract_x
_atom_site_fract_y
_atom_site_fract_z
Si Si1 0.500000 0.323874 0.693410
Si Si2 0.789355 0.667259 0.953427
Si Si3 0.210441 0.170265 0.044166
Si Si4 0.200130 0.170416 0.635745
Si Si5 0.500000 0.172710 0.789885
Si Si6 0.797683 0.827158 0.862073
O O1 0.500000 0.500000 0.688311
O O2 0.323984 0.262665 0.669591
O O3 0.500000 0.278547 0.746273
O O4 0.714639 0.500000 0.957316
O O5 0.722363 0.738103 0.905838
O O6 0.000000 0.669123 0.953945
O O7 0.717904 0.762893 0.996263
O O8 0.297186 0.263851 0.084742
O O9 0.000000 0.183240 0.048198
O O10 0.273502 0.000000 0.047560
O O11 0.000000 0.180271 0.654892
O O12 0.266288 0.000000 0.634107
O O13 0.323811 0.211126 0.818601
O O14 0.500000 0.000000 0.774538
O O15 0.000000 0.781780 0.849966
O O16 0.784896 0.000000 0.875064
#
# Coordination Sequence:
#
# PCOD8188884 Si02
#       6
#     4   8   8   8   4   8
#     4  12  26  44  66  92 124 162 202 254 315 372
#     4   9  17  30  52  82 117 159 201 242 293 355
#     4  10  19  33  57  88 122 162 203 247 301 360
#     4  11  24  42  65  91 121 159 204 255 309 366
#     4  10  22  40  62  88 116 152 200 252 307 364
#     4   9  18  35  58  83 114 151 194 246 300 356
#
# _framework density 20.326941999999999
#
# number of rings (size 3 to 8) (size 9 to 14) (size 15 to 20)
#    0.000    2.000    1.000    2.700    0.000    6.400 
#    1.800    2.000    0.000    0.000    0.000    0.000 
#    0.000    0.000    0.000    0.000    0.000    0.000 
#
# Total GULP energy -248061.806843 kJ/mol
# GULP energy per Si atom -12403.090342 kJ/mol
# Density = 2.028068 g / cm^3
# Si number density = 20.326942 Si / 1000 Ang^3
#
#
#
# Elastic Constant Matrix: (Units=GPa)
#
#
# Indices 1 2 3 4 5 6 
#
# 1 88.3851 47.3668 50.0940 0.0000 0.0000 0.0000
# 2 47.3668 162.6455 80.7504 0.0000 0.0000 0.0000
# 3 50.0940 80.7504 144.2354 0.0000 0.0000 0.0000
# 4 0.0000 0.0000 0.0000 44.0833 0.0000 0.0000
# 5 0.0000 0.0000 0.0000 0.0000 -19.9854 0.0000
# 6 0.0000 0.0000 0.0000 0.0000 0.0000 14.5491
#
#
#
# Elastic Compliance Matrix: (Units=1/GPa)
#
#
# Indices 1 2 3 4 5 6 
#
# 1 0.014747 -0.002426 -0.003764 0.000000 0.000000 0.000000
# 2 -0.002426 0.008914 -0.004148 0.000000 0.000000 0.000000
# 3 -0.003764 -0.004148 0.010562 0.000000 0.000000 0.000000
# 4 0.000000 0.000000 0.000000 0.022684 0.000000 0.000000
# 5 0.000000 0.000000 0.000000 0.000000 -0.050037 0.000000
# 6 0.000000 0.000000 0.000000 0.000000 0.000000 0.068733
#
#
# Mechanical properties :
#
#
# Convention : Reuss Voigt Hill
#
# Bulk Modulus (GPa) = 73.80865 83.52096 78.66480
# Shear Modulus (GPa) = 49.60466 22.19972 35.90219
#
# Velocity S-wave (km/s) = 4.94534 3.30833 4.20722
# Velocity P-wave (km/s) = 8.30651 7.46802 7.89840
#
# Compressibility (1/GPa) = 0.01354855
#
# Stress axis : x y z
#
# Youngs Moduli (GPa) = 67.80814 112.17818 94.67466
#
# Poissons Ratio (x) = 0.27219 0.35631
# Poissons Ratio (y) = 0.16453 0.39271
# Poissons Ratio (z) = 0.25520 0.46532
#
# Static dielectric constant tensor:
#      x y z
#    x 3.786300 0.000000 0.000000 
#    y 0.000000 3.812510 0.000000 
#    z 0.000000 0.000000 3.648470 
# 
# 
# High freq. dielectric constant tensor:
#      x y z
#    x 1.790770 0.000000 0.000000 
#    y 0.000000 1.800250 0.000000 
#    z 0.000000 0.000000 1.791180 
# 
# From -- ./inp_files/25950.got.cif
#   From: 2010.03.12/outbox.cif.g09.slc.cpg/sg44_13_cif.got.tgz:25950.got - 2010.04.14 02:36:11.
