data_PCOD8188833
_publ_section_title
;
Structure prediction by ZEFSAII (Michael W. Deem and Ramdas Pophale) SiO2 
 PCOD8188833
Probable space group: I M M 2
;
_chemical_formula_sum "Si O2"
_cell_formula_units_Z 64
_cell_length_a 8.915984
_cell_length_b 28.906142
_cell_length_c 12.755809
_cell_angle_alpha 90.000000
_cell_angle_beta 90.000000
_cell_angle_gamma 90.000000
_cell_volume 3287.512554
_symmetry_space_group_name_H-M "I M M 2"
_symmetry_group_IT_number 44
_symmetry_cell_setting 'orthorhombic'
loop_
_space_group_symop_operation_xyz
x,y,z
-x,-y,z
-x,y,z
x,-y,z
1/2+x,1/2+y,1/2+z
1/2-x,1/2-y,1/2+z
1/2-x,1/2+y,1/2+z
1/2+x,1/2-y,1/2+z
loop_
_atom_site_type_symbol
_atom_site_label
_atom_site_fract_x
_atom_site_fract_y
_atom_site_fract_z
Si Si1 0.175956 0.675465 0.724460
Si Si2 0.829859 0.550514 0.859128
Si Si3 0.675217 0.419122 0.669774
Si Si4 0.324045 0.298086 0.525472
Si Si5 0.177925 0.889690 0.535062
Si Si6 0.674185 0.604281 0.442669
Si Si7 0.821284 0.052935 0.738110
Si Si8 0.824185 0.302624 0.956118
O O1 0.227171 0.624325 0.701675
O O2 0.253223 0.708661 0.640019
O O3 0.232176 0.687429 0.839748
O O4 0.000000 0.681423 0.713897
O O5 0.830912 0.500000 0.912964
O O6 0.744720 0.542682 0.747193
O O7 0.000000 0.568684 0.842681
O O8 0.742622 0.586225 0.931697
O O9 0.500000 0.411652 0.692712
O O10 0.699915 0.428329 0.545503
O O11 0.500000 0.305378 0.539913
O O12 0.259808 0.343741 0.463984
O O13 0.281422 0.251027 0.467817
O O14 0.233772 0.917732 0.637470
O O15 0.238078 0.836784 0.537089
O O16 0.000000 0.889522 0.529110
O O17 0.500000 0.610137 0.418496
O O18 0.746259 0.578651 0.341752
O O19 0.000000 0.051596 0.742579
O O20 0.760148 0.000000 0.732345
O O21 0.000000 0.311143 0.972864
#
# Coordination Sequence:
#
# PCOD8188833 Si02
#       8
#     8   8   8   8   8   8   8   8
#     4  10  19  33  54  78 109 147 183 227 283 340
#     4  11  23  37  54  78 111 148 183 227 287 346
#     4  10  19  33  56  83 109 141 182 229 279 336
#     4   9  19  35  54  79 110 148 192 237 285 339
#     4  11  22  35  56  83 111 145 192 242 283 342
#     4   8  16  32  54  79 111 147 183 227 284 339
#     4   9  18  33  54  82 115 148 184 234 291 343
#     4  10  21  36  55  78 110 151 190 235 293 348
#
# _framework density 19.467606
#
# number of rings (size 3 to 8) (size 9 to 14) (size 15 to 20)
#    0.000    2.250    1.250    2.625    0.000    4.000 
#    0.000    3.750    0.000    9.000    0.000    1.750 
#    0.000    0.000    0.000    0.000    0.000    0.000 
#
# Total GULP energy -396550.566906 kJ/mol
# GULP energy per Si atom -12392.205216 kJ/mol
# Density = 1.942330 g / cm^3
# Si number density = 19.467606 Si / 1000 Ang^3
#
#
#
# Elastic Constant Matrix: (Units=GPa)
#
#
# Indices 1 2 3 4 5 6 
#
# 1 -153.8778 30.3448 0.5574 -0.0037 0.0002 -0.0001
# 2 30.3448 93.5355 56.7649 -0.0006 0.0001 0.0000
# 3 0.5574 56.7649 127.7938 -0.0028 0.0004 0.0003
# 4 -0.0037 -0.0006 -0.0028 24.9897 0.0002 0.0002
# 5 0.0002 0.0001 0.0004 0.0002 19.3209 -0.0002
# 6 -0.0001 0.0000 0.0003 0.0002 -0.0002 23.4909
#
#
#
# Elastic Compliance Matrix: (Units=1/GPa)
#
#
# Indices 1 2 3 4 5 6 
#
# 1 -0.005983 0.002636 -0.001145 -0.000001 0.000000 0.000000
# 2 0.002636 0.013476 -0.005997 0.000000 0.000000 0.000000
# 3 -0.001145 -0.005997 0.010494 0.000001 0.000000 0.000000
# 4 -0.000001 0.000000 0.000001 0.040017 0.000000 0.000000
# 5 0.000000 0.000000 0.000000 0.000000 0.051757 0.000000
# 6 0.000000 0.000000 0.000000 0.000000 0.000000 0.042570
#
#
# Mechanical properties :
#
#
# Convention : Reuss Voigt Hill
#
# Bulk Modulus (GPa) = 111.43067 26.97622 69.20344
# Shear Modulus (GPa) = 30.42580 12.21258 21.31919
#
# Velocity S-wave (km/s) = 3.95763 2.50737 3.31284
# Velocity P-wave (km/s) = 8.84574 4.71907 7.08931
#
# Compressibility (1/GPa) = 0.00897419
#
# Stress axis : x y z
#
# Youngs Moduli (GPa) = -167.13885 74.20774 95.29222
#
# Poissons Ratio (x) = -0.19559 0.10908
# Poissons Ratio (y) = 0.44053 0.57149
# Poissons Ratio (z) = -0.19132 0.44504
#
# Static dielectric constant tensor:
#      x y z
#    x 3.358140 0.000000 0.000000 
#    y 0.000000 3.687220 0.000000 
#    z 0.000000 0.000000 4.178790 
# 
# 
# High freq. dielectric constant tensor:
#      x y z
#    x 1.731740 0.000000 0.000000 
#    y 0.000000 1.761130 0.000000 
#    z 0.000000 0.000000 1.761170 
# 
# From -- ./inp_files/11540.got.cif
#   From: 2010.03.12/outbox.cif.g09.slc.cpg/sg44_6_cif.got.tgz:11540.got - 2010.04.14 02:36:11.
