data_PCOD8188546
_publ_section_title
;
Structure prediction by ZEFSAII (Michael W. Deem and Ramdas Pophale) SiO2 
 PCOD8188546
Probable space group: I M M 2
;
_chemical_formula_sum "Si O2"
_cell_formula_units_Z 64
_cell_length_a 20.997493
_cell_length_b 8.776003
_cell_length_c 19.774747
_cell_angle_alpha 90.000000
_cell_angle_beta 90.000000
_cell_angle_gamma 90.000000
_cell_volume 3643.972946
_symmetry_space_group_name_H-M "I M M 2"
_symmetry_group_IT_number 44
_symmetry_cell_setting 'orthorhombic'
loop_
_space_group_symop_operation_xyz
x,y,z
-x,-y,z
-x,y,z
x,-y,z
1/2+x,1/2+y,1/2+z
1/2-x,1/2-y,1/2+z
1/2-x,1/2+y,1/2+z
1/2+x,1/2-y,1/2+z
loop_
_atom_site_type_symbol
_atom_site_label
_atom_site_fract_x
_atom_site_fract_y
_atom_site_fract_z
Si Si1 0.128039 0.678507 0.651050
Si Si2 0.310245 0.180926 0.518762
Si Si3 0.733993 0.823034 0.791669
Si Si4 0.130844 0.321636 0.798658
Si Si5 0.930300 0.680154 0.935587
Si Si6 0.430233 0.818564 0.015868
Si Si7 0.306980 0.821720 0.938435
Si Si8 0.727571 0.319930 0.654171
O O1 0.131357 0.500000 0.639736
O O2 0.099679 0.717549 0.725367
O O3 0.085240 0.747899 0.591066
O O4 0.200133 0.740164 0.645986
O O5 0.374204 0.245759 0.482742
O O6 0.248674 0.236124 0.478117
O O7 0.313329 0.243062 0.595023
O O8 0.309677 0.000000 0.519306
O O9 0.805197 0.772555 0.808856
O O10 0.693013 0.787125 0.858644
O O11 0.703390 0.732931 0.728231
O O12 0.733179 0.000000 0.773545
O O13 0.149351 0.500000 0.801901
O O14 0.082091 0.275159 0.857324
O O15 0.931430 0.500000 0.942840
O O16 0.000000 0.746864 0.955857
O O17 0.500000 0.755605 0.994173
O O18 0.375587 0.762426 0.964627
O O19 0.432082 0.000000 0.017188
O O20 0.297482 0.000000 0.953851
O O21 0.721119 0.500000 0.648496
#
# Coordination Sequence:
#
# PCOD8188546 Si02
#       8
#     8   8   8   8   8   8   8   8
#     4   8  14  24  42  68  96 126 159 197 235 283
#     4  11  20  31  52  78 101 131 172 211 253 301
#     4  10  19  30  48  74 103 131 166 209 255 298
#     4   9  16  28  46  70 100 135 171 201 242 293
#     4   9  18  31  47  71 104 137 172 214 253 296
#     4   9  16  27  45  71 100 130 167 206 244 290
#     4  10  19  32  50  74 103 134 166 208 253 294
#     4  10  19  33  52  73 101 130 165 210 260 304
#
# _framework density 17.563248000000002
#
# number of rings (size 3 to 8) (size 9 to 14) (size 15 to 20)
#    0.000    2.500    2.500    1.875    0.000    1.000 
#    0.000    2.500    0.000    4.500    0.000    3.500 
#    0.000    0.000    0.000    0.000    0.000    0.000 
#
# Total GULP energy -396598.823141 kJ/mol
# GULP energy per Si atom -12393.713223 kJ/mol
# Density = 1.752327 g / cm^3
# Si number density = 17.563248 Si / 1000 Ang^3
#
#
#
# Elastic Constant Matrix: (Units=GPa)
#
#
# Indices 1 2 3 4 5 6 
#
# 1 126.4711 21.4497 79.2611 0.0000 0.0000 0.0000
# 2 21.4497 36.6394 32.0787 0.0000 0.0000 0.0000
# 3 79.2611 32.0787 135.2197 0.0000 0.0000 0.0000
# 4 0.0000 0.0000 0.0000 24.2440 0.0000 0.0000
# 5 0.0000 0.0000 0.0000 0.0000 23.3276 0.0000
# 6 0.0000 0.0000 0.0000 0.0000 0.0000 15.1216
#
#
#
# Elastic Compliance Matrix: (Units=1/GPa)
#
#
# Indices 1 2 3 4 5 6 
#
# 1 0.012536 -0.001143 -0.007077 0.000000 0.000000 0.000000
# 2 -0.001143 0.034552 -0.007527 0.000000 0.000000 0.000000
# 3 -0.007077 -0.007527 0.013329 0.000000 0.000000 0.000000
# 4 0.000000 0.000000 0.000000 0.041247 0.000000 0.000000
# 5 0.000000 0.000000 0.000000 0.000000 0.042868 0.000000
# 6 0.000000 0.000000 0.000000 0.000000 0.000000 0.066130
#
#
# Mechanical properties :
#
#
# Convention : Reuss Voigt Hill
#
# Bulk Modulus (GPa) = 34.57372 62.65658 48.61515
# Shear Modulus (GPa) = 19.85717 23.57469 21.71593
#
# Velocity S-wave (km/s) = 3.36610 3.66768 3.52012
# Velocity P-wave (km/s) = 5.90216 7.32722 6.65296
#
# Compressibility (1/GPa) = 0.02892370
#
# Stress axis : x y z
#
# Youngs Moduli (GPa) = 79.76979 28.94175 75.02215
#
# Poissons Ratio (x) = 0.03307 0.53094
# Poissons Ratio (y) = 0.09116 0.56470
# Poissons Ratio (z) = 0.56454 0.21785
#
# Static dielectric constant tensor:
#      x y z
#    x 3.357930 0.000000 0.000000 
#    y 0.000000 2.970900 0.000000 
#    z 0.000000 0.000000 3.601590 
# 
# 
# High freq. dielectric constant tensor:
#      x y z
#    x 1.651850 0.000000 0.000000 
#    y 0.000000 1.646930 0.000000 
#    z 0.000000 0.000000 1.691350 
# 
# From -- ./inp_files/24479.got.cif
#   From: 2010.03.12/outbox.cif.g09.slc.cpg/sg44_13_cif.got.tgz:24479.got - 2010.04.14 02:36:11.
