data_PCOD8188652
_publ_section_title
;
Structure prediction by ZEFSAII (Michael W. Deem and Ramdas Pophale) SiO2 
 PCOD8188652
Probable space group: I M M 2
;
_chemical_formula_sum "Si O2"
_cell_formula_units_Z 40
_cell_length_a 9.364140
_cell_length_b 7.688327
_cell_length_c 29.176569
_cell_angle_alpha 90.000000
_cell_angle_beta 90.000000
_cell_angle_gamma 90.000000
_cell_volume 2100.554551
_symmetry_space_group_name_H-M "I M M 2"
_symmetry_group_IT_number 44
_symmetry_cell_setting 'orthorhombic'
loop_
_space_group_symop_operation_xyz
x,y,z
-x,-y,z
-x,y,z
x,-y,z
1/2+x,1/2+y,1/2+z
1/2-x,1/2-y,1/2+z
1/2-x,1/2+y,1/2+z
1/2+x,1/2-y,1/2+z
loop_
_atom_site_type_symbol
_atom_site_label
_atom_site_fract_x
_atom_site_fract_y
_atom_site_fract_z
Si Si1 0.829847 0.500000 0.381130
Si Si2 0.830075 0.193397 0.316364
Si Si3 0.836456 0.705934 0.629996
Si Si4 0.662126 0.194970 0.542936
Si Si5 0.667041 0.500000 0.475625
Si Si6 0.158490 0.793855 0.215431
O O1 0.775044 0.329252 0.354116
O O2 0.759500 0.500000 0.430301
O O3 0.000000 0.500000 0.386310
O O4 0.780223 0.256525 0.265709
O O5 0.000000 0.186796 0.315634
O O6 0.769789 0.000000 0.327888
O O7 0.819954 0.500000 0.625984
O O8 0.761952 0.793303 0.586853
O O9 0.763427 0.778568 0.676303
O O10 0.000000 0.764879 0.630844
O O11 0.500000 0.239438 0.557988
O O12 0.711774 0.329027 0.504004
O O13 0.673211 0.000000 0.522646
O O14 0.500000 0.500000 0.463226
O O15 0.000000 0.714328 0.207812
O O16 0.148782 0.000000 0.212513
#
# Coordination Sequence:
#
# PCOD8188652 Si02
#       6
#     4   8   8   8   4   8
#     4  10  20  34  56  82 104 134 180 224 267 320
#     4   8  15  30  51  76 106 138 176 222 261 302
#     4  10  19  31  51  80 114 147 177 216 270 324
#     4  10  21  38  59  79 101 138 185 226 267 320
#     4  10  22  40  58  78 108 138 172 226 279 326
#     4   8  14  27  49  73 102 144 185 218 258 308
#
# _framework density 19.042589
#
# number of rings (size 3 to 8) (size 9 to 14) (size 15 to 20)
#    0.000    2.800    1.000    1.800    0.000    2.800 
#    1.800    1.000    0.000    1.200    0.000    0.000 
#    0.000    0.000    0.000    0.000    0.000    0.000 
#
# Total GULP energy -247947.191022 kJ/mol
# GULP energy per Si atom -12397.359551 kJ/mol
# Density = 1.899925 g / cm^3
# Si number density = 19.042589 Si / 1000 Ang^3
#
#
#
# Elastic Constant Matrix: (Units=GPa)
#
#
# Indices 1 2 3 4 5 6 
#
# 1 73.7823 35.2619 63.8669 0.0000 0.0000 0.0000
# 2 35.2619 104.7796 71.8305 0.0000 0.0000 0.0000
# 3 63.8669 71.8305 168.4644 0.0000 0.0000 0.0000
# 4 0.0000 0.0000 0.0000 2.6631 0.0000 0.0000
# 5 0.0000 0.0000 0.0000 0.0000 34.8378 0.0000
# 6 0.0000 0.0000 0.0000 0.0000 0.0000 12.1870
#
#
#
# Elastic Compliance Matrix: (Units=1/GPa)
#
#
# Indices 1 2 3 4 5 6 
#
# 1 0.020534 -0.002224 -0.006837 0.000000 0.000000 0.000000
# 2 -0.002224 0.013727 -0.005010 0.000000 0.000000 0.000000
# 3 -0.006837 -0.005010 0.010664 0.000000 0.000000 0.000000
# 4 0.000000 0.000000 0.000000 0.375498 0.000000 0.000000
# 5 0.000000 0.000000 0.000000 0.000000 0.028704 0.000000
# 6 0.000000 0.000000 0.000000 0.000000 0.000000 0.082054
#
#
# Mechanical properties :
#
#
# Convention : Reuss Voigt Hill
#
# Bulk Modulus (GPa) = 59.57903 76.54943 68.06423
# Shear Modulus (GPa) = 8.85087 21.67539 15.26313
#
# Velocity S-wave (km/s) = 2.15825 3.37747 2.83419
# Velocity P-wave (km/s) = 6.12910 7.44957 6.82136
#
# Compressibility (1/GPa) = 0.01678443
#
# Stress axis : x y z
#
# Youngs Moduli (GPa) = 48.69999 72.85143 93.77464
#
# Poissons Ratio (x) = 0.16200 0.64109
# Poissons Ratio (y) = 0.10829 0.46979
# Poissons Ratio (z) = 0.33294 0.36497
#
# Static dielectric constant tensor:
#      x y z
#    x 3.309600 0.000000 0.000000 
#    y 0.000000 3.655750 0.000000 
#    z 0.000000 0.000000 3.507180 
# 
# 
# High freq. dielectric constant tensor:
#      x y z
#    x 1.709470 0.000000 0.000000 
#    y 0.000000 1.739200 0.000000 
#    z 0.000000 0.000000 1.737260 
# 
# From -- ./inp_files/25929.got.cif
#   From: 2010.03.12/outbox.cif.g09.slc.cpg/sg44_13_cif.got.tgz:25929.got - 2010.04.14 02:36:11.
