data_PCOD8188466
_publ_section_title
;
Structure prediction by ZEFSAII (Michael W. Deem and Ramdas Pophale) SiO2 
 PCOD8188466
Probable space group: I M M 2
;
_chemical_formula_sum "Si O2"
_cell_formula_units_Z 64
_cell_length_a 22.183449
_cell_length_b 9.429824
_cell_length_c 15.363635
_cell_angle_alpha 90.000000
_cell_angle_beta 90.000000
_cell_angle_gamma 90.000000
_cell_volume 3213.857655
_symmetry_space_group_name_H-M "I M M 2"
_symmetry_group_IT_number 44
_symmetry_cell_setting 'orthorhombic'
loop_
_space_group_symop_operation_xyz
x,y,z
-x,-y,z
-x,y,z
x,-y,z
1/2+x,1/2+y,1/2+z
1/2-x,1/2-y,1/2+z
1/2-x,1/2+y,1/2+z
1/2+x,1/2-y,1/2+z
loop_
_atom_site_type_symbol
_atom_site_label
_atom_site_fract_x
_atom_site_fract_y
_atom_site_fract_z
Si Si1 0.934234 0.337914 0.827540
Si Si2 0.931363 0.834205 0.498221
Si Si3 0.105364 0.160969 0.982306
Si Si4 0.807487 0.664026 0.752199
Si Si5 0.571606 0.838446 0.644695
Si Si6 0.324130 0.833314 0.059433
Si Si7 0.571318 0.344336 0.802900
Si Si8 0.237577 0.159924 0.906403
O O1 0.926438 0.500000 0.859165
O O2 0.936226 0.239084 0.912284
O O3 0.878414 0.295840 0.765543
O O4 0.000000 0.318427 0.780786
O O5 0.888124 0.745972 0.561140
O O6 0.910017 0.799468 0.399950
O O7 0.000000 0.784635 0.514050
O O8 0.924864 0.000000 0.518360
O O9 0.173481 0.164411 0.951608
O O10 0.082287 0.000000 0.994938
O O11 0.102686 0.243675 0.072277
O O12 0.796309 0.500000 0.772711
O O13 0.791570 0.700813 0.651924
O O14 0.763442 0.748841 0.817568
O O15 0.500000 0.828377 0.635715
O O16 0.594587 0.775146 0.736630
O O17 0.594009 0.000000 0.637980
O O18 0.336455 0.000000 0.052834
O O19 0.284065 0.778790 0.978271
O O20 0.500000 0.356763 0.798983
O O21 0.598481 0.500000 0.779505
O O22 0.255245 0.000000 0.880511
#
# Coordination Sequence:
#
# PCOD8188466 Si02
#       8
#     8   8   8   8   8   8   8   8
#     4   9  17  30  49  74 105 137 172 219 272 326
#     4   9  19  36  57  83 114 145 179 221 271 330
#     4  10  19  31  48  69  99 141 183 225 274 326
#     4   9  19  36  58  82 109 144 185 228 276 333
#     4  10  19  29  44  70 104 139 178 226 276 325
#     4  10  21  38  60  85 113 145 185 231 280 332
#     4   8  15  30  49  68  97 137 176 214 258 312
#     4   9  20  39  57  76 108 145 183 233 281 322
#
# _framework density 19.913761999999998
#
# number of rings (size 3 to 8) (size 9 to 14) (size 15 to 20)
#    0.000    2.750    0.000    1.875    0.000    5.250 
#    2.250    2.500    0.000    0.000    0.000    0.000 
#    0.000    0.000    0.000    0.000    0.000    0.000 
#
# Total GULP energy -396672.482210 kJ/mol
# GULP energy per Si atom -12396.015069 kJ/mol
# Density = 1.986844 g / cm^3
# Si number density = 19.913762 Si / 1000 Ang^3
#
#
#
# Elastic Constant Matrix: (Units=GPa)
#
#
# Indices 1 2 3 4 5 6 
#
# 1 54.7783 23.0459 33.7357 0.0000 0.0000 0.0000
# 2 23.0459 91.8698 57.4250 0.0000 0.0000 0.0000
# 3 33.7357 57.4250 118.3694 0.0000 0.0000 0.0000
# 4 0.0000 0.0000 0.0000 33.4075 0.0000 0.0000
# 5 0.0000 0.0000 0.0000 0.0000 21.7038 0.0000
# 6 0.0000 0.0000 0.0000 0.0000 0.0000 21.0528
#
#
#
# Elastic Compliance Matrix: (Units=1/GPa)
#
#
# Indices 1 2 3 4 5 6 
#
# 1 0.022489 -0.002347 -0.005271 0.000000 0.000000 0.000000
# 2 -0.002347 0.015867 -0.007029 0.000000 0.000000 0.000000
# 3 -0.005271 -0.007029 0.013360 0.000000 0.000000 0.000000
# 4 0.000000 0.000000 0.000000 0.029933 0.000000 0.000000
# 5 0.000000 0.000000 0.000000 0.000000 0.046075 0.000000
# 6 0.000000 0.000000 0.000000 0.000000 0.000000 0.047500
#
#
# Mechanical properties :
#
#
# Convention : Reuss Voigt Hill
#
# Bulk Modulus (GPa) = 44.59652 54.82565 49.71108
# Shear Modulus (GPa) = 23.58583 25.28688 24.43635
#
# Velocity S-wave (km/s) = 3.44524 3.56732 3.50681
# Velocity P-wave (km/s) = 6.18625 6.67525 6.43540
#
# Compressibility (1/GPa) = 0.02242327
#
# Stress axis : x y z
#
# Youngs Moduli (GPa) = 44.46649 63.02310 74.84846
#
# Poissons Ratio (x) = 0.14790 0.39452
# Poissons Ratio (y) = 0.10435 0.52610
# Poissons Ratio (z) = 0.23438 0.44298
#
# Static dielectric constant tensor:
#      x y z
#    x 3.411170 0.000000 0.000000 
#    y 0.000000 3.732090 0.000000 
#    z 0.000000 0.000000 3.654740 
# 
# 
# High freq. dielectric constant tensor:
#      x y z
#    x 1.757520 0.000000 0.000000 
#    y 0.000000 1.773580 0.000000 
#    z 0.000000 0.000000 1.772550 
# 
# From -- ./inp_files/19463.got.cif
#   From: 2010.03.12/outbox.cif.g09.slc.cpg/sg44_10_cif.got.tgz:19463.got - 2010.04.14 02:36:11.
