data_PCOD8188795
_publ_section_title
;
Structure prediction by ZEFSAII (Michael W. Deem and Ramdas Pophale) SiO2 
 PCOD8188795
Probable space group: I M M 2
;
_chemical_formula_sum "Si O2"
_cell_formula_units_Z 64
_cell_length_a 23.396649
_cell_length_b 8.593140
_cell_length_c 19.091342
_cell_angle_alpha 90.000000
_cell_angle_beta 90.000000
_cell_angle_gamma 90.000000
_cell_volume 3838.327299
_symmetry_space_group_name_H-M "I M M 2"
_symmetry_group_IT_number 44
_symmetry_cell_setting 'orthorhombic'
loop_
_space_group_symop_operation_xyz
x,y,z
-x,-y,z
-x,y,z
x,-y,z
1/2+x,1/2+y,1/2+z
1/2-x,1/2-y,1/2+z
1/2-x,1/2+y,1/2+z
1/2+x,1/2-y,1/2+z
loop_
_atom_site_type_symbol
_atom_site_label
_atom_site_fract_x
_atom_site_fract_y
_atom_site_fract_z
Si Si1 0.752734 0.180368 0.474460
Si Si2 0.219535 0.817453 0.835316
Si Si3 0.655876 0.181841 0.211287
Si Si4 0.933716 0.819554 0.615890
Si Si5 0.876892 0.318600 0.481218
Si Si6 0.239322 0.318307 0.130530
Si Si7 0.668258 0.182569 0.757394
Si Si8 0.062805 0.684459 0.339487
O O1 0.716044 0.274321 0.417093
O O2 0.819082 0.222129 0.474929
O O3 0.725911 0.222559 0.550216
O O4 0.745985 0.000000 0.457316
O O5 0.170023 0.734429 0.790509
O O6 0.280639 0.755843 0.806824
O O7 0.212346 0.000000 0.824482
O O8 0.598989 0.271272 0.186690
O O9 0.706964 0.220623 0.157580
O O10 0.643802 0.000000 0.209850
O O11 0.909974 0.717621 0.552220
O O12 0.000000 0.782096 0.627274
O O13 0.923082 0.000000 0.599039
O O14 0.860933 0.500000 0.478015
O O15 0.917511 0.269171 0.417249
O O16 0.255210 0.500000 0.139952
O O17 0.183003 0.276074 0.176630
O O18 0.607820 0.255176 0.782559
O O19 0.663972 0.000000 0.769091
O O20 0.059326 0.500000 0.332542
O O21 0.000000 0.757198 0.325496
#
# Coordination Sequence:
#
# PCOD8188795 Si02
#       8
#     8   8   8   8   8   8   8   8
#     4  11  20  30  47  72  99 130 167 204 249 298
#     4  10  19  33  51  69  96 129 162 202 253 303
#     4  11  21  33  51  74  98 126 165 209 253 299
#     4  11  23  37  51  69  98 137 175 208 247 297
#     4  11  20  31  46  69 100 134 171 208 245 287
#     4   9  18  31  48  67  96 131 162 203 250 295
#     4   8  14  27  44  64  89 122 158 194 243 290
#     4   9  16  26  43  68  95 124 163 204 239 281
#
# _framework density 16.673929000000001
#
# number of rings (size 3 to 8) (size 9 to 14) (size 15 to 20)
#    0.000    2.000    2.500    3.750    0.000    2.000 
#    0.000    0.000    0.000    0.000    0.000    0.875 
#    0.000    3.000    0.000    0.000    0.000    0.000 
#
# Total GULP energy -396746.229282 kJ/mol
# GULP energy per Si atom -12398.319665 kJ/mol
# Density = 1.663598 g / cm^3
# Si number density = 16.673929 Si / 1000 Ang^3
#
#
#
# Elastic Constant Matrix: (Units=GPa)
#
#
# Indices 1 2 3 4 5 6 
#
# 1 79.2193 6.8560 49.0608 0.0000 0.0000 0.0000
# 2 6.8560 30.8526 16.2237 0.0000 0.0000 0.0000
# 3 49.0608 16.2237 115.7297 0.0000 0.0000 0.0000
# 4 0.0000 0.0000 0.0000 23.2317 0.0000 0.0000
# 5 0.0000 0.0000 0.0000 0.0000 25.0206 0.0000
# 6 0.0000 0.0000 0.0000 0.0000 0.0000 16.2679
#
#
#
# Elastic Compliance Matrix: (Units=1/GPa)
#
#
# Indices 1 2 3 4 5 6 
#
# 1 0.017117 0.000013 -0.007258 0.000000 0.000000 0.000000
# 2 0.000013 0.034992 -0.004911 0.000000 0.000000 0.000000
# 3 -0.007258 -0.004911 0.012406 0.000000 0.000000 0.000000
# 4 0.000000 0.000000 0.000000 0.043045 0.000000 0.000000
# 5 0.000000 0.000000 0.000000 0.000000 0.039967 0.000000
# 6 0.000000 0.000000 0.000000 0.000000 0.000000 0.061471
#
#
# Mechanical properties :
#
#
# Convention : Reuss Voigt Hill
#
# Bulk Modulus (GPa) = 24.87391 41.12029 32.99710
# Shear Modulus (GPa) = 20.26667 23.14811 21.70739
#
# Velocity S-wave (km/s) = 3.49014 3.73001 3.61207
# Velocity P-wave (km/s) = 5.58495 6.57766 6.10153
#
# Compressibility (1/GPa) = 0.04020276
#
# Stress axis : x y z
#
# Youngs Moduli (GPa) = 58.42114 28.57826 80.60494
#
# Poissons Ratio (x) = -0.00037 0.58505
# Poissons Ratio (y) = -0.00076 0.39584
# Poissons Ratio (z) = 0.42403 0.14034
#
# Static dielectric constant tensor:
#      x y z
#    x 3.211380 0.000000 0.000000 
#    y 0.000000 3.002050 0.000000 
#    z 0.000000 0.000000 3.332980 
# 
# 
# High freq. dielectric constant tensor:
#      x y z
#    x 1.614930 0.000000 0.000000 
#    y 0.000000 1.632590 0.000000 
#    z 0.000000 0.000000 1.641470 
# 
# From -- ./inp_files/20861.got.cif
#   From: 2010.03.12/outbox.cif.g09.slc.cpg/sg44_11_cif.got.tgz:20861.got - 2010.04.14 02:36:11.
