data_PCOD8188282
_publ_section_title
;
Structure prediction by ZEFSAII (Michael W. Deem and Ramdas Pophale) SiO2 
 PCOD8188282
Probable space group: I M M 2
;
_chemical_formula_sum "Si O2"
_cell_formula_units_Z 56
_cell_length_a 16.347753
_cell_length_b 8.864250
_cell_length_c 22.810689
_cell_angle_alpha 90.000000
_cell_angle_beta 90.000000
_cell_angle_gamma 90.000000
_cell_volume 3305.509934
_symmetry_space_group_name_H-M "I M M 2"
_symmetry_group_IT_number 44
_symmetry_cell_setting 'orthorhombic'
loop_
_space_group_symop_operation_xyz
x,y,z
-x,-y,z
-x,y,z
x,-y,z
1/2+x,1/2+y,1/2+z
1/2-x,1/2-y,1/2+z
1/2-x,1/2+y,1/2+z
1/2+x,1/2-y,1/2+z
loop_
_atom_site_type_symbol
_atom_site_label
_atom_site_fract_x
_atom_site_fract_y
_atom_site_fract_z
Si Si1 0.152130 0.827682 0.074570
Si Si2 0.830869 0.178526 0.294378
Si Si3 0.090863 0.177574 0.734288
Si Si4 0.736465 0.176047 0.178364
Si Si5 0.000000 0.169449 0.157539
Si Si6 0.000000 0.677042 0.277766
Si Si7 0.681613 0.677816 0.351353
Si Si8 0.904849 0.676183 0.960722
O O1 0.231208 0.784273 0.113372
O O2 0.077538 0.805000 0.117823
O O3 0.156635 0.000000 0.051723
O O4 0.143166 0.715688 0.020235
O O5 0.799374 0.228652 0.229556
O O6 0.768766 0.240048 0.343775
O O7 0.919191 0.251047 0.306762
O O8 0.838120 0.000000 0.300015
O O9 0.149380 0.242901 0.684113
O O10 0.123011 0.226411 0.798037
O O11 0.000000 0.244648 0.726073
O O12 0.089852 0.000000 0.727937
O O13 0.722305 0.000000 0.185875
O O14 0.000000 0.291052 0.208630
O O15 0.000000 0.000000 0.185022
O O16 0.000000 0.500000 0.289481
O O17 0.696727 0.500000 0.353297
O O18 0.637081 0.729394 0.409866
O O19 0.895593 0.500000 0.947698
O O20 0.000000 0.723333 0.966286
#
# Coordination Sequence:
#
# PCOD8188282 Si02
#       8
#     8   8   8   8   4   4   8   8
#     4  10  19  33  51  72 100 135 172 205 248 302
#     4  10  19  34  52  73 103 136 169 209 256 304
#     4   9  18  32  50  73 100 130 165 204 248 296
#     4   9  18  31  49  73 100 131 166 204 250 301
#     4  10  18  32  50  70 102 140 172 205 248 299
#     4  12  22  30  48  78 108 138 172 207 248 301
#     4  10  20  35  53  74 100 133 172 212 254 301
#     4  11  23  35  49  74 104 136 173 209 249 299
#
# _framework density 16.941410999999999
#
# number of rings (size 3 to 8) (size 9 to 14) (size 15 to 20)
#    0.000    2.000    2.143    2.357    0.000    4.000 
#    0.000    0.000    0.000    0.000    1.857    0.000 
#    0.000    0.000    0.000    0.000    0.000    0.000 
#
# Total GULP energy -347225.134661 kJ/mol
# GULP energy per Si atom -12400.897666 kJ/mol
# Density = 1.690285 g / cm^3
# Si number density = 16.941411 Si / 1000 Ang^3
#
#
#
# Elastic Constant Matrix: (Units=GPa)
#
#
# Indices 1 2 3 4 5 6 
#
# 1 138.4777 45.0173 43.8539 0.0000 0.0000 0.0000
# 2 45.0173 63.0262 26.0040 0.0000 0.0000 0.0000
# 3 43.8539 26.0040 70.2129 0.0000 0.0000 0.0000
# 4 0.0000 0.0000 0.0000 28.3280 0.0000 0.0000
# 5 0.0000 0.0000 0.0000 0.0000 43.7282 0.0000
# 6 0.0000 0.0000 0.0000 0.0000 0.0000 31.5707
#
#
#
# Elastic Compliance Matrix: (Units=1/GPa)
#
#
# Indices 1 2 3 4 5 6 
#
# 1 0.010462 -0.005638 -0.004446 0.000000 0.000000 0.000000
# 2 -0.005638 0.021767 -0.004540 0.000000 0.000000 0.000000
# 3 -0.004446 -0.004540 0.018701 0.000000 0.000000 0.000000
# 4 0.000000 0.000000 0.000000 0.035301 0.000000 0.000000
# 5 0.000000 0.000000 0.000000 0.000000 0.022869 0.000000
# 6 0.000000 0.000000 0.000000 0.000000 0.000000 0.031675
#
#
# Mechanical properties :
#
#
# Convention : Reuss Voigt Hill
#
# Bulk Modulus (GPa) = 46.12379 55.71856 50.92117
# Shear Modulus (GPa) = 28.20858 31.18148 29.69503
#
# Velocity S-wave (km/s) = 4.08495 4.29482 4.19120
# Velocity P-wave (km/s) = 7.03802 7.58645 7.31737
#
# Compressibility (1/GPa) = 0.02168079
#
# Stress axis : x y z
#
# Youngs Moduli (GPa) = 95.57959 45.94146 53.47310
#
# Poissons Ratio (x) = 0.25904 0.23777
# Poissons Ratio (y) = 0.53892 0.24276
# Poissons Ratio (z) = 0.42499 0.20857
#
# Static dielectric constant tensor:
#      x y z
#    x 3.287420 0.000000 0.000000 
#    y 0.000000 3.147260 0.000000 
#    z 0.000000 0.000000 2.999190 
# 
# 
# High freq. dielectric constant tensor:
#      x y z
#    x 1.654390 0.000000 0.000000 
#    y 0.000000 1.656580 0.000000 
#    z 0.000000 0.000000 1.626490 
# 
# From -- ./inp_files/24175.got.cif
#   From: 2010.03.12/outbox.cif.g09.slc.cpg/sg44_13_cif.got.tgz:24175.got - 2010.04.14 02:36:11.
