data_PCOD8188969
_publ_section_title
;
Structure prediction by ZEFSAII (Michael W. Deem and Ramdas Pophale) SiO2 
 PCOD8188969
Probable space group: I M M 2
;
_chemical_formula_sum "Si O2"
_cell_formula_units_Z 48
_cell_length_a 8.924722
_cell_length_b 27.860373
_cell_length_c 9.842021
_cell_angle_alpha 90.000000
_cell_angle_beta 90.000000
_cell_angle_gamma 90.000000
_cell_volume 2447.179979
_symmetry_space_group_name_H-M "I M M 2"
_symmetry_group_IT_number 44
_symmetry_cell_setting 'orthorhombic'
loop_
_space_group_symop_operation_xyz
x,y,z
-x,-y,z
-x,y,z
x,-y,z
1/2+x,1/2+y,1/2+z
1/2-x,1/2-y,1/2+z
1/2-x,1/2+y,1/2+z
1/2+x,1/2-y,1/2+z
loop_
_atom_site_type_symbol
_atom_site_label
_atom_site_fract_x
_atom_site_fract_y
_atom_site_fract_z
Si Si1 0.822091 0.795880 0.378730
Si Si2 0.321948 0.554459 0.506372
Si Si3 0.672676 0.110407 0.766536
Si Si4 0.827734 0.896983 0.274307
Si Si5 0.675158 0.785656 0.669579
Si Si6 0.169097 0.054824 0.546951
O O1 0.755960 0.846995 0.326920
O O2 0.758392 0.782614 0.526055
O O3 0.770670 0.757330 0.266586
O O4 0.000000 0.797401 0.394812
O O5 0.500000 0.552224 0.515033
O O6 0.258329 0.500000 0.497910
O O7 0.275942 0.584990 0.376591
O O8 0.252858 0.581959 0.637506
O O9 0.500000 0.102483 0.804369
O O10 0.713629 0.166254 0.753487
O O11 0.708350 0.086723 0.621951
O O12 0.808009 0.938153 0.386780
O O13 0.000000 0.886043 0.242481
O O14 0.500000 0.782609 0.637549
O O15 0.000000 0.070627 0.588205
O O16 0.196331 0.000000 0.585895
#
# Coordination Sequence:
#
# PCOD8188969 Si02
#       6
#     8   8   8   8   8   8
#     4  10  21  39  62  86 112 146 188 231 282 342
#     4  10  21  37  58  85 114 147 192 240 281 325
#     4  11  23  38  54  79 119 154 184 226 279 340
#     4   9  18  35  59  85 110 139 182 235 284 329
#     4  10  23  40  58  86 117 146 185 235 284 334
#     4  10  19  34  59  86 109 140 187 237 280 327
#
# _framework density 19.614412999999999
#
# number of rings (size 3 to 8) (size 9 to 14) (size 15 to 20)
#    0.000    2.000    1.667    1.500    2.333    6.000 
#    0.000    1.667    0.000    2.000    0.000    0.000 
#    0.000    0.000    0.000    0.000    0.000    0.000 
#
# Total GULP energy -297594.211489 kJ/mol
# GULP energy per Si atom -12399.758812 kJ/mol
# Density = 1.956977 g / cm^3
# Si number density = 19.614413 Si / 1000 Ang^3
#
#
#
# Elastic Constant Matrix: (Units=GPa)
#
#
# Indices 1 2 3 4 5 6 
#
# 1 24.9301 29.1290 26.6832 -0.0008 -0.0001 0.0001
# 2 29.1290 116.0158 56.3922 0.0007 0.0000 0.0000
# 3 26.6832 56.3922 121.4861 -0.0034 -0.0040 -0.0009
# 4 -0.0008 0.0007 -0.0034 39.6481 -0.0011 -0.0003
# 5 -0.0001 0.0000 -0.0040 -0.0011 24.1402 0.0001
# 6 0.0001 0.0000 -0.0009 -0.0003 0.0001 23.0936
#
#
#
# Elastic Compliance Matrix: (Units=1/GPa)
#
#
# Indices 1 2 3 4 5 6 
#
# 1 0.062699 -0.011685 -0.008347 0.000001 -0.000001 0.000000
# 2 -0.011685 0.013309 -0.003611 -0.000001 -0.000001 0.000000
# 3 -0.008347 -0.003611 0.011741 0.000001 0.000002 0.000000
# 4 0.000001 -0.000001 0.000001 0.025222 0.000001 0.000000
# 5 -0.000001 -0.000001 0.000002 0.000001 0.041425 0.000000
# 6 0.000000 0.000000 0.000000 0.000000 0.000000 0.043302
#
#
# Mechanical properties :
#
#
# Convention : Reuss Voigt Hill
#
# Bulk Modulus (GPa) = 24.71444 54.09342 39.40393
# Shear Modulus (GPa) = 19.34444 27.39156 23.36800
#
# Velocity S-wave (km/s) = 3.14385 3.74103 3.45537
# Velocity P-wave (km/s) = 5.07995 6.80432 6.00436
#
# Compressibility (1/GPa) = 0.04046218
#
# Stress axis : x y z
#
# Youngs Moduli (GPa) = 15.94910 75.13884 85.17120
#
# Poissons Ratio (x) = 0.87800 0.71094
# Poissons Ratio (y) = 0.18637 0.30757
# Poissons Ratio (z) = 0.13313 0.27134
#
# Static dielectric constant tensor:
#      x y z
#    x 3.256230 0.000000 0.000000 
#    y 0.000000 3.867520 0.000000 
#    z 0.000000 0.000000 3.589960 
# 
# 
# High freq. dielectric constant tensor:
#      x y z
#    x 1.728780 0.000000 0.000000 
#    y 0.000000 1.779880 0.000000 
#    z 0.000000 0.000000 1.774650 
# 
# From -- ./inp_files/4884.got.cif
#   From: 2010.03.12/outbox.cif.g09.slc.cpg/sg44_3_cif.got.tgz:4884.got - 2010.04.14 02:36:11.
