data_PCOD8188605
_publ_section_title
;
Structure prediction by ZEFSAII (Michael W. Deem and Ramdas Pophale) SiO2 
 PCOD8188605
Probable space group: I M M 2
;
_chemical_formula_sum "Si O2"
_cell_formula_units_Z 64
_cell_length_a 8.976512
_cell_length_b 22.686213
_cell_length_c 15.526616
_cell_angle_alpha 90.000000
_cell_angle_beta 90.000000
_cell_angle_gamma 90.000000
_cell_volume 3161.887644
_symmetry_space_group_name_H-M "I M M 2"
_symmetry_group_IT_number 44
_symmetry_cell_setting 'orthorhombic'
loop_
_space_group_symop_operation_xyz
x,y,z
-x,-y,z
-x,y,z
x,-y,z
1/2+x,1/2+y,1/2+z
1/2-x,1/2-y,1/2+z
1/2-x,1/2+y,1/2+z
1/2+x,1/2-y,1/2+z
loop_
_atom_site_type_symbol
_atom_site_label
_atom_site_fract_x
_atom_site_fract_y
_atom_site_fract_z
Si Si1 0.669018 0.434446 0.678090
Si Si2 0.835114 0.430312 0.507444
Si Si3 0.176720 0.230672 0.623391
Si Si4 0.175544 0.612577 0.180068
Si Si5 0.328500 0.686120 0.753564
Si Si6 0.824118 0.185294 0.442067
Si Si7 0.173274 0.064939 0.520866
Si Si8 0.834359 0.930337 0.844084
O O1 0.500000 0.436468 0.644009
O O2 0.714706 0.500000 0.712450
O O3 0.771018 0.413319 0.599803
O O4 0.686335 0.385291 0.752183
O O5 0.844102 0.500000 0.497245
O O6 0.728893 0.403859 0.433477
O O7 0.000000 0.402287 0.499258
O O8 0.244181 0.174948 0.671395
O O9 0.237214 0.287744 0.673167
O O10 0.225188 0.228100 0.521397
O O11 0.000000 0.228991 0.630288
O O12 0.234387 0.566838 0.109152
O O13 0.215998 0.587204 0.272442
O O14 0.000000 0.620786 0.171766
O O15 0.500000 0.705773 0.742740
O O16 0.263313 0.705870 0.847842
O O17 0.769815 0.117928 0.459786
O O18 0.000000 0.184498 0.433779
O O19 0.000000 0.074509 0.544110
O O20 0.198367 0.000000 0.478552
O O21 0.000000 0.904207 0.826971
O O22 0.844731 0.000000 0.849851
#
# Coordination Sequence:
#
# PCOD8188605 Si02
#       8
#     8   8   8   8   8   8   8   8
#     4   9  18  33  54  81 113 146 179 222 280 343
#     4   9  17  30  48  71 103 143 184 225 270 323
#     4  10  21  40  60  79 108 148 190 237 290 342
#     4  11  21  33  51  76 108 146 188 237 286 336
#     4  10  20  37  61  87 113 145 189 239 287 339
#     4   8  17  35  58  82 111 146 186 234 283 333
#     4   9  17  31  53  81 114 152 189 225 274 336
#     4  10  19  31  49  74 107 146 188 235 286 339
#
# _framework density 20.241071999999999
#
# number of rings (size 3 to 8) (size 9 to 14) (size 15 to 20)
#    0.000    2.500    0.000    3.375    0.000    5.000 
#    2.250    5.625    0.000    0.000    0.000    3.500 
#    0.000    0.000    0.000    0.000    0.000    0.000 
#
# Total GULP energy -396567.183108 kJ/mol
# GULP energy per Si atom -12392.724472 kJ/mol
# Density = 2.019500 g / cm^3
# Si number density = 20.241072 Si / 1000 Ang^3
#
#
#
# Elastic Constant Matrix: (Units=GPa)
#
#
# Indices 1 2 3 4 5 6 
#
# 1 89.0925 24.8283 40.0006 0.0000 0.0000 0.0000
# 2 24.8283 70.8735 37.2156 0.0000 0.0000 0.0000
# 3 40.0006 37.2156 125.5422 -0.0002 0.0001 0.0001
# 4 0.0000 0.0000 -0.0002 23.0625 0.0001 0.0000
# 5 0.0000 0.0000 0.0001 0.0001 19.8638 0.0000
# 6 0.0000 0.0000 0.0001 0.0000 0.0000 23.4512
#
#
#
# Elastic Compliance Matrix: (Units=1/GPa)
#
#
# Indices 1 2 3 4 5 6 
#
# 1 0.013599 -0.002948 -0.003459 0.000000 0.000000 0.000000
# 2 -0.002948 0.017350 -0.004204 0.000000 0.000000 0.000000
# 3 -0.003459 -0.004204 0.010314 0.000000 0.000000 0.000000
# 4 0.000000 0.000000 0.000000 0.043360 0.000000 0.000000
# 5 0.000000 0.000000 0.000000 0.000000 0.050343 0.000000
# 6 0.000000 0.000000 0.000000 0.000000 0.000000 0.042642
#
#
# Mechanical properties :
#
#
# Convention : Reuss Voigt Hill
#
# Bulk Modulus (GPa) = 49.89755 54.39970 52.14863
# Shear Modulus (GPa) = 24.32982 25.50640 24.91811
#
# Velocity S-wave (km/s) = 3.47075 3.55368 3.51246
# Velocity P-wave (km/s) = 6.38488 6.61608 6.50150
#
# Compressibility (1/GPa) = 0.02004106
#
# Stress axis : x y z
#
# Youngs Moduli (GPa) = 73.53606 57.63778 96.95719
#
# Poissons Ratio (x) = 0.16989 0.33539
# Poissons Ratio (y) = 0.21675 0.40761
# Poissons Ratio (z) = 0.25437 0.24231
#
# Static dielectric constant tensor:
#      x y z
#    x 3.659530 0.000000 0.000000 
#    y 0.000000 3.539440 0.000000 
#    z 0.000000 0.000000 3.781290 
# 
# 
# High freq. dielectric constant tensor:
#      x y z
#    x 1.775740 0.000000 0.000000 
#    y 0.000000 1.772310 0.000000 
#    z 0.000000 0.000000 1.787740 
# 
# From -- ./inp_files/16882.got.cif
#   From: 2010.03.12/outbox.cif.g09.slc.cpg/sg44_9_cif.got.tgz:16882.got - 2010.04.14 02:36:11.
