data_PCOD8188226
_publ_section_title
;
Structure prediction by ZEFSAII (Michael W. Deem and Ramdas Pophale) SiO2 
 PCOD8188226
Probable space group: I M M 2
;
_chemical_formula_sum "Si O2"
_cell_formula_units_Z 56
_cell_length_a 19.755339
_cell_length_b 9.081642
_cell_length_c 14.970721
_cell_angle_alpha 90.000000
_cell_angle_beta 90.000000
_cell_angle_gamma 90.000000
_cell_volume 2685.910774
_symmetry_space_group_name_H-M "I M M 2"
_symmetry_group_IT_number 44
_symmetry_cell_setting 'orthorhombic'
loop_
_space_group_symop_operation_xyz
x,y,z
-x,-y,z
-x,y,z
x,-y,z
1/2+x,1/2+y,1/2+z
1/2-x,1/2-y,1/2+z
1/2-x,1/2+y,1/2+z
1/2+x,1/2-y,1/2+z
loop_
_atom_site_type_symbol
_atom_site_label
_atom_site_fract_x
_atom_site_fract_y
_atom_site_fract_z
Si Si1 0.422397 0.327046 0.772060
Si Si2 0.423293 0.172159 0.141298
Si Si3 0.357090 0.337114 0.288099
Si Si4 0.138329 0.323965 0.113039
Si Si5 0.500000 0.655018 0.369268
Si Si6 0.720385 0.328286 0.462330
Si Si7 0.500000 0.830024 0.534010
Si Si8 0.121622 0.670219 0.445754
O O1 0.500000 0.289771 0.742720
O O2 0.408368 0.500000 0.765904
O O3 0.365008 0.241997 0.713124
O O4 0.412708 0.273639 0.872848
O O5 0.500000 0.221328 0.168394
O O6 0.360002 0.240314 0.198120
O O7 0.415204 0.000000 0.154969
O O8 0.411897 0.216226 0.038874
O O9 0.326879 0.500000 0.267643
O O10 0.435754 0.344637 0.307455
O O11 0.316832 0.267341 0.372408
O O12 0.145385 0.500000 0.116411
O O13 0.068049 0.261747 0.073373
O O14 0.197396 0.259135 0.051012
O O15 0.500000 0.500000 0.425787
O O16 0.500000 0.799767 0.429198
O O17 0.702338 0.500000 0.475434
O O18 0.798828 0.299531 0.449759
O O19 0.500000 0.000000 0.554755
O O20 0.106695 0.500000 0.422531
#
# Coordination Sequence:
#
# PCOD8188226 Si02
#       8
#     8   8   8   8   4   8   4   8
#     4  11  24  41  64  92 119 153 201 257 311 361
#     4  10  21  37  59  85 111 145 190 240 291 340
#     4  10  20  34  55  84 116 149 186 232 288 346
#     4  11  22  37  60  90 123 158 197 245 302 362
#     4  10  18  30  52  81 114 151 186 235 296 346
#     4  10  22  40  60  87 123 161 198 238 293 359
#     4  10  20  32  52  85 118 151 192 241 294 350
#     4  10  23  43  63  84 117 159 202 248 297 355
#
# _framework density 20.849539
#
# number of rings (size 3 to 8) (size 9 to 14) (size 15 to 20)
#    0.000    1.714    2.857    1.286    0.000    5.429 
#    0.000    2.857    0.000    0.000    0.000    0.000 
#    0.000    0.000    0.000    0.000    0.000    0.000 
#
# Total GULP energy -347034.040708 kJ/mol
# GULP energy per Si atom -12394.072882 kJ/mol
# Density = 2.080208 g / cm^3
# Si number density = 20.849539 Si / 1000 Ang^3
#
#
#
# Elastic Constant Matrix: (Units=GPa)
#
#
# Indices 1 2 3 4 5 6 
#
# 1 53.1900 24.7239 19.9033 0.0000 0.0000 0.0000
# 2 24.7239 74.1131 51.2220 0.0000 0.0000 0.0000
# 3 19.9033 51.2220 114.9979 0.0000 0.0000 0.0000
# 4 0.0000 0.0000 0.0000 41.0748 0.0000 0.0000
# 5 0.0000 0.0000 0.0000 0.0000 52.4762 0.0000
# 6 0.0000 0.0000 0.0000 0.0000 0.0000 23.5580
#
#
#
# Elastic Compliance Matrix: (Units=1/GPa)
#
#
# Indices 1 2 3 4 5 6 
#
# 1 0.022300 -0.006894 -0.000789 0.000000 0.000000 0.000000
# 2 -0.006894 0.021625 -0.008439 0.000000 0.000000 0.000000
# 3 -0.000789 -0.008439 0.012591 0.000000 0.000000 0.000000
# 4 0.000000 0.000000 0.000000 0.024346 0.000000 0.000000
# 5 0.000000 0.000000 0.000000 0.000000 0.019056 0.000000
# 6 0.000000 0.000000 0.000000 0.000000 0.000000 0.042448
#
#
# Mechanical properties :
#
#
# Convention : Reuss Voigt Hill
#
# Bulk Modulus (GPa) = 41.19851 48.22215 44.71033
# Shear Modulus (GPa) = 27.36694 33.18525 30.27610
#
# Velocity S-wave (km/s) = 3.62690 3.99388 3.81481
# Velocity P-wave (km/s) = 6.11081 6.66686 6.39488
#
# Compressibility (1/GPa) = 0.02427272
#
# Stress axis : x y z
#
# Youngs Moduli (GPa) = 44.84256 46.24225 79.42026
#
# Poissons Ratio (x) = 0.31880 0.06265
# Poissons Ratio (y) = 0.30915 0.67023
# Poissons Ratio (z) = 0.03538 0.39024
#
# Static dielectric constant tensor:
#      x y z
#    x 3.769680 0.000000 0.000000 
#    y 0.000000 3.923630 0.000000 
#    z 0.000000 0.000000 3.784490 
# 
# 
# High freq. dielectric constant tensor:
#      x y z
#    x 1.812590 0.000000 0.000000 
#    y 0.000000 1.803720 0.000000 
#    z 0.000000 0.000000 1.822340 
# 
# From -- ./inp_files/19267.got.cif
#   From: 2010.03.12/outbox.cif.g09.slc.cpg/sg44_10_cif.got.tgz:19267.got - 2010.04.14 02:36:11.
