data_PCOD8188966
_publ_section_title
;
Structure prediction by ZEFSAII (Michael W. Deem and Ramdas Pophale) SiO2 
 PCOD8188966
Probable space group: I M M 2
;
_chemical_formula_sum "Si O2"
_cell_formula_units_Z 48
_cell_length_a 18.481514
_cell_length_b 8.511858
_cell_length_c 15.373778
_cell_angle_alpha 90.000000
_cell_angle_beta 90.000000
_cell_angle_gamma 90.000000
_cell_volume 2418.480115
_symmetry_space_group_name_H-M "I M M 2"
_symmetry_group_IT_number 44
_symmetry_cell_setting 'orthorhombic'
loop_
_space_group_symop_operation_xyz
x,y,z
-x,-y,z
-x,y,z
x,-y,z
1/2+x,1/2+y,1/2+z
1/2-x,1/2-y,1/2+z
1/2-x,1/2+y,1/2+z
1/2+x,1/2-y,1/2+z
loop_
_atom_site_type_symbol
_atom_site_label
_atom_site_fract_x
_atom_site_fract_y
_atom_site_fract_z
Si Si1 0.153801 0.313983 0.567770
Si Si2 0.233796 0.686411 0.736305
Si Si3 0.500000 0.687669 0.823159
Si Si4 0.612697 0.314523 0.690303
Si Si5 0.000000 0.186423 0.516013
Si Si6 0.420088 0.683384 0.500022
Si Si7 0.726525 0.184006 0.432460
O O1 0.152728 0.500000 0.560368
O O2 0.173868 0.258742 0.666217
O O3 0.073359 0.247252 0.559028
O O4 0.212144 0.257500 0.495268
O O5 0.233011 0.500000 0.743163
O O6 0.306952 0.753637 0.693656
O O7 0.228468 0.754892 0.834191
O O8 0.500000 0.500000 0.825718
O O9 0.430461 0.754252 0.772443
O O10 0.500000 0.756656 0.919104
O O11 0.615056 0.500000 0.699648
O O12 0.574293 0.268729 0.600865
O O13 0.000000 0.000000 0.518873
O O14 0.500000 0.720144 0.459115
O O15 0.400742 0.500000 0.488709
O O16 0.356045 0.785024 0.459859
O O17 0.742344 0.000000 0.432294
#
# Coordination Sequence:
#
# PCOD8188966 Si02
#       7
#     8   8   4   8   4   8   8
#     4  11  22  41  65  86 116 159 204 244 290 357
#     4   9  19  35  58  83 110 154 203 237 281 356
#     4   9  16  27  53  86 113 144 186 233 281 345
#     4   9  14  27  53  82 107 140 189 232 270 336
#     4  11  23  39  59  88 123 154 194 249 303 345
#     4  10  19  34  58  85 115 151 192 235 286 349
#     4  11  22  38  61  89 118 151 196 248 299 348
#
# _framework density 19.847176999999999
#
# number of rings (size 3 to 8) (size 9 to 14) (size 15 to 20)
#    0.000    2.000    2.500    2.250    0.000    3.000 
#    1.500    3.333    0.000    1.000    0.000    0.000 
#    0.000    0.000    0.000    0.000    0.000    0.000 
#
# Total GULP energy -297331.550889 kJ/mol
# GULP energy per Si atom -12388.814620 kJ/mol
# Density = 1.980200 g / cm^3
# Si number density = 19.847177 Si / 1000 Ang^3
#
#
#
# Elastic Constant Matrix: (Units=GPa)
#
#
# Indices 1 2 3 4 5 6 
#
# 1 161.4487 24.6098 63.8998 0.0000 0.0000 0.0000
# 2 24.6098 44.7046 26.4404 0.0000 0.0000 0.0000
# 3 63.8998 26.4404 131.2988 0.0000 0.0000 0.0000
# 4 0.0000 0.0000 0.0000 22.7997 0.0000 0.0000
# 5 0.0000 0.0000 0.0000 0.0000 29.3407 0.0000
# 6 0.0000 0.0000 0.0000 0.0000 0.0000 27.4575
#
#
#
# Elastic Compliance Matrix: (Units=1/GPa)
#
#
# Indices 1 2 3 4 5 6 
#
# 1 0.007883 -0.002351 -0.003363 0.000000 0.000000 0.000000
# 2 -0.002351 0.026094 -0.004111 0.000000 0.000000 0.000000
# 3 -0.003363 -0.004111 0.010081 0.000000 0.000000 0.000000
# 4 0.000000 0.000000 0.000000 0.043860 0.000000 0.000000
# 5 0.000000 0.000000 0.000000 0.000000 0.034082 0.000000
# 6 0.000000 0.000000 0.000000 0.000000 0.000000 0.036420
#
#
# Mechanical properties :
#
#
# Convention : Reuss Voigt Hill
#
# Bulk Modulus (GPa) = 40.96808 63.03913 52.00361
# Shear Modulus (GPa) = 26.85184 30.75305 28.80244
#
# Velocity S-wave (km/s) = 3.68221 3.94063 3.81361
# Velocity P-wave (km/s) = 6.22614 7.24817 6.75651
#
# Compressibility (1/GPa) = 0.02440924
#
# Stress axis : x y z
#
# Youngs Moduli (GPa) = 126.84931 38.32247 99.19787
#
# Poissons Ratio (x) = 0.09008 0.33363
# Poissons Ratio (y) = 0.29817 0.40778
# Poissons Ratio (z) = 0.42663 0.15754
#
# Static dielectric constant tensor:
#      x y z
#    x 3.929110 0.000000 0.000000 
#    y 0.000000 3.210740 0.000000 
#    z 0.000000 0.000000 3.901840 
# 
# 
# High freq. dielectric constant tensor:
#      x y z
#    x 1.789370 0.000000 0.000000 
#    y 0.000000 1.732570 0.000000 
#    z 0.000000 0.000000 1.778020 
# 
# From -- ./inp_files/16162.got.cif
#   From: 2010.03.12/outbox.cif.g09.slc.cpg/sg44_9_cif.got.tgz:16162.got - 2010.04.14 02:36:11.
