data_PCOD8188441
_publ_section_title
;
Structure prediction by ZEFSAII (Michael W. Deem and Ramdas Pophale) SiO2 
 PCOD8188441
Probable space group: I M M 2
;
_chemical_formula_sum "Si O2"
_cell_formula_units_Z 56
_cell_length_a 9.186460
_cell_length_b 13.614096
_cell_length_c 29.263084
_cell_angle_alpha 90.000000
_cell_angle_beta 90.000000
_cell_angle_gamma 90.000000
_cell_volume 3659.797794
_symmetry_space_group_name_H-M "I M M 2"
_symmetry_group_IT_number 44
_symmetry_cell_setting 'orthorhombic'
loop_
_space_group_symop_operation_xyz
x,y,z
-x,-y,z
-x,y,z
x,-y,z
1/2+x,1/2+y,1/2+z
1/2-x,1/2-y,1/2+z
1/2-x,1/2+y,1/2+z
1/2+x,1/2-y,1/2+z
loop_
_atom_site_type_symbol
_atom_site_label
_atom_site_fract_x
_atom_site_fract_y
_atom_site_fract_z
Si Si1 0.173180 0.890354 0.474640
Si Si2 0.167360 0.609875 0.329525
Si Si3 0.667403 0.890065 0.301529
Si Si4 0.829779 0.614713 0.162646
Si Si5 0.162133 0.883355 0.573972
Si Si6 0.670899 0.299457 0.247527
Si Si7 0.170480 0.797556 0.382996
O O1 0.222075 0.847513 0.524258
O O2 0.230645 0.819963 0.433909
O O3 0.000000 0.895103 0.474924
O O4 0.236240 0.000000 0.466484
O O5 0.193556 0.500000 0.348126
O O6 0.268266 0.626792 0.285743
O O7 0.208714 0.684917 0.370193
O O8 0.000000 0.625158 0.314108
O O9 0.500000 0.876538 0.315338
O O10 0.708066 0.812687 0.261773
O O11 0.758902 0.871697 0.347052
O O12 0.699664 0.000000 0.283292
O O13 0.794406 0.500000 0.170768
O O14 0.772119 0.650964 0.113408
O O15 0.748836 0.679846 0.199984
O O16 0.000000 0.635744 0.165271
O O17 0.000000 0.841196 0.584055
O O18 0.153366 0.000000 0.571765
O O19 0.500000 0.318125 0.241986
O O20 0.000000 0.817831 0.380954
#
# Coordination Sequence:
#
# PCOD8188441 Si02
#       7
#     8   8   8   8   8   8   8
#     4   8  13  22  38  60  82 102 129 167 203 234
#     4   9  17  28  40  57  84 113 138 168 203 233
#     4   9  18  31  43  58  83 109 132 164 203 238
#     4  10  19  29  41  59  84 109 132 164 204 240
#     4   8  14  25  40  57  78 104 133 164 199 241
#     4  10  19  29  43  61  79 105 139 167 196 239
#     4   9  16  26  42  62  82 108 141 169 195 233
#
# _framework density 15.301392
#
# number of rings (size 3 to 8) (size 9 to 14) (size 15 to 20)
#    0.000    3.000    0.000    2.571    0.000    4.286 
#    0.000    0.714    0.000    2.571    0.000    1.000 
#    0.000    5.714    0.000    0.000    0.000    0.000 
#
# Total GULP energy -347066.022158 kJ/mol
# GULP energy per Si atom -12395.215077 kJ/mol
# Density = 1.526657 g / cm^3
# Si number density = 15.301392 Si / 1000 Ang^3
#
#
#
# Elastic Constant Matrix: (Units=GPa)
#
#
# Indices 1 2 3 4 5 6 
#
# 1 54.4128 28.6934 48.9624 0.0000 0.0000 0.0000
# 2 28.6934 80.9032 53.9476 0.0000 0.0000 0.0000
# 3 48.9624 53.9476 144.9026 0.0000 0.0000 0.0000
# 4 0.0000 0.0000 0.0000 20.6980 0.0000 0.0000
# 5 0.0000 0.0000 0.0000 0.0000 21.8014 0.0000
# 6 0.0000 0.0000 0.0000 0.0000 0.0000 15.8443
#
#
#
# Elastic Compliance Matrix: (Units=1/GPa)
#
#
# Indices 1 2 3 4 5 6 
#
# 1 0.027726 -0.004771 -0.007592 0.000000 0.000000 0.000000
# 2 -0.004771 0.017263 -0.004815 0.000000 0.000000 0.000000
# 3 -0.007592 -0.004815 0.011259 0.000000 0.000000 0.000000
# 4 0.000000 0.000000 0.000000 0.048314 0.000000 0.000000
# 5 0.000000 0.000000 0.000000 0.000000 0.045869 0.000000
# 6 0.000000 0.000000 0.000000 0.000000 0.000000 0.063114
#
#
# Mechanical properties :
#
#
# Convention : Reuss Voigt Hill
#
# Bulk Modulus (GPa) = 45.67887 60.38061 53.02974
# Shear Modulus (GPa) = 19.59262 21.57642 20.58452
#
# Velocity S-wave (km/s) = 3.58221 3.75920 3.67177
# Velocity P-wave (km/s) = 6.85764 7.64124 7.26002
#
# Compressibility (1/GPa) = 0.02189196
#
# Stress axis : x y z
#
# Youngs Moduli (GPa) = 36.06787 57.92661 88.81516
#
# Poissons Ratio (x) = 0.27634 0.67432
# Poissons Ratio (y) = 0.17206 0.42766
# Poissons Ratio (z) = 0.27384 0.27893
#
# Static dielectric constant tensor:
#      x y z
#    x 2.887260 0.000000 0.000000 
#    y 0.000000 2.852020 0.000000 
#    z 0.000000 0.000000 3.182280 
# 
# 
# High freq. dielectric constant tensor:
#      x y z
#    x 1.579310 0.000000 0.000000 
#    y 0.000000 1.556740 0.000000 
#    z 0.000000 0.000000 1.583920 
# 
# From -- ./inp_files/27210.got.cif
#   From: 2010.03.12/outbox.cif.g09.slc.cpg/sg44_14_cif.got.tgz:27210.got - 2010.04.14 02:36:11.
