data_PCOD8188213
_publ_section_title
;
Structure prediction by ZEFSAII (Michael W. Deem and Ramdas Pophale) SiO2 
 PCOD8188213
Probable space group: I M M 2
;
_chemical_formula_sum "Si O2"
_cell_formula_units_Z 64
_cell_length_a 8.930133
_cell_length_b 19.696660
_cell_length_c 20.887429
_cell_angle_alpha 90.000000
_cell_angle_beta 90.000000
_cell_angle_gamma 90.000000
_cell_volume 3673.969122
_symmetry_space_group_name_H-M "I M M 2"
_symmetry_group_IT_number 44
_symmetry_cell_setting 'orthorhombic'
loop_
_space_group_symop_operation_xyz
x,y,z
-x,-y,z
-x,y,z
x,-y,z
1/2+x,1/2+y,1/2+z
1/2-x,1/2-y,1/2+z
1/2-x,1/2+y,1/2+z
1/2+x,1/2-y,1/2+z
loop_
_atom_site_type_symbol
_atom_site_label
_atom_site_fract_x
_atom_site_fract_y
_atom_site_fract_z
Si Si1 0.676103 0.203604 0.971210
Si Si2 0.176451 0.199944 0.212222
Si Si3 0.324744 0.423164 0.521808
Si Si4 0.823376 0.711222 0.329306
Si Si5 0.322344 0.926138 0.631121
Si Si6 0.321724 0.073479 0.775326
Si Si7 0.323914 0.215979 0.585251
Si Si8 0.173625 0.576932 0.656852
O O1 0.500000 0.197895 0.980532
O O2 0.718203 0.234151 0.901339
O O3 0.743475 0.127824 0.973614
O O4 0.741700 0.251744 0.025197
O O5 0.238372 0.236216 0.276517
O O6 0.218295 0.245632 0.150788
O O7 0.262410 0.128137 0.209903
O O8 0.000000 0.186349 0.215680
O O9 0.500000 0.407786 0.522513
O O10 0.288916 0.500000 0.500052
O O11 0.264885 0.408957 0.592552
O O12 0.756294 0.635597 0.317026
O O13 0.000000 0.707200 0.319898
O O14 0.500000 0.922935 0.633489
O O15 0.260979 0.918202 0.703064
O O16 0.265882 0.862166 0.589329
O O17 0.270605 0.000000 0.602840
O O18 0.500000 0.075567 0.774707
O O19 0.267668 0.000000 0.802794
O O20 0.500000 0.220509 0.572705
O O21 0.198433 0.500000 0.681240
O O22 0.000000 0.591487 0.643211
#
# Coordination Sequence:
#
# PCOD8188213 Si02
#       8
#     8   8   8   8   8   8   8   8
#     4  11  22  33  48  72 106 138 169 210 254 303
#     4  10  18  31  53  76  99 131 172 211 248 297
#     4  10  20  34  51  71  99 137 177 210 245 299
#     4   9  18  31  45  69 103 136 167 203 246 293
#     4   8  13  23  44  74 100 120 152 203 251 287
#     4   8  12  21  40  66  95 123 152 188 233 283
#     4  10  18  30  51  75  99 129 168 211 252 298
#     4  10  20  33  51  77 105 129 161 210 263 308
#
# _framework density 17.419851000000001
#
# number of rings (size 3 to 8) (size 9 to 14) (size 15 to 20)
#    0.000    2.500    2.500    1.875    0.000    2.000 
#    0.000    2.500    0.000    1.125    0.000    3.500 
#    0.000    0.000    0.000    0.000    0.000    0.000 
#
# Total GULP energy -396602.447135 kJ/mol
# GULP energy per Si atom -12393.826473 kJ/mol
# Density = 1.738020 g / cm^3
# Si number density = 17.419851 Si / 1000 Ang^3
#
#
#
# Elastic Constant Matrix: (Units=GPa)
#
#
# Indices 1 2 3 4 5 6 
#
# 1 43.1513 37.6682 37.4647 0.0000 0.0000 0.0000
# 2 37.6682 126.1039 65.3116 0.0000 0.0000 0.0000
# 3 37.4647 65.3116 112.6117 0.0000 0.0000 0.0000
# 4 0.0000 0.0000 0.0000 24.7077 0.0000 0.0000
# 5 0.0000 0.0000 0.0000 0.0000 17.8583 0.0000
# 6 0.0000 0.0000 0.0000 0.0000 0.0000 19.6240
#
#
#
# Elastic Compliance Matrix: (Units=1/GPa)
#
#
# Indices 1 2 3 4 5 6 
#
# 1 0.035962 -0.006497 -0.008196 0.000000 0.000000 0.000000
# 2 -0.006497 0.012509 -0.005093 0.000000 0.000000 0.000000
# 3 -0.008196 -0.005093 0.014561 0.000000 0.000000 0.000000
# 4 0.000000 0.000000 0.000000 0.040473 0.000000 0.000000
# 5 0.000000 0.000000 0.000000 0.000000 0.055996 0.000000
# 6 0.000000 0.000000 0.000000 0.000000 0.000000 0.050958
#
#
# Mechanical properties :
#
#
# Convention : Reuss Voigt Hill
#
# Bulk Modulus (GPa) = 42.62839 62.52844 52.57841
# Shear Modulus (GPa) = 19.39112 21.86617 20.62865
#
# Velocity S-wave (km/s) = 3.34003 3.54679 3.44496
# Velocity P-wave (km/s) = 6.27684 7.26263 6.78765
#
# Compressibility (1/GPa) = 0.02345855
#
# Stress axis : x y z
#
# Youngs Moduli (GPa) = 27.80731 79.94542 68.67869
#
# Poissons Ratio (x) = 0.51943 0.56288
# Poissons Ratio (y) = 0.18067 0.34978
# Poissons Ratio (z) = 0.22790 0.40716
#
# Static dielectric constant tensor:
#      x y z
#    x 2.906780 0.000000 0.000000 
#    y 0.000000 3.645940 0.000000 
#    z 0.000000 0.000000 3.113060 
# 
# 
# High freq. dielectric constant tensor:
#      x y z
#    x 1.639490 0.000000 0.000000 
#    y 0.000000 1.684430 0.000000 
#    z 0.000000 0.000000 1.647140 
# 
# From -- ./inp_files/23417.got.cif
#   From: 2010.03.12/outbox.cif.g09.slc.cpg/sg44_12_cif.got.tgz:23417.got - 2010.04.14 02:36:11.
