data_PCOD8188273
_publ_section_title
;
Structure prediction by ZEFSAII (Michael W. Deem and Ramdas Pophale) SiO2 
 PCOD8188273
Probable space group: I M M 2
;
_chemical_formula_sum "Si O2"
_cell_formula_units_Z 56
_cell_length_a 14.389819
_cell_length_b 8.801943
_cell_length_c 22.769143
_cell_angle_alpha 90.000000
_cell_angle_beta 90.000000
_cell_angle_gamma 90.000000
_cell_volume 2883.902462
_symmetry_space_group_name_H-M "I M M 2"
_symmetry_group_IT_number 44
_symmetry_cell_setting 'orthorhombic'
loop_
_space_group_symop_operation_xyz
x,y,z
-x,-y,z
-x,y,z
x,-y,z
1/2+x,1/2+y,1/2+z
1/2-x,1/2-y,1/2+z
1/2-x,1/2+y,1/2+z
1/2+x,1/2-y,1/2+z
loop_
_atom_site_type_symbol
_atom_site_label
_atom_site_fract_x
_atom_site_fract_y
_atom_site_fract_z
Si Si1 0.785188 0.321912 0.158690
Si Si2 0.106264 0.179381 0.051262
Si Si3 0.393605 0.179057 0.198597
Si Si4 0.600621 0.320143 0.893769
Si Si5 0.607617 0.674332 0.761945
Si Si6 0.601774 0.179871 0.330064
Si Si7 0.710747 0.820428 0.442807
O O1 0.785507 0.500000 0.148908
O O2 0.845091 0.247583 0.107728
O O3 0.678441 0.263717 0.155647
O O4 0.830919 0.279418 0.220481
O O5 0.000000 0.237626 0.047630
O O6 0.109710 0.000000 0.056308
O O7 0.160865 0.230210 0.993698
O O8 0.500000 0.225362 0.183321
O O9 0.368095 0.232542 0.265002
O O10 0.380765 0.000000 0.190985
O O11 0.500000 0.256858 0.915305
O O12 0.595657 0.500000 0.888213
O O13 0.622438 0.262169 0.827908
O O14 0.680098 0.274278 0.940449
O O15 0.500000 0.685901 0.743499
O O16 0.642224 0.500000 0.756018
O O17 0.500000 0.246474 0.344964
O O18 0.671559 0.235987 0.380120
O O19 0.596851 0.000000 0.329641
O O20 0.696207 0.000000 0.452576
#
# Coordination Sequence:
#
# PCOD8188273 Si02
#       7
#     8   8   8   8   8   8   8
#     4  12  24  36  54  80 110 143 179 224 275 323
#     4  11  25  43  59  75 100 137 181 227 273 325
#     4   9  18  35  59  84 111 145 183 219 257 311
#     4   8  15  29  52  83 114 143 177 215 257 311
#     4   9  17  32  56  83 111 145 183 221 263 317
#     4   8  14  26  49  81 110 137 173 215 260 314
#     4  10  18  31  55  82 108 140 177 220 267 313
#
# _framework density 19.418132
#
# number of rings (size 3 to 8) (size 9 to 14) (size 15 to 20)
#    0.000    2.429    0.000    5.143    0.000    6.286 
#    0.000    3.571    0.000    4.714    0.000    0.000 
#    0.000    0.000    0.000    0.000    0.000    0.000 
#
# Total GULP energy -347084.031666 kJ/mol
# GULP energy per Si atom -12395.858274 kJ/mol
# Density = 1.937394 g / cm^3
# Si number density = 19.418132 Si / 1000 Ang^3
#
#
#
# Elastic Constant Matrix: (Units=GPa)
#
#
# Indices 1 2 3 4 5 6 
#
# 1 160.7552 47.4791 79.7238 0.0000 0.0000 0.0000
# 2 47.4791 48.4187 33.9502 0.0000 0.0000 0.0000
# 3 79.7238 33.9502 79.9710 0.0000 0.0000 0.0000
# 4 0.0000 0.0000 0.0000 26.0899 0.0000 0.0000
# 5 0.0000 0.0000 0.0000 0.0000 32.1338 0.0000
# 6 0.0000 0.0000 0.0000 0.0000 0.0000 22.5819
#
#
#
# Elastic Compliance Matrix: (Units=1/GPa)
#
#
# Indices 1 2 3 4 5 6 
#
# 1 0.013191 -0.005288 -0.010905 0.000000 0.000000 0.000000
# 2 -0.005288 0.031527 -0.008112 0.000000 0.000000 0.000000
# 3 -0.010905 -0.008112 0.026819 0.000000 0.000000 0.000000
# 4 0.000000 0.000000 0.000000 0.038329 0.000000 0.000000
# 5 0.000000 0.000000 0.000000 0.000000 0.031120 0.000000
# 6 0.000000 0.000000 0.000000 0.000000 0.000000 0.044283
#
#
# Mechanical properties :
#
#
# Convention : Reuss Voigt Hill
#
# Bulk Modulus (GPa) = 43.61770 67.93903 55.77837
# Shear Modulus (GPa) = 20.70207 24.69391 22.69799
#
# Velocity S-wave (km/s) = 3.26869 3.56995 3.42264
# Velocity P-wave (km/s) = 6.06275 7.21499 6.66382
#
# Compressibility (1/GPa) = 0.02292647
#
# Stress axis : x y z
#
# Youngs Moduli (GPa) = 75.81172 31.71874 37.28650
#
# Poissons Ratio (x) = 0.16774 0.40660
# Poissons Ratio (y) = 0.40093 0.30247
# Poissons Ratio (z) = 0.82670 0.25731
#
# Static dielectric constant tensor:
#      x y z
#    x 4.092180 0.000000 0.000000 
#    y 0.000000 3.140470 0.000000 
#    z 0.000000 0.000000 3.512270 
# 
# 
# High freq. dielectric constant tensor:
#      x y z
#    x 1.778440 0.000000 0.000000 
#    y 0.000000 1.713710 0.000000 
#    z 0.000000 0.000000 1.739870 
# 
# From -- ./inp_files/23044.got.cif
#   From: 2010.03.12/outbox.cif.g09.slc.cpg/sg44_12_cif.got.tgz:23044.got - 2010.04.14 02:36:11.
