data_PCOD8188361
_publ_section_title
;
Structure prediction by ZEFSAII (Michael W. Deem and Ramdas Pophale) SiO2 
 PCOD8188361
Probable space group: I M M 2
;
_chemical_formula_sum "Si O2"
_cell_formula_units_Z 64
_cell_length_a 16.349380
_cell_length_b 17.200192
_cell_length_c 11.530904
_cell_angle_alpha 90.000000
_cell_angle_beta 90.000000
_cell_angle_gamma 90.000000
_cell_volume 3242.634054
_symmetry_space_group_name_H-M "I M M 2"
_symmetry_group_IT_number 44
_symmetry_cell_setting 'orthorhombic'
loop_
_space_group_symop_operation_xyz
x,y,z
-x,-y,z
-x,y,z
x,-y,z
1/2+x,1/2+y,1/2+z
1/2-x,1/2-y,1/2+z
1/2-x,1/2+y,1/2+z
1/2+x,1/2-y,1/2+z
loop_
_atom_site_type_symbol
_atom_site_label
_atom_site_fract_x
_atom_site_fract_y
_atom_site_fract_z
Si Si1 0.234365 0.086311 0.632540
Si Si2 0.736862 0.648887 0.889696
Si Si3 0.588196 0.260113 0.877328
Si Si4 0.593372 0.315651 0.260317
Si Si5 0.409223 0.158869 0.665978
Si Si6 0.409694 0.825701 0.109149
Si Si7 0.344310 0.715612 0.500429
Si Si8 0.742491 0.911070 0.143683
O O1 0.221804 0.089719 0.494628
O O2 0.167810 0.139147 0.697788
O O3 0.330781 0.103983 0.651629
O O4 0.217757 0.000000 0.677742
O O5 0.650663 0.674979 0.836253
O O6 0.774562 0.604501 0.780285
O O7 0.781205 0.726491 0.936530
O O8 0.500000 0.299731 0.865318
O O9 0.593526 0.183187 0.799604
O O10 0.605670 0.237230 0.009248
O O11 0.500000 0.343847 0.226928
O O12 0.603323 0.224502 0.226983
O O13 0.603234 0.324999 0.398868
O O14 0.500000 0.120786 0.640016
O O15 0.402387 0.234492 0.583835
O O16 0.500000 0.862085 0.103233
O O17 0.348096 0.897246 0.093096
O O18 0.302218 0.648841 0.578292
O O19 0.770674 0.000000 0.121991
#
# Coordination Sequence:
#
# PCOD8188361 Si02
#       8
#     8   8   8   8   8   8   8   8
#     4  11  24  39  58  87 124 160 197 249 309 363
#     4  11  20  39  62  85 117 159 209 246 292 363
#     4  10  18  33  62  88 107 143 205 261 295 341
#     4  11  22  39  64  90 115 158 213 254 295 361
#     4  10  21  38  63  90 116 155 206 255 299 356
#     4  10  20  37  60  88 117 155 206 259 304 362
#     4  11  21  37  63  88 118 160 205 248 294 365
#     4  12  24  38  60  91 127 166 198 250 323 371
#
# _framework density 19.73704
#
# number of rings (size 3 to 8) (size 9 to 14) (size 15 to 20)
#    0.000    1.250    5.000    2.250    0.000    1.250 
#    0.000    0.000    0.000    7.500    0.000    0.000 
#    0.000    0.000    0.000    0.000    0.000    0.000 
#
# Total GULP energy -396462.855925 kJ/mol
# GULP energy per Si atom -12389.464248 kJ/mol
# Density = 1.969212 g / cm^3
# Si number density = 19.737040 Si / 1000 Ang^3
#
#
#
# Elastic Constant Matrix: (Units=GPa)
#
#
# Indices 1 2 3 4 5 6 
#
# 1 96.7814 30.6261 19.6130 0.0000 0.0000 0.0000
# 2 30.6261 77.0636 9.8680 0.0000 0.0000 0.0000
# 3 19.6130 9.8680 75.1801 0.0000 0.0000 0.0000
# 4 0.0000 0.0000 0.0000 16.7908 0.0000 0.0000
# 5 0.0000 0.0000 0.0000 0.0000 27.1125 0.0000
# 6 0.0000 0.0000 0.0000 0.0000 0.0000 18.3749
#
#
#
# Elastic Compliance Matrix: (Units=1/GPa)
#
#
# Indices 1 2 3 4 5 6 
#
# 1 0.012303 -0.004555 -0.002612 0.000000 0.000000 0.000000
# 2 -0.004555 0.014885 -0.000765 0.000000 0.000000 0.000000
# 3 -0.002612 -0.000765 0.014083 0.000000 0.000000 0.000000
# 4 0.000000 0.000000 0.000000 0.059557 0.000000 0.000000
# 5 0.000000 0.000000 0.000000 0.000000 0.036883 0.000000
# 6 0.000000 0.000000 0.000000 0.000000 0.000000 0.054422
#
#
# Mechanical properties :
#
#
# Convention : Reuss Voigt Hill
#
# Bulk Modulus (GPa) = 39.35990 41.02659 40.19325
# Shear Modulus (GPa) = 23.09827 25.05016 24.07421
#
# Velocity S-wave (km/s) = 3.42468 3.56644 3.49628
# Velocity P-wave (km/s) = 5.96853 6.14744 6.05865
#
# Compressibility (1/GPa) = 0.02540657
#
# Stress axis : x y z
#
# Youngs Moduli (GPa) = 81.27916 67.18374 71.00648
#
# Poissons Ratio (x) = 0.30603 0.18545
# Poissons Ratio (y) = 0.37023 0.05435
# Poissons Ratio (z) = 0.21228 0.05142
#
# Static dielectric constant tensor:
#      x y z
#    x 3.792270 0.000000 0.000000 
#    y 0.000000 3.145700 0.000000 
#    z 0.000000 0.000000 3.756680 
# 
# 
# High freq. dielectric constant tensor:
#      x y z
#    x 1.782780 0.000000 0.000000 
#    y 0.000000 1.721730 0.000000 
#    z 0.000000 0.000000 1.784650 
# 
# From -- ./inp_files/13470.got.cif
#   From: 2010.03.12/outbox.cif.g09.slc.cpg/sg44_7_cif.got.tgz:13470.got - 2010.04.14 02:36:11.
