data_PCOD8188792
_publ_section_title
;
Structure prediction by ZEFSAII (Michael W. Deem and Ramdas Pophale) SiO2 
 PCOD8188792
Probable space group: I M M 2
;
_chemical_formula_sum "Si O2"
_cell_formula_units_Z 64
_cell_length_a 29.214375
_cell_length_b 9.054694
_cell_length_c 12.864629
_cell_angle_alpha 90.000000
_cell_angle_beta 90.000000
_cell_angle_gamma 90.000000
_cell_volume 3403.044623
_symmetry_space_group_name_H-M "I M M 2"
_symmetry_group_IT_number 44
_symmetry_cell_setting 'orthorhombic'
loop_
_space_group_symop_operation_xyz
x,y,z
-x,-y,z
-x,y,z
x,-y,z
1/2+x,1/2+y,1/2+z
1/2-x,1/2-y,1/2+z
1/2-x,1/2+y,1/2+z
1/2+x,1/2-y,1/2+z
loop_
_atom_site_type_symbol
_atom_site_label
_atom_site_fract_x
_atom_site_fract_y
_atom_site_fract_z
Si Si1 0.614498 0.825665 0.286910
Si Si2 0.860075 0.674881 0.015161
Si Si3 0.704856 0.674107 0.222375
Si Si4 0.551367 0.675793 0.898621
Si Si5 0.719213 0.665072 0.820121
Si Si6 0.554107 0.334443 0.129783
Si Si7 0.623133 0.324329 0.726687
Si Si8 0.257537 0.165231 0.530459
O O1 0.613687 0.778000 0.408746
O O2 0.656857 0.753839 0.227940
O O3 0.570420 0.770054 0.223894
O O4 0.618646 0.000000 0.278715
O O5 0.863292 0.500000 0.030251
O O6 0.884649 0.752295 0.113576
O O7 0.807544 0.734147 0.003835
O O8 0.696551 0.500000 0.217192
O O9 0.738403 0.721253 0.314388
O O10 0.733058 0.745682 0.125997
O O11 0.500000 0.735764 0.875863
O O12 0.550871 0.500000 0.898070
O O13 0.585090 0.735246 0.808137
O O14 0.568232 0.725927 0.014309
O O15 0.730094 0.500000 0.776788
O O16 0.672520 0.726446 0.770815
O O17 0.717471 0.659569 0.944455
O O18 0.500000 0.338141 0.135150
O O19 0.573847 0.500000 0.146264
O O20 0.620284 0.500000 0.716477
O O21 0.269537 0.000000 0.566772
#
# Coordination Sequence:
#
# PCOD8188792 Si02
#       8
#     8   8   8   8   8   8   8   8
#     4  11  23  38  56  79 110 150 186 224 272 324
#     4  10  20  37  54  70 106 152 187 219 268 324
#     4  11  21  33  53  77 103 142 187 228 267 317
#     4   8  16  34  59  85 112 141 173 215 274 333
#     4  10  19  33  50  73 106 141 178 220 270 328
#     4   9  19  38  64  89 111 137 174 223 274 328
#     4  10  20  32  55  84 108 138 181 229 271 319
#     4   9  18  33  50  68 100 145 181 215 267 324
#
# _framework density 18.80669
#
# number of rings (size 3 to 8) (size 9 to 14) (size 15 to 20)
#    0.000    2.250    2.500    1.500    1.750    1.250 
#    0.000    2.500    0.000    3.375    0.000    0.000 
#    0.000    0.000    0.000    0.000    0.000    0.000 
#
# Total GULP energy -396465.519007 kJ/mol
# GULP energy per Si atom -12389.547469 kJ/mol
# Density = 1.876388 g / cm^3
# Si number density = 18.806690 Si / 1000 Ang^3
#
#
#
# Elastic Constant Matrix: (Units=GPa)
#
#
# Indices 1 2 3 4 5 6 
#
# 1 62.2493 22.6558 47.9412 0.0000 0.0000 0.0000
# 2 22.6558 45.9147 36.1260 0.0000 0.0000 0.0000
# 3 47.9412 36.1260 131.2634 0.0000 0.0000 0.0000
# 4 0.0000 0.0000 0.0000 25.7450 0.0000 0.0000
# 5 0.0000 0.0000 0.0000 0.0000 36.6905 0.0000
# 6 0.0000 0.0000 0.0000 0.0000 0.0000 21.9929
#
#
#
# Elastic Compliance Matrix: (Units=1/GPa)
#
#
# Indices 1 2 3 4 5 6 
#
# 1 0.023668 -0.006225 -0.006931 0.000000 0.000000 0.000000
# 2 -0.006225 0.029437 -0.005828 0.000000 0.000000 0.000000
# 3 -0.006931 -0.005828 0.011754 0.000000 0.000000 0.000000
# 4 0.000000 0.000000 0.000000 0.038843 0.000000 0.000000
# 5 0.000000 0.000000 0.000000 0.000000 0.027255 0.000000
# 6 0.000000 0.000000 0.000000 0.000000 0.000000 0.045469
#
#
# Mechanical properties :
#
#
# Convention : Reuss Voigt Hill
#
# Bulk Modulus (GPa) = 37.18835 50.31929 43.75382
# Shear Modulus (GPa) = 22.38574 25.73262 24.05918
#
# Velocity S-wave (km/s) = 3.45383 3.70303 3.58059
# Velocity P-wave (km/s) = 5.97680 6.71546 6.35687
#
# Compressibility (1/GPa) = 0.02689014
#
# Stress axis : x y z
#
# Youngs Moduli (GPa) = 42.25117 33.97131 85.08048
#
# Poissons Ratio (x) = 0.21148 0.58969
# Poissons Ratio (y) = 0.26302 0.49584
# Poissons Ratio (z) = 0.29284 0.19798
#
# Static dielectric constant tensor:
#      x y z
#    x 3.406520 0.000000 0.000000 
#    y 0.000000 3.232900 0.000000 
#    z 0.000000 0.000000 3.669620 
# 
# 
# High freq. dielectric constant tensor:
#      x y z
#    x 1.715900 0.000000 0.000000 
#    y 0.000000 1.699800 0.000000 
#    z 0.000000 0.000000 1.742590 
# 
# From -- ./inp_files/11501.got.cif
#   From: 2010.03.12/outbox.cif.g09.slc.cpg/sg44_6_cif.got.tgz:11501.got - 2010.04.14 02:36:11.
