data_PCOD8188762
_publ_section_title
;
Structure prediction by ZEFSAII (Michael W. Deem and Ramdas Pophale) SiO2 
 PCOD8188762
Probable space group: I M M 2
;
_chemical_formula_sum "Si O2"
_cell_formula_units_Z 44
_cell_length_a 17.386245
_cell_length_b 7.629288
_cell_length_c 18.995954
_cell_angle_alpha 90.000000
_cell_angle_beta 90.000000
_cell_angle_gamma 90.000000
_cell_volume 2519.712056
_symmetry_space_group_name_H-M "I M M 2"
_symmetry_group_IT_number 44
_symmetry_cell_setting 'orthorhombic'
loop_
_space_group_symop_operation_xyz
x,y,z
-x,-y,z
-x,y,z
x,-y,z
1/2+x,1/2+y,1/2+z
1/2-x,1/2-y,1/2+z
1/2-x,1/2+y,1/2+z
1/2+x,1/2-y,1/2+z
loop_
_atom_site_type_symbol
_atom_site_label
_atom_site_fract_x
_atom_site_fract_y
_atom_site_fract_z
Si Si1 0.670163 0.500000 0.482330
Si Si2 0.090384 0.000000 0.837845
Si Si3 0.232990 0.807876 0.525525
Si Si4 0.156552 0.295874 0.742891
Si Si5 0.808817 0.301775 0.177132
Si Si6 0.590683 0.500000 0.633394
Si Si7 0.913922 0.292977 0.595178
O O1 0.608652 0.500000 0.420431
O O2 0.726250 0.331947 0.475042
O O3 0.623144 0.500000 0.554544
O O4 0.125516 0.822839 0.805826
O O5 0.000000 0.000000 0.826502
O O6 0.267420 0.787077 0.602702
O O7 0.141172 0.780712 0.533657
O O8 0.248985 0.000000 0.493612
O O9 0.140170 0.500000 0.759573
O O10 0.247965 0.262967 0.735520
O O11 0.113115 0.231533 0.672383
O O12 0.836517 0.500000 0.193081
O O13 0.881844 0.172521 0.176004
O O14 0.500000 0.500000 0.630467
O O15 0.909813 0.500000 0.592059
O O16 0.000000 0.222545 0.581404
#
# Coordination Sequence:
#
# PCOD8188762 Si02
#       7
#     4   4   8   8   8   4   8
#     4  10  21  38  49  66 106 144 184 214 243 296
#     4  12  25  36  52  77 107 147 184 209 246 302
#     4   9  17  30  50  71  95 135 178 216 256 306
#     4  10  19  34  52  75 109 144 174 207 253 317
#     4   9  16  30  52  77 103 134 171 215 265 318
#     4  10  19  32  54  81 107 135 170 223 274 302
#     4   9  16  27  47  78 111 133 157 209 272 315
#
# _framework density 17.462311
#
# number of rings (size 3 to 8) (size 9 to 14) (size 15 to 20)
#    0.000    2.364    2.727    0.818    1.273    2.545 
#    0.000    0.000    0.000    3.273    0.000    2.545 
#    0.000    0.000    0.000    0.000    0.000    0.000 
#
# Total GULP energy -272745.648428 kJ/mol
# GULP energy per Si atom -12397.529474 kJ/mol
# Density = 1.742257 g / cm^3
# Si number density = 17.462311 Si / 1000 Ang^3
#
#
#
# Elastic Constant Matrix: (Units=GPa)
#
#
# Indices 1 2 3 4 5 6 
#
# 1 125.9819 54.1196 26.5439 0.0000 0.0000 0.0000
# 2 54.1196 127.3611 29.7481 0.0000 0.0000 0.0000
# 3 26.5439 29.7481 40.9268 0.0000 0.0000 0.0000
# 4 0.0000 0.0000 0.0000 16.5947 0.0000 0.0000
# 5 0.0000 0.0000 0.0000 0.0000 23.4015 0.0000
# 6 0.0000 0.0000 0.0000 0.0000 0.0000 20.3814
#
#
#
# Elastic Compliance Matrix: (Units=1/GPa)
#
#
# Indices 1 2 3 4 5 6 
#
# 1 0.010278 -0.003385 -0.004205 0.000000 0.000000 0.000000
# 2 -0.003385 0.010572 -0.005489 0.000000 0.000000 0.000000
# 3 -0.004205 -0.005489 0.031151 0.000000 0.000000 0.000000
# 4 0.000000 0.000000 0.000000 0.060260 0.000000 0.000000
# 5 0.000000 0.000000 0.000000 0.000000 0.042732 0.000000
# 6 0.000000 0.000000 0.000000 0.000000 0.000000 0.049064
#
#
# Mechanical properties :
#
#
# Convention : Reuss Voigt Hill
#
# Bulk Modulus (GPa) = 38.69653 57.23254 47.96454
# Shear Modulus (GPa) = 20.93528 24.33274 22.63401
#
# Velocity S-wave (km/s) = 3.46625 3.73693 3.60413
# Velocity P-wave (km/s) = 6.18288 7.17395 6.69677
#
# Compressibility (1/GPa) = 0.02584211
#
# Stress axis : x y z
#
# Youngs Moduli (GPa) = 97.29608 94.58741 32.10151
#
# Poissons Ratio (x) = 0.32019 0.13500
# Poissons Ratio (y) = 0.32936 0.17621
# Poissons Ratio (z) = 0.40917 0.51920
#
# Static dielectric constant tensor:
#      x y z
#    x 3.276090 0.000000 0.000000 
#    y 0.000000 3.464760 0.000000 
#    z 0.000000 0.000000 2.759290 
# 
# 
# High freq. dielectric constant tensor:
#      x y z
#    x 1.669550 0.000000 0.000000 
#    y 0.000000 1.693160 0.000000 
#    z 0.000000 0.000000 1.615870 
# 
# From -- ./inp_files/21710.got.cif
#   From: 2010.03.12/outbox.cif.g09.slc.cpg/sg44_11_cif.got.tgz:21710.got - 2010.04.14 02:36:11.
