data_PCOD8188862
_publ_section_title
;
Structure prediction by ZEFSAII (Michael W. Deem and Ramdas Pophale) SiO2 
 PCOD8188862
Probable space group: I M M 2
;
_chemical_formula_sum "Si O2"
_cell_formula_units_Z 48
_cell_length_a 31.391055
_cell_length_b 8.556608
_cell_length_c 9.094905
_cell_angle_alpha 90.000000
_cell_angle_beta 90.000000
_cell_angle_gamma 90.000000
_cell_volume 2442.900144
_symmetry_space_group_name_H-M "I M M 2"
_symmetry_group_IT_number 44
_symmetry_cell_setting 'orthorhombic'
loop_
_space_group_symop_operation_xyz
x,y,z
-x,-y,z
-x,y,z
x,-y,z
1/2+x,1/2+y,1/2+z
1/2-x,1/2-y,1/2+z
1/2-x,1/2+y,1/2+z
1/2+x,1/2-y,1/2+z
loop_
_atom_site_type_symbol
_atom_site_label
_atom_site_fract_x
_atom_site_fract_y
_atom_site_fract_z
Si Si1 0.366264 0.181099 0.465890
Si Si2 0.289869 0.180275 0.968092
Si Si3 0.207706 0.181051 0.782645
Si Si4 0.364663 0.684711 0.786265
Si Si5 0.955158 0.174297 0.315592
Si Si6 0.546456 0.325080 0.466596
O O1 0.336924 0.280974 0.358238
O O2 0.356025 0.229281 0.632908
O O3 0.415137 0.212750 0.416630
O O4 0.355786 0.000000 0.446197
O O5 0.285801 0.214613 0.139409
O O6 0.301273 0.000000 0.942738
O O7 0.245291 0.225401 0.894334
O O8 0.327058 0.284357 0.899035
O O9 0.208857 0.000000 0.738030
O O10 0.368821 0.500000 0.754777
O O11 0.409392 0.749139 0.860384
O O12 0.000000 0.260515 0.365426
O O13 0.957367 0.000000 0.380588
O O14 0.954160 0.168854 0.140883
O O15 0.500000 0.263726 0.409789
O O16 0.554530 0.500000 0.405285
#
# Coordination Sequence:
#
# PCOD8188862 Si02
#       6
#     8   8   8   8   8   8
#     4  11  21  33  53  82 115 146 181 229 276 316
#     4  11  24  40  59  83 109 137 175 226 277 324
#     4  11  24  41  60  80 106 142 180 218 269 334
#     4  10  19  33  55  81 111 147 184 222 268 324
#     4   7  11  22  43  72 103 136 176 217 253 297
#     4   8  14  27  48  74 106 144 184 223 265 318
#
# _framework density 19.648776000000002
#
# number of rings (size 3 to 8) (size 9 to 14) (size 15 to 20)
#    0.000    2.333    0.000    6.000    0.000    5.667 
#    0.000    0.000    0.000    2.500    0.000    2.333 
#    0.000    0.000    0.000    0.000    0.000    0.000 
#
# Total GULP energy -297383.585594 kJ/mol
# GULP energy per Si atom -12390.982733 kJ/mol
# Density = 1.960405 g / cm^3
# Si number density = 19.648776 Si / 1000 Ang^3
#
#
#
# Elastic Constant Matrix: (Units=GPa)
#
#
# Indices 1 2 3 4 5 6 
#
# 1 151.6254 27.5017 39.0782 0.0000 0.0000 0.0000
# 2 27.5017 47.1280 5.8004 0.0000 0.0000 0.0000
# 3 39.0782 5.8004 60.6717 0.0000 0.0000 0.0000
# 4 0.0000 0.0000 0.0000 23.9377 0.0000 0.0000
# 5 0.0000 0.0000 0.0000 0.0000 21.0605 0.0000
# 6 0.0000 0.0000 0.0000 0.0000 0.0000 27.2957
#
#
#
# Elastic Compliance Matrix: (Units=1/GPa)
#
#
# Indices 1 2 3 4 5 6 
#
# 1 0.008747 -0.004463 -0.005207 0.000000 0.000000 0.000000
# 2 -0.004463 0.023749 0.000604 0.000000 0.000000 0.000000
# 3 -0.005207 0.000604 0.019778 0.000000 0.000000 0.000000
# 4 0.000000 0.000000 0.000000 0.041775 0.000000 0.000000
# 5 0.000000 0.000000 0.000000 0.000000 0.047482 0.000000
# 6 0.000000 0.000000 0.000000 0.000000 0.000000 0.036636
#
#
# Mechanical properties :
#
#
# Convention : Reuss Voigt Hill
#
# Bulk Modulus (GPa) = 29.28952 44.90951 37.09952
# Shear Modulus (GPa) = 24.07553 26.92844 25.50199
#
# Velocity S-wave (km/s) = 3.50422 3.70603 3.60654
# Velocity P-wave (km/s) = 5.59568 6.42017 6.02205
#
# Compressibility (1/GPa) = 0.03414190
#
# Stress axis : x y z
#
# Youngs Moduli (GPa) = 114.32818 42.10697 50.56078
#
# Poissons Ratio (x) = 0.18794 0.26327
# Poissons Ratio (y) = 0.51028 -0.03055
# Poissons Ratio (z) = 0.59531 -0.02545
#
# Static dielectric constant tensor:
#      x y z
#    x 4.406800 0.000000 0.000000 
#    y 0.000000 3.360690 0.000000 
#    z 0.000000 0.000000 3.096240 
# 
# 
# High freq. dielectric constant tensor:
#      x y z
#    x 1.798640 0.000000 0.000000 
#    y 0.000000 1.745460 0.000000 
#    z 0.000000 0.000000 1.717550 
# 
# From -- ./inp_files/9971.got.cif
#   From: 2010.03.12/outbox.cif.g09.slc.cpg/sg44_5_cif.got.tgz:9971.got - 2010.04.14 02:36:11.
