data_PCOD8188008
_publ_section_title
;
Structure prediction by ZEFSAII (Michael W. Deem and Ramdas Pophale) SiO2 
 PCOD8188008
Probable space group: I M M 2
;
_chemical_formula_sum "Si O2"
_cell_formula_units_Z 64
_cell_length_a 26.063236
_cell_length_b 9.212820
_cell_length_c 18.537029
_cell_angle_alpha 90.000000
_cell_angle_beta 90.000000
_cell_angle_gamma 90.000000
_cell_volume 4451.035437
_symmetry_space_group_name_H-M "I M M 2"
_symmetry_group_IT_number 44
_symmetry_cell_setting 'orthorhombic'
loop_
_space_group_symop_operation_xyz
x,y,z
-x,-y,z
-x,y,z
x,-y,z
1/2+x,1/2+y,1/2+z
1/2-x,1/2-y,1/2+z
1/2-x,1/2+y,1/2+z
1/2+x,1/2-y,1/2+z
loop_
_atom_site_type_symbol
_atom_site_label
_atom_site_fract_x
_atom_site_fract_y
_atom_site_fract_z
Si Si1 0.941729 0.831727 0.052620
Si Si2 0.246774 0.829735 0.200469
Si Si3 0.299470 0.661307 0.317725
Si Si4 0.940481 0.330617 0.198692
Si Si5 0.356004 0.329294 0.784954
Si Si6 0.351268 0.327864 0.454699
Si Si7 0.745463 0.672319 0.539366
Si Si8 0.694469 0.161763 0.905245
O O1 0.926668 0.736884 0.121413
O O2 0.000000 0.804353 0.028556
O O3 0.931908 0.000000 0.072813
O O4 0.906712 0.781906 0.985304
O O5 0.292311 0.761833 0.248178
O O6 0.190655 0.788957 0.231239
O O7 0.252708 0.765028 0.119926
O O8 0.255156 0.000000 0.202597
O O9 0.313773 0.500000 0.290503
O O10 0.343449 0.726013 0.371730
O O11 0.248162 0.656192 0.364454
O O12 0.926889 0.500000 0.197038
O O13 0.907144 0.251198 0.259224
O O14 0.000000 0.303768 0.217410
O O15 0.366200 0.500000 0.787738
O O16 0.343712 0.273391 0.865827
O O17 0.344760 0.500000 0.452707
O O18 0.307492 0.262620 0.507371
O O19 0.740761 0.500000 0.544048
O O20 0.793556 0.714390 0.487438
O O21 0.669940 0.000000 0.905270
#
# Coordination Sequence:
#
# PCOD8188008 Si02
#       8
#     8   8   8   8   8   8   8   8
#     4   9  16  26  41  59  77  99 130 166 197 223
#     4   9  16  25  38  57  79 101 128 160 191 225
#     4   8  14  24  37  52  72 100 129 155 186 226
#     4  10  20  31  41  55  77 103 130 160 190 221
#     4  10  18  27  41  58  77 102 129 158 192 227
#     4   8  13  23  38  54  74 101 130 155 185 228
#     4   8  13  22  37  54  73 101 130 153 183 226
#     4   8  14  25  39  53  71  97 128 157 186 225
#
# _framework density 14.378678000000001
#
# number of rings (size 3 to 8) (size 9 to 14) (size 15 to 20)
#    0.000    3.250    0.000    3.000    0.000    3.250 
#    0.000    1.250    0.000    4.500    0.000    0.000 
#    0.000    1.000    0.000    6.750    0.000    2.500 
#
# Total GULP energy -396573.688279 kJ/mol
# GULP energy per Si atom -12392.927759 kJ/mol
# Density = 1.434595 g / cm^3
# Si number density = 14.378678 Si / 1000 Ang^3
#
#
#
# Elastic Constant Matrix: (Units=GPa)
#
#
# Indices 1 2 3 4 5 6 
#
# 1 65.2375 31.0026 49.0722 0.0000 0.0000 0.0000
# 2 31.0026 48.1568 33.4922 0.0000 0.0000 0.0000
# 3 49.0722 33.4922 111.5690 0.0000 0.0000 0.0000
# 4 0.0000 0.0000 0.0000 21.1880 0.0000 0.0000
# 5 0.0000 0.0000 0.0000 0.0000 26.0168 0.0000
# 6 0.0000 0.0000 0.0000 0.0000 0.0000 13.6716
#
#
#
# Elastic Compliance Matrix: (Units=1/GPa)
#
#
# Indices 1 2 3 4 5 6 
#
# 1 0.027244 -0.011634 -0.008490 0.000000 0.000000 0.000000
# 2 -0.011634 0.031213 -0.004253 0.000000 0.000000 0.000000
# 3 -0.008490 -0.004253 0.013974 0.000000 0.000000 0.000000
# 4 0.000000 0.000000 0.000000 0.047197 0.000000 0.000000
# 5 0.000000 0.000000 0.000000 0.000000 0.038437 0.000000
# 6 0.000000 0.000000 0.000000 0.000000 0.000000 0.073145
#
#
# Mechanical properties :
#
#
# Convention : Reuss Voigt Hill
#
# Bulk Modulus (GPa) = 42.23623 50.23303 46.23463
# Shear Modulus (GPa) = 17.36976 19.60169 18.48573
#
# Velocity S-wave (km/s) = 3.47943 3.69622 3.58946
# Velocity P-wave (km/s) = 6.75129 7.29573 7.02878
#
# Compressibility (1/GPa) = 0.02367636
#
# Stress axis : x y z
#
# Youngs Moduli (GPa) = 36.70517 32.03766 71.56099
#
# Poissons Ratio (x) = 0.37274 0.60758
# Poissons Ratio (y) = 0.42704 0.30433
# Poissons Ratio (z) = 0.31164 0.13625
#
# Static dielectric constant tensor:
#      x y z
#    x 2.676520 0.000000 0.000000 
#    y 0.000000 2.691310 0.000000 
#    z 0.000000 0.000000 3.039900 
# 
# 
# High freq. dielectric constant tensor:
#      x y z
#    x 1.516180 0.000000 0.000000 
#    y 0.000000 1.533290 0.000000 
#    z 0.000000 0.000000 1.542380 
# 
# From -- ./inp_files/20877.got.cif
#   From: 2010.03.12/outbox.cif.g09.slc.cpg/sg44_11_cif.got.tgz:20877.got - 2010.04.14 02:36:11.
