data_PCOD8188916
_publ_section_title
;
Structure prediction by ZEFSAII (Michael W. Deem and Ramdas Pophale) SiO2 
 PCOD8188916
Probable space group: I M M 2
;
_chemical_formula_sum "Si O2"
_cell_formula_units_Z 56
_cell_length_a 22.343276
_cell_length_b 14.696084
_cell_length_c 8.847184
_cell_angle_alpha 90.000000
_cell_angle_beta 90.000000
_cell_angle_gamma 90.000000
_cell_volume 2905.049491
_symmetry_space_group_name_H-M "I M M 2"
_symmetry_group_IT_number 44
_symmetry_cell_setting 'orthorhombic'
loop_
_space_group_symop_operation_xyz
x,y,z
-x,-y,z
-x,y,z
x,-y,z
1/2+x,1/2+y,1/2+z
1/2-x,1/2-y,1/2+z
1/2-x,1/2+y,1/2+z
1/2+x,1/2-y,1/2+z
loop_
_atom_site_type_symbol
_atom_site_label
_atom_site_fract_x
_atom_site_fract_y
_atom_site_fract_z
Si Si1 0.137468 0.790846 0.783610
Si Si2 0.070247 0.500000 0.418450
Si Si3 0.928206 0.500000 0.066028
Si Si4 0.430094 0.810976 0.033816
Si Si5 0.865969 0.792212 0.284505
Si Si6 0.705318 0.602661 0.028986
Si Si7 0.433193 0.393084 0.525103
Si Si8 0.336589 0.154239 0.535827
O O1 0.098200 0.721015 0.688683
O O2 0.183670 0.845263 0.679041
O O3 0.171541 0.730809 0.907679
O O4 0.094358 0.862062 0.866341
O O5 0.084809 0.500000 0.242701
O O6 0.097991 0.589986 0.495031
O O7 0.000000 0.500000 0.443436
O O8 0.000000 0.500000 0.026757
O O9 0.895297 0.591038 0.003319
O O10 0.500000 0.818012 0.056288
O O11 0.416985 0.740060 0.900157
O O12 0.814312 0.843972 0.377737
O O13 0.894743 0.861444 0.167031
O O14 0.840531 0.704329 0.197665
O O15 0.679191 0.500000 0.026510
O O16 0.776917 0.594447 0.034529
O O17 0.500000 0.352318 0.538637
O O18 0.434651 0.500000 0.525896
#
# Coordination Sequence:
#
# PCOD8188916 Si02
#       8
#     8   4   4   8   8   8   8   8
#     4  10  23  37  57  85 115 153 198 241 301 358
#     4   9  18  33  55  83 117 151 189 236 283 354
#     4  11  22  37  63  95 121 155 196 242 299 366
#     4  10  19  34  55  82 116 151 189 236 294 354
#     4  10  21  35  59  85 113 154 203 241 289 355
#     4  11  22  40  61  82 115 156 204 252 297 343
#     4  10  20  36  57  84 118 150 189 243 301 350
#     4  11  22  40  60  85 120 154 196 248 302 356
#
# _framework density 19.276781
#
# number of rings (size 3 to 8) (size 9 to 14) (size 15 to 20)
#    0.000    1.714    2.143    2.571    0.000    3.429 
#    0.000    0.714    0.000    6.857    0.000    0.000 
#    0.000    0.000    0.000    0.000    0.000    0.000 
#
# Total GULP energy -347189.775388 kJ/mol
# GULP energy per Si atom -12399.634835 kJ/mol
# Density = 1.923291 g / cm^3
# Si number density = 19.276781 Si / 1000 Ang^3
#
#
#
# Elastic Constant Matrix: (Units=GPa)
#
#
# Indices 1 2 3 4 5 6 
#
# 1 101.3886 35.4869 29.9500 0.0000 0.0000 0.0000
# 2 35.4869 100.1008 25.7961 0.0000 0.0000 0.0000
# 3 29.9500 25.7961 90.0811 0.0000 0.0000 0.0000
# 4 0.0000 0.0000 0.0000 32.9595 0.0000 0.0000
# 5 0.0000 0.0000 0.0000 0.0000 15.7278 0.0000
# 6 0.0000 0.0000 0.0000 0.0000 0.0000 30.9120
#
#
#
# Elastic Compliance Matrix: (Units=1/GPa)
#
#
# Indices 1 2 3 4 5 6 
#
# 1 0.011959 -0.003471 -0.002982 0.000000 0.000000 0.000000
# 2 -0.003471 0.011793 -0.002223 0.000000 0.000000 0.000000
# 3 -0.002982 -0.002223 0.012729 0.000000 0.000000 0.000000
# 4 0.000000 0.000000 0.000000 0.030340 0.000000 0.000000
# 5 0.000000 0.000000 0.000000 0.000000 0.063582 0.000000
# 6 0.000000 0.000000 0.000000 0.000000 0.000000 0.032350
#
#
# Mechanical properties :
#
#
# Convention : Reuss Voigt Hill
#
# Bulk Modulus (GPa) = 52.27703 52.67071 52.47387
# Shear Modulus (GPa) = 26.81221 29.27569 28.04395
#
# Velocity S-wave (km/s) = 3.73353 3.90128 3.81833
# Velocity P-wave (km/s) = 6.76489 6.90478 6.83519
#
# Compressibility (1/GPa) = 0.01912886
#
# Stress axis : x y z
#
# Youngs Moduli (GPa) = 83.62020 84.79343 78.55948
#
# Poissons Ratio (x) = 0.29432 0.23427
# Poissons Ratio (y) = 0.29025 0.17465
# Poissons Ratio (z) = 0.24936 0.18851
#
# Static dielectric constant tensor:
#      x y z
#    x 3.399500 0.000000 0.000000 
#    y 0.000000 3.631320 0.000000 
#    z 0.000000 0.000000 3.548030 
# 
# 
# High freq. dielectric constant tensor:
#      x y z
#    x 1.739400 0.000000 0.000000 
#    y 0.000000 1.763140 0.000000 
#    z 0.000000 0.000000 1.755750 
# 
# From -- ./inp_files/7418.got.cif
#   From: 2010.03.12/outbox.cif.g09.slc.cpg/sg44_4_cif.got.tgz:7418.got - 2010.04.14 02:36:11.
