data_PCOD8188995
_publ_section_title
;
Structure prediction by ZEFSAII (Michael W. Deem and Ramdas Pophale) SiO2 
 PCOD8188995
Probable space group: I M M 2
;
_chemical_formula_sum "Si O2"
_cell_formula_units_Z 40
_cell_length_a 7.751723
_cell_length_b 29.204695
_cell_length_c 8.998132
_cell_angle_alpha 90.000000
_cell_angle_beta 90.000000
_cell_angle_gamma 90.000000
_cell_volume 2037.057463
_symmetry_space_group_name_H-M "I M M 2"
_symmetry_group_IT_number 44
_symmetry_cell_setting 'orthorhombic'
loop_
_space_group_symop_operation_xyz
x,y,z
-x,-y,z
-x,y,z
x,-y,z
1/2+x,1/2+y,1/2+z
1/2-x,1/2-y,1/2+z
1/2-x,1/2+y,1/2+z
1/2+x,1/2-y,1/2+z
loop_
_atom_site_type_symbol
_atom_site_label
_atom_site_fract_x
_atom_site_fract_y
_atom_site_fract_z
Si Si1 0.804689 0.297545 0.792690
Si Si2 0.000000 0.449063 0.649503
Si Si3 0.000000 0.448946 0.296877
Si Si4 0.202279 0.207918 0.623793
Si Si5 0.309327 0.386378 0.643766
Si Si6 0.698353 0.383159 0.299745
O O1 0.732019 0.251372 0.717952
O O2 0.691890 0.340353 0.740362
O O3 0.000000 0.306341 0.740850
O O4 0.801296 0.292359 0.969138
O O5 0.829300 0.422670 0.705688
O O6 0.000000 0.500000 0.719148
O O7 0.000000 0.452319 0.473320
O O8 0.173733 0.423137 0.243073
O O9 0.000000 0.500000 0.227584
O O10 0.250822 0.162763 0.715148
O O11 0.000000 0.210456 0.593325
O O12 0.500000 0.408369 0.659037
O O13 0.270496 0.373411 0.473440
O O14 0.500000 0.397682 0.267777
#
# Coordination Sequence:
#
# PCOD8188995 Si02
#       6
#     8   4   4   8   8   8
#     4  11  22  36  55  81 112 147 188 231 277 334
#     4   9  18  34  55  85 117 145 189 237 278 333
#     4   9  18  32  55  85 113 145 185 231 282 329
#     4  10  22  37  53  79 112 146 188 230 274 334
#     4  10  19  35  57  81 114 150 184 230 282 329
#     4   9  19  35  55  80 112 147 184 228 276 330
#
# _framework density 19.636164999999998
#
# number of rings (size 3 to 8) (size 9 to 14) (size 15 to 20)
#    0.000    2.200    1.000    1.800    1.400    4.000 
#    0.000    4.000    0.000    2.400    0.000    2.800 
#    0.000    0.000    0.000    0.000    0.000    0.000 
#
# Total GULP energy -248035.644864 kJ/mol
# GULP energy per Si atom -12401.782243 kJ/mol
# Density = 1.959147 g / cm^3
# Si number density = 19.636165 Si / 1000 Ang^3
#
#
#
# Elastic Constant Matrix: (Units=GPa)
#
#
# Indices 1 2 3 4 5 6 
#
# 1 111.4122 73.0135 27.5407 -0.0003 0.0000 0.0001
# 2 73.0135 169.4488 42.5394 0.0015 -0.0002 0.0001
# 3 27.5407 42.5394 70.2081 0.0019 -0.0003 0.0001
# 4 -0.0003 0.0015 0.0019 22.5568 -0.0002 0.0001
# 5 0.0000 -0.0002 -0.0003 -0.0002 21.8446 0.0002
# 6 0.0001 0.0001 0.0001 0.0001 0.0002 25.9517
#
#
#
# Elastic Compliance Matrix: (Units=1/GPa)
#
#
# Indices 1 2 3 4 5 6 
#
# 1 0.012735 -0.004993 -0.001970 0.000001 0.000000 0.000000
# 2 -0.004993 0.008917 -0.003445 0.000000 0.000000 0.000000
# 3 -0.001970 -0.003445 0.017103 -0.000001 0.000000 0.000000
# 4 0.000001 0.000000 -0.000001 0.044333 0.000000 0.000000
# 5 0.000000 0.000000 0.000000 0.000000 0.045778 0.000000
# 6 0.000000 0.000000 0.000000 0.000000 0.000000 0.038533
#
#
# Mechanical properties :
#
#
# Convention : Reuss Voigt Hill
#
# Bulk Modulus (GPa) = 55.74068 70.80625 63.27346
# Shear Modulus (GPa) = 25.74739 27.93566 26.84153
#
# Velocity S-wave (km/s) = 3.62501 3.77591 3.70123
# Velocity P-wave (km/s) = 6.78007 7.42613 7.11044
#
# Compressibility (1/GPa) = 0.01794022
#
# Stress axis : x y z
#
# Youngs Moduli (GPa) = 78.52633 112.13920 58.46762
#
# Poissons Ratio (x) = 0.55986 0.11521
# Poissons Ratio (y) = 0.39204 0.20140
# Poissons Ratio (z) = 0.15473 0.38629
#
# Static dielectric constant tensor:
#      x y z
#    x 3.633280 0.000000 0.000000 
#    y 0.000000 3.673990 0.000000 
#    z 0.000000 0.000000 3.246760 
# 
# 
# High freq. dielectric constant tensor:
#      x y z
#    x 1.776070 0.000000 0.000000 
#    y 0.000000 1.759990 0.000000 
#    z 0.000000 0.000000 1.736970 
# 
# From -- ./inp_files/4612.got.cif
#   From: 2010.03.12/outbox.cif.g09.slc.cpg/sg44_3_cif.got.tgz:4612.got - 2010.04.14 02:36:11.
