data_PCOD8188051
_publ_section_title
;
Structure prediction by ZEFSAII (Michael W. Deem and Ramdas Pophale) SiO2 
 PCOD8188051
Probable space group: I M M 2
;
_chemical_formula_sum "Si O2"
_cell_formula_units_Z 56
_cell_length_a 13.058973
_cell_length_b 11.559093
_cell_length_c 23.020969
_cell_angle_alpha 90.000000
_cell_angle_beta 90.000000
_cell_angle_gamma 90.000000
_cell_volume 3475.012586
_symmetry_space_group_name_H-M "I M M 2"
_symmetry_group_IT_number 44
_symmetry_cell_setting 'orthorhombic'
loop_
_space_group_symop_operation_xyz
x,y,z
-x,-y,z
-x,y,z
x,-y,z
1/2+x,1/2+y,1/2+z
1/2-x,1/2-y,1/2+z
1/2-x,1/2+y,1/2+z
1/2+x,1/2-y,1/2+z
loop_
_atom_site_type_symbol
_atom_site_label
_atom_site_fract_x
_atom_site_fract_y
_atom_site_fract_z
Si Si1 0.384723 0.000000 0.562940
Si Si2 0.282937 0.778993 0.373421
Si Si3 0.746087 0.212601 0.548229
Si Si4 0.888323 0.500000 0.926021
Si Si5 0.615703 0.634563 0.943456
Si Si6 0.617406 0.365475 0.463288
Si Si7 0.381192 0.866864 0.131537
Si Si8 0.382726 0.133469 0.265336
O O1 0.320648 0.114380 0.581330
O O2 0.500000 0.000000 0.590731
O O3 0.396129 0.000000 0.494411
O O4 0.331482 0.885087 0.408245
O O5 0.162520 0.790628 0.389388
O O6 0.329830 0.662607 0.401110
O O7 0.308045 0.787288 0.305019
O O8 0.824787 0.155542 0.503311
O O9 0.670270 0.300112 0.516257
O O10 0.809893 0.282137 0.595793
O O11 0.000000 0.500000 0.896591
O O12 0.500000 0.677458 0.951766
O O13 0.620914 0.500000 0.927290
O O14 0.500000 0.325535 0.460538
O O15 0.628800 0.500000 0.475381
O O16 0.500000 0.836686 0.120577
O O17 0.352830 0.847454 0.198853
O O18 0.360444 0.000000 0.114069
O O19 0.500000 0.170414 0.276282
O O20 0.366977 0.000000 0.283563
#
# Coordination Sequence:
#
# PCOD8188051 Si02
#       8
#     4   8   8   4   8   8   8   8
#     4  11  20  30  48  76 100 118 156 205 250 297
#     4  11  17  28  47  71  96 126 151 187 237 287
#     4  11  18  32  48  68  92 130 160 197 244 284
#     4  11  16  24  44  76  98 114 142 187 238 289
#     4  10  18  28  42  68  99 123 150 185 230 284
#     4  10  20  30  44  69 100 128 153 186 235 291
#     4   9  19  33  48  69  96 129 166 202 234 279
#     4   9  16  27  47  72  94 118 154 197 240 278
#
# _framework density 16.115048999999999
#
# number of rings (size 3 to 8) (size 9 to 14) (size 15 to 20)
#    0.000    1.857    5.000    3.429    0.000    0.000 
#    0.000    0.000    1.571    5.571    0.000    6.000 
#    0.000    0.000    0.000    0.000    0.000    0.000 
#
# Total GULP energy -347115.029680 kJ/mol
# GULP energy per Si atom -12396.965346 kJ/mol
# Density = 1.607837 g / cm^3
# Si number density = 16.115049 Si / 1000 Ang^3
#
#
#
# Elastic Constant Matrix: (Units=GPa)
#
#
# Indices 1 2 3 4 5 6 
#
# 1 117.3192 44.9302 37.7950 0.0000 0.0000 0.0000
# 2 44.9302 65.7764 29.7342 0.0000 0.0000 0.0000
# 3 37.7950 29.7342 67.4492 0.0000 0.0000 0.0000
# 4 0.0000 0.0000 0.0000 22.0318 0.0000 0.0000
# 5 0.0000 0.0000 0.0000 0.0000 25.2586 0.0000
# 6 0.0000 0.0000 0.0000 0.0000 0.0000 26.1115
#
#
#
# Elastic Compliance Matrix: (Units=1/GPa)
#
#
# Indices 1 2 3 4 5 6 
#
# 1 0.012351 -0.006629 -0.003998 0.000000 0.000000 0.000000
# 2 -0.006629 0.022545 -0.006224 0.000000 0.000000 0.000000
# 3 -0.003998 -0.006224 0.019810 0.000000 0.000000 0.000000
# 4 0.000000 0.000000 0.000000 0.045389 0.000000 0.000000
# 5 0.000000 0.000000 0.000000 0.000000 0.039590 0.000000
# 6 0.000000 0.000000 0.000000 0.000000 0.000000 0.038297
#
#
# Mechanical properties :
#
#
# Convention : Reuss Voigt Hill
#
# Bulk Modulus (GPa) = 47.61261 52.82929 50.22095
# Shear Modulus (GPa) = 22.86387 23.88607 23.37497
#
# Velocity S-wave (km/s) = 3.77077 3.85414 3.81268
# Velocity P-wave (km/s) = 6.96906 7.25669 7.11433
#
# Compressibility (1/GPa) = 0.02100284
#
# Stress axis : x y z
#
# Youngs Moduli (GPa) = 80.96820 44.35646 50.47894
#
# Poissons Ratio (x) = 0.29403 0.20183
# Poissons Ratio (y) = 0.53673 0.31418
# Poissons Ratio (z) = 0.32374 0.27608
#
# Static dielectric constant tensor:
#      x y z
#    x 3.356290 0.000000 0.000000 
#    y 0.000000 3.071970 0.000000 
#    z 0.000000 0.000000 2.895400 
# 
# 
# High freq. dielectric constant tensor:
#      x y z
#    x 1.622790 0.000000 0.000000 
#    y 0.000000 1.608040 0.000000 
#    z 0.000000 0.000000 1.593350 
# 
# From -- ./inp_files/25468.got.cif
#   From: 2010.03.12/outbox.cif.g09.slc.cpg/sg44_13_cif.got.tgz:25468.got - 2010.04.14 02:36:11.
