data_PCOD8188292
_publ_section_title
;
Structure prediction by ZEFSAII (Michael W. Deem and Ramdas Pophale) SiO2 
 PCOD8188292
Probable space group: I M M 2
;
_chemical_formula_sum "Si O2"
_cell_formula_units_Z 48
_cell_length_a 16.465642
_cell_length_b 8.936722
_cell_length_c 18.816476
_cell_angle_alpha 90.000000
_cell_angle_beta 90.000000
_cell_angle_gamma 90.000000
_cell_volume 2768.823089
_symmetry_space_group_name_H-M "I M M 2"
_symmetry_group_IT_number 44
_symmetry_cell_setting 'orthorhombic'
loop_
_space_group_symop_operation_xyz
x,y,z
-x,-y,z
-x,y,z
x,-y,z
1/2+x,1/2+y,1/2+z
1/2-x,1/2-y,1/2+z
1/2-x,1/2+y,1/2+z
1/2+x,1/2-y,1/2+z
loop_
_atom_site_type_symbol
_atom_site_label
_atom_site_fract_x
_atom_site_fract_y
_atom_site_fract_z
Si Si1 0.160390 0.825825 0.398440
Si Si2 0.091489 0.175946 0.947012
Si Si3 0.797825 0.176665 0.816382
Si Si4 0.772892 0.673547 0.031430
Si Si5 0.500000 0.678524 0.090004
Si Si6 0.500000 0.177118 0.936673
Si Si7 0.834874 0.822523 0.658499
O O1 0.217074 0.766539 0.335529
O O2 0.202892 0.795387 0.473918
O O3 0.078323 0.731294 0.393361
O O4 0.141480 0.000000 0.387367
O O5 0.130228 0.219693 0.870960
O O6 0.000000 0.241177 0.949926
O O7 0.090114 0.000000 0.956820
O O8 0.144359 0.241437 0.011721
O O9 0.822212 0.234209 0.738425
O O10 0.780148 0.000000 0.818289
O O11 0.795119 0.500000 0.034735
O O12 0.737961 0.733227 0.106799
O O13 0.500000 0.500000 0.081972
O O14 0.578589 0.738608 0.131905
O O15 0.500000 0.746659 0.012684
O O16 0.500000 0.000000 0.944079
O O17 0.837143 0.000000 0.655714
#
# Coordination Sequence:
#
# PCOD8188292 Si02
#       7
#     8   8   8   8   4   4   8
#     4  10  19  34  53  74 102 137 173 208 252 310
#     4   9  18  31  48  73 100 127 162 207 254 298
#     4   9  18  32  51  76 104 132 166 209 256 303
#     4   9  17  31  51  73  96 131 172 206 243 293
#     4  10  18  32  52  78 108 141 172 203 248 309
#     4  12  22  32  52  80 106 131 168 219 262 301
#     4   9  17  30  52  77 103 134 169 205 246 300
#
# _framework density 17.335885000000001
#
# number of rings (size 3 to 8) (size 9 to 14) (size 15 to 20)
#    0.000    2.500    1.667    1.250    1.167    1.000 
#    0.000    1.667    1.833    0.000    0.000    0.000 
#    0.000    0.000    0.000    0.000    0.000    0.000 
#
# Total GULP energy -297593.350868 kJ/mol
# GULP energy per Si atom -12399.722953 kJ/mol
# Density = 1.729643 g / cm^3
# Si number density = 17.335885 Si / 1000 Ang^3
#
#
#
# Elastic Constant Matrix: (Units=GPa)
#
#
# Indices 1 2 3 4 5 6 
#
# 1 146.6753 30.4971 68.5883 0.0000 0.0000 0.0000
# 2 30.4971 31.3652 16.6673 0.0000 0.0000 0.0000
# 3 68.5883 16.6673 108.5987 0.0000 0.0000 0.0000
# 4 0.0000 0.0000 0.0000 22.0439 0.0000 0.0000
# 5 0.0000 0.0000 0.0000 0.0000 20.5917 0.0000
# 6 0.0000 0.0000 0.0000 0.0000 0.0000 27.7813
#
#
#
# Elastic Compliance Matrix: (Units=1/GPa)
#
#
# Indices 1 2 3 4 5 6 
#
# 1 0.011172 -0.007745 -0.005867 0.000000 0.000000 0.000000
# 2 -0.007745 0.040083 -0.001260 0.000000 0.000000 0.000000
# 3 -0.005867 -0.001260 0.013107 0.000000 0.000000 0.000000
# 4 0.000000 0.000000 0.000000 0.045364 0.000000 0.000000
# 5 0.000000 0.000000 0.000000 0.000000 0.048563 0.000000
# 6 0.000000 0.000000 0.000000 0.000000 0.000000 0.035995
#
#
# Mechanical properties :
#
#
# Convention : Reuss Voigt Hill
#
# Bulk Modulus (GPa) = 28.88748 57.57162 43.22955
# Shear Modulus (GPa) = 21.22534 25.47582 23.35058
#
# Velocity S-wave (km/s) = 3.50288 3.83762 3.67406
# Velocity P-wave (km/s) = 5.74976 7.27448 6.55659
#
# Compressibility (1/GPa) = 0.03461707
#
# Stress axis : x y z
#
# Youngs Moduli (GPa) = 89.51222 24.94850 76.29408
#
# Poissons Ratio (x) = 0.19322 0.44763
# Poissons Ratio (y) = 0.69324 0.09616
# Poissons Ratio (z) = 0.52518 0.03144
#
# Static dielectric constant tensor:
#      x y z
#    x 3.512460 0.000000 0.000000 
#    y 0.000000 3.044200 0.000000 
#    z 0.000000 0.000000 3.257960 
# 
# 
# High freq. dielectric constant tensor:
#      x y z
#    x 1.674600 0.000000 0.000000 
#    y 0.000000 1.650260 0.000000 
#    z 0.000000 0.000000 1.656660 
# 
# From -- ./inp_files/20347.got.cif
#   From: 2010.03.12/outbox.cif.g09.slc.cpg/sg44_11_cif.got.tgz:20347.got - 2010.04.14 02:36:11.
