data_PCOD8188693
_publ_section_title
;
Structure prediction by ZEFSAII (Michael W. Deem and Ramdas Pophale) SiO2 
 PCOD8188693
Probable space group: I M M 2
;
_chemical_formula_sum "Si O2"
_cell_formula_units_Z 64
_cell_length_a 8.671301
_cell_length_b 30.135948
_cell_length_c 14.291374
_cell_angle_alpha 90.000000
_cell_angle_beta 90.000000
_cell_angle_gamma 90.000000
_cell_volume 3734.591499
_symmetry_space_group_name_H-M "I M M 2"
_symmetry_group_IT_number 44
_symmetry_cell_setting 'orthorhombic'
loop_
_space_group_symop_operation_xyz
x,y,z
-x,-y,z
-x,y,z
x,-y,z
1/2+x,1/2+y,1/2+z
1/2-x,1/2-y,1/2+z
1/2-x,1/2+y,1/2+z
1/2+x,1/2-y,1/2+z
loop_
_atom_site_type_symbol
_atom_site_label
_atom_site_fract_x
_atom_site_fract_y
_atom_site_fract_z
Si Si1 0.674298 0.370441 0.524350
Si Si2 0.822418 0.449829 0.443800
Si Si3 0.181129 0.797445 0.528565
Si Si4 0.680154 0.449792 0.243540
Si Si5 0.178069 0.276644 0.836579
Si Si6 0.678094 0.866955 0.658492
Si Si7 0.182369 0.213571 0.137636
Si Si8 0.828588 0.824812 0.828296
O O1 0.500000 0.380971 0.555080
O O2 0.770867 0.416385 0.527152
O O3 0.743773 0.332104 0.590841
O O4 0.684943 0.354492 0.418681
O O5 0.792565 0.500000 0.479237
O O6 0.726225 0.440042 0.350208
O O7 0.000000 0.442096 0.418858
O O8 0.259314 0.801649 0.427343
O O9 0.221735 0.843675 0.578344
O O10 0.239904 0.756235 0.590539
O O11 0.000000 0.792253 0.516188
O O12 0.500000 0.440357 0.234740
O O13 0.723421 0.500000 0.215529
O O14 0.768551 0.417732 0.171694
O O15 0.276202 0.290098 0.746247
O O16 0.202245 0.225163 0.858914
O O17 0.000000 0.288876 0.819243
O O18 0.500000 0.865374 0.630124
O O19 0.701379 0.840136 0.754707
O O20 0.000000 0.218331 0.122382
O O21 0.000000 0.829412 0.783180
#
# Coordination Sequence:
#
# PCOD8188693 Si02
#       8
#     8   8   8   8   8   8   8   8
#     4  10  20  34  52  73 104 142 178 216 258 311
#     4  10  20  32  48  74 106 137 174 219 263 311
#     4  12  24  37  54  76 105 142 181 220 262 313
#     4  10  20  34  52  74 104 140 175 213 262 319
#     4  11  22  38  55  75 105 140 179 224 265 310
#     4  12  23  34  52  77 106 141 180 221 262 312
#     4  11  22  37  54  77 106 138 179 222 264 313
#     4  10  19  32  50  74 106 141 177 216 258 306
#
# _framework density 17.137080999999998
#
# number of rings (size 3 to 8) (size 9 to 14) (size 15 to 20)
#    0.000    1.250    3.750    3.750    0.000    3.000 
#    0.000    0.000    0.000    0.000    0.000    0.875 
#    0.000    3.000    0.000    0.000    0.000    0.000 
#
# Total GULP energy -396845.578384 kJ/mol
# GULP energy per Si atom -12401.424325 kJ/mol
# Density = 1.709808 g / cm^3
# Si number density = 17.137081 Si / 1000 Ang^3
#
#
#
# Elastic Constant Matrix: (Units=GPa)
#
#
# Indices 1 2 3 4 5 6 
#
# 1 60.2795 31.2685 13.9871 0.0000 -0.0001 0.0000
# 2 31.2685 106.1288 27.7482 0.0000 0.0001 0.0000
# 3 13.9871 27.7482 55.7697 0.0001 0.0001 0.0001
# 4 0.0000 0.0000 0.0001 25.2228 0.0000 0.0000
# 5 -0.0001 0.0001 0.0001 0.0000 23.9361 0.0000
# 6 0.0000 0.0000 0.0001 0.0000 0.0000 26.9117
#
#
#
# Elastic Compliance Matrix: (Units=1/GPa)
#
#
# Indices 1 2 3 4 5 6 
#
# 1 0.019853 -0.005227 -0.002378 0.000000 0.000000 0.000000
# 2 -0.005227 0.012208 -0.004763 0.000000 0.000000 0.000000
# 3 -0.002378 -0.004763 0.020897 0.000000 0.000000 0.000000
# 4 0.000000 0.000000 0.000000 0.039647 0.000000 0.000000
# 5 0.000000 0.000000 0.000000 0.000000 0.041778 0.000000
# 6 0.000000 0.000000 0.000000 0.000000 0.000000 0.037159
#
#
# Mechanical properties :
#
#
# Convention : Reuss Voigt Hill
#
# Bulk Modulus (GPa) = 35.43498 40.90949 38.17223
# Shear Modulus (GPa) = 24.30898 25.15907 24.73402
#
# Velocity S-wave (km/s) = 3.77039 3.83575 3.80321
# Velocity P-wave (km/s) = 6.29894 6.59856 6.45049
#
# Compressibility (1/GPa) = 0.02822070
#
# Stress axis : x y z
#
# Youngs Moduli (GPa) = 50.37069 81.91360 47.85332
#
# Poissons Ratio (x) = 0.42819 0.11381
# Poissons Ratio (y) = 0.26331 0.22793
# Poissons Ratio (z) = 0.11979 0.39016
#
# Static dielectric constant tensor:
#      x y z
#    x 3.278400 0.000000 0.000000 
#    y 0.000000 3.364750 0.000000 
#    z 0.000000 0.000000 3.022030 
# 
# 
# High freq. dielectric constant tensor:
#      x y z
#    x 1.672660 0.000000 0.000000 
#    y 0.000000 1.660710 0.000000 
#    z 0.000000 0.000000 1.629600 
# 
# From -- ./inp_files/17145.got.cif
#   From: 2010.03.12/outbox.cif.g09.slc.cpg/sg44_9_cif.got.tgz:17145.got - 2010.04.14 02:36:11.
