data_PCOD8188871
_publ_section_title
;
Structure prediction by ZEFSAII (Michael W. Deem and Ramdas Pophale) SiO2 
 PCOD8188871
Probable space group: I M M 2
;
_chemical_formula_sum "Si O2"
_cell_formula_units_Z 64
_cell_length_a 8.979083
_cell_length_b 18.235549
_cell_length_c 20.635121
_cell_angle_alpha 90.000000
_cell_angle_beta 90.000000
_cell_angle_gamma 90.000000
_cell_volume 3378.763925
_symmetry_space_group_name_H-M "I M M 2"
_symmetry_group_IT_number 44
_symmetry_cell_setting 'orthorhombic'
loop_
_space_group_symop_operation_xyz
x,y,z
-x,-y,z
-x,y,z
x,-y,z
1/2+x,1/2+y,1/2+z
1/2-x,1/2-y,1/2+z
1/2-x,1/2+y,1/2+z
1/2+x,1/2-y,1/2+z
loop_
_atom_site_type_symbol
_atom_site_label
_atom_site_fract_x
_atom_site_fract_y
_atom_site_fract_z
Si Si1 0.823214 0.325182 0.760250
Si Si2 0.171094 0.086610 0.371530
Si Si3 0.672934 0.843978 0.493893
Si Si4 0.332670 0.657671 0.122873
Si Si5 0.174082 0.582274 0.380071
Si Si6 0.824978 0.670085 0.252665
Si Si7 0.670005 0.670888 0.491776
Si Si8 0.335714 0.168286 0.117482
O O1 0.765025 0.383184 0.811650
O O2 0.745813 0.247461 0.772613
O O3 0.782484 0.357354 0.688876
O O4 0.000000 0.313970 0.767171
O O5 0.238291 0.116283 0.437693
O O6 0.000000 0.112250 0.365832
O O7 0.185346 0.000000 0.370844
O O8 0.500000 0.865611 0.491030
O O9 0.740947 0.872759 0.561561
O O10 0.695660 0.757354 0.486020
O O11 0.500000 0.624687 0.122772
O O12 0.247696 0.635120 0.188399
O O13 0.340117 0.744557 0.119187
O O14 0.238811 0.500000 0.384705
O O15 0.211012 0.613214 0.309381
O O16 0.244549 0.633349 0.433878
O O17 0.000000 0.582544 0.392987
O O18 0.000000 0.681316 0.240952
O O19 0.500000 0.648543 0.486141
O O20 0.726284 0.640451 0.561272
O O21 0.500000 0.137080 0.102127
#
# Coordination Sequence:
#
# PCOD8188871 Si02
#       8
#     8   8   8   8   8   8   8   8
#     4  10  20  35  57  83 108 137 176 219 266 322
#     4  11  24  39  54  76 108 144 181 222 268 318
#     4  10  20  35  57  83 109 139 177 219 264 318
#     4   9  17  31  53  81 111 139 172 217 266 316
#     4  10  22  38  53  72 103 143 182 217 257 310
#     4  10  19  33  56  82 107 138 178 223 269 316
#     4  10  20  33  54  83 108 133 171 218 264 311
#     4   8  16  31  52  78 106 136 169 209 258 311
#
# _framework density 18.941838000000001
#
# number of rings (size 3 to 8) (size 9 to 14) (size 15 to 20)
#    0.000    2.250    0.000    3.750    0.000    9.250 
#    0.000    1.250    0.000    3.000    0.000    0.000 
#    0.000    0.000    0.000    0.000    0.000    0.000 
#
# Total GULP energy -396812.546441 kJ/mol
# GULP energy per Si atom -12400.392076 kJ/mol
# Density = 1.889873 g / cm^3
# Si number density = 18.941838 Si / 1000 Ang^3
#
#
#
# Elastic Constant Matrix: (Units=GPa)
#
#
# Indices 1 2 3 4 5 6 
#
# 1 67.5408 29.3811 52.0823 0.0000 0.0000 0.0000
# 2 29.3811 33.6050 28.6717 0.0000 0.0000 0.0000
# 3 52.0823 28.6717 152.5813 0.0000 0.0000 0.0000
# 4 0.0000 0.0000 0.0000 -56.4114 0.0000 0.0000
# 5 0.0000 0.0000 0.0000 0.0000 39.0903 0.0000
# 6 0.0000 0.0000 0.0000 0.0000 0.0000 15.4257
#
#
#
# Elastic Compliance Matrix: (Units=1/GPa)
#
#
# Indices 1 2 3 4 5 6 
#
# 1 0.027657 -0.019206 -0.005832 0.000000 0.000000 0.000000
# 2 -0.019206 0.048776 -0.002610 0.000000 0.000000 0.000000
# 3 -0.005832 -0.002610 0.009035 0.000000 0.000000 0.000000
# 4 0.000000 0.000000 0.000000 -0.017727 0.000000 0.000000
# 5 0.000000 0.000000 0.000000 0.000000 0.025582 0.000000
# 6 0.000000 0.000000 0.000000 0.000000 0.000000 0.064827
#
#
# Mechanical properties :
#
#
# Convention : Reuss Voigt Hill
#
# Bulk Modulus (GPa) = 33.14116 52.66635 42.90376
# Shear Modulus (GPa) = 22.37118 9.19373 15.78245
#
# Velocity S-wave (km/s) = 3.44036 2.20549 2.88966
# Velocity P-wave (km/s) = 5.77198 5.86090 5.81661
#
# Compressibility (1/GPa) = 0.03017396
#
# Stress axis : x y z
#
# Youngs Moduli (GPa) = 36.15661 20.50200 110.68186
#
# Poissons Ratio (x) = 0.39375 0.64546
# Poissons Ratio (y) = 0.69441 0.28886
# Poissons Ratio (z) = 0.21085 0.05351
#
# Static dielectric constant tensor:
#      x y z
#    x 3.685040 0.000000 0.000000 
#    y 0.000000 3.172420 0.000000 
#    z 0.000000 0.000000 3.822670 
# 
# 
# High freq. dielectric constant tensor:
#      x y z
#    x 1.748880 0.000000 0.000000 
#    y 0.000000 1.698460 0.000000 
#    z 0.000000 0.000000 1.756510 
# 
# From -- ./inp_files/23295.got.cif
#   From: 2010.03.12/outbox.cif.g09.slc.cpg/sg44_12_cif.got.tgz:23295.got - 2010.04.14 02:36:11.
