data_PCOD8188348
_publ_section_title
;
Structure prediction by ZEFSAII (Michael W. Deem and Ramdas Pophale) SiO2 
 PCOD8188348
Probable space group: I M M 2
;
_chemical_formula_sum "Si O2"
_cell_formula_units_Z 48
_cell_length_a 8.714590
_cell_length_b 10.410249
_cell_length_c 28.090499
_cell_angle_alpha 90.000000
_cell_angle_beta 90.000000
_cell_angle_gamma 90.000000
_cell_volume 2548.399616
_symmetry_space_group_name_H-M "I M M 2"
_symmetry_group_IT_number 44
_symmetry_cell_setting 'orthorhombic'
loop_
_space_group_symop_operation_xyz
x,y,z
-x,-y,z
-x,y,z
x,-y,z
1/2+x,1/2+y,1/2+z
1/2-x,1/2-y,1/2+z
1/2-x,1/2+y,1/2+z
1/2+x,1/2-y,1/2+z
loop_
_atom_site_type_symbol
_atom_site_label
_atom_site_fract_x
_atom_site_fract_y
_atom_site_fract_z
Si Si1 0.681801 0.754955 0.212700
Si Si2 0.680237 0.645436 0.621145
Si Si3 0.322726 0.349600 0.513925
Si Si4 0.817585 0.000000 0.870748
Si Si5 0.682592 0.000000 0.378365
Si Si6 0.317485 0.500000 0.262351
Si Si7 0.317507 0.000000 0.269829
Si Si8 0.680299 0.754794 0.922621
O O1 0.500000 0.754697 0.214294
O O2 0.735305 0.761676 0.158089
O O3 0.748537 0.625300 0.235843
O O4 0.747757 0.874617 0.242962
O O5 0.500000 0.652466 0.629661
O O6 0.739040 0.500000 0.628948
O O7 0.720732 0.690743 0.567718
O O8 0.500000 0.318434 0.503277
O O9 0.291465 0.500000 0.506188
O O10 0.216409 0.267809 0.478698
O O11 0.760230 0.000000 0.816490
O O12 0.754374 0.873394 0.895274
O O13 0.000000 0.000000 0.875037
O O14 0.746542 0.124480 0.404177
O O15 0.500000 0.000000 0.381036
O O16 0.741222 0.000000 0.323937
O O17 0.500000 0.500000 0.260975
O O18 0.500000 0.000000 0.268606
O O19 0.500000 0.752837 0.914031
#
# Coordination Sequence:
#
# PCOD8188348 Si02
#       8
#     8   8   8   4   4   4   4   8
#     4  10  18  33  55  81 109 140 181 232 279 321
#     4   9  18  33  54  82 111 140 181 230 274 327
#     4   9  18  35  59  82 107 146 193 231 273 343
#     4  11  21  39  64  83 108 157 206 235 274 343
#     4  11  23  41  62  81 112 161 202 229 274 347
#     4   9  20  35  54  79 110 147 190 231 268 325
#     4   9  18  33  56  81 102 137 194 237 262 319
#     4  12  24  38  57  89 123 146 183 245 300 336
#
# _framework density 18.835350999999999
#
# number of rings (size 3 to 8) (size 9 to 14) (size 15 to 20)
#    0.000    2.000    1.667    4.000    0.000    3.333 
#    0.000    7.917    0.000    4.000    0.000    0.000 
#    0.000    0.000    0.000    0.000    0.000    0.000 
#
# Total GULP energy -297639.083835 kJ/mol
# GULP energy per Si atom -12401.628493 kJ/mol
# Density = 1.879248 g / cm^3
# Si number density = 18.835351 Si / 1000 Ang^3
#
#
#
# Elastic Constant Matrix: (Units=GPa)
#
#
# Indices 1 2 3 4 5 6 
#
# 1 64.6250 38.2752 40.6216 0.0000 0.0000 0.0000
# 2 38.2752 148.9333 81.1778 0.0000 0.0000 0.0000
# 3 40.6216 81.1778 160.1660 0.0000 0.0000 0.0000
# 4 0.0000 0.0000 0.0000 12.3702 0.0000 0.0000
# 5 0.0000 0.0000 0.0000 0.0000 29.8210 0.0000
# 6 0.0000 0.0000 0.0000 0.0000 0.0000 21.9355
#
#
#
# Elastic Compliance Matrix: (Units=1/GPa)
#
#
# Indices 1 2 3 4 5 6 
#
# 1 0.019448 -0.003191 -0.003315 0.000000 0.000000 0.000000
# 2 -0.003191 0.009801 -0.004158 0.000000 0.000000 0.000000
# 3 -0.003315 -0.004158 0.009192 0.000000 0.000000 0.000000
# 4 0.000000 0.000000 0.000000 0.080839 0.000000 0.000000
# 5 0.000000 0.000000 0.000000 0.000000 0.033533 0.000000
# 6 0.000000 0.000000 0.000000 0.000000 0.000000 0.045588
#
#
# Mechanical properties :
#
#
# Convention : Reuss Voigt Hill
#
# Bulk Modulus (GPa) = 58.43887 77.09705 67.76796
# Shear Modulus (GPa) = 22.17949 27.06865 24.62407
#
# Velocity S-wave (km/s) = 3.43526 3.79505 3.61963
# Velocity P-wave (km/s) = 6.84311 7.76042 7.31616
#
# Compressibility (1/GPa) = 0.01711190
#
# Stress axis : x y z
#
# Youngs Moduli (GPa) = 51.42029 102.03101 108.79297
#
# Poissons Ratio (x) = 0.32559 0.36065
# Poissons Ratio (y) = 0.16409 0.45238
# Poissons Ratio (z) = 0.17046 0.42426
#
# Static dielectric constant tensor:
#      x y z
#    x 3.203710 0.000000 0.000000 
#    y 0.000000 3.340260 0.000000 
#    z 0.000000 0.000000 3.706630 
# 
# 
# High freq. dielectric constant tensor:
#      x y z
#    x 1.710610 0.000000 0.000000 
#    y 0.000000 1.721860 0.000000 
#    z 0.000000 0.000000 1.749370 
# 
# From -- ./inp_files/27003.got.cif
#   From: 2010.03.12/outbox.cif.g09.slc.cpg/sg44_14_cif.got.tgz:27003.got - 2010.04.14 02:36:11.
