data_PCOD8188624
_publ_section_title
;
Structure prediction by ZEFSAII (Michael W. Deem and Ramdas Pophale) SiO2 
 PCOD8188624
Probable space group: I M M 2
;
_chemical_formula_sum "Si O2"
_cell_formula_units_Z 64
_cell_length_a 8.847297
_cell_length_b 14.516842
_cell_length_c 27.905418
_cell_angle_alpha 90.000000
_cell_angle_beta 90.000000
_cell_angle_gamma 90.000000
_cell_volume 3584.027133
_symmetry_space_group_name_H-M "I M M 2"
_symmetry_group_IT_number 44
_symmetry_cell_setting 'orthorhombic'
loop_
_space_group_symop_operation_xyz
x,y,z
-x,-y,z
-x,y,z
x,-y,z
1/2+x,1/2+y,1/2+z
1/2-x,1/2-y,1/2+z
1/2-x,1/2+y,1/2+z
1/2+x,1/2-y,1/2+z
loop_
_atom_site_type_symbol
_atom_site_label
_atom_site_fract_x
_atom_site_fract_y
_atom_site_fract_z
Si Si1 0.673658 0.394745 0.620440
Si Si2 0.337067 0.648152 0.342807
Si Si3 0.673757 0.397829 0.899733
Si Si4 0.819306 0.219934 0.938666
Si Si5 0.179133 0.100693 0.743270
Si Si6 0.176769 0.394424 0.521592
Si Si7 0.665605 0.147731 0.306272
Si Si8 0.822170 0.214902 0.214346
O O1 0.500000 0.378250 0.605662
O O2 0.699263 0.500000 0.636587
O O3 0.778614 0.369163 0.575654
O O4 0.722603 0.329086 0.663741
O O5 0.500000 0.600485 0.351102
O O6 0.254094 0.655398 0.394614
O O7 0.254796 0.596810 0.298456
O O8 0.359759 0.751047 0.325265
O O9 0.500000 0.367043 0.896868
O O10 0.690456 0.500000 0.922838
O O11 0.760265 0.324500 0.933296
O O12 0.737179 0.406115 0.845682
O O13 0.000000 0.223114 0.936455
O O14 0.765420 0.175575 0.987729
O O15 0.261025 0.180139 0.713357
O O16 0.000000 0.122393 0.745019
O O17 0.210610 0.000000 0.720003
O O18 0.223362 0.500000 0.510128
O O19 0.000000 0.379026 0.514552
O O20 0.500000 0.101046 0.299612
O O21 0.750560 0.150901 0.255387
O O22 0.000000 0.216885 0.222653
#
# Coordination Sequence:
#
# PCOD8188624 Si02
#       8
#     8   8   8   8   8   8   8   8
#     4   9  19  36  55  74  97 126 162 205 256 313
#     4   7  13  26  43  65  91 122 162 201 232 268
#     4  10  20  33  50  74 106 141 175 213 254 294
#     4  10  19  32  53  77 102 135 172 208 249 301
#     4   9  17  30  48  70 100 138 175 207 240 286
#     4  10  21  36  54  77 103 129 161 206 259 311
#     4   9  17  30  47  68  97 133 172 208 242 289
#     4  10  19  31  50  75 102 132 167 210 258 304
#
# _framework density 17.857006999999999
#
# number of rings (size 3 to 8) (size 9 to 14) (size 15 to 20)
#    0.000    2.750    0.000    3.375    0.000    4.000 
#    0.000    3.125    0.000    0.750    0.000    3.500 
#    0.000    0.000    0.000    0.000    0.000    0.000 
#
# Total GULP energy -396483.886865 kJ/mol
# GULP energy per Si atom -12390.121465 kJ/mol
# Density = 1.781636 g / cm^3
# Si number density = 17.857007 Si / 1000 Ang^3
#
#
#
# Elastic Constant Matrix: (Units=GPa)
#
#
# Indices 1 2 3 4 5 6 
#
# 1 87.7399 40.1171 45.0881 0.0000 0.0000 0.0000
# 2 40.1171 96.6111 57.2258 0.0000 0.0000 0.0000
# 3 45.0881 57.2258 102.2323 0.0000 0.0000 0.0000
# 4 0.0000 0.0000 0.0000 24.9092 0.0000 0.0000
# 5 0.0000 0.0000 0.0000 0.0000 27.4090 0.0000
# 6 0.0000 0.0000 0.0000 0.0000 0.0000 7.1654
#
#
#
# Elastic Compliance Matrix: (Units=1/GPa)
#
#
# Indices 1 2 3 4 5 6 
#
# 1 0.015522 -0.003576 -0.004844 0.000000 0.000000 0.000000
# 2 -0.003576 0.016309 -0.007552 0.000000 0.000000 0.000000
# 3 -0.004844 -0.007552 0.016145 0.000000 0.000000 0.000000
# 4 0.000000 0.000000 0.000000 0.040146 0.000000 0.000000
# 5 0.000000 0.000000 0.000000 0.000000 0.036484 0.000000
# 6 0.000000 0.000000 0.000000 0.000000 0.000000 0.139559
#
#
# Mechanical properties :
#
#
# Convention : Reuss Voigt Hill
#
# Bulk Modulus (GPa) = 62.37498 63.49391 62.93444
# Shear Modulus (GPa) = 16.58636 21.50690 19.04663
#
# Velocity S-wave (km/s) = 3.05100 3.47421 3.26946
# Velocity P-wave (km/s) = 6.88604 7.19218 7.04078
#
# Compressibility (1/GPa) = 0.01603207
#
# Stress axis : x y z
#
# Youngs Moduli (GPa) = 64.42658 61.31585 61.93774
#
# Poissons Ratio (x) = 0.21927 0.30001
# Poissons Ratio (y) = 0.23039 0.46775
# Poissons Ratio (z) = 0.31207 0.46306
#
# Static dielectric constant tensor:
#      x y z
#    x 3.279190 0.000000 0.000000 
#    y 0.000000 3.340490 0.000000 
#    z 0.000000 0.000000 3.298190 
# 
# 
# High freq. dielectric constant tensor:
#      x y z
#    x 1.686230 0.000000 0.000000 
#    y 0.000000 1.684490 0.000000 
#    z 0.000000 0.000000 1.670990 
# 
# From -- ./inp_files/27347.got.cif
#   From: 2010.03.12/outbox.cif.g09.slc.cpg/sg44_14_cif.got.tgz:27347.got - 2010.04.14 02:36:11.
