data_PCOD8188042
_publ_section_title
;
Structure prediction by ZEFSAII (Michael W. Deem and Ramdas Pophale) SiO2 
 PCOD8188042
Probable space group: I M M 2
;
_chemical_formula_sum "Si O2"
_cell_formula_units_Z 56
_cell_length_a 29.539292
_cell_length_b 8.992797
_cell_length_c 13.715322
_cell_angle_alpha 90.000000
_cell_angle_beta 90.000000
_cell_angle_gamma 90.000000
_cell_volume 3643.349883
_symmetry_space_group_name_H-M "I M M 2"
_symmetry_group_IT_number 44
_symmetry_cell_setting 'orthorhombic'
loop_
_space_group_symop_operation_xyz
x,y,z
-x,-y,z
-x,y,z
x,-y,z
1/2+x,1/2+y,1/2+z
1/2-x,1/2-y,1/2+z
1/2-x,1/2+y,1/2+z
1/2+x,1/2-y,1/2+z
loop_
_atom_site_type_symbol
_atom_site_label
_atom_site_fract_x
_atom_site_fract_y
_atom_site_fract_z
Si Si1 0.400734 0.828524 0.147830
Si Si2 0.814032 0.173897 0.336921
Si Si3 0.320231 0.324542 0.245482
Si Si4 0.733177 0.327670 0.432091
Si Si5 0.000000 0.332497 0.626893
Si Si6 0.500000 0.671912 0.932139
Si Si7 0.903131 0.177398 0.439162
Si Si8 0.737667 0.673298 0.649634
O O1 0.368908 0.747931 0.226155
O O2 0.452964 0.812618 0.186657
O O3 0.386384 0.000000 0.140319
O O4 0.393954 0.756016 0.041888
O O5 0.780222 0.245863 0.413938
O O6 0.864956 0.225812 0.361665
O O7 0.801189 0.221196 0.226608
O O8 0.809334 0.000000 0.351277
O O9 0.324408 0.500000 0.233083
O O10 0.305331 0.277329 0.355233
O O11 0.283354 0.265377 0.168354
O O12 0.743197 0.500000 0.417305
O O13 0.717835 0.290928 0.542440
O O14 0.000000 0.500000 0.580395
O O15 0.000000 0.204334 0.546795
O O16 0.500000 0.500000 0.910960
O O17 0.451585 0.733750 0.892713
O O18 0.903594 0.000000 0.457209
O O19 0.749945 0.500000 0.660546
#
# Coordination Sequence:
#
# PCOD8188042 Si02
#       8
#     8   8   8   8   4   4   8   8
#     4  10  18  28  42  60  82 108 134 162 195 235
#     4   9  17  27  41  60  80 103 134 166 197 232
#     4  10  19  29  41  60  82 105 133 165 199 236
#     4   9  18  30  42  56  78 106 134 163 197 234
#     4   8  16  28  40  56  79 104 132 162 193 230
#     4   8  14  24  38  56  81 108 132 158 195 238
#     4   9  16  26  40  60  84 109 134 163 197 235
#     4   9  17  30  44  58  78 107 138 167 197 232
#
# _framework density 15.370469
#
# number of rings (size 3 to 8) (size 9 to 14) (size 15 to 20)
#    0.000    2.857    0.000    1.714    0.000    4.571 
#    0.000    0.000    0.000    0.000    0.000    1.000 
#    0.000    4.571    0.000    6.571    0.000    1.143 
#
# Total GULP energy -346921.396748 kJ/mol
# GULP energy per Si atom -12390.049884 kJ/mol
# Density = 1.533549 g / cm^3
# Si number density = 15.370469 Si / 1000 Ang^3
#
#
#
# Elastic Constant Matrix: (Units=GPa)
#
#
# Indices 1 2 3 4 5 6 
#
# 1 145.9667 35.4033 60.1435 0.0000 0.0000 0.0000
# 2 35.4033 37.0108 24.0179 0.0000 0.0000 0.0000
# 3 60.1435 24.0179 85.5513 0.0000 0.0000 0.0000
# 4 0.0000 0.0000 0.0000 15.4113 0.0000 0.0000
# 5 0.0000 0.0000 0.0000 0.0000 21.5645 0.0000
# 6 0.0000 0.0000 0.0000 0.0000 0.0000 17.1724
#
#
#
# Elastic Compliance Matrix: (Units=1/GPa)
#
#
# Indices 1 2 3 4 5 6 
#
# 1 0.010828 -0.006625 -0.005752 0.000000 0.000000 0.000000
# 2 -0.006625 0.037091 -0.005756 0.000000 0.000000 0.000000
# 3 -0.005752 -0.005756 0.017349 0.000000 0.000000 0.000000
# 4 0.000000 0.000000 0.000000 0.064887 0.000000 0.000000
# 5 0.000000 0.000000 0.000000 0.000000 0.046373 0.000000
# 6 0.000000 0.000000 0.000000 0.000000 0.000000 0.058233
#
#
# Mechanical properties :
#
#
# Convention : Reuss Voigt Hill
#
# Bulk Modulus (GPa) = 34.48012 56.40649 45.44330
# Shear Modulus (GPa) = 17.81301 20.76057 19.28679
#
# Velocity S-wave (km/s) = 3.40797 3.67915 3.54615
# Velocity P-wave (km/s) = 6.16175 7.40444 6.81149
#
# Compressibility (1/GPa) = 0.02900222
#
# Stress axis : x y z
#
# Youngs Moduli (GPa) = 92.35522 26.96047 57.64111
#
# Poissons Ratio (x) = 0.17860 0.33156
# Poissons Ratio (y) = 0.61182 0.33178
# Poissons Ratio (z) = 0.53125 0.15518
#
# Static dielectric constant tensor:
#      x y z
#    x 3.323750 0.000000 0.000000 
#    y 0.000000 2.993580 0.000000 
#    z 0.000000 0.000000 2.878540 
# 
# 
# High freq. dielectric constant tensor:
#      x y z
#    x 1.592290 0.000000 0.000000 
#    y 0.000000 1.593710 0.000000 
#    z 0.000000 0.000000 1.553600 
# 
# From -- ./inp_files/17044.got.cif
#   From: 2010.03.12/outbox.cif.g09.slc.cpg/sg44_9_cif.got.tgz:17044.got - 2010.04.14 02:36:11.
