data_PCOD8188979
_publ_section_title
;
Structure prediction by ZEFSAII (Michael W. Deem and Ramdas Pophale) SiO2 
 PCOD8188979
Probable space group: I M M 2
;
_chemical_formula_sum "Si O2"
_cell_formula_units_Z 64
_cell_length_a 29.012494
_cell_length_b 9.244632
_cell_length_c 12.782780
_cell_angle_alpha 90.000000
_cell_angle_beta 90.000000
_cell_angle_gamma 90.000000
_cell_volume 3428.467256
_symmetry_space_group_name_H-M "I M M 2"
_symmetry_group_IT_number 44
_symmetry_cell_setting 'orthorhombic'
loop_
_space_group_symop_operation_xyz
x,y,z
-x,-y,z
-x,y,z
x,-y,z
1/2+x,1/2+y,1/2+z
1/2-x,1/2-y,1/2+z
1/2-x,1/2+y,1/2+z
1/2+x,1/2-y,1/2+z
loop_
_atom_site_type_symbol
_atom_site_label
_atom_site_fract_x
_atom_site_fract_y
_atom_site_fract_z
Si Si1 0.712534 0.661856 0.661690
Si Si2 0.126859 0.331221 0.073647
Si Si3 0.141523 0.669584 0.836699
Si Si4 0.256423 0.837083 0.365357
Si Si5 0.554610 0.837768 0.969573
Si Si6 0.211421 0.831556 0.571954
Si Si7 0.389781 0.668710 0.137137
Si Si8 0.948597 0.672021 0.236702
O O1 0.709871 0.500000 0.615149
O O2 0.673963 0.757501 0.608878
O O3 0.712342 0.661355 0.787290
O O4 0.763428 0.732628 0.656230
O O5 0.133246 0.500000 0.095008
O O6 0.085253 0.268626 0.145291
O O7 0.118415 0.300914 0.950804
O O8 0.139645 0.500000 0.808458
O O9 0.193985 0.734383 0.835338
O O10 0.111426 0.754713 0.750530
O O11 0.234151 0.765491 0.467075
O O12 0.271178 0.000000 0.393343
O O13 0.500000 0.840820 0.973938
O O14 0.569079 0.781047 0.852886
O O15 0.574163 0.000000 0.987763
O O16 0.571383 0.733635 0.061893
O O17 0.157387 0.803078 0.574957
O O18 0.222393 0.000000 0.590251
O O19 0.399828 0.500000 0.155341
O O20 0.950673 0.500000 0.233009
O O21 0.000000 0.734424 0.215103
#
# Coordination Sequence:
#
# PCOD8188979 Si02
#       8
#     8   8   8   8   8   8   8   8
#     4  11  21  32  50  75 104 141 182 225 268 318
#     4  10  20  35  56  80 107 144 182 225 275 322
#     4  10  19  35  55  73 107 152 186 219 267 323
#     4   9  18  33  49  67 101 144 179 218 266 314
#     4   9  19  38  62  84 109 140 174 219 274 332
#     4  10  20  36  52  71 104 144 184 222 266 320
#     4  11  23  35  55  83 112 144 182 230 274 319
#     4   8  16  34  60  87 110 133 172 226 274 320
#
# _framework density 18.667233
#
# number of rings (size 3 to 8) (size 9 to 14) (size 15 to 20)
#    0.000    2.250    2.500    1.500    1.750    1.250 
#    0.000    1.875    0.000    3.375    0.000    0.000 
#    0.000    0.000    0.000    0.000    0.000    0.000 
#
# Total GULP energy -396477.426209 kJ/mol
# GULP energy per Si atom -12389.919569 kJ/mol
# Density = 1.862475 g / cm^3
# Si number density = 18.667233 Si / 1000 Ang^3
#
#
#
# Elastic Constant Matrix: (Units=GPa)
#
#
# Indices 1 2 3 4 5 6 
#
# 1 52.7168 29.4955 45.5838 0.0000 0.0000 0.0000
# 2 29.4955 61.2724 45.0301 0.0000 0.0000 0.0000
# 3 45.5838 45.0301 124.2371 0.0000 0.0000 0.0000
# 4 0.0000 0.0000 0.0000 18.5279 0.0000 0.0000
# 5 0.0000 0.0000 0.0000 0.0000 37.4325 0.0000
# 6 0.0000 0.0000 0.0000 0.0000 0.0000 18.1055
#
#
#
# Elastic Compliance Matrix: (Units=1/GPa)
#
#
# Indices 1 2 3 4 5 6 
#
# 1 0.031010 -0.008950 -0.008134 0.000000 0.000000 0.000000
# 2 -0.008950 0.024829 -0.005716 0.000000 0.000000 0.000000
# 3 -0.008134 -0.005716 0.013105 0.000000 0.000000 0.000000
# 4 0.000000 0.000000 0.000000 0.053973 0.000000 0.000000
# 5 0.000000 0.000000 0.000000 0.000000 0.026715 0.000000
# 6 0.000000 0.000000 0.000000 0.000000 0.000000 0.055232
#
#
# Mechanical properties :
#
#
# Convention : Reuss Voigt Hill
#
# Bulk Modulus (GPa) = 42.83459 53.16057 47.99758
# Shear Modulus (GPa) = 19.36144 22.68767 21.02455
#
# Velocity S-wave (km/s) = 3.22403 3.49000 3.35965
# Velocity P-wave (km/s) = 6.07087 6.69179 6.38887
#
# Compressibility (1/GPa) = 0.02334562
#
# Stress axis : x y z
#
# Youngs Moduli (GPa) = 32.24733 40.27476 76.30535
#
# Poissons Ratio (x) = 0.36046 0.62067
# Poissons Ratio (y) = 0.28861 0.43613
# Poissons Ratio (z) = 0.26230 0.23020
#
# Static dielectric constant tensor:
#      x y z
#    x 3.366860 0.000000 0.000000 
#    y 0.000000 3.199200 0.000000 
#    z 0.000000 0.000000 3.609050 
# 
# 
# High freq. dielectric constant tensor:
#      x y z
#    x 1.707530 0.000000 0.000000 
#    y 0.000000 1.697560 0.000000 
#    z 0.000000 0.000000 1.738460 
# 
# From -- ./inp_files/15026.got.cif
#   From: 2010.03.12/outbox.cif.g09.slc.cpg/sg44_8_cif.got.tgz:15026.got - 2010.04.14 02:36:11.
