data_PCOD8188674
_publ_section_title
;
Structure prediction by ZEFSAII (Michael W. Deem and Ramdas Pophale) SiO2 
 PCOD8188674
Probable space group: I M M 2
;
_chemical_formula_sum "Si O2"
_cell_formula_units_Z 64
_cell_length_a 18.676012
_cell_length_b 25.898909
_cell_length_c 7.623745
_cell_angle_alpha 90.000000
_cell_angle_beta 90.000000
_cell_angle_gamma 90.000000
_cell_volume 3687.516528
_symmetry_space_group_name_H-M "I M M 2"
_symmetry_group_IT_number 44
_symmetry_cell_setting 'orthorhombic'
loop_
_space_group_symop_operation_xyz
x,y,z
-x,-y,z
-x,y,z
x,-y,z
1/2+x,1/2+y,1/2+z
1/2-x,1/2-y,1/2+z
1/2-x,1/2+y,1/2+z
1/2+x,1/2-y,1/2+z
loop_
_atom_site_type_symbol
_atom_site_label
_atom_site_fract_x
_atom_site_fract_y
_atom_site_fract_z
Si Si1 0.275296 0.374746 0.983290
Si Si2 0.682851 0.158053 0.778096
Si Si3 0.320344 0.849730 0.168621
Si Si4 0.917489 0.441750 0.757997
Si Si5 0.161704 0.442971 0.109763
Si Si6 0.081097 0.172149 0.478170
Si Si7 0.581504 0.249869 0.673274
Si Si8 0.417944 0.755072 0.276488
O O1 0.247386 0.354104 0.796416
O O2 0.247950 0.336163 0.139292
O O3 0.240121 0.431067 0.019783
O O4 0.361872 0.375071 0.985454
O O5 0.645704 0.101278 0.753493
O O6 0.625942 0.201942 0.742189
O O7 0.710913 0.162883 0.976600
O O8 0.366799 0.902067 0.155487
O O9 0.370423 0.804395 0.237100
O O10 0.903106 0.500000 0.688384
O O11 0.000000 0.426172 0.730828
O O12 0.900144 0.439220 0.964791
O O13 0.164143 0.500000 0.195203
O O14 0.095733 0.200848 0.295140
O O15 0.097492 0.209541 0.640486
O O16 0.000000 0.150189 0.487516
O O17 0.500000 0.231930 0.692182
O O18 0.599746 0.264936 0.472788
O O19 0.500000 0.772998 0.260587
#
# Coordination Sequence:
#
# PCOD8188674 Si02
#       8
#     8   8   8   8   8   8   8   8
#     4   9  21  36  50  76 101 126 164 212 260 301
#     4  10  20  32  48  76  98 134 170 209 246 295
#     4  11  19  32  49  73  98 137 171 209 248 289
#     4   9  17  30  49  72 101 136 172 210 247 286
#     4   8  17  35  53  72 101 133 168 212 260 300
#     4  10  21  36  54  73  98 131 166 209 258 313
#     4  10  19  33  49  72 104 138 172 205 246 294
#     4  10  19  32  49  69  99 139 173 204 247 292
#
# _framework density 17.355854000000001
#
# number of rings (size 3 to 8) (size 9 to 14) (size 15 to 20)
#    0.750    1.625    2.500    0.375    0.000    4.500 
#    0.000    0.000    0.000    1.875    0.000    0.000 
#    0.000    0.000    0.000    0.000    0.000    0.000 
#
# Total GULP energy -396505.351469 kJ/mol
# GULP energy per Si atom -12390.792233 kJ/mol
# Density = 1.731635 g / cm^3
# Si number density = 17.355854 Si / 1000 Ang^3
#
#
#
# Elastic Constant Matrix: (Units=GPa)
#
#
# Indices 1 2 3 4 5 6 
#
# 1 85.3618 17.0133 15.0851 0.0000 0.0000 0.0000
# 2 17.0133 18.0679 -1.5011 0.0000 0.0000 0.0000
# 3 15.0851 -1.5011 106.7039 0.0000 0.0000 0.0000
# 4 0.0000 0.0000 0.0000 11.0569 0.0000 0.0000
# 5 0.0000 0.0000 0.0000 0.0000 12.0667 0.0000
# 6 0.0000 0.0000 0.0000 0.0000 0.0000 17.2263
#
#
#
# Elastic Compliance Matrix: (Units=1/GPa)
#
#
# Indices 1 2 3 4 5 6 
#
# 1 0.014973 -0.014291 -0.002318 0.000000 0.000000 0.000000
# 2 -0.014291 0.069053 0.002992 0.000000 0.000000 0.000000
# 3 -0.002318 0.002992 0.009741 0.000000 0.000000 0.000000
# 4 0.000000 0.000000 0.000000 0.090441 0.000000 0.000000
# 5 0.000000 0.000000 0.000000 0.000000 0.082872 0.000000
# 6 0.000000 0.000000 0.000000 0.000000 0.000000 0.058051
#
#
# Mechanical properties :
#
#
# Convention : Reuss Voigt Hill
#
# Bulk Modulus (GPa) = 15.03033 30.14758 22.58895
# Shear Modulus (GPa) = 13.34957 20.03907 16.69432
#
# Velocity S-wave (km/s) = 2.77640 3.40163 3.10479
# Velocity P-wave (km/s) = 4.35393 5.73028 5.08885
#
# Compressibility (1/GPa) = 0.06653214
#
# Stress axis : x y z
#
# Youngs Moduli (GPa) = 66.78759 14.48171 102.65367
#
# Poissons Ratio (x) = 0.20696 0.23793
# Poissons Ratio (y) = 0.95449 -0.30713
# Poissons Ratio (z) = 0.15480 -0.04333
#
# Static dielectric constant tensor:
#      x y z
#    x 3.066710 0.000000 0.000000 
#    y 0.000000 3.156650 0.000000 
#    z 0.000000 0.000000 3.396060 
# 
# 
# High freq. dielectric constant tensor:
#      x y z
#    x 1.655080 0.000000 0.000000 
#    y 0.000000 1.639000 0.000000 
#    z 0.000000 0.000000 1.677760 
# 
# From -- ./inp_files/8534.got.cif
#   From: 2010.03.12/outbox.cif.g09.slc.cpg/sg44_5_cif.got.tgz:8534.got - 2010.04.14 02:36:11.
