data_PCOD8188459
_publ_section_title
;
Structure prediction by ZEFSAII (Michael W. Deem and Ramdas Pophale) SiO2 
 PCOD8188459
Probable space group: I M M 2
;
_chemical_formula_sum "Si O2"
_cell_formula_units_Z 64
_cell_length_a 9.363463
_cell_length_b 22.792692
_cell_length_c 15.300071
_cell_angle_alpha 90.000000
_cell_angle_beta 90.000000
_cell_angle_gamma 90.000000
_cell_volume 3265.318634
_symmetry_space_group_name_H-M "I M M 2"
_symmetry_group_IT_number 44
_symmetry_cell_setting 'orthorhombic'
loop_
_space_group_symop_operation_xyz
x,y,z
-x,-y,z
-x,y,z
x,-y,z
1/2+x,1/2+y,1/2+z
1/2-x,1/2-y,1/2+z
1/2-x,1/2+y,1/2+z
1/2+x,1/2-y,1/2+z
loop_
_atom_site_type_symbol
_atom_site_label
_atom_site_fract_x
_atom_site_fract_y
_atom_site_fract_z
Si Si1 0.664693 0.394001 0.754940
Si Si2 0.658999 0.569249 0.075775
Si Si3 0.334590 0.563065 0.564817
Si Si4 0.834681 0.683407 0.330793
Si Si5 0.663598 0.934058 0.744974
Si Si6 0.658307 0.068448 0.418099
Si Si7 0.670555 0.313138 0.500773
Si Si8 0.831780 0.771176 0.184561
O O1 0.500000 0.395181 0.786161
O O2 0.685595 0.432296 0.668513
O O3 0.763644 0.422052 0.827399
O O4 0.720468 0.328182 0.737319
O O5 0.500000 0.596727 0.076575
O O6 0.648714 0.500000 0.063180
O O7 0.736307 0.584709 0.165673
O O8 0.749453 0.597472 0.996335
O O9 0.500000 0.562084 0.541284
O O10 0.265872 0.500000 0.535091
O O11 0.270895 0.620253 0.516762
O O12 0.809905 0.613289 0.321573
O O13 0.744157 0.708988 0.411693
O O14 0.783511 0.714177 0.239804
O O15 0.000000 0.698438 0.348084
O O16 0.500000 0.930870 0.712157
O O17 0.699606 0.000000 0.779092
O O18 0.500000 0.097113 0.416707
O O19 0.643075 0.000000 0.436397
O O20 0.500000 0.311022 0.489816
O O21 0.723006 0.272942 0.583295
O O22 0.000000 0.775754 0.176439
#
# Coordination Sequence:
#
# PCOD8188459 Si02
#       8
#     8   8   8   8   8   8   8   8
#     4   9  16  29  50  71  94 130 177 221 257 304
#     4   9  17  30  48  69  96 132 173 216 257 299
#     4   8  14  26  47  74 101 131 166 205 256 311
#     4  10  20  36  57  78 105 141 174 210 264 322
#     4   9  18  33  52  74 103 138 172 209 260 322
#     4  10  19  29  43  68 104 140 172 211 264 320
#     4   9  18  34  55  77 103 134 171 216 257 303
#     4   8  17  36  56  73 101 139 174 215 267 312
#
# _framework density 19.599924000000001
#
# number of rings (size 3 to 8) (size 9 to 14) (size 15 to 20)
#    0.000    3.000    0.000    2.625    0.000    3.750 
#    2.250    3.750    0.000    0.750    0.000    0.000 
#    0.000    0.000    0.000    0.000    0.000    0.000 
#
# Total GULP energy -396523.148932 kJ/mol
# GULP energy per Si atom -12391.348404 kJ/mol
# Density = 1.955531 g / cm^3
# Si number density = 19.599924 Si / 1000 Ang^3
#
#
#
# Elastic Constant Matrix: (Units=GPa)
#
#
# Indices 1 2 3 4 5 6 
#
# 1 81.4240 11.3048 49.6359 0.0000 0.0000 0.0000
# 2 11.3048 68.6216 30.3846 0.0000 0.0000 0.0000
# 3 49.6359 30.3846 114.3949 0.0000 0.0000 0.0000
# 4 0.0000 0.0000 0.0000 22.7296 0.0000 0.0000
# 5 0.0000 0.0000 0.0000 0.0000 31.4068 0.0000
# 6 0.0000 0.0000 0.0000 0.0000 0.0000 12.2454
#
#
#
# Elastic Compliance Matrix: (Units=1/GPa)
#
#
# Indices 1 2 3 4 5 6 
#
# 1 0.016714 0.000519 -0.007390 0.000000 0.000000 0.000000
# 2 0.000519 0.016531 -0.004616 0.000000 0.000000 0.000000
# 3 -0.007390 -0.004616 0.013174 0.000000 0.000000 0.000000
# 4 0.000000 0.000000 0.000000 0.043996 0.000000 0.000000
# 5 0.000000 0.000000 0.000000 0.000000 0.031840 0.000000
# 6 0.000000 0.000000 0.000000 0.000000 0.000000 0.081664
#
#
# Mechanical properties :
#
#
# Convention : Reuss Voigt Hill
#
# Bulk Modulus (GPa) = 42.65295 49.67679 46.16487
# Shear Modulus (GPa) = 21.30299 24.81735 23.06017
#
# Velocity S-wave (km/s) = 3.30038 3.56223 3.43380
# Velocity P-wave (km/s) = 6.02763 6.50536 6.27105
#
# Compressibility (1/GPa) = 0.02344504
#
# Stress axis : x y z
#
# Youngs Moduli (GPa) = 59.82871 60.49208 75.90563
#
# Poissons Ratio (x) = -0.03138 0.56095
# Poissons Ratio (y) = -0.03103 0.35037
# Poissons Ratio (z) = 0.44214 0.27923
#
# Static dielectric constant tensor:
#      x y z
#    x 3.403030 0.000000 0.000000 
#    y 0.000000 3.658850 0.000000 
#    z 0.000000 0.000000 3.447110 
# 
# 
# High freq. dielectric constant tensor:
#      x y z
#    x 1.732920 0.000000 0.000000 
#    y 0.000000 1.747180 0.000000 
#    z 0.000000 0.000000 1.759660 
# 
# From -- ./inp_files/16789.got.cif
#   From: 2010.03.12/outbox.cif.g09.slc.cpg/sg44_9_cif.got.tgz:16789.got - 2010.04.14 02:36:11.
