data_PCOD8188946
_publ_section_title
;
Structure prediction by ZEFSAII (Michael W. Deem and Ramdas Pophale) SiO2 
 PCOD8188946
Probable space group: I M M 2
;
_chemical_formula_sum "Si O2"
_cell_formula_units_Z 56
_cell_length_a 8.760793
_cell_length_b 24.099692
_cell_length_c 13.840855
_cell_angle_alpha 90.000000
_cell_angle_beta 90.000000
_cell_angle_gamma 90.000000
_cell_volume 2922.253114
_symmetry_space_group_name_H-M "I M M 2"
_symmetry_group_IT_number 44
_symmetry_cell_setting 'orthorhombic'
loop_
_space_group_symop_operation_xyz
x,y,z
-x,-y,z
-x,y,z
x,-y,z
1/2+x,1/2+y,1/2+z
1/2-x,1/2-y,1/2+z
1/2-x,1/2+y,1/2+z
1/2+x,1/2-y,1/2+z
loop_
_atom_site_type_symbol
_atom_site_label
_atom_site_fract_x
_atom_site_fract_y
_atom_site_fract_z
Si Si1 0.817997 0.831200 0.857140
Si Si2 0.676665 0.436091 0.682812
Si Si3 0.680887 0.726663 0.953713
Si Si4 0.822601 0.937565 0.524560
Si Si5 0.679633 0.666107 0.142737
Si Si6 0.181161 0.060806 0.964379
Si Si7 0.821710 0.623752 0.854793
O O1 0.753225 0.785498 0.929324
O O2 0.751482 0.821532 0.748768
O O3 0.000000 0.828388 0.859398
O O4 0.758464 0.891297 0.893114
O O5 0.500000 0.419739 0.695632
O O6 0.701638 0.500000 0.712783
O O7 0.733528 0.426226 0.573546
O O8 0.779226 0.396090 0.747969
O O9 0.500000 0.730699 0.949660
O O10 0.734541 0.680851 0.877024
O O11 0.738441 0.709341 0.061496
O O12 0.774778 0.896384 0.611079
O O13 0.725855 0.924337 0.429351
O O14 0.000000 0.929064 0.497428
O O15 0.788480 0.000000 0.559100
O O16 0.500000 0.671012 0.150993
O O17 0.000000 0.058688 0.962813
O O18 0.244230 0.000000 0.931856
O O19 0.000000 0.635623 0.861447
#
# Coordination Sequence:
#
# PCOD8188946 Si02
#       7
#     8   8   8   8   8   8   8
#     4  10  19  34  57  82 104 129 168 215 257 294
#     4   9  17  31  50  73 105 143 176 205 247 306
#     4  10  21  38  54  71 101 138 173 207 254 314
#     4   9  17  31  51  75 105 141 174 203 247 308
#     4   8  17  33  52  75 103 132 165 209 253 298
#     4   8  16  31  52  79 108 136 168 207 250 300
#     4  11  21  32  49  75 104 134 174 221 262 296
#
# _framework density 19.163295000000002
#
# number of rings (size 3 to 8) (size 9 to 14) (size 15 to 20)
#    0.000    2.714    0.000    3.857    0.000    4.000 
#    0.000   10.000    0.000    1.286    0.000    0.000 
#    0.000    0.000    0.000    0.000    0.000    0.000 
#
# Total GULP energy -347119.956415 kJ/mol
# GULP energy per Si atom -12397.141301 kJ/mol
# Density = 1.911968 g / cm^3
# Si number density = 19.163295 Si / 1000 Ang^3
#
#
#
# Elastic Constant Matrix: (Units=GPa)
#
#
# Indices 1 2 3 4 5 6 
#
# 1 33.7562 26.0466 24.0692 0.0001 0.0000 0.0000
# 2 26.0466 146.1531 81.3956 0.0000 0.0000 0.0000
# 3 24.0692 81.3956 130.8150 0.0003 -0.0001 0.0000
# 4 0.0001 0.0000 0.0003 26.5885 -0.0001 0.0000
# 5 0.0000 0.0000 -0.0001 -0.0001 13.9141 0.0000
# 6 0.0000 0.0000 0.0000 0.0000 0.0000 24.6929
#
#
#
# Elastic Compliance Matrix: (Units=1/GPa)
#
#
# Indices 1 2 3 4 5 6 
#
# 1 0.035658 -0.004133 -0.003989 0.000000 0.000000 0.000000
# 2 -0.004133 0.010949 -0.006053 0.000000 0.000000 0.000000
# 3 -0.003989 -0.006053 0.012144 0.000000 0.000000 0.000000
# 4 0.000000 0.000000 0.000000 0.037610 0.000000 0.000000
# 5 0.000000 0.000000 0.000000 0.000000 0.071870 0.000000
# 6 0.000000 0.000000 0.000000 0.000000 0.000000 0.040498
#
#
# Mechanical properties :
#
#
# Convention : Reuss Voigt Hill
#
# Bulk Modulus (GPa) = 32.89250 63.74968 48.32109
# Shear Modulus (GPa) = 20.22551 24.98661 22.60606
#
# Velocity S-wave (km/s) = 3.25226 3.61484 3.43834
# Velocity P-wave (km/s) = 5.59505 7.12471 6.40570
#
# Compressibility (1/GPa) = 0.03040207
#
# Stress axis : x y z
#
# Youngs Moduli (GPa) = 28.04443 91.32851 82.34284
#
# Poissons Ratio (x) = 0.37747 0.32848
# Poissons Ratio (y) = 0.11591 0.49838
# Poissons Ratio (z) = 0.11187 0.55277
#
# Static dielectric constant tensor:
#      x y z
#    x 3.128800 0.000000 0.000000 
#    y 0.000000 3.651700 0.000000 
#    z 0.000000 0.000000 3.716270 
# 
# 
# High freq. dielectric constant tensor:
#      x y z
#    x 1.707780 0.000000 0.000000 
#    y 0.000000 1.748580 0.000000 
#    z 0.000000 0.000000 1.744400 
# 
# From -- ./inp_files/16495.got.cif
#   From: 2010.03.12/outbox.cif.g09.slc.cpg/sg44_9_cif.got.tgz:16495.got - 2010.04.14 02:36:11.
