data_PCOD8188200
_publ_section_title
;
Structure prediction by ZEFSAII (Michael W. Deem and Ramdas Pophale) SiO2 
 PCOD8188200
Probable space group: I M M 2
;
_chemical_formula_sum "Si O2"
_cell_formula_units_Z 64
_cell_length_a 23.248262
_cell_length_b 8.829136
_cell_length_c 19.256024
_cell_angle_alpha 90.000000
_cell_angle_beta 90.000000
_cell_angle_gamma 90.000000
_cell_volume 3952.531288
_symmetry_space_group_name_H-M "I M M 2"
_symmetry_group_IT_number 44
_symmetry_cell_setting 'orthorhombic'
loop_
_space_group_symop_operation_xyz
x,y,z
-x,-y,z
-x,y,z
x,-y,z
1/2+x,1/2+y,1/2+z
1/2-x,1/2-y,1/2+z
1/2-x,1/2+y,1/2+z
1/2+x,1/2-y,1/2+z
loop_
_atom_site_type_symbol
_atom_site_label
_atom_site_fract_x
_atom_site_fract_y
_atom_site_fract_z
Si Si1 0.566700 0.824677 0.801060
Si Si2 0.433867 0.676192 0.515764
Si Si3 0.840262 0.179422 0.391837
Si Si4 0.114909 0.178670 0.163887
Si Si5 0.769860 0.321965 0.807611
Si Si6 0.166152 0.678319 0.939253
Si Si7 0.745283 0.320290 0.659635
Si Si8 0.274581 0.179332 0.010412
O O1 0.500000 0.796932 0.815772
O O2 0.599932 0.743324 0.863885
O O3 0.582407 0.756968 0.726790
O O4 0.583028 0.000000 0.801179
O O5 0.500000 0.714915 0.501810
O O6 0.420313 0.500000 0.504679
O O7 0.417839 0.725041 0.593640
O O8 0.397649 0.771516 0.459833
O O9 0.789611 0.237927 0.340947
O O10 0.826566 0.242709 0.468711
O O11 0.843403 0.000000 0.395975
O O12 0.179901 0.240413 0.158721
O O13 0.112878 0.000000 0.177079
O O14 0.763995 0.500000 0.801311
O O15 0.823139 0.278952 0.857838
O O16 0.776863 0.256032 0.729342
O O17 0.175150 0.500000 0.951017
O O18 0.211949 0.767471 0.985537
O O19 0.742489 0.500000 0.660054
O O20 0.779881 0.268578 0.591069
O O21 0.278740 0.000000 0.001599
#
# Coordination Sequence:
#
# PCOD8188200 Si02
#       8
#     8   8   8   8   8   8   8   8
#     4  11  23  35  47  69 100 131 166 207 247 285
#     4  10  20  33  48  66  92 129 170 204 238 287
#     4  10  19  33  51  70  95 128 165 201 239 288
#     4  10  18  32  50  68  93 130 171 200 231 286
#     4   8  15  28  46  68  91 118 155 194 233 278
#     4  10  19  30  46  68  95 126 161 203 242 284
#     4   9  15  27  49  72  94 125 159 192 234 288
#     4  10  18  30  50  72  97 125 158 201 246 289
#
# _framework density 16.192155
#
# number of rings (size 3 to 8) (size 9 to 14) (size 15 to 20)
#    0.000    2.250    2.500    2.625    0.000    2.250 
#    0.000    0.000    0.000    0.000    0.000    0.875 
#    0.000    3.000    0.000    0.000    0.000    0.000 
#
# Total GULP energy -396697.418168 kJ/mol
# GULP energy per Si atom -12396.794318 kJ/mol
# Density = 1.615530 g / cm^3
# Si number density = 16.192155 Si / 1000 Ang^3
#
#
#
# Elastic Constant Matrix: (Units=GPa)
#
#
# Indices 1 2 3 4 5 6 
#
# 1 82.7152 36.1289 61.8912 0.0000 0.0000 0.0000
# 2 36.1289 56.2906 41.6633 0.0000 0.0000 0.0000
# 3 61.8912 41.6633 141.8046 0.0000 0.0000 0.0000
# 4 0.0000 0.0000 0.0000 22.5709 0.0000 0.0000
# 5 0.0000 0.0000 0.0000 0.0000 26.9692 0.0000
# 6 0.0000 0.0000 0.0000 0.0000 0.0000 23.1646
#
#
#
# Elastic Compliance Matrix: (Units=1/GPa)
#
#
# Indices 1 2 3 4 5 6 
#
# 1 0.020664 -0.008418 -0.006546 0.000000 0.000000 0.000000
# 2 -0.008418 0.026131 -0.004003 0.000000 0.000000 0.000000
# 3 -0.006546 -0.004003 0.011085 0.000000 0.000000 0.000000
# 4 0.000000 0.000000 0.000000 0.044305 0.000000 0.000000
# 5 0.000000 0.000000 0.000000 0.000000 0.037079 0.000000
# 6 0.000000 0.000000 0.000000 0.000000 0.000000 0.043169
#
#
# Mechanical properties :
#
#
# Convention : Reuss Voigt Hill
#
# Bulk Modulus (GPa) = 50.13539 62.24193 56.18866
# Shear Modulus (GPa) = 22.02474 23.94941 22.98707
#
# Velocity S-wave (km/s) = 3.69210 3.85005 3.77190
# Velocity P-wave (km/s) = 7.01466 7.63458 7.33118
#
# Compressibility (1/GPa) = 0.01994599
#
# Stress axis : x y z
#
# Youngs Moduli (GPa) = 48.39222 38.26859 90.21113
#
# Poissons Ratio (x) = 0.32215 0.59050
# Poissons Ratio (y) = 0.40738 0.36115
# Poissons Ratio (z) = 0.31676 0.15320
#
# Static dielectric constant tensor:
#      x y z
#    x 2.920620 0.000000 0.000000 
#    y 0.000000 2.938050 0.000000 
#    z 0.000000 0.000000 3.438900 
# 
# 
# High freq. dielectric constant tensor:
#      x y z
#    x 1.594940 0.000000 0.000000 
#    y 0.000000 1.612450 0.000000 
#    z 0.000000 0.000000 1.625310 
# 
# From -- ./inp_files/20846.got.cif
#   From: 2010.03.12/outbox.cif.g09.slc.cpg/sg44_11_cif.got.tgz:20846.got - 2010.04.14 02:36:11.
