data_PCOD8188449
_publ_section_title
;
Structure prediction by ZEFSAII (Michael W. Deem and Ramdas Pophale) SiO2 
 PCOD8188449
Probable space group: I M M 2
;
_chemical_formula_sum "Si O2"
_cell_formula_units_Z 64
_cell_length_a 9.082410
_cell_length_b 13.666431
_cell_length_c 34.119761
_cell_angle_alpha 90.000000
_cell_angle_beta 90.000000
_cell_angle_gamma 90.000000
_cell_volume 4235.085636
_symmetry_space_group_name_H-M "I M M 2"
_symmetry_group_IT_number 44
_symmetry_cell_setting 'orthorhombic'
loop_
_space_group_symop_operation_xyz
x,y,z
-x,-y,z
-x,y,z
x,-y,z
1/2+x,1/2+y,1/2+z
1/2-x,1/2-y,1/2+z
1/2-x,1/2+y,1/2+z
1/2+x,1/2-y,1/2+z
loop_
_atom_site_type_symbol
_atom_site_label
_atom_site_fract_x
_atom_site_fract_y
_atom_site_fract_z
Si Si1 0.333723 0.616595 0.457130
Si Si2 0.827610 0.613115 0.379642
Si Si3 0.172576 0.610533 0.762543
Si Si4 0.665917 0.116274 0.033032
Si Si5 0.173273 0.282489 0.683014
Si Si6 0.328401 0.112700 0.722659
Si Si7 0.827910 0.280233 0.301642
Si Si8 0.326934 0.386264 0.611458
O O1 0.500000 0.656472 0.458783
O O2 0.330989 0.500000 0.458179
O O3 0.257503 0.654435 0.417420
O O4 0.244962 0.658985 0.494333
O O5 0.790118 0.500000 0.371977
O O6 0.771327 0.673052 0.342053
O O7 0.000000 0.627536 0.387092
O O8 0.230328 0.500000 0.766903
O O9 0.214656 0.647674 0.719291
O O10 0.249641 0.676259 0.795499
O O11 0.000000 0.617541 0.769430
O O12 0.500000 0.157914 0.035364
O O13 0.757277 0.150683 0.070794
O O14 0.663133 0.000000 0.030806
O O15 0.232118 0.173574 0.691657
O O16 0.255017 0.323359 0.645427
O O17 0.000000 0.279419 0.675002
O O18 0.500000 0.131130 0.714064
O O19 0.288004 0.145089 0.766751
O O20 0.285328 0.000000 0.717698
O O21 0.000000 0.260367 0.303397
O O22 0.500000 0.366960 0.609935
O O23 0.290708 0.500000 0.618786
#
# Coordination Sequence:
#
# PCOD8188449 Si02
#       8
#     8   8   8   8   8   8   8   8
#     4   9  16  25  37  55  80 109 140 171 202 239
#     4   9  16  26  40  58  82 111 140 170 205 245
#     4   9  18  31  44  58  80 110 140 172 212 253
#     4   9  16  26  40  57  79 109 141 170 204 246
#     4  10  19  30  44  62  84 110 142 177 211 251
#     4   9  17  30  46  62  83 111 141 175 215 254
#     4   9  17  28  43  63  83 106 140 177 210 247
#     4  10  19  29  42  61  85 112 142 176 211 248
#
# _framework density 15.111855
#
# number of rings (size 3 to 8) (size 9 to 14) (size 15 to 20)
#    0.000    2.750    0.000    2.250    0.000    7.250 
#    0.000    0.000    0.000    2.250    0.000    0.000 
#    0.000    1.000    0.000    7.250    0.000    6.000 
#
# Total GULP energy -396815.816951 kJ/mol
# GULP energy per Si atom -12400.494280 kJ/mol
# Density = 1.507746 g / cm^3
# Si number density = 15.111855 Si / 1000 Ang^3
#
#
#
# Elastic Constant Matrix: (Units=GPa)
#
#
# Indices 1 2 3 4 5 6 
#
# 1 80.5792 38.8287 63.9826 0.0000 0.0000 0.0000
# 2 38.8287 78.0667 51.6376 0.0000 0.0000 0.0000
# 3 63.9826 51.6376 136.4671 0.0000 0.0000 0.0000
# 4 0.0000 0.0000 0.0000 19.3623 0.0000 0.0000
# 5 0.0000 0.0000 0.0000 0.0000 29.3560 0.0000
# 6 0.0000 0.0000 0.0000 0.0000 0.0000 20.0816
#
#
#
# Elastic Compliance Matrix: (Units=1/GPa)
#
#
# Indices 1 2 3 4 5 6 
#
# 1 0.021308 -0.005322 -0.007977 0.000000 0.000000 0.000000
# 2 -0.005322 0.018415 -0.004473 0.000000 0.000000 0.000000
# 3 -0.007977 -0.004473 0.012760 0.000000 0.000000 0.000000
# 4 0.000000 0.000000 0.000000 0.051647 0.000000 0.000000
# 5 0.000000 0.000000 0.000000 0.000000 0.034065 0.000000
# 6 0.000000 0.000000 0.000000 0.000000 0.000000 0.049797
#
#
# Mechanical properties :
#
#
# Convention : Reuss Voigt Hill
#
# Bulk Modulus (GPa) = 59.02997 67.11232 63.07114
# Shear Modulus (GPa) = 21.81672 23.13759 22.47716
#
# Velocity S-wave (km/s) = 3.80370 3.91716 3.86085
# Velocity P-wave (km/s) = 7.64446 8.06013 7.85504
#
# Compressibility (1/GPa) = 0.01694055
#
# Stress axis : x y z
#
# Youngs Moduli (GPa) = 46.92973 54.30279 78.36938
#
# Poissons Ratio (x) = 0.28901 0.62512
# Poissons Ratio (y) = 0.24977 0.35053
# Poissons Ratio (z) = 0.37434 0.24289
#
# Static dielectric constant tensor:
#      x y z
#    x 2.993000 0.000000 0.000000 
#    y 0.000000 2.658100 0.000000 
#    z 0.000000 0.000000 2.980010 
# 
# 
# High freq. dielectric constant tensor:
#      x y z
#    x 1.589050 0.000000 0.000000 
#    y 0.000000 1.532870 0.000000 
#    z 0.000000 0.000000 1.579380 
# 
# From -- ./inp_files/27282.got.cif
#   From: 2010.03.12/outbox.cif.g09.slc.cpg/sg44_14_cif.got.tgz:27282.got - 2010.04.14 02:36:11.
