data_PCOD8188919
_publ_section_title
;
Structure prediction by ZEFSAII (Michael W. Deem and Ramdas Pophale) SiO2 
 PCOD8188919
Probable space group: I M M 2
;
_chemical_formula_sum "Si O2"
_cell_formula_units_Z 64
_cell_length_a 9.092819
_cell_length_b 32.104791
_cell_length_c 11.778781
_cell_angle_alpha 90.000000
_cell_angle_beta 90.000000
_cell_angle_gamma 90.000000
_cell_volume 3438.497717
_symmetry_space_group_name_H-M "I M M 2"
_symmetry_group_IT_number 44
_symmetry_cell_setting 'orthorhombic'
loop_
_space_group_symop_operation_xyz
x,y,z
-x,-y,z
-x,y,z
x,-y,z
1/2+x,1/2+y,1/2+z
1/2-x,1/2-y,1/2+z
1/2-x,1/2+y,1/2+z
1/2+x,1/2-y,1/2+z
loop_
_atom_site_type_symbol
_atom_site_label
_atom_site_fract_x
_atom_site_fract_y
_atom_site_fract_z
Si Si1 0.333501 0.177748 0.348900
Si Si2 0.337122 0.451310 0.900464
Si Si3 0.829386 0.547709 0.123213
Si Si4 0.167695 0.406925 0.715827
Si Si5 0.325508 0.190387 0.598223
Si Si6 0.672862 0.123483 0.780336
Si Si7 0.825520 0.136451 0.018540
Si Si8 0.826810 0.781989 0.152510
O O1 0.500000 0.194717 0.349505
O O2 0.323680 0.132252 0.298002
O O3 0.268347 0.175414 0.475630
O O4 0.237973 0.209674 0.276386
O O5 0.500000 0.430889 0.892319
O O6 0.351679 0.500000 0.914068
O O7 0.246536 0.443441 0.785254
O O8 0.256019 0.434711 0.013392
O O9 0.786423 0.500000 0.155355
O O10 0.793470 0.577660 0.229420
O O11 0.000000 0.550834 0.090732
O O12 0.253479 0.398446 0.599171
O O13 0.000000 0.419287 0.687113
O O14 0.500000 0.189588 0.601574
O O15 0.267683 0.158781 0.693955
O O16 0.265010 0.237175 0.615189
O O17 0.500000 0.128749 0.806366
O O18 0.764964 0.129310 0.893719
O O19 0.000000 0.130754 0.020190
O O20 0.778351 0.182527 0.062190
O O21 0.000000 0.781463 0.164657
#
# Coordination Sequence:
#
# PCOD8188919 Si02
#       8
#     8   8   8   8   8   8   8   8
#     4   9  18  33  53  74  97 129 171 215 258 306
#     4  10  20  33  53  83 115 142 170 214 271 324
#     4   9  18  34  56  81 109 142 181 224 269 320
#     4  10  19  34  56  78 101 137 181 219 261 315
#     4   9  18  32  51  74 102 134 168 214 267 318
#     4  10  20  35  55  78 104 139 183 227 270 324
#     4  10  21  36  53  74 105 142 179 222 274 327
#     4   9  19  34  50  71 101 136 170 212 266 320
#
# _framework density 18.612779
#
# number of rings (size 3 to 8) (size 9 to 14) (size 15 to 20)
#    0.000    2.500    0.000    1.875    1.750    4.250 
#    0.000    1.875    0.000    2.250    0.000    0.000 
#    0.000    0.000    0.000    0.000    0.000    0.000 
#
# Total GULP energy -396773.355809 kJ/mol
# GULP energy per Si atom -12399.167369 kJ/mol
# Density = 1.857042 g / cm^3
# Si number density = 18.612779 Si / 1000 Ang^3
#
#
#
# Elastic Constant Matrix: (Units=GPa)
#
#
# Indices 1 2 3 4 5 6 
#
# 1 71.8732 30.1323 52.6047 0.0005 0.0000 0.0001
# 2 30.1323 64.5064 46.4822 0.0000 0.0001 0.0004
# 3 52.6047 46.4822 156.9131 0.0020 0.0007 0.0012
# 4 0.0005 0.0000 0.0020 25.5359 0.0004 0.0010
# 5 0.0000 0.0001 0.0007 0.0004 32.8862 0.0006
# 6 0.0001 0.0004 0.0012 0.0010 0.0006 19.3887
#
#
#
# Elastic Compliance Matrix: (Units=1/GPa)
#
#
# Indices 1 2 3 4 5 6 
#
# 1 0.019974 -0.005728 -0.004999 0.000000 0.000000 0.000000
# 2 -0.005728 0.021352 -0.004405 0.000000 0.000000 0.000000
# 3 -0.004999 -0.004405 0.009354 -0.000001 0.000000 -0.000001
# 4 0.000000 0.000000 -0.000001 0.039161 0.000000 -0.000002
# 5 0.000000 0.000000 0.000000 0.000000 0.030408 -0.000001
# 6 0.000000 0.000000 -0.000001 -0.000002 -0.000001 0.051576
#
#
# Mechanical properties :
#
#
# Convention : Reuss Voigt Hill
#
# Bulk Modulus (GPa) = 48.98212 61.30345 55.14278
# Shear Modulus (GPa) = 23.93561 26.50039 25.21800
#
# Velocity S-wave (km/s) = 3.58994 3.77739 3.68486
# Velocity P-wave (km/s) = 6.59978 7.21336 6.91338
#
# Compressibility (1/GPa) = 0.02041561
#
# Stress axis : x y z
#
# Youngs Moduli (GPa) = 50.06551 46.83415 106.90761
#
# Poissons Ratio (x) = 0.26825 0.53448
# Poissons Ratio (y) = 0.28676 0.47092
# Poissons Ratio (z) = 0.25030 0.20630
#
# Static dielectric constant tensor:
#      x y z
#    x 3.463250 0.000000 0.000000 
#    y 0.000000 3.519420 0.000000 
#    z 0.000000 0.000000 3.420960 
# 
# 
# High freq. dielectric constant tensor:
#      x y z
#    x 1.711160 0.000000 0.000000 
#    y 0.000000 1.716980 0.000000 
#    z 0.000000 0.000000 1.723360 
# 
# From -- ./inp_files/11436.got.cif
#   From: 2010.03.12/outbox.cif.g09.slc.cpg/sg44_6_cif.got.tgz:11436.got - 2010.04.14 02:36:11.
