data_PCOD8188289
_publ_section_title
;
Structure prediction by ZEFSAII (Michael W. Deem and Ramdas Pophale) SiO2 
 PCOD8188289
Probable space group: I M M 2
;
_chemical_formula_sum "Si O2"
_cell_formula_units_Z 48
_cell_length_a 8.855970
_cell_length_b 16.645072
_cell_length_c 18.758043
_cell_angle_alpha 90.000000
_cell_angle_beta 90.000000
_cell_angle_gamma 90.000000
_cell_volume 2765.090447
_symmetry_space_group_name_H-M "I M M 2"
_symmetry_group_IT_number 44
_symmetry_cell_setting 'orthorhombic'
loop_
_space_group_symop_operation_xyz
x,y,z
-x,-y,z
-x,y,z
x,-y,z
1/2+x,1/2+y,1/2+z
1/2-x,1/2-y,1/2+z
1/2-x,1/2+y,1/2+z
1/2+x,1/2-y,1/2+z
loop_
_atom_site_type_symbol
_atom_site_label
_atom_site_fract_x
_atom_site_fract_y
_atom_site_fract_z
Si Si1 0.320260 0.500000 0.629601
Si Si2 0.821882 0.826685 0.942371
Si Si3 0.678044 0.306584 0.857084
Si Si4 0.821411 0.165620 0.195954
Si Si5 0.678322 0.411045 0.988510
Si Si6 0.821012 0.240764 0.574191
Si Si7 0.676987 0.500000 0.471512
O O1 0.500000 0.500000 0.630768
O O2 0.261090 0.579607 0.669311
O O3 0.250302 0.500000 0.550438
O O4 0.755895 0.777573 0.876335
O O5 0.000000 0.813947 0.947762
O O6 0.776853 0.919889 0.928564
O O7 0.750160 0.801447 0.017374
O O8 0.500000 0.294603 0.863669
O O9 0.728628 0.329361 0.777993
O O10 0.733889 0.374871 0.912637
O O11 0.743305 0.237859 0.152007
O O12 0.000000 0.174631 0.186836
O O13 0.500000 0.419271 0.986184
O O14 0.750379 0.500000 0.999996
O O15 0.725689 0.350734 0.052583
O O16 0.000000 0.250706 0.572910
O O17 0.500000 0.500000 0.484928
#
# Coordination Sequence:
#
# PCOD8188289 Si02
#       7
#     4   8   8   8   8   8   4
#     4   9  16  28  48  76 100 125 162 199 234 284
#     4  10  18  32  52  72  97 130 164 201 242 286
#     4   9  19  32  49  75 101 126 159 199 245 295
#     4  10  19  32  51  73 101 133 163 196 240 291
#     4   8  15  29  49  72  94 119 158 206 243 277
#     4  10  19  31  49  74 100 127 164 203 244 289
#     4   9  16  28  50  76  96 119 166 207 232 282
#
# _framework density 17.359286999999998
#
# number of rings (size 3 to 8) (size 9 to 14) (size 15 to 20)
#    0.000    2.667    1.667    2.000    1.167    0.667 
#    0.000    2.917    1.833   12.500    0.000    0.000 
#    0.000    0.000    0.000    0.000    0.000    0.000 
#
# Total GULP energy -297490.383084 kJ/mol
# GULP energy per Si atom -12395.432628 kJ/mol
# Density = 1.731978 g / cm^3
# Si number density = 17.359287 Si / 1000 Ang^3
#
#
#
# Elastic Constant Matrix: (Units=GPa)
#
#
# Indices 1 2 3 4 5 6 
#
# 1 33.5730 26.9824 22.4397 0.0000 0.0000 0.0000
# 2 26.9824 166.2942 67.6036 0.0000 0.0000 0.0000
# 3 22.4397 67.6036 99.5627 0.0000 0.0000 0.0000
# 4 0.0000 0.0000 0.0000 21.2669 0.0000 0.0000
# 5 0.0000 0.0000 0.0000 0.0000 26.1300 0.0000
# 6 0.0000 0.0000 0.0000 0.0000 0.0000 22.2731
#
#
#
# Elastic Compliance Matrix: (Units=1/GPa)
#
#
# Indices 1 2 3 4 5 6 
#
# 1 0.036537 -0.003565 -0.005814 0.000000 0.000000 0.000000
# 2 -0.003565 0.008654 -0.005073 0.000000 0.000000 0.000000
# 3 -0.005814 -0.005073 0.014799 0.000000 0.000000 0.000000
# 4 0.000000 0.000000 0.000000 0.047022 0.000000 0.000000
# 5 0.000000 0.000000 0.000000 0.000000 0.038270 0.000000
# 6 0.000000 0.000000 0.000000 0.000000 0.000000 0.044897
#
#
# Mechanical properties :
#
#
# Convention : Reuss Voigt Hill
#
# Bulk Modulus (GPa) = 32.16850 59.27569 45.72210
# Shear Modulus (GPa) = 21.79176 26.09427 23.94302
#
# Velocity S-wave (km/s) = 3.54692 3.88130 3.71787
# Velocity P-wave (km/s) = 5.94520 7.36930 6.69522
#
# Compressibility (1/GPa) = 0.03108631
#
# Stress axis : x y z
#
# Youngs Moduli (GPa) = 27.36949 115.55283 67.57304
#
# Poissons Ratio (x) = 0.41191 0.39290
# Poissons Ratio (y) = 0.09756 0.34278
# Poissons Ratio (z) = 0.15914 0.58617
#
# Static dielectric constant tensor:
#      x y z
#    x 2.965840 0.000000 0.000000 
#    y 0.000000 3.627880 0.000000 
#    z 0.000000 0.000000 3.184080 
# 
# 
# High freq. dielectric constant tensor:
#      x y z
#    x 1.643170 0.000000 0.000000 
#    y 0.000000 1.677760 0.000000 
#    z 0.000000 0.000000 1.654810 
# 
# From -- ./inp_files/23185.got.cif
#   From: 2010.03.12/outbox.cif.g09.slc.cpg/sg44_12_cif.got.tgz:23185.got - 2010.04.14 02:36:11.
