data_PCOD8188847
_publ_section_title
;
Structure prediction by ZEFSAII (Michael W. Deem and Ramdas Pophale) SiO2 
 PCOD8188847
Probable space group: I M M 2
;
_chemical_formula_sum "Si O2"
_cell_formula_units_Z 48
_cell_length_a 7.832631
_cell_length_b 8.825839
_cell_length_c 34.046251
_cell_angle_alpha 90.000000
_cell_angle_beta 90.000000
_cell_angle_gamma 90.000000
_cell_volume 2353.601676
_symmetry_space_group_name_H-M "I M M 2"
_symmetry_group_IT_number 44
_symmetry_cell_setting 'orthorhombic'
loop_
_space_group_symop_operation_xyz
x,y,z
-x,-y,z
-x,y,z
x,-y,z
1/2+x,1/2+y,1/2+z
1/2-x,1/2-y,1/2+z
1/2-x,1/2+y,1/2+z
1/2+x,1/2-y,1/2+z
loop_
_atom_site_type_symbol
_atom_site_label
_atom_site_fract_x
_atom_site_fract_y
_atom_site_fract_z
Si Si1 0.305692 0.668292 0.369850
Si Si2 0.000000 0.320658 0.650592
Si Si3 0.693607 0.824197 0.603398
Si Si4 0.000000 0.180870 0.736001
Si Si5 0.312213 0.179500 0.787705
Si Si6 0.801306 0.826477 0.446491
Si Si7 0.200929 0.325157 0.526024
O O1 0.500000 0.656121 0.356320
O O2 0.234692 0.500000 0.380421
O O3 0.207699 0.740112 0.332388
O O4 0.293241 0.775992 0.407243
O O5 0.827997 0.270540 0.628652
O O6 0.000000 0.250595 0.693324
O O7 0.000000 0.500000 0.652726
O O8 0.500000 0.797023 0.618889
O O9 0.701056 0.772824 0.558258
O O10 0.743087 0.000000 0.606425
O O11 0.831982 0.243407 0.758480
O O12 0.000000 0.000000 0.732465
O O13 0.500000 0.227114 0.771993
O O14 0.291082 0.000000 0.789674
O O15 0.735759 0.728354 0.483271
O O16 0.000000 0.799413 0.439504
O O17 0.757371 0.000000 0.455362
O O18 0.248985 0.500000 0.531503
O O19 0.000000 0.296532 0.530949
#
# Coordination Sequence:
#
# PCOD8188847 Si02
#       7
#     8   4   8   4   8   8   8
#     4  10  19  33  54  81 113 151 198 251 304 359
#     4  12  26  44  66  94 130 170 206 254 314 374
#     4  11  24  42  67  96 125 163 208 256 312 373
#     4  10  20  38  62  90 120 154 202 254 304 372
#     4   9  17  32  58  88 117 151 193 247 306 361
#     4  10  21  35  52  78 114 158 205 253 301 357
#     4  10  20  36  60  88 119 159 203 252 311 369
#
# _framework density 20.394276000000001
#
# number of rings (size 3 to 8) (size 9 to 14) (size 15 to 20)
#    0.000    1.833    1.667    2.750    0.000    5.333 
#    0.000    2.500    0.000    1.000    0.000    0.000 
#    0.000    0.000    0.000    0.000    0.000    0.000 
#
# Total GULP energy -297625.266885 kJ/mol
# GULP energy per Si atom -12401.052787 kJ/mol
# Density = 2.034786 g / cm^3
# Si number density = 20.394276 Si / 1000 Ang^3
#
#
#
# Elastic Constant Matrix: (Units=GPa)
#
#
# Indices 1 2 3 4 5 6 
#
# 1 111.9772 25.5070 51.9842 0.0000 0.0000 0.0000
# 2 25.5070 50.7995 18.0877 0.0000 0.0000 0.0000
# 3 51.9842 18.0877 128.8123 0.0000 0.0000 0.0000
# 4 0.0000 0.0000 0.0000 30.5608 0.0000 0.0000
# 5 0.0000 0.0000 0.0000 0.0000 18.4401 0.0000
# 6 0.0000 0.0000 0.0000 0.0000 0.0000 18.9179
#
#
#
# Elastic Compliance Matrix: (Units=1/GPa)
#
#
# Indices 1 2 3 4 5 6 
#
# 1 0.011887 -0.004485 -0.004167 0.000000 0.000000 0.000000
# 2 -0.004485 0.022413 -0.001337 0.000000 0.000000 0.000000
# 3 -0.004167 -0.001337 0.009633 0.000000 0.000000 0.000000
# 4 0.000000 0.000000 0.000000 0.032722 0.000000 0.000000
# 5 0.000000 0.000000 0.000000 0.000000 0.054230 0.000000
# 6 0.000000 0.000000 0.000000 0.000000 0.000000 0.052860
#
#
# Mechanical properties :
#
#
# Convention : Reuss Voigt Hill
#
# Bulk Modulus (GPa) = 41.74671 53.63856 47.69263
# Shear Modulus (GPa) = 23.61756 26.65111 25.13434
#
# Velocity S-wave (km/s) = 3.40670 3.61888 3.51439
# Velocity P-wave (km/s) = 5.99904 6.61964 6.31696
#
# Compressibility (1/GPa) = 0.02395398
#
# Stress axis : x y z
#
# Youngs Moduli (GPa) = 84.12885 44.61663 103.81200
#
# Poissons Ratio (x) = 0.20009 0.43261
# Poissons Ratio (y) = 0.37728 0.13884
# Poissons Ratio (z) = 0.35059 0.05967
#
# Static dielectric constant tensor:
#      x y z
#    x 3.806680 0.000000 0.000000 
#    y 0.000000 3.492870 0.000000 
#    z 0.000000 0.000000 3.674600 
# 
# 
# High freq. dielectric constant tensor:
#      x y z
#    x 1.802690 0.000000 0.000000 
#    y 0.000000 1.775490 0.000000 
#    z 0.000000 0.000000 1.798430 
# 
# From -- ./inp_files/26964.got.cif
#   From: 2010.03.12/outbox.cif.g09.slc.cpg/sg44_14_cif.got.tgz:26964.got - 2010.04.14 02:36:11.
