data_PCOD8188817
_publ_section_title
;
Structure prediction by ZEFSAII (Michael W. Deem and Ramdas Pophale) SiO2 
 PCOD8188817
Probable space group: I M M 2
;
_chemical_formula_sum "Si O2"
_cell_formula_units_Z 64
_cell_length_a 9.434803
_cell_length_b 28.208027
_cell_length_c 12.738407
_cell_angle_alpha 90.000000
_cell_angle_beta 90.000000
_cell_angle_gamma 90.000000
_cell_volume 3390.163688
_symmetry_space_group_name_H-M "I M M 2"
_symmetry_group_IT_number 44
_symmetry_cell_setting 'orthorhombic'
loop_
_space_group_symop_operation_xyz
x,y,z
-x,-y,z
-x,y,z
x,-y,z
1/2+x,1/2+y,1/2+z
1/2-x,1/2-y,1/2+z
1/2-x,1/2+y,1/2+z
1/2+x,1/2-y,1/2+z
loop_
_atom_site_type_symbol
_atom_site_label
_atom_site_fract_x
_atom_site_fract_y
_atom_site_fract_z
Si Si1 0.832119 0.114200 0.779220
Si Si2 0.841479 0.423561 0.888466
Si Si3 0.168011 0.053823 0.977636
Si Si4 0.656501 0.183502 0.456586
Si Si5 0.164729 0.304851 0.189125
Si Si6 0.841747 0.947414 0.582358
Si Si7 0.666818 0.599869 0.695778
Si Si8 0.338113 0.703146 0.769884
O O1 0.754244 0.165156 0.774345
O O2 0.786214 0.086521 0.674150
O O3 0.000000 0.122235 0.786393
O O4 0.775736 0.084310 0.878869
O O5 0.851620 0.368766 0.912658
O O6 0.751716 0.430837 0.782079
O O7 0.000000 0.444966 0.875287
O O8 0.762462 0.448932 0.983740
O O9 0.217299 0.080970 0.082778
O O10 0.000000 0.051251 0.972750
O O11 0.229557 0.000000 0.974817
O O12 0.500000 0.206889 0.459874
O O13 0.721604 0.182619 0.573000
O O14 0.753897 0.212725 0.377442
O O15 0.190776 0.248782 0.198859
O O16 0.000000 0.318208 0.203363
O O17 0.000000 0.931675 0.546039
O O18 0.847106 0.000000 0.630883
O O19 0.500000 0.591264 0.713041
O O20 0.706133 0.655804 0.705751
O O21 0.500000 0.698655 0.804262
#
# Coordination Sequence:
#
# PCOD8188817 Si02
#       8
#     8   8   8   8   8   8   8   8
#     4  10  20  34  55  81 107 139 182 228 269 325
#     4  10  19  33  53  77 104 138 175 217 270 325
#     4   9  18  34  57  83 110 142 182 230 281 329
#     4   9  18  33  52  72 102 139 172 214 267 322
#     4  10  20  35  53  76 108 145 181 224 277 329
#     4  10  20  33  51  77 107 137 172 219 271 321
#     4   9  18  34  55  78 107 144 183 224 271 325
#     4   9  19  33  51  76 105 140 182 225 269 319
#
# _framework density 18.878146000000001
#
# number of rings (size 3 to 8) (size 9 to 14) (size 15 to 20)
#    0.000    2.500    1.250    0.750    0.000    4.750 
#    0.000    4.375    0.000    4.875    0.000    0.000 
#    0.000    0.000    0.000    0.000    0.000    0.000 
#
# Total GULP energy -396718.616319 kJ/mol
# GULP energy per Si atom -12397.456760 kJ/mol
# Density = 1.883518 g / cm^3
# Si number density = 18.878146 Si / 1000 Ang^3
#
#
#
# Elastic Constant Matrix: (Units=GPa)
#
#
# Indices 1 2 3 4 5 6 
#
# 1 57.6869 30.3415 45.4903 -0.0001 0.0001 0.0000
# 2 30.3415 82.0952 49.9160 -0.0004 0.0001 0.0001
# 3 45.4903 49.9160 136.5065 -0.0006 0.0005 0.0003
# 4 -0.0001 -0.0004 -0.0006 23.4815 0.0002 0.0001
# 5 0.0001 0.0001 0.0005 0.0002 21.5763 -0.0001
# 6 0.0000 0.0001 0.0003 0.0001 -0.0001 18.2004
#
#
#
# Elastic Compliance Matrix: (Units=1/GPa)
#
#
# Indices 1 2 3 4 5 6 
#
# 1 0.025262 -0.005424 -0.006435 0.000000 0.000000 0.000000
# 2 -0.005424 0.016828 -0.004346 0.000000 0.000000 0.000000
# 3 -0.006435 -0.004346 0.011059 0.000000 0.000000 0.000000
# 4 0.000000 0.000000 0.000000 0.042587 0.000000 0.000000
# 5 0.000000 0.000000 0.000000 0.000000 0.046347 0.000000
# 6 0.000000 0.000000 0.000000 0.000000 0.000000 0.054944
#
#
# Mechanical properties :
#
#
# Convention : Reuss Voigt Hill
#
# Bulk Modulus (GPa) = 48.21707 58.64270 53.42988
# Shear Modulus (GPa) = 21.15496 22.68769 21.92133
#
# Velocity S-wave (km/s) = 3.35118 3.47045 3.41134
# Velocity P-wave (km/s) = 6.36950 6.86950 6.62422
#
# Compressibility (1/GPa) = 0.02073954
#
# Stress axis : x y z
#
# Youngs Moduli (GPa) = 39.58449 59.42450 90.42113
#
# Poissons Ratio (x) = 0.32231 0.58188
# Poissons Ratio (y) = 0.21470 0.39297
# Poissons Ratio (z) = 0.25474 0.25826
#
# Static dielectric constant tensor:
#      x y z
#    x 3.482270 0.000000 0.000000 
#    y 0.000000 3.414020 0.000000 
#    z 0.000000 0.000000 3.494030 
# 
# 
# High freq. dielectric constant tensor:
#      x y z
#    x 1.712910 0.000000 0.000000 
#    y 0.000000 1.731270 0.000000 
#    z 0.000000 0.000000 1.731710 
# 
# From -- ./inp_files/11455.got.cif
#   From: 2010.03.12/outbox.cif.g09.slc.cpg/sg44_6_cif.got.tgz:11455.got - 2010.04.14 02:36:11.
