data_PCOD8188218
_publ_section_title
;
Structure prediction by ZEFSAII (Michael W. Deem and Ramdas Pophale) SiO2 
 PCOD8188218
Probable space group: I M M 2
;
_chemical_formula_sum "Si O2"
_cell_formula_units_Z 64
_cell_length_a 8.938160
_cell_length_b 24.958444
_cell_length_c 15.262236
_cell_angle_alpha 90.000000
_cell_angle_beta 90.000000
_cell_angle_gamma 90.000000
_cell_volume 3404.738767
_symmetry_space_group_name_H-M "I M M 2"
_symmetry_group_IT_number 44
_symmetry_cell_setting 'orthorhombic'
loop_
_space_group_symop_operation_xyz
x,y,z
-x,-y,z
-x,y,z
x,-y,z
1/2+x,1/2+y,1/2+z
1/2-x,1/2-y,1/2+z
1/2-x,1/2+y,1/2+z
1/2+x,1/2-y,1/2+z
loop_
_atom_site_type_symbol
_atom_site_label
_atom_site_fract_x
_atom_site_fract_y
_atom_site_fract_z
Si Si1 0.325734 0.147383 0.378060
Si Si2 0.327143 0.775416 0.036080
Si Si3 0.174207 0.394650 0.567625
Si Si4 0.322732 0.168483 0.571866
Si Si5 0.674408 0.937131 0.884186
Si Si6 0.326623 0.365134 0.240725
Si Si7 0.178501 0.440022 0.747129
Si Si8 0.328522 0.266379 0.358372
O O1 0.500000 0.135762 0.384101
O O2 0.262714 0.147453 0.477493
O O3 0.251771 0.100380 0.319679
O O4 0.294645 0.204806 0.331788
O O5 0.500000 0.758553 0.041391
O O6 0.297828 0.831722 0.083978
O O7 0.230037 0.729890 0.083465
O O8 0.281573 0.784191 0.935362
O O9 0.244073 0.415806 0.476198
O O10 0.243946 0.425436 0.651112
O O11 0.000000 0.408164 0.561625
O O12 0.500000 0.166570 0.578337
O O13 0.253710 0.130899 0.646766
O O14 0.500000 0.922470 0.876363
O O15 0.759951 0.909304 0.804818
O O16 0.702711 0.000000 0.877442
O O17 0.500000 0.377650 0.227927
O O18 0.299616 0.304949 0.276456
O O19 0.228243 0.500000 0.772107
O O20 0.000000 0.434225 0.744492
O O21 0.500000 0.271069 0.392023
#
# Coordination Sequence:
#
# PCOD8188218 Si02
#       8
#     8   8   8   8   8   8   8   8
#     4   8  16  31  49  70 101 138 175 219 269 317
#     4  10  18  30  51  79 110 142 178 215 263 323
#     4   9  17  28  47  78 113 143 173 214 265 326
#     4  10  21  36  52  74 110 148 184 227 280 332
#     4  10  20  36  56  79 112 151 186 225 278 336
#     4  11  22  35  55  81 108 143 189 234 281 332
#     4   9  16  27  47  75 104 135 174 218 262 313
#     4   9  18  32  50  73 105 142 176 216 270 328
#
# _framework density 18.797329000000001
#
# number of rings (size 3 to 8) (size 9 to 14) (size 15 to 20)
#    0.000    2.500    1.250    2.250    1.750    2.250 
#    0.000    0.625    0.000    2.250    0.000    0.000 
#    0.000   16.750    0.000    0.000    0.000    0.000 
#
# Total GULP energy -396718.679077 kJ/mol
# GULP energy per Si atom -12397.458721 kJ/mol
# Density = 1.875455 g / cm^3
# Si number density = 18.797329 Si / 1000 Ang^3
#
#
#
# Elastic Constant Matrix: (Units=GPa)
#
#
# Indices 1 2 3 4 5 6 
#
# 1 51.3277 33.9203 34.3549 -0.0001 0.0001 0.0000
# 2 33.9203 103.4993 62.5732 -0.0001 0.0001 0.0000
# 3 34.3549 62.5732 118.8465 -0.0005 0.0004 0.0000
# 4 -0.0001 -0.0001 -0.0005 33.2840 0.0001 0.0000
# 5 0.0001 0.0001 0.0004 0.0001 19.5083 0.0000
# 6 0.0000 0.0000 0.0000 0.0000 0.0000 22.6901
#
#
#
# Elastic Compliance Matrix: (Units=1/GPa)
#
#
# Indices 1 2 3 4 5 6 
#
# 1 0.026424 -0.005930 -0.004516 0.000000 0.000000 0.000000
# 2 -0.005930 0.015504 -0.006449 0.000000 0.000000 0.000000
# 3 -0.004516 -0.006449 0.013115 0.000000 0.000000 0.000000
# 4 0.000000 0.000000 0.000000 0.030044 0.000000 0.000000
# 5 0.000000 0.000000 0.000000 0.000000 0.051260 0.000000
# 6 0.000000 0.000000 0.000000 0.000000 0.000000 0.044072
#
#
# Mechanical properties :
#
#
# Convention : Reuss Voigt Hill
#
# Bulk Modulus (GPa) = 47.05099 59.48560 53.26829
# Shear Modulus (GPa) = 22.59429 24.61815 23.60622
#
# Velocity S-wave (km/s) = 3.47074 3.62285 3.54761
# Velocity P-wave (km/s) = 6.41455 7.01531 6.72164
#
# Compressibility (1/GPa) = 0.02125354
#
# Stress axis : x y z
#
# Youngs Moduli (GPa) = 37.84402 64.49918 76.24762
#
# Poissons Ratio (x) = 0.38245 0.34437
# Poissons Ratio (y) = 0.22440 0.49171
# Poissons Ratio (z) = 0.17092 0.41595
#
# Static dielectric constant tensor:
#      x y z
#    x 3.115760 0.000000 0.000000 
#    y 0.000000 3.479840 0.000000 
#    z 0.000000 0.000000 3.581280 
# 
# 
# High freq. dielectric constant tensor:
#      x y z
#    x 1.690260 0.000000 0.000000 
#    y 0.000000 1.726960 0.000000 
#    z 0.000000 0.000000 1.731600 
# 
# From -- ./inp_files/16878.got.cif
#   From: 2010.03.12/outbox.cif.g09.slc.cpg/sg44_9_cif.got.tgz:16878.got - 2010.04.14 02:36:11.
