data_PCOD8188417
_publ_section_title
;
Structure prediction by ZEFSAII (Michael W. Deem and Ramdas Pophale) SiO2 
 PCOD8188417
Probable space group: I M M 2
;
_chemical_formula_sum "Si O2"
_cell_formula_units_Z 64
_cell_length_a 18.139768
_cell_length_b 9.159421
_cell_length_c 26.922330
_cell_angle_alpha 90.000000
_cell_angle_beta 90.000000
_cell_angle_gamma 90.000000
_cell_volume 4473.138990
_symmetry_space_group_name_H-M "I M M 2"
_symmetry_group_IT_number 44
_symmetry_cell_setting 'orthorhombic'
loop_
_space_group_symop_operation_xyz
x,y,z
-x,-y,z
-x,y,z
x,-y,z
1/2+x,1/2+y,1/2+z
1/2-x,1/2-y,1/2+z
1/2-x,1/2+y,1/2+z
1/2+x,1/2-y,1/2+z
loop_
_atom_site_type_symbol
_atom_site_label
_atom_site_fract_x
_atom_site_fract_y
_atom_site_fract_z
Si Si1 0.675763 0.672196 0.429050
Si Si2 0.417439 0.670795 0.525293
Si Si3 0.913850 0.331048 0.538471
Si Si4 0.341679 0.673588 0.129243
Si Si5 0.917212 0.173513 0.837063
Si Si6 0.298570 0.335437 0.979730
Si Si7 0.917766 0.826867 0.727523
Si Si8 0.700054 0.838518 0.577508
O O1 0.691404 0.500000 0.427618
O O2 0.619032 0.712403 0.472927
O O3 0.639519 0.732656 0.378243
O O4 0.753391 0.754814 0.436001
O O5 0.500000 0.735930 0.526244
O O6 0.419397 0.500000 0.533265
O O7 0.370561 0.735111 0.571299
O O8 0.889660 0.500000 0.541013
O O9 0.894194 0.254886 0.590423
O O10 0.872583 0.254002 0.492260
O O11 0.000000 0.314042 0.528391
O O12 0.353243 0.500000 0.121747
O O13 0.362999 0.728395 0.184442
O O14 0.255363 0.714825 0.121215
O O15 0.890965 0.226015 0.782149
O O16 0.000000 0.232287 0.847609
O O17 0.918886 0.000000 0.840257
O O18 0.318746 0.500000 0.962973
O O19 0.248462 0.337751 0.028167
O O20 0.000000 0.766329 0.716992
O O21 0.920245 0.000000 0.727190
O O22 0.669992 0.000000 0.588963
#
# Coordination Sequence:
#
# PCOD8188417 Si02
#       8
#     8   8   8   8   8   8   8   8
#     4   9  15  24  39  56  76 101 127 157 191 222
#     4   9  16  24  35  52  72  95 123 152 183 222
#     4  10  19  28  39  57  79 101 127 159 193 229
#     4   9  16  26  40  56  76 104 135 162 190 226
#     4   8  13  21  35  57  81 103 131 165 195 223
#     4   9  17  28  40  54  74 100 129 157 185 224
#     4   8  13  21  35  56  79 102 131 165 193 218
#     4   8  15  25  35  50  71  95 123 154 186 219
#
# _framework density 14.307626000000001
#
# number of rings (size 3 to 8) (size 9 to 14) (size 15 to 20)
#    0.000    3.250    0.000    3.000    0.000    6.250 
#    0.000    0.000    0.000    1.875    0.000    1.750 
#    0.000    1.000    0.000    8.250    0.000    2.000 
#
# Total GULP energy -396570.106325 kJ/mol
# GULP energy per Si atom -12392.815823 kJ/mol
# Density = 1.427506 g / cm^3
# Si number density = 14.307626 Si / 1000 Ang^3
#
#
#
# Elastic Constant Matrix: (Units=GPa)
#
#
# Indices 1 2 3 4 5 6 
#
# 1 89.8864 38.0452 58.1522 0.0000 0.0000 0.0000
# 2 38.0452 46.4505 27.2259 0.0000 0.0000 0.0000
# 3 58.1522 27.2259 96.7011 0.0000 0.0000 0.0000
# 4 0.0000 0.0000 0.0000 12.0571 0.0000 0.0000
# 5 0.0000 0.0000 0.0000 0.0000 27.4453 0.0000
# 6 0.0000 0.0000 0.0000 0.0000 0.0000 19.8779
#
#
#
# Elastic Compliance Matrix: (Units=1/GPa)
#
#
# Indices 1 2 3 4 5 6 
#
# 1 0.023361 -0.013054 -0.010373 0.000000 0.000000 0.000000
# 2 -0.013054 0.033077 -0.001463 0.000000 0.000000 0.000000
# 3 -0.010373 -0.001463 0.016991 0.000000 0.000000 0.000000
# 4 0.000000 0.000000 0.000000 0.082938 0.000000 0.000000
# 5 0.000000 0.000000 0.000000 0.000000 0.036436 0.000000
# 6 0.000000 0.000000 0.000000 0.000000 0.000000 0.050307
#
#
# Mechanical properties :
#
#
# Convention : Reuss Voigt Hill
#
# Bulk Modulus (GPa) = 42.28348 53.32049 47.80198
# Shear Modulus (GPa) = 16.62373 19.18371 17.90372
#
# Velocity S-wave (km/s) = 3.41233 3.66567 3.54127
# Velocity P-wave (km/s) = 6.71883 7.43399 7.08544
#
# Compressibility (1/GPa) = 0.02364990
#
# Stress axis : x y z
#
# Youngs Moduli (GPa) = 42.80566 30.23205 58.85455
#
# Poissons Ratio (x) = 0.39465 0.61052
# Poissons Ratio (y) = 0.55879 0.08609
# Poissons Ratio (z) = 0.44404 0.04422
#
# Static dielectric constant tensor:
#      x y z
#    x 2.893760 0.000000 0.000000 
#    y 0.000000 2.701950 0.000000 
#    z 0.000000 0.000000 2.881220 
# 
# 
# High freq. dielectric constant tensor:
#      x y z
#    x 1.534440 0.000000 0.000000 
#    y 0.000000 1.530170 0.000000 
#    z 0.000000 0.000000 1.518460 
# 
# From -- ./inp_files/26282.got.cif
#   From: 2010.03.12/outbox.cif.g09.slc.cpg/sg44_14_cif.got.tgz:26282.got - 2010.04.14 02:36:11.
