data_PCOD8188116
_publ_section_title
;
Structure prediction by ZEFSAII (Michael W. Deem and Ramdas Pophale) SiO2 
 PCOD8188116
Probable space group: I M M 2
;
_chemical_formula_sum "Si O2"
_cell_formula_units_Z 48
_cell_length_a 8.828502
_cell_length_b 23.825405
_cell_length_c 13.873563
_cell_angle_alpha 90.000000
_cell_angle_beta 90.000000
_cell_angle_gamma 90.000000
_cell_volume 2918.201808
_symmetry_space_group_name_H-M "I M M 2"
_symmetry_group_IT_number 44
_symmetry_cell_setting 'orthorhombic'
loop_
_space_group_symop_operation_xyz
x,y,z
-x,-y,z
-x,y,z
x,-y,z
1/2+x,1/2+y,1/2+z
1/2-x,1/2-y,1/2+z
1/2-x,1/2+y,1/2+z
1/2+x,1/2-y,1/2+z
loop_
_atom_site_type_symbol
_atom_site_label
_atom_site_fract_x
_atom_site_fract_y
_atom_site_fract_z
Si Si1 0.677031 0.731213 0.301440
Si Si2 0.679678 0.275922 0.087613
Si Si3 0.174920 0.064737 0.309940
Si Si4 0.820309 0.061301 0.093136
Si Si5 0.178206 0.829154 0.988905
Si Si6 0.821010 0.337178 0.918616
O O1 0.500000 0.739638 0.288666
O O2 0.744660 0.717079 0.196599
O O3 0.713543 0.680486 0.375716
O O4 0.742067 0.789582 0.344905
O O5 0.500000 0.281055 0.082609
O O6 0.729919 0.214867 0.052217
O O7 0.751347 0.325451 0.023864
O O8 0.235040 0.075598 0.201304
O O9 0.272328 0.101709 0.383158
O O10 0.000000 0.082076 0.319239
O O11 0.198522 0.000000 0.338460
O O12 0.000000 0.058129 0.095358
O O13 0.756413 0.000000 0.061231
O O14 0.764782 0.108717 0.018391
O O15 0.000000 0.820857 0.009946
O O16 0.000000 0.333769 0.928459
#
# Coordination Sequence:
#
# PCOD8188116 Si02
#       6
#     8   8   8   8   8   8
#     4   8  16  28  42  62  88 115 142 179 220 258
#     4  10  18  29  44  62  87 117 146 178 222 267
#     4   9  17  29  45  67  93 118 145 178 217 261
#     4   8  14  25  44  69  93 117 146 180 217 259
#     4   9  16  28  45  65  89 115 146 183 219 257
#     4  10  19  31  46  66  90 115 147 183 219 259
#
# _framework density 16.448485000000002
#
# number of rings (size 3 to 8) (size 9 to 14) (size 15 to 20)
#    0.000    3.000    0.000    4.000    0.000    0.333 
#    0.000    7.500    0.000    2.500    0.000    4.667 
#    0.000    0.000    0.000    0.000    0.000    0.000 
#
# Total GULP energy -297474.981505 kJ/mol
# GULP energy per Si atom -12394.790896 kJ/mol
# Density = 1.641105 g / cm^3
# Si number density = 16.448485 Si / 1000 Ang^3
#
#
#
# Elastic Constant Matrix: (Units=GPa)
#
#
# Indices 1 2 3 4 5 6 
#
# 1 42.6928 25.4196 31.7909 0.0000 0.0000 0.0000
# 2 25.4196 104.5539 64.5057 0.0000 0.0000 0.0000
# 3 31.7909 64.5057 138.2739 0.0002 -0.0001 0.0000
# 4 0.0000 0.0000 0.0002 27.9647 0.0000 0.0000
# 5 0.0000 0.0000 -0.0001 0.0000 16.9065 0.0000
# 6 0.0000 0.0000 0.0000 0.0000 0.0000 22.2447
#
#
#
# Elastic Compliance Matrix: (Units=1/GPa)
#
#
# Indices 1 2 3 4 5 6 
#
# 1 0.029518 -0.004198 -0.004828 0.000000 0.000000 0.000000
# 2 -0.004198 0.014027 -0.005578 0.000000 0.000000 0.000000
# 3 -0.004828 -0.005578 0.010944 0.000000 0.000000 0.000000
# 4 0.000000 0.000000 0.000000 0.035759 0.000000 0.000000
# 5 0.000000 0.000000 0.000000 0.000000 0.059149 0.000000
# 6 0.000000 0.000000 0.000000 0.000000 0.000000 0.044955
#
#
# Mechanical properties :
#
#
# Convention : Reuss Voigt Hill
#
# Bulk Modulus (GPa) = 39.55660 58.77255 49.16458
# Shear Modulus (GPa) = 21.55290 24.34346 22.94818
#
# Velocity S-wave (km/s) = 3.62377 3.85123 3.73923
# Velocity P-wave (km/s) = 6.45058 7.45552 6.97118
#
# Compressibility (1/GPa) = 0.02528023
#
# Stress axis : x y z
#
# Youngs Moduli (GPa) = 33.87784 71.29272 91.37014
#
# Poissons Ratio (x) = 0.29926 0.44116
# Poissons Ratio (y) = 0.14221 0.50970
# Poissons Ratio (z) = 0.16357 0.39770
#
# Static dielectric constant tensor:
#      x y z
#    x 2.821470 0.000000 0.000000 
#    y 0.000000 3.193860 0.000000 
#    z 0.000000 0.000000 3.300700 
# 
# 
# High freq. dielectric constant tensor:
#      x y z
#    x 1.609590 0.000000 0.000000 
#    y 0.000000 1.623750 0.000000 
#    z 0.000000 0.000000 1.627550 
# 
# From -- ./inp_files/11147.got.cif
#   From: 2010.03.12/outbox.cif.g09.slc.cpg/sg44_6_cif.got.tgz:11147.got - 2010.04.14 02:36:11.
