data_PCOD8188539
_publ_section_title
;
Structure prediction by ZEFSAII (Michael W. Deem and Ramdas Pophale) SiO2 
 PCOD8188539
Probable space group: I M M 2
;
_chemical_formula_sum "Si O2"
_cell_formula_units_Z 52
_cell_length_a 7.816684
_cell_length_b 14.400051
_cell_length_c 25.805974
_cell_angle_alpha 90.000000
_cell_angle_beta 90.000000
_cell_angle_gamma 90.000000
_cell_volume 2904.737162
_symmetry_space_group_name_H-M "I M M 2"
_symmetry_group_IT_number 44
_symmetry_cell_setting 'orthorhombic'
loop_
_space_group_symop_operation_xyz
x,y,z
-x,-y,z
-x,y,z
x,-y,z
1/2+x,1/2+y,1/2+z
1/2-x,1/2-y,1/2+z
1/2-x,1/2+y,1/2+z
1/2+x,1/2-y,1/2+z
loop_
_atom_site_type_symbol
_atom_site_label
_atom_site_fract_x
_atom_site_fract_y
_atom_site_fract_z
Si Si1 0.313966 0.846908 0.633220
Si Si2 0.305453 0.710713 0.786487
Si Si3 0.690227 0.105466 0.382764
Si Si4 0.000000 0.108465 0.456751
Si Si5 0.500000 0.694747 0.066416
Si Si6 0.803840 0.897515 0.742281
Si Si7 0.500000 0.098192 0.108640
Si Si8 0.688529 0.357002 0.675244
O O1 0.500000 0.880141 0.611218
O O2 0.166355 0.856306 0.590214
O O3 0.272378 0.904809 0.684630
O O4 0.328220 0.741342 0.648778
O O5 0.500000 0.688502 0.800556
O O6 0.192376 0.673743 0.833586
O O7 0.286956 0.821767 0.778670
O O8 0.251127 0.656275 0.734547
O O9 0.500000 0.113212 0.407394
O O10 0.830164 0.135141 0.424929
O O11 0.728012 0.000000 0.364320
O O12 0.000000 0.175930 0.505801
O O13 0.000000 0.000000 0.472740
O O14 0.500000 0.807116 0.075100
O O15 0.000000 0.867239 0.737171
O O16 0.782768 0.000000 0.767634
O O17 0.666912 0.087735 0.144859
O O18 0.500000 0.000000 0.075753
O O19 0.500000 0.405686 0.672791
#
# Coordination Sequence:
#
# PCOD8188539 Si02
#       8
#     8   8   8   4   4   8   4   8
#     4   9  17  31  50  73 102 138 176 215 257 305
#     4  10  19  32  52  76 106 143 180 215 258 316
#     4  10  21  37  57  79 104 133 170 221 274 322
#     4  10  22  40  58  78 100 128 176 229 275 319
#     4  10  20  36  56  76 104 136 176 224 268 314
#     4  10  19  30  47  75 113 149 181 215 253 308
#     4  10  20  32  50  76 108 142 172 205 251 311
#     4   8  17  30  45  71 105 138 173 208 241 293
#
# _framework density 17.901792
#
# number of rings (size 3 to 8) (size 9 to 14) (size 15 to 20)
#    0.000    2.462    1.538    1.846    4.308    3.385 
#    0.000    1.538    0.000    0.923    0.000    0.000 
#    0.000    0.000    0.000    0.000    0.000    0.000 
#
# Total GULP energy -322190.618519 kJ/mol
# GULP energy per Si atom -12391.946866 kJ/mol
# Density = 1.786105 g / cm^3
# Si number density = 17.901792 Si / 1000 Ang^3
#
#
#
# Elastic Constant Matrix: (Units=GPa)
#
#
# Indices 1 2 3 4 5 6 
#
# 1 120.5431 20.3926 48.9666 0.0000 0.0000 0.0000
# 2 20.3926 78.3093 37.7791 0.0000 0.0000 0.0000
# 3 48.9666 37.7791 97.3336 0.0000 0.0000 0.0000
# 4 0.0000 0.0000 0.0000 19.5470 0.0000 0.0000
# 5 0.0000 0.0000 0.0000 0.0000 18.3457 0.0000
# 6 0.0000 0.0000 0.0000 0.0000 0.0000 32.6505
#
#
#
# Elastic Compliance Matrix: (Units=1/GPa)
#
#
# Indices 1 2 3 4 5 6 
#
# 1 0.010430 -0.000227 -0.005159 0.000000 0.000000 0.000000
# 2 -0.000227 0.015717 -0.005986 0.000000 0.000000 0.000000
# 3 -0.005159 -0.005986 0.015193 0.000000 0.000000 0.000000
# 4 0.000000 0.000000 0.000000 0.051159 0.000000 0.000000
# 5 0.000000 0.000000 0.000000 0.000000 0.054509 0.000000
# 6 0.000000 0.000000 0.000000 0.000000 0.000000 0.030627
#
#
# Mechanical properties :
#
#
# Convention : Reuss Voigt Hill
#
# Bulk Modulus (GPa) = 53.77738 56.71806 55.24772
# Shear Modulus (GPa) = 24.20406 26.71182 25.45794
#
# Velocity S-wave (km/s) = 3.68101 3.86700 3.77515
# Velocity P-wave (km/s) = 6.94060 7.18957 7.06618
#
# Compressibility (1/GPa) = 0.01859518
#
# Stress axis : x y z
#
# Youngs Moduli (GPa) = 95.87876 63.62561 65.82116
#
# Poissons Ratio (x) = 0.01446 0.33956
# Poissons Ratio (y) = 0.02179 0.39401
# Poissons Ratio (z) = 0.49462 0.38087
#
# Static dielectric constant tensor:
#      x y z
#    x 6.626220 0.000000 0.000000 
#    y 0.000000 3.209990 0.000000 
#    z 0.000000 0.000000 2.902510 
# 
# 
# High freq. dielectric constant tensor:
#      x y z
#    x 1.718040 0.000000 0.000000 
#    y 0.000000 1.686370 0.000000 
#    z 0.000000 0.000000 1.641060 
# 
# From -- ./inp_files/24942.got.cif
#   From: 2010.03.12/outbox.cif.g09.slc.cpg/sg44_13_cif.got.tgz:24942.got - 2010.04.14 02:36:11.
