data_PCOD8188502
_publ_section_title
;
Structure prediction by ZEFSAII (Michael W. Deem and Ramdas Pophale) SiO2 
 PCOD8188502
Probable space group: I M M 2
;
_chemical_formula_sum "Si O2"
_cell_formula_units_Z 64
_cell_length_a 9.091034
_cell_length_b 27.409115
_cell_length_c 14.790378
_cell_angle_alpha 90.000000
_cell_angle_beta 90.000000
_cell_angle_gamma 90.000000
_cell_volume 3685.424923
_symmetry_space_group_name_H-M "I M M 2"
_symmetry_group_IT_number 44
_symmetry_cell_setting 'orthorhombic'
loop_
_space_group_symop_operation_xyz
x,y,z
-x,-y,z
-x,y,z
x,-y,z
1/2+x,1/2+y,1/2+z
1/2-x,1/2-y,1/2+z
1/2-x,1/2+y,1/2+z
1/2+x,1/2-y,1/2+z
loop_
_atom_site_type_symbol
_atom_site_label
_atom_site_fract_x
_atom_site_fract_y
_atom_site_fract_z
Si Si1 0.829523 0.630191 0.006360
Si Si2 0.172608 0.325486 0.186449
Si Si3 0.829795 0.319096 0.384695
Si Si4 0.171026 0.555005 0.698512
Si Si5 0.325962 0.715386 0.694346
Si Si6 0.670368 0.219251 0.374961
Si Si7 0.169007 0.641095 0.571874
Si Si8 0.171770 0.056577 0.380334
O O1 0.765157 0.638884 0.108235
O O2 0.000000 0.614466 0.005480
O O3 0.806476 0.681002 0.954896
O O4 0.737192 0.586582 0.963454
O O5 0.216486 0.343076 0.288006
O O6 0.229254 0.270186 0.174059
O O7 0.000000 0.325332 0.171235
O O8 0.737286 0.270770 0.406238
O O9 0.804677 0.358960 0.463572
O O10 0.000000 0.302738 0.378564
O O11 0.218653 0.500000 0.673372
O O12 0.210749 0.588241 0.612030
O O13 0.257468 0.574329 0.786072
O O14 0.000000 0.558017 0.723055
O O15 0.500000 0.711898 0.704777
O O16 0.252031 0.697487 0.787331
O O17 0.273851 0.681856 0.612868
O O18 0.500000 0.226814 0.351848
O O19 0.000000 0.653964 0.594743
O O20 0.000000 0.066591 0.373905
O O21 0.208543 0.000000 0.397342
#
# Coordination Sequence:
#
# PCOD8188502 Si02
#       8
#     8   8   8   8   8   8   8   8
#     4  10  19  31  49  69  91 123 160 194 229 273
#     4   8  16  31  47  64  90 125 160 191 225 267
#     4   9  18  32  48  67  96 131 161 193 234 275
#     4   9  18  33  51  70  94 124 155 188 231 282
#     4  10  19  31  47  68  97 130 159 191 235 282
#     4  10  19  30  45  69  99 127 159 197 233 275
#     4  10  19  30  47  71  96 124 160 198 234 276
#     4  10  21  35  50  71  97 120 146 187 237 285
#
# _framework density 17.365704000000001
#
# number of rings (size 3 to 8) (size 9 to 14) (size 15 to 20)
#    0.000    2.500    0.000    3.375    0.000    6.750 
#    0.000    3.125    0.000    0.750    0.000    3.500 
#    0.000    2.000    0.000    0.000    0.000    0.000 
#
# Total GULP energy -396735.095149 kJ/mol
# GULP energy per Si atom -12397.971723 kJ/mol
# Density = 1.732618 g / cm^3
# Si number density = 17.365704 Si / 1000 Ang^3
#
#
#
# Elastic Constant Matrix: (Units=GPa)
#
#
# Indices 1 2 3 4 5 6 
#
# 1 63.2857 35.0606 45.6373 0.0001 0.0000 0.0000
# 2 35.0606 75.0034 69.1913 0.0002 0.0000 0.0000
# 3 45.6373 69.1913 147.5588 0.0008 -0.0001 -0.0001
# 4 0.0001 0.0002 0.0008 29.6913 -0.0001 0.0000
# 5 0.0000 0.0000 -0.0001 -0.0001 17.8991 0.0001
# 6 0.0000 0.0000 -0.0001 0.0000 0.0001 22.8309
#
#
#
# Elastic Compliance Matrix: (Units=1/GPa)
#
#
# Indices 1 2 3 4 5 6 
#
# 1 0.022328 -0.007167 -0.003545 0.000000 0.000000 0.000000
# 2 -0.007167 0.025797 -0.009880 0.000000 0.000000 0.000000
# 3 -0.003545 -0.009880 0.012506 0.000000 0.000000 0.000000
# 4 0.000000 0.000000 0.000000 0.033680 0.000000 0.000000
# 5 0.000000 0.000000 0.000000 0.000000 0.055869 0.000000
# 6 0.000000 0.000000 0.000000 0.000000 0.000000 0.043800
#
#
# Mechanical properties :
#
#
# Convention : Reuss Voigt Hill
#
# Bulk Modulus (GPa) = 51.41991 65.06956 58.24473
# Shear Modulus (GPa) = 20.69129 23.14817 21.91973
#
# Velocity S-wave (km/s) = 3.45556 3.65496 3.55666
# Velocity P-wave (km/s) = 6.75244 7.44064 7.10488
#
# Compressibility (1/GPa) = 0.01944772
#
# Stress axis : x y z
#
# Youngs Moduli (GPa) = 44.78587 38.76383 79.96099
#
# Poissons Ratio (x) = 0.27783 0.28347
# Poissons Ratio (y) = 0.32099 0.79000
# Poissons Ratio (z) = 0.15877 0.38298
#
# Static dielectric constant tensor:
#      x y z
#    x 3.172850 0.000000 0.000000 
#    y 0.000000 3.105700 0.000000 
#    z 0.000000 0.000000 3.484860 
# 
# 
# High freq. dielectric constant tensor:
#      x y z
#    x 1.662950 0.000000 0.000000 
#    y 0.000000 1.645830 0.000000 
#    z 0.000000 0.000000 1.675680 
# 
# From -- ./inp_files/17127.got.cif
#   From: 2010.03.12/outbox.cif.g09.slc.cpg/sg44_9_cif.got.tgz:17127.got - 2010.04.14 02:36:11.
