data_PCOD8188886
_publ_section_title
;
Structure prediction by ZEFSAII (Michael W. Deem and Ramdas Pophale) SiO2 
 PCOD8188886
Probable space group: I M M 2
;
_chemical_formula_sum "Si O2"
_cell_formula_units_Z 64
_cell_length_a 19.994124
_cell_length_b 13.911105
_cell_length_c 11.786984
_cell_angle_alpha 90.000000
_cell_angle_beta 90.000000
_cell_angle_gamma 90.000000
_cell_volume 3278.435954
_symmetry_space_group_name_H-M "I M M 2"
_symmetry_group_IT_number 44
_symmetry_cell_setting 'orthorhombic'
loop_
_space_group_symop_operation_xyz
x,y,z
-x,-y,z
-x,y,z
x,-y,z
1/2+x,1/2+y,1/2+z
1/2-x,1/2-y,1/2+z
1/2-x,1/2+y,1/2+z
1/2+x,1/2-y,1/2+z
loop_
_atom_site_type_symbol
_atom_site_label
_atom_site_fract_x
_atom_site_fract_y
_atom_site_fract_z
Si Si1 0.289312 0.393241 0.059570
Si Si2 0.420433 0.766546 0.552377
Si Si3 0.678630 0.392182 0.607275
Si Si4 0.078190 0.611178 0.522613
Si Si5 0.427204 0.804324 0.797130
Si Si6 0.310951 0.200078 0.166384
Si Si7 0.835801 0.389211 0.903865
Si Si8 0.883450 0.104867 0.346991
O O1 0.296172 0.500000 0.112806
O O2 0.301757 0.315426 0.158423
O O3 0.216376 0.380381 0.005826
O O4 0.343326 0.377815 0.961634
O O5 0.500000 0.744252 0.554490
O O6 0.378368 0.667708 0.539517
O O7 0.394755 0.813771 0.672258
O O8 0.403868 0.839412 0.450026
O O9 0.676360 0.500000 0.557524
O O10 0.752798 0.348814 0.590287
O O11 0.667949 0.392519 0.742416
O O12 0.089151 0.500000 0.547301
O O13 0.109500 0.637577 0.398078
O O14 0.116937 0.670449 0.617888
O O15 0.000000 0.640389 0.528998
O O16 0.500000 0.850815 0.787474
O O17 0.435172 0.691620 0.831448
O O18 0.307743 0.168479 0.296555
O O19 0.850026 0.500000 0.870481
O O20 0.919728 0.000000 0.349565
#
# Coordination Sequence:
#
# PCOD8188886 Si02
#       8
#     8   8   8   8   8   8   8   8
#     4  10  20  36  58  85 118 152 191 245 307 359
#     4  10  22  39  59  86 122 162 204 252 306 367
#     4  10  19  33  58  89 117 152 200 250 304 359
#     4  10  21  35  52  81 119 157 197 247 306 360
#     4   9  18  33  53  79 112 151 192 240 296 350
#     4  12  21  37  64  86 119 158 203 254 308 365
#     4  11  23  39  60  88 120 160 204 250 304 363
#     4   9  16  30  53  80 110 141 180 235 293 348
#
# _framework density 19.521504
#
# number of rings (size 3 to 8) (size 9 to 14) (size 15 to 20)
#    0.000    1.875    3.750    1.125    0.000    1.750 
#    0.000    4.375    0.000    0.375    0.000    0.000 
#    0.000    0.000    0.000    0.000    0.000    0.000 
#
# Total GULP energy -396599.577391 kJ/mol
# GULP energy per Si atom -12393.736793 kJ/mol
# Density = 1.947707 g / cm^3
# Si number density = 19.521504 Si / 1000 Ang^3
#
#
#
# Elastic Constant Matrix: (Units=GPa)
#
#
# Indices 1 2 3 4 5 6 
#
# 1 80.5645 38.7342 22.9769 0.0000 0.0000 0.0000
# 2 38.7342 137.2612 49.3908 0.0000 0.0000 0.0000
# 3 22.9769 49.3908 47.5685 0.0000 0.0000 0.0000
# 4 0.0000 0.0000 0.0000 31.8344 0.0000 0.0000
# 5 0.0000 0.0000 0.0000 0.0000 20.3730 0.0000
# 6 0.0000 0.0000 0.0000 0.0000 0.0000 26.9626
#
#
#
# Elastic Compliance Matrix: (Units=1/GPa)
#
#
# Indices 1 2 3 4 5 6 
#
# 1 0.014950 -0.002587 -0.004535 0.000000 0.000000 0.000000
# 2 -0.002587 0.012078 -0.011292 0.000000 0.000000 0.000000
# 3 -0.004535 -0.011292 0.034937 0.000000 0.000000 0.000000
# 4 0.000000 0.000000 0.000000 0.031413 0.000000 0.000000
# 5 0.000000 0.000000 0.000000 0.000000 0.049085 0.000000
# 6 0.000000 0.000000 0.000000 0.000000 0.000000 0.037088
#
#
# Mechanical properties :
#
#
# Convention : Reuss Voigt Hill
#
# Bulk Modulus (GPa) = 39.78051 54.17753 46.97902
# Shear Modulus (GPa) = 22.24623 26.12016 24.18320
#
# Velocity S-wave (km/s) = 3.37942 3.66186 3.52347
# Velocity P-wave (km/s) = 5.97071 6.75959 6.37736
#
# Compressibility (1/GPa) = 0.02513794
#
# Stress axis : x y z
#
# Youngs Moduli (GPa) = 66.89183 82.79224 28.62281
#
# Poissons Ratio (x) = 0.21416 0.12981
# Poissons Ratio (y) = 0.17303 0.32320
# Poissons Ratio (z) = 0.30337 0.93486
#
# Static dielectric constant tensor:
#      x y z
#    x 3.370490 0.000000 0.000000 
#    y 0.000000 3.733780 0.000000 
#    z 0.000000 0.000000 3.356660 
# 
# 
# High freq. dielectric constant tensor:
#      x y z
#    x 1.747230 0.000000 0.000000 
#    y 0.000000 1.765460 0.000000 
#    z 0.000000 0.000000 1.735200 
# 
# From -- ./inp_files/13434.got.cif
#   From: 2010.03.12/outbox.cif.g09.slc.cpg/sg44_7_cif.got.tgz:13434.got - 2010.04.14 02:36:11.
