data_PCOD8188844
_publ_section_title
;
Structure prediction by ZEFSAII (Michael W. Deem and Ramdas Pophale) SiO2 
 PCOD8188844
Probable space group: I M M 2
;
_chemical_formula_sum "Si O2"
_cell_formula_units_Z 48
_cell_length_a 9.030957
_cell_length_b 25.060944
_cell_length_c 12.086947
_cell_angle_alpha 90.000000
_cell_angle_beta 90.000000
_cell_angle_gamma 90.000000
_cell_volume 2735.569911
_symmetry_space_group_name_H-M "I M M 2"
_symmetry_group_IT_number 44
_symmetry_cell_setting 'orthorhombic'
loop_
_space_group_symop_operation_xyz
x,y,z
-x,-y,z
-x,y,z
x,-y,z
1/2+x,1/2+y,1/2+z
1/2-x,1/2-y,1/2+z
1/2-x,1/2+y,1/2+z
1/2+x,1/2-y,1/2+z
loop_
_atom_site_type_symbol
_atom_site_label
_atom_site_fract_x
_atom_site_fract_y
_atom_site_fract_z
Si Si1 0.174350 0.150570 0.197040
Si Si2 0.328946 0.061209 0.333494
Si Si3 0.331570 0.062045 0.587707
Si Si4 0.831709 0.659357 0.464647
Si Si5 0.167445 0.737605 0.285209
Si Si6 0.825777 0.863450 0.754696
O O1 0.229850 0.097427 0.255320
O O2 0.242741 0.156549 0.076779
O O3 0.223552 0.201945 0.269829
O O4 0.000000 0.146627 0.184438
O O5 0.500000 0.073194 0.309048
O O6 0.291513 0.073734 0.460607
O O7 0.291307 0.000000 0.305785
O O8 0.500000 0.079876 0.612828
O O9 0.217326 0.094121 0.662271
O O10 0.311923 0.000000 0.614188
O O11 0.827415 0.720251 0.415435
O O12 0.754058 0.621525 0.371657
O O13 0.000000 0.640004 0.483867
O O14 0.271130 0.695956 0.217110
O O15 0.000000 0.732151 0.239242
O O16 0.000000 0.863777 0.771924
#
# Coordination Sequence:
#
# PCOD8188844 Si02
#       6
#     8   8   8   8   8   8
#     4  11  21  35  57  85 112 141 181 228 277 322
#     4   9  20  38  57  79 108 145 187 224 267 329
#     4   9  18  35  58  81 109 147 186 223 269 327
#     4   9  19  37  55  75 110 148 182 219 266 325
#     4   8  19  36  52  75 109 146 179 216 263 323
#     4  10  19  33  54  81 111 142 179 226 273 313
#
# _framework density 17.546619
#
# number of rings (size 3 to 8) (size 9 to 14) (size 15 to 20)
#    1.000    1.667    0.000    3.000    0.000    4.000 
#    0.000    5.833    0.000    5.000    0.000    0.000 
#    0.000    0.000    0.000    0.000    0.000    0.000 
#
# Total GULP energy -297418.664115 kJ/mol
# GULP energy per Si atom -12392.444338 kJ/mol
# Density = 1.750668 g / cm^3
# Si number density = 17.546619 Si / 1000 Ang^3
#
#
#
# Elastic Constant Matrix: (Units=GPa)
#
#
# Indices 1 2 3 4 5 6 
#
# 1 111.8106 58.3695 64.2870 -0.0002 0.0003 0.0000
# 2 58.3695 90.3931 62.5452 -0.0003 0.0001 0.0000
# 3 64.2870 62.5452 106.0539 -0.0004 0.0006 0.0002
# 4 -0.0002 -0.0003 -0.0004 29.1777 0.0000 -0.0001
# 5 0.0003 0.0001 0.0006 0.0000 32.0627 -0.0002
# 6 0.0000 0.0000 0.0002 -0.0001 -0.0002 25.3455
#
#
#
# Elastic Compliance Matrix: (Units=1/GPa)
#
#
# Indices 1 2 3 4 5 6 
#
# 1 0.015380 -0.005880 -0.005855 0.000000 0.000000 0.000000
# 2 -0.005880 0.020937 -0.008783 0.000000 0.000000 0.000000
# 3 -0.005855 -0.008783 0.018158 0.000000 0.000000 0.000000
# 4 0.000000 0.000000 0.000000 0.034273 0.000000 0.000000
# 5 0.000000 0.000000 0.000000 0.000000 0.031189 0.000000
# 6 0.000000 0.000000 0.000000 0.000000 0.000000 0.039455
#
#
# Mechanical properties :
#
#
# Convention : Reuss Voigt Hill
#
# Bulk Modulus (GPa) = 74.41364 75.40678 74.91021
# Shear Modulus (GPa) = 24.40125 25.52092 24.96108
#
# Velocity S-wave (km/s) = 3.73319 3.81788 3.77577
# Velocity P-wave (km/s) = 7.81559 7.90591 7.86088
#
# Compressibility (1/GPa) = 0.01343840
#
# Stress axis : x y z
#
# Youngs Moduli (GPa) = 65.02098 47.76228 55.07093
#
# Poissons Ratio (x) = 0.28083 0.32245
# Poissons Ratio (y) = 0.38231 0.48371
# Poissons Ratio (z) = 0.38071 0.41952
#
# Static dielectric constant tensor:
#      x y z
#    x 3.210080 0.000000 0.000000 
#    y 0.000000 3.143880 0.000000 
#    z 0.000000 0.000000 3.080000 
# 
# 
# High freq. dielectric constant tensor:
#      x y z
#    x 1.684070 0.000000 0.000000 
#    y 0.000000 1.663740 0.000000 
#    z 0.000000 0.000000 1.667850 
# 
# From -- ./inp_files/11212.got.cif
#   From: 2010.03.12/outbox.cif.g09.slc.cpg/sg44_6_cif.got.tgz:11212.got - 2010.04.14 02:36:11.
