data_PCOD8188347
_publ_section_title
;
Structure prediction by ZEFSAII (Michael W. Deem and Ramdas Pophale) SiO2 
 PCOD8188347
Probable space group: I M M 2
;
_chemical_formula_sum "Si O2"
_cell_formula_units_Z 56
_cell_length_a 8.900209
_cell_length_b 17.426632
_cell_length_c 18.606877
_cell_angle_alpha 90.000000
_cell_angle_beta 90.000000
_cell_angle_gamma 90.000000
_cell_volume 2885.939033
_symmetry_space_group_name_H-M "I M M 2"
_symmetry_group_IT_number 44
_symmetry_cell_setting 'orthorhombic'
loop_
_space_group_symop_operation_xyz
x,y,z
-x,-y,z
-x,y,z
x,-y,z
1/2+x,1/2+y,1/2+z
1/2-x,1/2-y,1/2+z
1/2-x,1/2+y,1/2+z
1/2+x,1/2-y,1/2+z
loop_
_atom_site_type_symbol
_atom_site_label
_atom_site_fract_x
_atom_site_fract_y
_atom_site_fract_z
Si Si1 0.825918 0.713956 0.339980
Si Si2 0.321191 0.085898 0.570846
Si Si3 0.821833 0.353509 0.918901
Si Si4 0.178134 0.500000 0.671910
Si Si5 0.321593 0.000000 0.333501
Si Si6 0.178190 0.289384 0.178495
Si Si7 0.177875 0.859744 0.091606
Si Si8 0.826177 0.588291 0.451302
O O1 0.744544 0.774828 0.390219
O O2 0.755755 0.714968 0.259424
O O3 0.803002 0.629439 0.374302
O O4 0.000000 0.736348 0.336940
O O5 0.500000 0.080673 0.569228
O O6 0.267038 0.131626 0.500186
O O7 0.264083 0.132529 0.640612
O O8 0.252803 0.000000 0.572935
O O9 0.759099 0.423998 0.871697
O O10 0.000000 0.347568 0.914378
O O11 0.238369 0.500000 0.752792
O O12 0.240640 0.573901 0.633856
O O13 0.000000 0.500000 0.667482
O O14 0.500000 0.000000 0.337795
O O15 0.231534 0.218729 0.129132
O O16 0.000000 0.290728 0.182971
O O17 0.000000 0.869773 0.095469
O O18 0.229555 0.863897 0.009028
O O19 0.770768 0.500000 0.445498
O O20 0.000000 0.590806 0.474819
#
# Coordination Sequence:
#
# PCOD8188347 Si02
#       8
#     8   8   8   4   4   8   8   8
#     4  10  21  36  53  77 109 143 177 218 270 320
#     4   9  16  29  53  81 106 135 174 221 265 306
#     4  10  18  33  55  80 107 137 178 222 264 315
#     4  11  21  33  51  77 110 145 178 216 265 321
#     4   9  18  31  51  79 110 143 178 216 261 321
#     4   9  19  33  50  77 110 139 175 222 268 315
#     4  11  21  35  55  80 108 140 179 223 270 318
#     4  10  21  37  56  77 105 143 183 223 265 318
#
# _framework density 19.404430000000001
#
# number of rings (size 3 to 8) (size 9 to 14) (size 15 to 20)
#    0.000    2.143    1.429    2.357    0.000    2.286 
#    0.000    4.643    0.000    0.857    0.000    0.000 
#    0.000    0.000    0.000    0.000    0.000    0.000 
#
# Total GULP energy -347171.958577 kJ/mol
# GULP energy per Si atom -12398.998521 kJ/mol
# Density = 1.936026 g / cm^3
# Si number density = 19.404430 Si / 1000 Ang^3
#
#
#
# Elastic Constant Matrix: (Units=GPa)
#
#
# Indices 1 2 3 4 5 6 
#
# 1 33.6606 23.7208 23.6920 0.0000 0.0000 0.0000
# 2 23.7208 142.8804 79.8577 0.0000 0.0000 0.0000
# 3 23.6920 79.8577 134.4266 0.0000 0.0000 0.0000
# 4 0.0000 0.0000 0.0000 50.2088 0.0000 0.0000
# 5 0.0000 0.0000 0.0000 0.0000 20.5142 0.0000
# 6 0.0000 0.0000 0.0000 0.0000 0.0000 68.9363
#
#
#
# Elastic Compliance Matrix: (Units=1/GPa)
#
#
# Indices 1 2 3 4 5 6 
#
# 1 0.035075 -0.003545 -0.004076 0.000000 0.000000 0.000000
# 2 -0.003545 0.010836 -0.005813 0.000000 0.000000 0.000000
# 3 -0.004076 -0.005813 0.011610 0.000000 0.000000 0.000000
# 4 0.000000 0.000000 0.000000 0.019917 0.000000 0.000000
# 5 0.000000 0.000000 0.000000 0.000000 0.048747 0.000000
# 6 0.000000 0.000000 0.000000 0.000000 0.000000 0.014506
#
#
# Mechanical properties :
#
#
# Convention : Reuss Voigt Hill
#
# Bulk Modulus (GPa) = 32.62124 62.83431 47.72778
# Shear Modulus (GPa) = 28.12516 40.17832 34.15174
#
# Velocity S-wave (km/s) = 3.81125 4.55529 4.19978
# Velocity P-wave (km/s) = 6.01791 7.75366 6.94027
#
# Compressibility (1/GPa) = 0.03065487
#
# Stress axis : x y z
#
# Youngs Moduli (GPa) = 28.51003 92.28403 86.13011
#
# Poissons Ratio (x) = 0.32716 0.35105
# Poissons Ratio (y) = 0.10107 0.50063
# Poissons Ratio (z) = 0.11620 0.53640
#
# Static dielectric constant tensor:
#      x y z
#    x 3.147560 0.000000 0.000000 
#    y 0.000000 3.669480 0.000000 
#    z 0.000000 0.000000 3.873670 
# 
# 
# High freq. dielectric constant tensor:
#      x y z
#    x 1.710090 0.000000 0.000000 
#    y 0.000000 1.768170 0.000000 
#    z 0.000000 0.000000 1.768860 
# 
# From -- ./inp_files/23140.got.cif
#   From: 2010.03.12/outbox.cif.g09.slc.cpg/sg44_12_cif.got.tgz:23140.got - 2010.04.14 02:36:11.
