data_PCOD8188982
_publ_section_title
;
Structure prediction by ZEFSAII (Michael W. Deem and Ramdas Pophale) SiO2 
 PCOD8188982
Probable space group: I M M 2
;
_chemical_formula_sum "Si O2"
_cell_formula_units_Z 64
_cell_length_a 19.418981
_cell_length_b 9.071826
_cell_length_c 20.849820
_cell_angle_alpha 90.000000
_cell_angle_beta 90.000000
_cell_angle_gamma 90.000000
_cell_volume 3673.021399
_symmetry_space_group_name_H-M "I M M 2"
_symmetry_group_IT_number 44
_symmetry_cell_setting 'orthorhombic'
loop_
_space_group_symop_operation_xyz
x,y,z
-x,-y,z
-x,y,z
x,-y,z
1/2+x,1/2+y,1/2+z
1/2-x,1/2-y,1/2+z
1/2-x,1/2+y,1/2+z
1/2+x,1/2-y,1/2+z
loop_
_atom_site_type_symbol
_atom_site_label
_atom_site_fract_x
_atom_site_fract_y
_atom_site_fract_z
Si Si1 0.715063 0.327769 0.307340
Si Si2 0.423654 0.668855 0.249258
Si Si3 0.704994 0.825506 0.682363
Si Si4 0.421816 0.171071 0.117208
Si Si5 0.288134 0.171708 0.933274
Si Si6 0.423032 0.831832 0.862180
Si Si7 0.921663 0.172821 0.230961
Si Si8 0.704204 0.325910 0.061459
O O1 0.730228 0.500000 0.309079
O O2 0.633380 0.292440 0.302845
O O3 0.753698 0.264734 0.244516
O O4 0.744551 0.261970 0.373417
O O5 0.500000 0.691221 0.279000
O O6 0.413303 0.500000 0.225552
O O7 0.411928 0.774338 0.189496
O O8 0.629603 0.751431 0.680908
O O9 0.746199 0.775435 0.619187
O O10 0.696264 0.000000 0.683784
O O11 0.500000 0.198789 0.094233
O O12 0.371846 0.259581 0.070372
O O13 0.402401 0.000000 0.114428
O O14 0.369223 0.198198 0.919158
O O15 0.272217 0.000000 0.945308
O O16 0.265113 0.262694 0.995444
O O17 0.500000 0.801149 0.888712
O O18 0.405468 0.728341 0.802474
O O19 0.415502 0.000000 0.837720
O O20 0.000000 0.212851 0.211512
O O21 0.908674 0.000000 0.228936
O O22 0.698228 0.500000 0.057295
#
# Coordination Sequence:
#
# PCOD8188982 Si02
#       8
#     8   8   8   8   8   8   8   8
#     4   9  16  31  53  77 102 133 175 216 252 299
#     4   9  16  29  52  79 106 136 172 215 258 299
#     4  10  19  35  56  76 100 135 178 216 254 309
#     4  10  20  33  50  75 107 141 176 210 251 307
#     4  10  20  34  51  72 103 139 174 214 257 304
#     4   9  17  31  51  73 100 139 179 207 243 303
#     4  10  20  32  50  80 111 133 163 214 266 306
#     4  11  23  37  53  75 105 138 176 219 260 306
#
# _framework density 17.424347000000001
#
# number of rings (size 3 to 8) (size 9 to 14) (size 15 to 20)
#    0.000    2.250    2.500    1.125    0.000    3.500 
#    0.000    1.875    0.000    0.750    0.000    1.750 
#    0.000    0.000    0.000    0.000    0.000    0.000 
#
# Total GULP energy -396766.775120 kJ/mol
# GULP energy per Si atom -12398.961722 kJ/mol
# Density = 1.738469 g / cm^3
# Si number density = 17.424347 Si / 1000 Ang^3
#
#
#
# Elastic Constant Matrix: (Units=GPa)
#
#
# Indices 1 2 3 4 5 6 
#
# 1 106.1151 37.4528 62.7935 0.0000 0.0000 0.0000
# 2 37.4528 55.7977 40.8791 0.0000 0.0000 0.0000
# 3 62.7935 40.8791 121.2255 0.0000 0.0000 0.0000
# 4 0.0000 0.0000 0.0000 26.8024 0.0000 0.0000
# 5 0.0000 0.0000 0.0000 0.0000 24.0455 0.0000
# 6 0.0000 0.0000 0.0000 0.0000 0.0000 22.4116
#
#
#
# Elastic Compliance Matrix: (Units=1/GPa)
#
#
# Indices 1 2 3 4 5 6 
#
# 1 0.014863 -0.005759 -0.005757 0.000000 0.000000 0.000000
# 2 -0.005759 0.026034 -0.005796 0.000000 0.000000 0.000000
# 3 -0.005757 -0.005796 0.013186 0.000000 0.000000 0.000000
# 4 0.000000 0.000000 0.000000 0.037310 0.000000 0.000000
# 5 0.000000 0.000000 0.000000 0.000000 0.041588 0.000000
# 6 0.000000 0.000000 0.000000 0.000000 0.000000 0.044620
#
#
# Mechanical properties :
#
#
# Convention : Reuss Voigt Hill
#
# Bulk Modulus (GPa) = 51.39029 62.82103 57.10566
# Shear Modulus (GPa) = 22.86144 24.11945 23.49045
#
# Velocity S-wave (km/s) = 3.62614 3.72457 3.67568
# Velocity P-wave (km/s) = 6.86216 7.39111 7.13154
#
# Compressibility (1/GPa) = 0.01945893
#
# Stress axis : x y z
#
# Youngs Moduli (GPa) = 67.28190 38.41195 75.84041
#
# Poissons Ratio (x) = 0.22120 0.43660
# Poissons Ratio (y) = 0.38745 0.43957
# Poissons Ratio (z) = 0.38733 0.22264
#
# Static dielectric constant tensor:
#      x y z
#    x 3.474740 0.000000 0.000000 
#    y 0.000000 3.131630 0.000000 
#    z 0.000000 0.000000 3.075690 
# 
# 
# High freq. dielectric constant tensor:
#      x y z
#    x 1.679520 0.000000 0.000000 
#    y 0.000000 1.661450 0.000000 
#    z 0.000000 0.000000 1.645210 
# 
# From -- ./inp_files/20734.got.cif
#   From: 2010.03.12/outbox.cif.g09.slc.cpg/sg44_11_cif.got.tgz:20734.got - 2010.04.14 02:36:11.
