data_PCOD8188707
_publ_section_title
;
Structure prediction by ZEFSAII (Michael W. Deem and Ramdas Pophale) SiO2 
 PCOD8188707
Probable space group: I M M 2
;
_chemical_formula_sum "Si O2"
_cell_formula_units_Z 40
_cell_length_a 20.945287
_cell_length_b 8.470092
_cell_length_c 12.512481
_cell_angle_alpha 90.000000
_cell_angle_beta 90.000000
_cell_angle_gamma 90.000000
_cell_volume 2219.820584
_symmetry_space_group_name_H-M "I M M 2"
_symmetry_group_IT_number 44
_symmetry_cell_setting 'orthorhombic'
loop_
_space_group_symop_operation_xyz
x,y,z
-x,-y,z
-x,y,z
x,-y,z
1/2+x,1/2+y,1/2+z
1/2-x,1/2-y,1/2+z
1/2-x,1/2+y,1/2+z
1/2+x,1/2-y,1/2+z
loop_
_atom_site_type_symbol
_atom_site_label
_atom_site_fract_x
_atom_site_fract_y
_atom_site_fract_z
Si Si1 0.831481 0.317239 0.311390
Si Si2 0.803999 0.184033 0.092970
Si Si3 0.427411 0.683799 0.971802
Si Si4 0.329040 0.682928 0.150470
Si Si5 0.697673 0.184448 0.368786
O O1 0.813344 0.500000 0.321742
O O2 0.841991 0.272652 0.187424
O O3 0.895746 0.280414 0.375499
O O4 0.773423 0.215782 0.359792
O O5 0.728319 0.213559 0.102821
O O6 0.818343 0.000000 0.100977
O O7 0.829270 0.249681 0.980275
O O8 0.500000 0.741039 0.983825
O O9 0.423084 0.500000 0.943246
O O10 0.392654 0.720502 0.083934
O O11 0.309329 0.500000 0.141847
O O12 0.340792 0.729076 0.273730
O O13 0.684710 0.000000 0.361546
#
# Coordination Sequence:
#
# PCOD8188707 Si02
#       5
#     8   8   8   8   8
#     4  11  21  33  51  77 107 139 177 218 265 317
#     4  11  20  32  52  77 107 138 171 217 270 321
#     4  10  21  37  56  77 107 145 181 218 260 311
#     4  10  19  32  51  76 106 138 176 215 260 317
#     4  11  20  32  51  76 108 139 171 217 269 320
#
# _framework density 18.019473999999999
#
# number of rings (size 3 to 8) (size 9 to 14) (size 15 to 20)
#    0.000    1.400    2.000    8.400    0.000    1.200 
#    0.000    0.000    0.000    1.200    0.000    2.800 
#    0.000    0.000    0.000    0.000    0.000    0.000 
#
# Total GULP energy -248077.654685 kJ/mol
# GULP energy per Si atom -12403.882734 kJ/mol
# Density = 1.797846 g / cm^3
# Si number density = 18.019474 Si / 1000 Ang^3
#
#
#
# Elastic Constant Matrix: (Units=GPa)
#
#
# Indices 1 2 3 4 5 6 
#
# 1 82.8344 19.6554 47.3553 0.0000 0.0000 0.0000
# 2 19.6554 75.7967 25.2142 0.0000 0.0000 0.0000
# 3 47.3553 25.2142 149.5801 0.0000 0.0000 0.0000
# 4 0.0000 0.0000 0.0000 34.2498 0.0000 0.0000
# 5 0.0000 0.0000 0.0000 0.0000 24.7317 0.0000
# 6 0.0000 0.0000 0.0000 0.0000 0.0000 18.0506
#
#
#
# Elastic Compliance Matrix: (Units=1/GPa)
#
#
# Indices 1 2 3 4 5 6 
#
# 1 0.015166 -0.002474 -0.004384 0.000000 0.000000 0.000000
# 2 -0.002474 0.014381 -0.001641 0.000000 0.000000 0.000000
# 3 -0.004384 -0.001641 0.008350 0.000000 0.000000 0.000000
# 4 0.000000 0.000000 0.000000 0.029197 0.000000 0.000000
# 5 0.000000 0.000000 0.000000 0.000000 0.040434 0.000000
# 6 0.000000 0.000000 0.000000 0.000000 0.000000 0.055400
#
#
# Mechanical properties :
#
#
# Convention : Reuss Voigt Hill
#
# Bulk Modulus (GPa) = 47.85197 54.74010 51.29604
# Shear Modulus (GPa) = 26.75341 29.80549 28.27945
#
# Velocity S-wave (km/s) = 3.85735 4.07144 3.96584
# Velocity P-wave (km/s) = 6.81559 7.24889 7.03558
#
# Compressibility (1/GPa) = 0.02089778
#
# Stress axis : x y z
#
# Youngs Moduli (GPa) = 65.93782 69.53802 119.76116
#
# Poissons Ratio (x) = 0.17206 0.52506
# Poissons Ratio (y) = 0.16315 0.19650
# Poissons Ratio (z) = 0.28909 0.11409
#
# Static dielectric constant tensor:
#      x y z
#    x 2.925280 0.000000 0.000000 
#    y 0.000000 3.385120 0.000000 
#    z 0.000000 0.000000 3.704270 
# 
# 
# High freq. dielectric constant tensor:
#      x y z
#    x 1.639200 0.000000 0.000000 
#    y 0.000000 1.712100 0.000000 
#    z 0.000000 0.000000 1.717830 
# 
# From -- ./inp_files/10992.got.cif
#   From: 2010.03.12/outbox.cif.g09.slc.cpg/sg44_6_cif.got.tgz:10992.got - 2010.04.14 02:36:11.
