data_PCOD8188060
_publ_section_title
;
Structure prediction by ZEFSAII (Michael W. Deem and Ramdas Pophale) SiO2 
 PCOD8188060
Probable space group: I M M 2
;
_chemical_formula_sum "Si O2"
_cell_formula_units_Z 64
_cell_length_a 13.589568
_cell_length_b 14.136829
_cell_length_c 21.308170
_cell_angle_alpha 90.000000
_cell_angle_beta 90.000000
_cell_angle_gamma 90.000000
_cell_volume 4093.584965
_symmetry_space_group_name_H-M "I M M 2"
_symmetry_group_IT_number 44
_symmetry_cell_setting 'orthorhombic'
loop_
_space_group_symop_operation_xyz
x,y,z
-x,-y,z
-x,y,z
x,-y,z
1/2+x,1/2+y,1/2+z
1/2-x,1/2-y,1/2+z
1/2-x,1/2+y,1/2+z
1/2+x,1/2-y,1/2+z
loop_
_atom_site_type_symbol
_atom_site_label
_atom_site_fract_x
_atom_site_fract_y
_atom_site_fract_z
Si Si1 0.107081 0.889278 0.294670
Si Si2 0.113336 0.394718 0.600516
Si Si3 0.614956 0.709200 0.036975
Si Si4 0.388618 0.609246 0.158947
Si Si5 0.714852 0.388833 0.921292
Si Si6 0.699118 0.888075 0.232039
Si Si7 0.883047 0.895795 0.796699
Si Si8 0.887106 0.297345 0.849983
O O1 0.138303 0.867587 0.365897
O O2 0.190232 0.850371 0.247163
O O3 0.000000 0.841666 0.281781
O O4 0.097383 0.000000 0.284605
O O5 0.147053 0.500000 0.579444
O O6 0.129871 0.322865 0.542617
O O7 0.173585 0.359342 0.661303
O O8 0.000000 0.395412 0.621209
O O9 0.500000 0.682375 0.026705
O O10 0.659809 0.666393 0.101520
O O11 0.679530 0.669533 0.980907
O O12 0.500000 0.645696 0.162743
O O13 0.382775 0.500000 0.141029
O O14 0.338249 0.627291 0.227105
O O15 0.721060 0.500000 0.936963
O O16 0.822394 0.351559 0.901451
O O17 0.623070 0.842221 0.280868
O O18 0.692048 0.000000 0.242366
O O19 0.853156 0.813448 0.845430
O O20 0.000000 0.899702 0.788907
O O21 0.845577 0.000000 0.819526
O O22 0.000000 0.305219 0.871633
#
# Coordination Sequence:
#
# PCOD8188060 Si02
#       8
#     8   8   8   8   8   8   8   8
#     4   8  14  25  40  59  85 113 137 165 203 244
#     4   9  17  28  42  62  87 112 139 173 212 255
#     4  10  18  28  43  60  81 112 143 172 212 255
#     4   8  13  21  36  60  85 105 126 156 199 249
#     4  10  20  30  41  61  85 109 141 177 211 253
#     4   9  16  25  41  66  91 113 138 170 211 260
#     4   8  14  25  41  62  86 108 132 165 205 248
#     4  10  18  28  43  62  86 115 143 171 208 257
#
# _framework density 15.634218000000001
#
# number of rings (size 3 to 8) (size 9 to 14) (size 15 to 20)
#    0.000    3.000    0.000    3.750    0.000    4.750 
#    0.000    0.625    0.000    0.750    0.000    0.000 
#    0.000    4.500    0.000    0.000    0.000    0.000 
#
# Total GULP energy -396511.925147 kJ/mol
# GULP energy per Si atom -12390.997661 kJ/mol
# Density = 1.559863 g / cm^3
# Si number density = 15.634218 Si / 1000 Ang^3
#
#
#
# Elastic Constant Matrix: (Units=GPa)
#
#
# Indices 1 2 3 4 5 6 
#
# 1 67.7200 30.0769 34.7302 0.0000 0.0000 0.0000
# 2 30.0769 71.1232 47.7788 0.0000 0.0000 0.0000
# 3 34.7302 47.7788 64.4211 0.0000 0.0000 0.0000
# 4 0.0000 0.0000 0.0000 24.9552 0.0000 0.0000
# 5 0.0000 0.0000 0.0000 0.0000 18.0503 0.0000
# 6 0.0000 0.0000 0.0000 0.0000 0.0000 14.4079
#
#
#
# Elastic Compliance Matrix: (Units=1/GPa)
#
#
# Indices 1 2 3 4 5 6 
#
# 1 0.020630 -0.002496 -0.009270 0.000000 0.000000 0.000000
# 2 -0.002496 0.028323 -0.019660 0.000000 0.000000 0.000000
# 3 -0.009270 -0.019660 0.035102 0.000000 0.000000 0.000000
# 4 0.000000 0.000000 0.000000 0.040072 0.000000 0.000000
# 5 0.000000 0.000000 0.000000 0.000000 0.055401 0.000000
# 6 0.000000 0.000000 0.000000 0.000000 0.000000 0.069406
#
#
# Mechanical properties :
#
#
# Convention : Reuss Voigt Hill
#
# Bulk Modulus (GPa) = 47.16827 47.60403 47.38615
# Shear Modulus (GPa) = 15.68112 17.52791 16.60451
#
# Velocity S-wave (km/s) = 3.17045 3.35195 3.26247
# Velocity P-wave (km/s) = 6.60589 6.74504 6.67582
#
# Compressibility (1/GPa) = 0.02120069
#
# Stress axis : x y z
#
# Youngs Moduli (GPa) = 48.47384 35.30672 28.48842
#
# Poissons Ratio (x) = 0.08814 0.26409
# Poissons Ratio (y) = 0.12101 0.56009
# Poissons Ratio (z) = 0.44936 0.69415
#
# Static dielectric constant tensor:
#      x y z
#    x 2.910090 0.000000 0.000000 
#    y 0.000000 3.186240 0.000000 
#    z 0.000000 0.000000 2.798630 
# 
# 
# High freq. dielectric constant tensor:
#      x y z
#    x 1.561290 0.000000 0.000000 
#    y 0.000000 1.604750 0.000000 
#    z 0.000000 0.000000 1.575360 
# 
# From -- ./inp_files/21962.got.cif
#   From: 2010.03.12/outbox.cif.g09.slc.cpg/sg44_11_cif.got.tgz:21962.got - 2010.04.14 02:36:11.
