data_PCOD8188590
_publ_section_title
;
Structure prediction by ZEFSAII (Michael W. Deem and Ramdas Pophale) SiO2 
 PCOD8188590
Probable space group: I M M 2
;
_chemical_formula_sum "Si O2"
_cell_formula_units_Z 56
_cell_length_a 8.851645
_cell_length_b 23.959368
_cell_length_c 13.864611
_cell_angle_alpha 90.000000
_cell_angle_beta 90.000000
_cell_angle_gamma 90.000000
_cell_volume 2940.404205
_symmetry_space_group_name_H-M "I M M 2"
_symmetry_group_IT_number 44
_symmetry_cell_setting 'orthorhombic'
loop_
_space_group_symop_operation_xyz
x,y,z
-x,-y,z
-x,y,z
x,-y,z
1/2+x,1/2+y,1/2+z
1/2-x,1/2-y,1/2+z
1/2-x,1/2+y,1/2+z
1/2+x,1/2-y,1/2+z
loop_
_atom_site_type_symbol
_atom_site_label
_atom_site_fract_x
_atom_site_fract_y
_atom_site_fract_z
Si Si1 0.177260 0.275531 0.758790
Si Si2 0.172766 0.064708 0.538582
Si Si3 0.825492 0.936116 0.178981
Si Si4 0.320301 0.561447 0.255301
Si Si5 0.176745 0.387362 0.859118
Si Si6 0.180296 0.831622 0.867611
Si Si7 0.179379 0.337502 0.572158
O O1 0.220788 0.323653 0.834971
O O2 0.243162 0.216608 0.795923
O O3 0.236968 0.292802 0.652516
O O4 0.000000 0.269348 0.751576
O O5 0.233844 0.075014 0.646768
O O6 0.276423 0.101168 0.468586
O O7 0.000000 0.084737 0.528421
O O8 0.187050 0.000000 0.510968
O O9 0.765388 0.928583 0.287611
O O10 0.732719 0.899059 0.103127
O O11 0.000000 0.918342 0.175212
O O12 0.804121 0.000000 0.147519
O O13 0.500000 0.560430 0.254644
O O14 0.260180 0.500000 0.287518
O O15 0.259782 0.608858 0.327747
O O16 0.000000 0.398101 0.844459
O O17 0.000000 0.830687 0.874565
O O18 0.247713 0.819836 0.971969
O O19 0.000000 0.338000 0.563223
#
# Coordination Sequence:
#
# PCOD8188590 Si02
#       7
#     8   8   8   8   8   8   8
#     4   8  18  35  51  70 100 136 169 204 250 306
#     4   9  17  30  48  72 102 134 171 214 257 307
#     4  10  20  34  53  77 104 138 181 220 255 307
#     4   8  16  31  51  75 100 127 165 213 257 299
#     4  10  19  31  48  73 107 141 173 215 266 312
#     4  10  19  35  58  77  98 134 175 213 257 310
#     4  10  21  37  54  77 109 137 168 215 268 317
#
# _framework density 19.045000999999999
#
# number of rings (size 3 to 8) (size 9 to 14) (size 15 to 20)
#    0.000    2.714    0.000    3.429    0.000    4.857 
#    0.000    7.857    0.000    0.857    0.000    0.000 
#    0.000    0.000    0.000    0.000    0.000    0.000 
#
# Total GULP energy -347135.012330 kJ/mol
# GULP energy per Si atom -12397.679012 kJ/mol
# Density = 1.900165 g / cm^3
# Si number density = 19.045001 Si / 1000 Ang^3
#
#
#
# Elastic Constant Matrix: (Units=GPa)
#
#
# Indices 1 2 3 4 5 6 
#
# 1 43.7632 32.9751 29.0253 0.0001 0.0000 0.0000
# 2 32.9751 128.8921 79.7978 -0.0001 0.0000 0.0000
# 3 29.0253 79.7978 135.4684 -0.0001 0.0000 0.0000
# 4 0.0001 -0.0001 -0.0001 26.6149 0.0000 0.0000
# 5 0.0000 0.0000 0.0000 0.0000 28.0425 0.0000
# 6 0.0000 0.0000 0.0000 0.0000 0.0000 19.1329
#
#
#
# Elastic Compliance Matrix: (Units=1/GPa)
#
#
# Indices 1 2 3 4 5 6 
#
# 1 0.029014 -0.005626 -0.002903 0.000000 0.000000 0.000000
# 2 -0.005626 0.013303 -0.006631 0.000000 0.000000 0.000000
# 3 -0.002903 -0.006631 0.011910 0.000000 0.000000 0.000000
# 4 0.000000 0.000000 0.000000 0.037573 0.000000 0.000000
# 5 0.000000 0.000000 0.000000 0.000000 0.035660 0.000000
# 6 0.000000 0.000000 0.000000 0.000000 0.000000 0.052266
#
#
# Mechanical properties :
#
#
# Convention : Reuss Voigt Hill
#
# Bulk Modulus (GPa) = 41.82634 65.74667 53.78651
# Shear Modulus (GPa) = 22.93434 25.84641 24.39038
#
# Velocity S-wave (km/s) = 3.47395 3.68791 3.58253
# Velocity P-wave (km/s) = 6.17257 7.26161 6.73912
#
# Compressibility (1/GPa) = 0.02390838
#
# Stress axis : x y z
#
# Youngs Moduli (GPa) = 34.46565 75.17220 83.96650
#
# Poissons Ratio (x) = 0.42291 0.24373
# Poissons Ratio (y) = 0.19390 0.55675
# Poissons Ratio (z) = 0.10004 0.49844
#
# Static dielectric constant tensor:
#      x y z
#    x 3.197060 0.000000 0.000000 
#    y 0.000000 3.723370 0.000000 
#    z 0.000000 0.000000 3.540020 
# 
# 
# High freq. dielectric constant tensor:
#      x y z
#    x 1.712190 0.000000 0.000000 
#    y 0.000000 1.740480 0.000000 
#    z 0.000000 0.000000 1.740870 
# 
# From -- ./inp_files/16502.got.cif
#   From: 2010.03.12/outbox.cif.g09.slc.cpg/sg44_9_cif.got.tgz:16502.got - 2010.04.14 02:36:11.
