data_PCOD8188343
_publ_section_title
;
Structure prediction by ZEFSAII (Michael W. Deem and Ramdas Pophale) SiO2 
 PCOD8188343
Probable space group: I M M 2
;
_chemical_formula_sum "Si O2"
_cell_formula_units_Z 64
_cell_length_a 14.667577
_cell_length_b 19.475569
_cell_length_c 11.347669
_cell_angle_alpha 90.000000
_cell_angle_beta 90.000000
_cell_angle_gamma 90.000000
_cell_volume 3241.568408
_symmetry_space_group_name_H-M "I M M 2"
_symmetry_group_IT_number 44
_symmetry_cell_setting 'orthorhombic'
loop_
_space_group_symop_operation_xyz
x,y,z
-x,-y,z
-x,y,z
x,-y,z
1/2+x,1/2+y,1/2+z
1/2-x,1/2-y,1/2+z
1/2-x,1/2+y,1/2+z
1/2+x,1/2-y,1/2+z
loop_
_atom_site_type_symbol
_atom_site_label
_atom_site_fract_x
_atom_site_fract_y
_atom_site_fract_z
Si Si1 0.106679 0.580346 0.159880
Si Si2 0.650240 0.423595 0.779693
Si Si3 0.105703 0.786407 0.658542
Si Si4 0.157525 0.577712 0.903624
Si Si5 0.231942 0.670032 0.321979
Si Si6 0.740744 0.424163 0.537950
Si Si7 0.900574 0.631003 0.671573
Si Si8 0.099985 0.791100 0.394568
O O1 0.127392 0.500000 0.174946
O O2 0.160002 0.619865 0.261412
O O3 0.000000 0.596530 0.171519
O O4 0.143654 0.608424 0.034229
O O5 0.607355 0.500000 0.800084
O O6 0.739318 0.416775 0.860760
O O7 0.666595 0.413085 0.640440
O O8 0.587624 0.360552 0.818492
O O9 0.176018 0.822570 0.746581
O O10 0.134870 0.707378 0.649244
O O11 0.120008 0.816093 0.527730
O O12 0.000000 0.795668 0.701648
O O13 0.121732 0.500000 0.905347
O O14 0.095526 0.619193 0.811969
O O15 0.267015 0.635508 0.442218
O O16 0.180711 0.742159 0.346578
O O17 0.729361 0.500000 0.480787
O O18 0.838166 0.422902 0.603294
O O19 0.000000 0.621761 0.616548
O O20 0.000000 0.754020 0.389741
#
# Coordination Sequence:
#
# PCOD8188343 Si02
#       8
#     8   8   8   8   8   8   8   8
#     4  10  21  35  52  82 122 160 199 243 295 361
#     4   9  19  38  61  84 112 148 200 253 299 346
#     4  10  23  41  60  85 117 154 202 252 297 354
#     4   9  17  31  53  80 111 151 198 246 294 345
#     4  12  22  37  62  83 121 164 195 239 301 362
#     4  10  21  36  57  87 117 154 198 236 291 363
#     4  10  18  33  54  81 114 149 192 247 301 348
#     4  11  23  39  61  90 120 152 199 251 301 356
#
# _framework density 19.743528000000001
#
# number of rings (size 3 to 8) (size 9 to 14) (size 15 to 20)
#    0.000    1.875    1.250    4.500    0.000    2.250 
#    0.000    1.250    0.000    3.750    0.000    0.000 
#    0.000    0.000    0.000    0.000    0.000    0.000 
#
# Total GULP energy -396653.294206 kJ/mol
# GULP energy per Si atom -12395.415444 kJ/mol
# Density = 1.969859 g / cm^3
# Si number density = 19.743528 Si / 1000 Ang^3
#
#
#
# Elastic Constant Matrix: (Units=GPa)
#
#
# Indices 1 2 3 4 5 6 
#
# 1 83.1165 29.2964 38.9579 0.0000 0.0000 0.0000
# 2 29.2964 85.4864 42.4609 0.0000 0.0000 0.0000
# 3 38.9579 42.4609 105.4943 0.0000 0.0000 0.0000
# 4 0.0000 0.0000 0.0000 34.9612 0.0000 0.0000
# 5 0.0000 0.0000 0.0000 0.0000 21.0990 0.0000
# 6 0.0000 0.0000 0.0000 0.0000 0.0000 25.5531
#
#
#
# Elastic Compliance Matrix: (Units=1/GPa)
#
#
# Indices 1 2 3 4 5 6 
#
# 1 0.015147 -0.003015 -0.004380 0.000000 0.000000 0.000000
# 2 -0.003015 0.015221 -0.005013 0.000000 0.000000 0.000000
# 3 -0.004380 -0.005013 0.013114 0.000000 0.000000 0.000000
# 4 0.000000 0.000000 0.000000 0.028603 0.000000 0.000000
# 5 0.000000 0.000000 0.000000 0.000000 0.047396 0.000000
# 6 0.000000 0.000000 0.000000 0.000000 0.000000 0.039134
#
#
# Mechanical properties :
#
#
# Convention : Reuss Voigt Hill
#
# Bulk Modulus (GPa) = 53.57334 55.05862 54.31598
# Shear Modulus (GPa) = 26.36384 27.21481 26.78932
#
# Velocity S-wave (km/s) = 3.65816 3.71673 3.68756
# Velocity P-wave (km/s) = 6.71092 6.80928 6.76028
#
# Compressibility (1/GPa) = 0.01866600
#
# Stress axis : x y z
#
# Youngs Moduli (GPa) = 66.01911 65.69862 76.25275
#
# Poissons Ratio (x) = 0.19811 0.33398
# Poissons Ratio (y) = 0.19908 0.38224
# Poissons Ratio (z) = 0.28916 0.32933
#
# Static dielectric constant tensor:
#      x y z
#    x 3.402560 0.000000 0.000000 
#    y 0.000000 3.550100 0.000000 
#    z 0.000000 0.000000 3.677730 
# 
# 
# High freq. dielectric constant tensor:
#      x y z
#    x 1.759150 0.000000 0.000000 
#    y 0.000000 1.763620 0.000000 
#    z 0.000000 0.000000 1.771240 
# 
# From -- ./inp_files/13458.got.cif
#   From: 2010.03.12/outbox.cif.g09.slc.cpg/sg44_7_cif.got.tgz:13458.got - 2010.04.14 02:36:11.
