data_PCOD8188675
_publ_section_title
;
Structure prediction by ZEFSAII (Michael W. Deem and Ramdas Pophale) SiO2 
 PCOD8188675
Probable space group: I M M 2
;
_chemical_formula_sum "Si O2"
_cell_formula_units_Z 40
_cell_length_a 8.981678
_cell_length_b 10.391458
_cell_length_c 23.163834
_cell_angle_alpha 90.000000
_cell_angle_beta 90.000000
_cell_angle_gamma 90.000000
_cell_volume 2161.943858
_symmetry_space_group_name_H-M "I M M 2"
_symmetry_group_IT_number 44
_symmetry_cell_setting 'orthorhombic'
loop_
_space_group_symop_operation_xyz
x,y,z
-x,-y,z
-x,y,z
x,-y,z
1/2+x,1/2+y,1/2+z
1/2-x,1/2-y,1/2+z
1/2-x,1/2+y,1/2+z
1/2+x,1/2-y,1/2+z
loop_
_atom_site_type_symbol
_atom_site_label
_atom_site_fract_x
_atom_site_fract_y
_atom_site_fract_z
Si Si1 0.323124 0.760930 0.326260
Si Si2 0.822208 0.500000 0.620504
Si Si3 0.676961 0.500000 0.267984
Si Si4 0.676884 0.000000 0.250972
Si Si5 0.177847 0.000000 0.638280
Si Si6 0.675851 0.351492 0.940152
Si Si7 0.322950 0.738416 0.064545
O O1 0.500000 0.764957 0.331109
O O2 0.264877 0.626225 0.300856
O O3 0.255492 0.775167 0.389385
O O4 0.264467 0.874108 0.284401
O O5 0.759803 0.500000 0.685906
O O6 0.760863 0.374761 0.587111
O O7 0.000000 0.500000 0.621430
O O8 0.500000 0.500000 0.265457
O O9 0.741088 0.500000 0.203142
O O10 0.500000 0.000000 0.248990
O O11 0.239359 0.126230 0.605900
O O12 0.000000 0.000000 0.637966
O O13 0.500000 0.338857 0.932801
O O14 0.725437 0.500000 0.939730
O O15 0.731466 0.286441 0.999441
O O16 0.500000 0.736489 0.066653
#
# Coordination Sequence:
#
# PCOD8188675 Si02
#       7
#     8   4   4   4   4   8   8
#     4  10  19  32  49  72  98 126 158 193 232 278
#     4   9  16  25  40  67  97 119 144 191 244 276
#     4   9  18  29  45  71 101 125 152 193 240 282
#     4   9  16  27  45  69  97 123 154 193 232 278
#     4   9  14  25  44  65  91 123 150 183 234 282
#     4  10  19  32  49  70  95 125 162 198 231 277
#     4   9  16  26  42  65  93 121 151 189 234 279
#
# _framework density 18.501868000000002
#
# number of rings (size 3 to 8) (size 9 to 14) (size 15 to 20)
#    0.000    2.600    2.000    1.200    0.000    5.600 
#    0.000    1.500    0.000    0.000    0.000    8.400 
#    0.000    0.000    0.000    0.000    0.000    0.000 
#
# Total GULP energy -247991.583575 kJ/mol
# GULP energy per Si atom -12399.579179 kJ/mol
# Density = 1.845976 g / cm^3
# Si number density = 18.501868 Si / 1000 Ang^3
#
#
#
# Elastic Constant Matrix: (Units=GPa)
#
#
# Indices 1 2 3 4 5 6 
#
# 1 7.5581 14.4614 18.6464 0.0000 0.0000 0.0000
# 2 14.4614 195.4969 113.0227 0.0000 0.0000 0.0000
# 3 18.6464 113.0227 205.0671 0.0000 0.0000 0.0000
# 4 0.0000 0.0000 0.0000 33.2181 0.0000 0.0000
# 5 0.0000 0.0000 0.0000 0.0000 24.2761 0.0000
# 6 0.0000 0.0000 0.0000 0.0000 0.0000 9.1173
#
#
#
# Elastic Compliance Matrix: (Units=1/GPa)
#
#
# Indices 1 2 3 4 5 6 
#
# 1 0.174484 -0.005481 -0.012845 0.000000 0.000000 0.000000
# 2 -0.005481 0.007679 -0.003734 0.000000 0.000000 0.000000
# 3 -0.012845 -0.003734 0.008102 0.000000 0.000000 0.000000
# 4 0.000000 0.000000 0.000000 0.030104 0.000000 0.000000
# 5 0.000000 0.000000 0.000000 0.000000 0.041193 0.000000
# 6 0.000000 0.000000 0.000000 0.000000 0.000000 0.109681
#
#
# Mechanical properties :
#
#
# Convention : Reuss Voigt Hill
#
# Bulk Modulus (GPa) = 6.84246 77.82032 42.33139
# Shear Modulus (GPa) = 10.77403 30.78842 20.78122
#
# Velocity S-wave (km/s) = 2.41575 4.08373 3.35505
# Velocity P-wave (km/s) = 3.38931 8.02421 6.15935
#
# Compressibility (1/GPa) = 0.14614619
#
# Stress axis : x y z
#
# Youngs Moduli (GPa) = 5.73118 130.21791 123.41950
#
# Poissons Ratio (x) = 0.71375 1.58527
# Poissons Ratio (y) = 0.03141 0.46086
# Poissons Ratio (z) = 0.07361 0.48625
#
# Static dielectric constant tensor:
#      x y z
#    x 2.677720 0.000000 0.000000 
#    y 0.000000 3.671380 0.000000 
#    z 0.000000 0.000000 3.594170 
# 
# 
# High freq. dielectric constant tensor:
#      x y z
#    x 1.640730 0.000000 0.000000 
#    y 0.000000 1.731360 0.000000 
#    z 0.000000 0.000000 1.736040 
# 
# From -- ./inp_files/22844.got.cif
#   From: 2010.03.12/outbox.cif.g09.slc.cpg/sg44_12_cif.got.tgz:22844.got - 2010.04.14 02:36:11.
