data_PCOD8188137
_publ_section_title
;
Structure prediction by ZEFSAII (Michael W. Deem and Ramdas Pophale) SiO2 
 PCOD8188137
Probable space group: I M M 2
;
_chemical_formula_sum "Si O2"
_cell_formula_units_Z 64
_cell_length_a 14.567566
_cell_length_b 9.163812
_cell_length_c 28.467199
_cell_angle_alpha 90.000000
_cell_angle_beta 90.000000
_cell_angle_gamma 90.000000
_cell_volume 3800.212678
_symmetry_space_group_name_H-M "I M M 2"
_symmetry_group_IT_number 44
_symmetry_cell_setting 'orthorhombic'
loop_
_space_group_symop_operation_xyz
x,y,z
-x,-y,z
-x,y,z
x,-y,z
1/2+x,1/2+y,1/2+z
1/2-x,1/2-y,1/2+z
1/2-x,1/2+y,1/2+z
1/2+x,1/2-y,1/2+z
loop_
_atom_site_type_symbol
_atom_site_label
_atom_site_fract_x
_atom_site_fract_y
_atom_site_fract_z
Si Si1 0.605497 0.330037 0.523870
Si Si2 0.897145 0.830520 0.294558
Si Si3 0.716220 0.828606 0.341137
Si Si4 0.106807 0.668579 0.199380
Si Si5 0.290581 0.327871 0.616024
Si Si6 0.895262 0.331851 0.755178
Si Si7 0.599963 0.827329 0.151630
Si Si8 0.394414 0.171582 0.429508
O O1 0.500000 0.294900 0.536232
O O2 0.620791 0.500000 0.514634
O O3 0.667385 0.273496 0.566980
O O4 0.637715 0.245771 0.477645
O O5 0.825508 0.795967 0.336849
O O6 0.867506 0.739583 0.249106
O O7 0.000000 0.788550 0.311611
O O8 0.891683 0.000000 0.280429
O O9 0.667359 0.757275 0.295316
O O10 0.671954 0.763889 0.388726
O O11 0.695240 0.000000 0.342150
O O12 0.134957 0.500000 0.200999
O O13 0.161408 0.747803 0.158660
O O14 0.000000 0.689857 0.188630
O O15 0.306326 0.500000 0.622585
O O16 0.182100 0.285684 0.616199
O O17 0.866846 0.500000 0.751955
O O18 0.878988 0.260892 0.703631
O O19 0.000000 0.312771 0.771071
O O20 0.500000 0.769039 0.133532
O O21 0.593076 0.000000 0.157267
O O22 0.500000 0.211664 0.417489
O O23 0.382289 0.000000 0.436066
#
# Coordination Sequence:
#
# PCOD8188137 Si02
#       8
#     8   8   8   8   8   8   8   8
#     4   9  18  31  45  63  88 115 143 179 224 271
#     4   9  17  29  45  64  87 117 151 183 214 253
#     4   9  15  24  41  64  86 108 139 178 213 247
#     4  10  20  31  43  64  95 125 151 183 224 268
#     4  10  18  29  48  69  88 116 154 190 224 266
#     4   8  12  18  31  55  86 111 129 158 204 250
#     4   8  14  24  40  65  92 114 140 178 219 254
#     4   9  17  29  46  67  88 110 139 178 224 270
#
# _framework density 16.841163999999999
#
# number of rings (size 3 to 8) (size 9 to 14) (size 15 to 20)
#    0.000    3.000    0.000    2.625    0.000    5.250 
#    0.000    1.875    0.000    1.125    0.000    0.000 
#    0.000    0.000    0.000    0.000    0.000    0.000 
#
# Total GULP energy -396590.645779 kJ/mol
# GULP energy per Si atom -12393.457681 kJ/mol
# Density = 1.680283 g / cm^3
# Si number density = 16.841164 Si / 1000 Ang^3
#
#
#
# Elastic Constant Matrix: (Units=GPa)
#
#
# Indices 1 2 3 4 5 6 
#
# 1 112.5491 26.5894 89.4100 0.0000 0.0000 0.0000
# 2 26.5894 28.4151 27.0095 0.0000 0.0000 0.0000
# 3 89.4100 27.0095 117.8142 0.0000 0.0000 0.0000
# 4 0.0000 0.0000 0.0000 20.8465 0.0000 0.0000
# 5 0.0000 0.0000 0.0000 0.0000 31.5554 0.0000
# 6 0.0000 0.0000 0.0000 0.0000 0.0000 10.4005
#
#
#
# Elastic Compliance Matrix: (Units=1/GPa)
#
#
# Indices 1 2 3 4 5 6 
#
# 1 0.023242 -0.006371 -0.016178 0.000000 0.000000 0.000000
# 2 -0.006371 0.046745 -0.005881 0.000000 0.000000 0.000000
# 3 -0.016178 -0.005881 0.022114 0.000000 0.000000 0.000000
# 4 0.000000 0.000000 0.000000 0.047970 0.000000 0.000000
# 5 0.000000 0.000000 0.000000 0.000000 0.031690 0.000000
# 6 0.000000 0.000000 0.000000 0.000000 0.000000 0.096149
#
#
# Mechanical properties :
#
#
# Convention : Reuss Voigt Hill
#
# Bulk Modulus (GPa) = 28.37706 60.53291 44.45499
# Shear Modulus (GPa) = 14.85808 20.27845 17.56826
#
# Velocity S-wave (km/s) = 2.97349 3.47378 3.23332
# Velocity P-wave (km/s) = 5.35493 7.21879 6.35556
#
# Compressibility (1/GPa) = 0.03523973
#
# Stress axis : x y z
#
# Youngs Moduli (GPa) = 43.02545 21.39282 45.22052
#
# Poissons Ratio (x) = 0.13629 0.73158
# Poissons Ratio (y) = 0.27412 0.26596
# Poissons Ratio (z) = 0.69606 0.12582
#
# Static dielectric constant tensor:
#      x y z
#    x 3.450490 0.000000 0.000000 
#    y 0.000000 2.800900 0.000000 
#    z 0.000000 0.000000 3.182920 
# 
# 
# High freq. dielectric constant tensor:
#      x y z
#    x 1.654900 0.000000 0.000000 
#    y 0.000000 1.605390 0.000000 
#    z 0.000000 0.000000 1.632550 
# 
# From -- ./inp_files/27506.got.cif
#   From: 2010.03.12/outbox.cif.g09.slc.cpg/sg44_14_cif.got.tgz:27506.got - 2010.04.14 02:36:11.
