data_PCOD8188997
_publ_section_title
;
Structure prediction by ZEFSAII (Michael W. Deem and Ramdas Pophale) SiO2 
 PCOD8188997
Probable space group: I M M 2
;
_chemical_formula_sum "Si O2"
_cell_formula_units_Z 64
_cell_length_a 8.526629
_cell_length_b 24.911320
_cell_length_c 15.162098
_cell_angle_alpha 90.000000
_cell_angle_beta 90.000000
_cell_angle_gamma 90.000000
_cell_volume 3220.574922
_symmetry_space_group_name_H-M "I M M 2"
_symmetry_group_IT_number 44
_symmetry_cell_setting 'orthorhombic'
loop_
_space_group_symop_operation_xyz
x,y,z
-x,-y,z
-x,y,z
x,-y,z
1/2+x,1/2+y,1/2+z
1/2-x,1/2-y,1/2+z
1/2-x,1/2+y,1/2+z
1/2+x,1/2-y,1/2+z
loop_
_atom_site_type_symbol
_atom_site_label
_atom_site_fract_x
_atom_site_fract_y
_atom_site_fract_z
Si Si1 0.678679 0.758330 0.590930
Si Si2 0.314092 0.939877 0.642317
Si Si3 0.320461 0.225282 0.792369
Si Si4 0.180092 0.438285 0.482979
Si Si5 0.682198 0.161202 0.303632
Si Si6 0.315201 0.359027 0.620187
Si Si7 0.314260 0.859800 0.495899
Si Si8 0.182514 0.886056 0.815884
O O1 0.500000 0.749454 0.563796
O O2 0.692563 0.783361 0.687959
O O3 0.754471 0.698716 0.587354
O O4 0.758814 0.801883 0.525887
O O5 0.500000 0.942199 0.638360
O O6 0.246833 0.907279 0.557674
O O7 0.267658 0.911524 0.732529
O O8 0.243400 0.000000 0.639058
O O9 0.500000 0.233590 0.821770
O O10 0.220343 0.276569 0.821667
O O11 0.249534 0.172779 0.838665
O O12 0.210161 0.500000 0.506285
O O13 0.224211 0.405493 0.570169
O O14 0.288722 0.422566 0.401094
O O15 0.000000 0.427532 0.457348
O O16 0.500000 0.155086 0.280201
O O17 0.784259 0.136075 0.224962
O O18 0.725682 0.129140 0.393598
O O19 0.500000 0.364243 0.603574
O O20 0.500000 0.855842 0.510684
O O21 0.000000 0.882318 0.795397
#
# Coordination Sequence:
#
# PCOD8188997 Si02
#       8
#     8   8   8   8   8   8   8   8
#     4   8  15  30  54  81 112 150 188 231 284 338
#     4  10  20  37  61  85 113 155 203 245 287 340
#     4  10  19  35  57  82 117 157 198 242 291 347
#     4  11  25  44  64  86 113 149 197 250 300 355
#     4  10  20  34  57  87 122 159 199 246 298 353
#     4  10  21  38  61  86 117 156 196 244 300 355
#     4   9  17  32  55  84 118 155 196 242 287 338
#     4  12  24  37  57  87 121 156 192 234 296 367
#
# _framework density 19.872226999999999
#
# number of rings (size 3 to 8) (size 9 to 14) (size 15 to 20)
#    0.000    2.000    1.250    3.750    1.750    2.750 
#    0.000    1.875    0.000    2.250    0.000    0.000 
#    0.000    0.000    0.000    0.000    0.000    0.000 
#
# Total GULP energy -396767.503204 kJ/mol
# GULP energy per Si atom -12398.984475 kJ/mol
# Density = 1.982700 g / cm^3
# Si number density = 19.872227 Si / 1000 Ang^3
#
#
#
# Elastic Constant Matrix: (Units=GPa)
#
#
# Indices 1 2 3 4 5 6 
#
# 1 31.0377 14.1267 1.0340 0.0000 0.0000 0.0000
# 2 14.1267 111.0168 53.5733 0.0001 0.0000 0.0000
# 3 1.0340 53.5733 98.4825 0.0005 0.0003 0.0000
# 4 0.0000 0.0001 0.0005 31.3700 0.0002 0.0000
# 5 0.0000 0.0000 0.0003 0.0002 22.8217 0.0000
# 6 0.0000 0.0000 0.0000 0.0000 0.0000 23.6756
#
#
#
# Elastic Compliance Matrix: (Units=1/GPa)
#
#
# Indices 1 2 3 4 5 6 
#
# 1 0.034747 -0.005757 0.002767 0.000000 0.000000 0.000000
# 2 -0.005757 0.013168 -0.007103 0.000000 0.000000 0.000000
# 3 0.002767 -0.007103 0.013989 0.000000 0.000000 0.000000
# 4 0.000000 0.000000 0.000000 0.031878 0.000000 0.000000
# 5 0.000000 0.000000 0.000000 0.000000 0.043818 0.000000
# 6 0.000000 0.000000 0.000000 0.000000 0.000000 0.042238
#
#
# Mechanical properties :
#
#
# Convention : Reuss Voigt Hill
#
# Bulk Modulus (GPa) = 23.97031 42.00055 32.98543
# Shear Modulus (GPa) = 23.37240 27.02699 25.19970
#
# Velocity S-wave (km/s) = 3.43320 3.69187 3.56488
# Velocity P-wave (km/s) = 5.27297 6.27331 5.79477
#
# Compressibility (1/GPa) = 0.04171827
#
# Stress axis : x y z
#
# Youngs Moduli (GPa) = 28.77960 75.94354 71.48579
#
# Poissons Ratio (x) = 0.43718 -0.19778
# Poissons Ratio (y) = 0.16567 0.50774
# Poissons Ratio (z) = -0.07963 0.53940
#
# Static dielectric constant tensor:
#      x y z
#    x 3.376640 0.000000 0.000000 
#    y 0.000000 3.780660 0.000000 
#    z 0.000000 0.000000 3.582740 
# 
# 
# High freq. dielectric constant tensor:
#      x y z
#    x 1.752610 0.000000 0.000000 
#    y 0.000000 1.770940 0.000000 
#    z 0.000000 0.000000 1.775570 
# 
# From -- ./inp_files/16795.got.cif
#   From: 2010.03.12/outbox.cif.g09.slc.cpg/sg44_9_cif.got.tgz:16795.got - 2010.04.14 02:36:11.
