data_PCOD8188764
_publ_section_title
;
Structure prediction by ZEFSAII (Michael W. Deem and Ramdas Pophale) SiO2 
 PCOD8188764
Probable space group: I M M 2
;
_chemical_formula_sum "Si O2"
_cell_formula_units_Z 64
_cell_length_a 8.841764
_cell_length_b 24.812182
_cell_length_c 15.219654
_cell_angle_alpha 90.000000
_cell_angle_beta 90.000000
_cell_angle_gamma 90.000000
_cell_volume 3338.940318
_symmetry_space_group_name_H-M "I M M 2"
_symmetry_group_IT_number 44
_symmetry_cell_setting 'orthorhombic'
loop_
_space_group_symop_operation_xyz
x,y,z
-x,-y,z
-x,y,z
x,-y,z
1/2+x,1/2+y,1/2+z
1/2-x,1/2-y,1/2+z
1/2-x,1/2+y,1/2+z
1/2+x,1/2-y,1/2+z
loop_
_atom_site_type_symbol
_atom_site_label
_atom_site_fract_x
_atom_site_fract_y
_atom_site_fract_z
Si Si1 0.820688 0.060235 0.497250
Si Si2 0.677567 0.645999 0.136045
Si Si3 0.329361 0.719745 0.769251
Si Si4 0.675361 0.162801 0.819732
Si Si5 0.673883 0.601953 0.813351
Si Si6 0.825823 0.734390 0.592871
Si Si7 0.677612 0.937770 0.136113
Si Si8 0.322098 0.641354 0.495773
O O1 0.758039 0.099565 0.572545
O O2 0.756941 0.075369 0.401124
O O3 0.000000 0.066360 0.493430
O O4 0.769134 0.000000 0.521389
O O5 0.500000 0.640269 0.156248
O O6 0.766647 0.640830 0.226802
O O7 0.711540 0.702311 0.086898
O O8 0.500000 0.724162 0.730187
O O9 0.294505 0.772745 0.826927
O O10 0.313217 0.666412 0.828045
O O11 0.211022 0.713837 0.690464
O O12 0.500000 0.148792 0.829475
O O13 0.764595 0.132107 0.896650
O O14 0.500000 0.584813 0.798049
O O15 0.768207 0.581737 0.730945
O O16 0.725991 0.701568 0.523746
O O17 0.000000 0.722180 0.571928
O O18 0.500000 0.928511 0.130263
O O19 0.753959 0.903515 0.059450
O O20 0.721845 0.000000 0.122470
O O21 0.500000 0.635669 0.498938
#
# Coordination Sequence:
#
# PCOD8188764 Si02
#       8
#     8   8   8   8   8   8   8   8
#     4   9  18  33  56  85 114 148 193 238 279 330
#     4   9  19  36  58  83 113 150 193 240 290 341
#     4   9  18  32  53  82 116 151 187 229 281 344
#     4  10  21  37  58  83 117 153 190 239 294 345
#     4  10  19  33  57  87 118 154 193 234 281 340
#     4  10  19  32  54  81 113 150 187 232 287 341
#     4  11  24  41  60  84 117 155 194 240 295 350
#     4  12  24  38  58  85 116 152 197 240 287 348
#
# _framework density 19.167757999999999
#
# number of rings (size 3 to 8) (size 9 to 14) (size 15 to 20)
#    0.000    2.000    1.250    2.625    1.750    2.500 
#    0.000    1.250    0.000    3.375    0.000    0.000 
#    0.000    0.000    0.000    0.000    0.000    0.000 
#
# Total GULP energy -396838.226479 kJ/mol
# GULP energy per Si atom -12401.194577 kJ/mol
# Density = 1.912413 g / cm^3
# Si number density = 19.167758 Si / 1000 Ang^3
#
#
#
# Elastic Constant Matrix: (Units=GPa)
#
#
# Indices 1 2 3 4 5 6 
#
# 1 80.0368 46.3946 52.7346 -0.0002 0.0000 0.0000
# 2 46.3946 126.2656 81.2464 -0.0002 0.0001 0.0000
# 3 52.7346 81.2464 131.5217 -0.0011 0.0003 -0.0002
# 4 -0.0002 -0.0002 -0.0011 30.9362 0.0001 0.0000
# 5 0.0000 0.0001 0.0003 0.0001 28.7941 -0.0001
# 6 0.0000 0.0000 -0.0002 0.0000 -0.0001 19.8309
#
#
#
# Elastic Compliance Matrix: (Units=1/GPa)
#
#
# Indices 1 2 3 4 5 6 
#
# 1 0.017736 -0.003221 -0.005121 0.000000 0.000000 0.000000
# 2 -0.003221 0.013730 -0.007190 0.000000 0.000000 0.000000
# 3 -0.005121 -0.007190 0.014098 0.000000 0.000000 0.000000
# 4 0.000000 0.000000 0.000000 0.032325 0.000000 0.000000
# 5 0.000000 0.000000 0.000000 0.000000 0.034729 0.000000
# 6 0.000000 0.000000 0.000000 0.000000 0.000000 0.050426
#
#
# Mechanical properties :
#
#
# Convention : Reuss Voigt Hill
#
# Bulk Modulus (GPa) = 68.97148 77.61948 73.29548
# Shear Modulus (GPa) = 25.13290 26.40881 25.77085
#
# Velocity S-wave (km/s) = 3.62499 3.71586 3.67071
# Velocity P-wave (km/s) = 7.31997 7.68068 7.50249
#
# Compressibility (1/GPa) = 0.01449875
#
# Stress axis : x y z
#
# Youngs Moduli (GPa) = 56.38260 72.83406 70.93107
#
# Poissons Ratio (x) = 0.23463 0.36326
# Poissons Ratio (y) = 0.18164 0.50998
# Poissons Ratio (z) = 0.28875 0.52366
#
# Static dielectric constant tensor:
#      x y z
#    x 3.416910 0.000000 0.000000 
#    y 0.000000 3.622160 0.000000 
#    z 0.000000 0.000000 3.450630 
# 
# 
# High freq. dielectric constant tensor:
#      x y z
#    x 1.734210 0.000000 0.000000 
#    y 0.000000 1.743620 0.000000 
#    z 0.000000 0.000000 1.742720 
# 
# From -- ./inp_files/16880.got.cif
#   From: 2010.03.12/outbox.cif.g09.slc.cpg/sg44_9_cif.got.tgz:16880.got - 2010.04.14 02:36:11.
