data_PCOD8188520
_publ_section_title
;
Structure prediction by ZEFSAII (Michael W. Deem and Ramdas Pophale) SiO2 
 PCOD8188520
Probable space group: I M M 2
;
_chemical_formula_sum "Si O2"
_cell_formula_units_Z 64
_cell_length_a 9.059903
_cell_length_b 27.650040
_cell_length_c 14.680837
_cell_angle_alpha 90.000000
_cell_angle_beta 90.000000
_cell_angle_gamma 90.000000
_cell_volume 3677.647742
_symmetry_space_group_name_H-M "I M M 2"
_symmetry_group_IT_number 44
_symmetry_cell_setting 'orthorhombic'
loop_
_space_group_symop_operation_xyz
x,y,z
-x,-y,z
-x,y,z
x,-y,z
1/2+x,1/2+y,1/2+z
1/2-x,1/2-y,1/2+z
1/2-x,1/2+y,1/2+z
1/2+x,1/2-y,1/2+z
loop_
_atom_site_type_symbol
_atom_site_label
_atom_site_fract_x
_atom_site_fract_y
_atom_site_fract_z
Si Si1 0.670043 0.720680 0.857840
Si Si2 0.175306 0.284929 0.675183
Si Si3 0.329379 0.636795 0.555573
Si Si4 0.670313 0.943752 0.160328
Si Si5 0.830408 0.868111 0.488101
Si Si6 0.173262 0.824215 0.668474
Si Si7 0.174391 0.445685 0.865818
Si Si8 0.829771 0.181148 0.869114
O O1 0.500000 0.727132 0.829564
O O2 0.761543 0.699389 0.773097
O O3 0.688362 0.683208 0.939403
O O4 0.732511 0.771985 0.891852
O O5 0.239599 0.319485 0.598827
O O6 0.230589 0.230563 0.654720
O O7 0.000000 0.289931 0.677090
O O8 0.500000 0.641183 0.583042
O O9 0.268326 0.585469 0.588577
O O10 0.307488 0.640541 0.446347
O O11 0.500000 0.929169 0.147437
O O12 0.722345 0.931070 0.263129
O O13 0.694218 0.000000 0.139904
O O14 0.763953 0.860190 0.590543
O O15 0.740688 0.910044 0.439673
O O16 0.000000 0.884773 0.488951
O O17 0.215927 0.841657 0.770729
O O18 0.000000 0.823493 0.652844
O O19 0.230192 0.500000 0.886854
O O20 0.000000 0.443630 0.872525
O O21 0.000000 0.198481 0.863827
#
# Coordination Sequence:
#
# PCOD8188520 Si02
#       8
#     8   8   8   8   8   8   8   8
#     4  10  19  30  46  73 104 128 159 204 244 283
#     4  10  19  32  49  68  97 137 169 195 238 291
#     4  11  21  31  48  75 101 126 163 207 245 285
#     4   9  19  36  55  73  95 126 160 192 238 303
#     4  10  19  30  48  72  95 122 158 197 236 279
#     4   8  16  32  49  65  91 129 167 197 228 273
#     4   9  19  35  52  71  96 123 151 187 235 292
#     4   9  19  34  49  67  97 136 169 198 238 287
#
# _framework density 17.402426999999999
#
# number of rings (size 3 to 8) (size 9 to 14) (size 15 to 20)
#    0.000    2.500    0.000    4.125    0.000    6.000 
#    0.000    4.375    0.000    0.750    0.000    5.250 
#    0.000    0.000    0.000    0.000    0.000    0.000 
#
# Total GULP energy -396715.524013 kJ/mol
# GULP energy per Si atom -12397.360125 kJ/mol
# Density = 1.736282 g / cm^3
# Si number density = 17.402427 Si / 1000 Ang^3
#
#
#
# Elastic Constant Matrix: (Units=GPa)
#
#
# Indices 1 2 3 4 5 6 
#
# 1 66.6645 34.9100 44.7365 -0.0010 0.0001 0.0000
# 2 34.9100 78.3144 63.5984 -0.0005 0.0001 0.0000
# 3 44.7365 63.5984 127.4137 -0.0030 0.0003 -0.0001
# 4 -0.0010 -0.0005 -0.0030 28.3682 0.0002 0.0000
# 5 0.0001 0.0001 0.0003 0.0002 22.7646 -0.0003
# 6 0.0000 0.0000 -0.0001 0.0000 -0.0003 28.0544
#
#
#
# Elastic Compliance Matrix: (Units=1/GPa)
#
#
# Indices 1 2 3 4 5 6 
#
# 1 0.021027 -0.005680 -0.004548 0.000000 0.000000 0.000000
# 2 -0.005680 0.023008 -0.009490 -0.000001 0.000000 0.000000
# 3 -0.004548 -0.009490 0.014182 0.000001 0.000000 0.000000
# 4 0.000000 -0.000001 0.000001 0.035251 0.000000 0.000000
# 5 0.000000 0.000000 0.000000 0.000000 0.043928 0.000001
# 6 0.000000 0.000000 0.000000 0.000000 0.000001 0.035645
#
#
# Mechanical properties :
#
#
# Convention : Reuss Voigt Hill
#
# Bulk Modulus (GPa) = 53.24410 62.09803 57.67107
# Shear Modulus (GPa) = 22.85868 24.44729 23.65298
#
# Velocity S-wave (km/s) = 3.62820 3.75216 3.69070
# Velocity P-wave (km/s) = 6.94363 7.38462 7.16752
#
# Compressibility (1/GPa) = 0.01878142
#
# Stress axis : x y z
#
# Youngs Moduli (GPa) = 47.55879 43.46381 70.51171
#
# Poissons Ratio (x) = 0.24687 0.32066
# Poissons Ratio (y) = 0.27013 0.66915
# Poissons Ratio (z) = 0.21628 0.41247
#
# Static dielectric constant tensor:
#      x y z
#    x 3.190730 0.000000 0.000000 
#    y 0.000000 3.071380 0.000000 
#    z 0.000000 0.000000 3.479330 
# 
# 
# High freq. dielectric constant tensor:
#      x y z
#    x 1.665450 0.000000 0.000000 
#    y 0.000000 1.649800 0.000000 
#    z 0.000000 0.000000 1.677020 
# 
# From -- ./inp_files/17138.got.cif
#   From: 2010.03.12/outbox.cif.g09.slc.cpg/sg44_9_cif.got.tgz:17138.got - 2010.04.14 02:36:11.
