data_PCOD8188641
_publ_section_title
;
Structure prediction by ZEFSAII (Michael W. Deem and Ramdas Pophale) SiO2 
 PCOD8188641
Probable space group: I M M 2
;
_chemical_formula_sum "Si O2"
_cell_formula_units_Z 64
_cell_length_a 23.028429
_cell_length_b 22.432990
_cell_length_c 7.606473
_cell_angle_alpha 90.000000
_cell_angle_beta 90.000000
_cell_angle_gamma 90.000000
_cell_volume 3929.477462
_symmetry_space_group_name_H-M "I M M 2"
_symmetry_group_IT_number 44
_symmetry_cell_setting 'orthorhombic'
loop_
_space_group_symop_operation_xyz
x,y,z
-x,-y,z
-x,y,z
x,-y,z
1/2+x,1/2+y,1/2+z
1/2-x,1/2-y,1/2+z
1/2-x,1/2+y,1/2+z
1/2+x,1/2-y,1/2+z
loop_
_atom_site_type_symbol
_atom_site_label
_atom_site_fract_x
_atom_site_fract_y
_atom_site_fract_z
Si Si1 0.729989 0.153812 0.859230
Si Si2 0.251790 0.931652 0.556418
Si Si3 0.066886 0.849177 0.853570
Si Si4 0.114018 0.931662 0.556418
Si Si5 0.270011 0.846188 0.253605
Si Si6 0.834428 0.762547 0.852327
Si Si7 0.066886 0.849177 0.259265
Si Si8 0.165572 0.762547 0.260508
O O1 0.720587 0.098311 0.729955
O O2 0.786691 0.189235 0.790598
O O3 0.675315 0.199534 0.857834
O O4 0.738364 0.128906 0.056418
O O5 0.182787 0.924996 0.556418
O O6 0.279413 0.901689 0.382881
O O7 0.271376 0.000000 0.556418
O O8 0.087518 0.903130 0.732205
O O9 0.102389 0.789055 0.806265
O O10 0.000000 0.834295 0.818278
O O11 0.078300 0.867720 0.056418
O O12 0.087518 0.903130 0.380630
O O13 0.094552 0.000000 0.556418
O O14 0.324685 0.800466 0.255001
O O15 0.213309 0.810765 0.322237
O O16 0.826286 0.749599 0.056418
O O17 0.102389 0.789055 0.306570
O O18 0.000000 0.834295 0.294557
#
# Coordination Sequence:
#
# PCOD8188641 Si02
#       8
#     8   8   8   8   8   8   8   8
#     4  10  19  31  51  73  95 128 161 202 252 302
#     4  11  22  35  50  73 103 132 173 209 239 292
#     4  10  21  35  50  71  99 130 168 212 250 286
#     4  11  23  36  51  68  96 139 182 210 240 287
#     4  10  19  31  51  73  95 128 161 202 252 302
#     4   9  17  30  50  73  98 123 162 202 251 302
#     4  10  21  35  50  71  99 130 168 212 250 286
#     4   9  17  30  50  73  98 123 162 202 251 302
#
# _framework density 16.287151999999999
#
# number of rings (size 3 to 8) (size 9 to 14) (size 15 to 20)
#    0.000    2.000    3.750    0.375    3.500    2.000 
#    0.000    3.750    0.000    0.000    0.000    0.000 
#    0.000    2.000    0.000    2.250    0.000    0.000 
#
# Total GULP energy -396796.649373 kJ/mol
# GULP energy per Si atom -12399.895293 kJ/mol
# Density = 1.625008 g / cm^3
# Si number density = 16.287152 Si / 1000 Ang^3
#
#
#
# Elastic Constant Matrix: (Units=GPa)
#
#
# Indices 1 2 3 4 5 6 
#
# 1 69.3461 50.7869 28.7229 0.0000 0.0000 0.0000
# 2 50.7869 119.5249 63.6843 0.0000 0.0000 0.0000
# 3 28.7229 63.6843 95.2109 0.0000 0.0000 0.0000
# 4 0.0000 0.0000 0.0000 26.2572 0.0000 0.0000
# 5 0.0000 0.0000 0.0000 0.0000 14.0150 0.0000
# 6 0.0000 0.0000 0.0000 0.0000 0.0000 21.1642
#
#
#
# Elastic Compliance Matrix: (Units=1/GPa)
#
#
# Indices 1 2 3 4 5 6 
#
# 1 0.020955 -0.008601 -0.000569 0.000000 0.000000 0.000000
# 2 -0.008601 0.016529 -0.008461 0.000000 0.000000 0.000000
# 3 -0.000569 -0.008461 0.016334 0.000000 0.000000 0.000000
# 4 0.000000 0.000000 0.000000 0.038085 0.000000 0.000000
# 5 0.000000 0.000000 0.000000 0.000000 0.071352 0.000000
# 6 0.000000 0.000000 0.000000 0.000000 0.000000 0.047250
#
#
# Mechanical properties :
#
#
# Convention : Reuss Voigt Hill
#
# Bulk Modulus (GPa) = 53.88931 63.38555 58.63743
# Shear Modulus (GPa) = 19.84500 21.67981 20.76240
#
# Velocity S-wave (km/s) = 3.49441 3.65238 3.57427
# Velocity P-wave (km/s) = 7.03136 7.53582 7.28795
#
# Compressibility (1/GPa) = 0.01855656
#
# Stress axis : x y z
#
# Youngs Moduli (GPa) = 47.72132 60.49839 61.22130
#
# Poissons Ratio (x) = 0.52034 0.03482
# Poissons Ratio (y) = 0.41045 0.51802
# Poissons Ratio (z) = 0.02714 0.51190
#
# Static dielectric constant tensor:
#      x y z
#    x 2.980860 0.000000 0.000000 
#    y 0.000000 2.960260 0.000000 
#    z 0.000000 0.000000 3.194530 
# 
# 
# High freq. dielectric constant tensor:
#      x y z
#    x 1.596900 0.000000 0.000000 
#    y 0.000000 1.603350 0.000000 
#    z 0.000000 0.000000 1.644240 
# 
# From -- ./inp_files/9122.got.cif
#   From: 2010.03.12/outbox.cif.g09.slc.cpg/sg44_5_cif.got.tgz:9122.got - 2010.04.14 02:36:11.
