data_PCOD8188709
_publ_section_title
;
Structure prediction by ZEFSAII (Michael W. Deem and Ramdas Pophale) SiO2 
 PCOD8188709
Probable space group: I M M 2
;
_chemical_formula_sum "Si O2"
_cell_formula_units_Z 48
_cell_length_a 9.712826
_cell_length_b 7.891828
_cell_length_c 33.524724
_cell_angle_alpha 90.000000
_cell_angle_beta 90.000000
_cell_angle_gamma 90.000000
_cell_volume 2569.735541
_symmetry_space_group_name_H-M "I M M 2"
_symmetry_group_IT_number 44
_symmetry_cell_setting 'orthorhombic'
loop_
_space_group_symop_operation_xyz
x,y,z
-x,-y,z
-x,y,z
x,-y,z
1/2+x,1/2+y,1/2+z
1/2-x,1/2-y,1/2+z
1/2-x,1/2+y,1/2+z
1/2+x,1/2-y,1/2+z
loop_
_atom_site_type_symbol
_atom_site_label
_atom_site_fract_x
_atom_site_fract_y
_atom_site_fract_z
Si Si1 0.652889 0.306874 0.886180
Si Si2 0.838352 0.500000 0.670645
Si Si3 0.163012 0.686891 0.303069
Si Si4 0.659052 0.303209 0.545532
Si Si5 0.344049 0.698888 0.455363
Si Si6 0.656855 0.689074 0.114749
Si Si7 0.335238 0.500000 0.750280
O O1 0.500000 0.236655 0.896344
O O2 0.643058 0.500000 0.872508
O O3 0.719150 0.208774 0.848331
O O4 0.745303 0.294192 0.925190
O O5 0.797218 0.668937 0.646337
O O6 0.742095 0.500000 0.708722
O O7 0.000000 0.500000 0.682110
O O8 0.207596 0.500000 0.287364
O O9 0.000000 0.705009 0.305487
O O10 0.217633 0.832476 0.273581
O O11 0.500000 0.265459 0.554797
O O12 0.692207 0.500000 0.551788
O O13 0.694942 0.248298 0.500393
O O14 0.751508 0.194951 0.575191
O O15 0.500000 0.754064 0.446161
O O16 0.326176 0.500000 0.449698
O O17 0.500000 0.723756 0.101845
O O18 0.673120 0.500000 0.133463
O O19 0.500000 0.500000 0.743673
#
# Coordination Sequence:
#
# PCOD8188709 Si02
#       7
#     8   4   8   8   8   8   4
#     4  10  19  32  51  76 106 141 184 228 268 317
#     4  10  22  40  58  80 114 146 172 220 282 328
#     4   9  17  32  55  80 108 140 174 221 275 316
#     4   9  18  34  55  77 106 144 184 227 275 323
#     4   9  19  34  50  73 107 145 183 225 272 322
#     4  10  21  37  58  82 108 143 184 222 267 326
#     4  10  20  36  58  84 108 136 180 226 266 326
#
# _framework density 18.678965999999999
#
# number of rings (size 3 to 8) (size 9 to 14) (size 15 to 20)
#    0.000    2.500    1.667    1.500    0.000    4.333 
#    0.000    5.833    0.000    1.000    0.000    0.000 
#    0.000    0.000    0.000    0.000    0.000    0.000 
#
# Total GULP energy -297541.071448 kJ/mol
# GULP energy per Si atom -12397.544644 kJ/mol
# Density = 1.863645 g / cm^3
# Si number density = 18.678966 Si / 1000 Ang^3
#
#
#
# Elastic Constant Matrix: (Units=GPa)
#
#
# Indices 1 2 3 4 5 6 
#
# 1 58.9123 33.4840 57.5206 0.0000 0.0000 0.0000
# 2 33.4840 120.7801 63.4112 0.0000 0.0000 0.0000
# 3 57.5206 63.4112 127.6289 0.0000 0.0000 0.0000
# 4 0.0000 0.0000 0.0000 25.4462 0.0000 0.0000
# 5 0.0000 0.0000 0.0000 0.0000 34.1988 0.0000
# 6 0.0000 0.0000 0.0000 0.0000 0.0000 19.8928
#
#
#
# Elastic Compliance Matrix: (Units=1/GPa)
#
#
# Indices 1 2 3 4 5 6 
#
# 1 0.030563 -0.001679 -0.012940 0.000000 0.000000 0.000000
# 2 -0.001679 0.011294 -0.004854 0.000000 0.000000 0.000000
# 3 -0.012940 -0.004854 0.016079 0.000000 0.000000 0.000000
# 4 0.000000 0.000000 0.000000 0.039299 0.000000 0.000000
# 5 0.000000 0.000000 0.000000 0.000000 0.029241 0.000000
# 6 0.000000 0.000000 0.000000 0.000000 0.000000 0.050270
#
#
# Mechanical properties :
#
#
# Convention : Reuss Voigt Hill
#
# Bulk Modulus (GPa) = 52.66369 68.46144 60.56256
# Shear Modulus (GPa) = 22.52033 26.10124 24.31079
#
# Velocity S-wave (km/s) = 3.47602 3.74218 3.61155
# Velocity P-wave (km/s) = 6.66075 7.44333 7.06288
#
# Compressibility (1/GPa) = 0.01898842
#
# Stress axis : x y z
#
# Youngs Moduli (GPa) = 32.71903 88.54532 62.19329
#
# Poissons Ratio (x) = 0.14870 0.80478
# Poissons Ratio (y) = 0.05495 0.30190
# Poissons Ratio (z) = 0.42339 0.42982
#
# Static dielectric constant tensor:
#      x y z
#    x 3.212880 0.000000 0.000000 
#    y 0.000000 3.559170 0.000000 
#    z 0.000000 0.000000 3.325670 
# 
# 
# High freq. dielectric constant tensor:
#      x y z
#    x 1.699390 0.000000 0.000000 
#    y 0.000000 1.736090 0.000000 
#    z 0.000000 0.000000 1.717610 
# 
# From -- ./inp_files/26900.got.cif
#   From: 2010.03.12/outbox.cif.g09.slc.cpg/sg44_14_cif.got.tgz:26900.got - 2010.04.14 02:36:11.
