data_PCOD8188714
_publ_section_title
;
Structure prediction by ZEFSAII (Michael W. Deem and Ramdas Pophale) SiO2 
 PCOD8188714
Probable space group: I M M 2
;
_chemical_formula_sum "Si O2"
_cell_formula_units_Z 64
_cell_length_a 15.780628
_cell_length_b 18.106205
_cell_length_c 12.056468
_cell_angle_alpha 90.000000
_cell_angle_beta 90.000000
_cell_angle_gamma 90.000000
_cell_volume 3444.861876
_symmetry_space_group_name_H-M "I M M 2"
_symmetry_group_IT_number 44
_symmetry_cell_setting 'orthorhombic'
loop_
_space_group_symop_operation_xyz
x,y,z
-x,-y,z
-x,y,z
x,-y,z
1/2+x,1/2+y,1/2+z
1/2-x,1/2-y,1/2+z
1/2-x,1/2+y,1/2+z
1/2+x,1/2-y,1/2+z
loop_
_atom_site_type_symbol
_atom_site_label
_atom_site_fract_x
_atom_site_fract_y
_atom_site_fract_z
Si Si1 0.096485 0.680815 0.852740
Si Si2 0.813825 0.418970 0.184384
Si Si3 0.595255 0.683177 0.514282
Si Si4 0.254079 0.916434 0.440872
Si Si5 0.402940 0.290717 0.175700
Si Si6 0.097247 0.731765 0.216758
Si Si7 0.900537 0.181150 0.430411
Si Si8 0.657575 0.416087 0.329537
O O1 0.162044 0.617373 0.884924
O O2 0.136795 0.722456 0.744636
O O3 0.000000 0.649388 0.834753
O O4 0.092935 0.740704 0.948575
O O5 0.859389 0.500000 0.180443
O O6 0.878814 0.352462 0.193678
O O7 0.755178 0.415692 0.293009
O O8 0.757682 0.408712 0.074052
O O9 0.500000 0.650677 0.525715
O O10 0.637785 0.706627 0.632974
O O11 0.650546 0.620889 0.451422
O O12 0.164467 0.883700 0.397827
O O13 0.253236 0.000000 0.401263
O O14 0.500000 0.271329 0.171529
O O15 0.393257 0.369031 0.237902
O O16 0.368755 0.290851 0.050428
O O17 0.114813 0.752426 0.344140
O O18 0.000000 0.736398 0.186103
O O19 0.000000 0.155086 0.430360
O O20 0.622061 0.500000 0.332346
#
# Coordination Sequence:
#
# PCOD8188714 Si02
#       8
#     8   8   8   8   8   8   8   8
#     4   9  18  34  56  81 109 136 174 231 279 322
#     4  10  21  34  52  82 112 138 178 228 278 332
#     4   9  18  33  53  80 107 138 180 221 270 329
#     4  11  22  35  54  81 112 147 181 217 279 338
#     4   9  18  33  54  80 106 139 185 229 274 322
#     4  10  21  37  56  78 108 147 186 223 271 328
#     4  10  22  37  55  81 110 147 191 226 261 323
#     4  10  19  32  51  80 110 134 171 227 282 326
#
# _framework density 18.578392999999998
#
# number of rings (size 3 to 8) (size 9 to 14) (size 15 to 20)
#    0.000    2.250    2.500    1.125    3.500    1.750 
#    0.000    3.125    0.000    4.500    0.000    3.500 
#    0.000    0.000    0.000    0.000    0.000    0.000 
#
# Total GULP energy -396455.751709 kJ/mol
# GULP energy per Si atom -12389.242241 kJ/mol
# Density = 1.853611 g / cm^3
# Si number density = 18.578393 Si / 1000 Ang^3
#
#
#
# Elastic Constant Matrix: (Units=GPa)
#
#
# Indices 1 2 3 4 5 6 
#
# 1 63.6258 44.4261 26.1138 0.0000 0.0000 0.0000
# 2 44.4261 120.9305 55.9673 0.0000 0.0000 0.0000
# 3 26.1138 55.9673 100.1373 0.0000 0.0000 0.0000
# 4 0.0000 0.0000 0.0000 22.6603 0.0000 0.0000
# 5 0.0000 0.0000 0.0000 0.0000 20.1084 0.0000
# 6 0.0000 0.0000 0.0000 0.0000 0.0000 24.0151
#
#
#
# Elastic Compliance Matrix: (Units=1/GPa)
#
#
# Indices 1 2 3 4 5 6 
#
# 1 0.021327 -0.007096 -0.001595 0.000000 0.000000 0.000000
# 2 -0.007096 0.013516 -0.005703 0.000000 0.000000 0.000000
# 3 -0.001595 -0.005703 0.013590 0.000000 0.000000 0.000000
# 4 0.000000 0.000000 0.000000 0.044130 0.000000 0.000000
# 5 0.000000 0.000000 0.000000 0.000000 0.049730 0.000000
# 6 0.000000 0.000000 0.000000 0.000000 0.000000 0.041640
#
#
# Mechanical properties :
#
#
# Convention : Reuss Voigt Hill
#
# Bulk Modulus (GPa) = 50.91115 59.74533 55.32824
# Shear Modulus (GPa) = 22.80283 23.90254 23.35269
#
# Velocity S-wave (km/s) = 3.50721 3.59078 3.54924
# Velocity P-wave (km/s) = 6.62296 7.02993 6.82948
#
# Compressibility (1/GPa) = 0.01964206
#
# Stress axis : x y z
#
# Youngs Moduli (GPa) = 46.88965 73.98747 73.58347
#
# Poissons Ratio (x) = 0.52505 0.11739
# Poissons Ratio (y) = 0.33275 0.41968
# Poissons Ratio (z) = 0.07480 0.42198
#
# Static dielectric constant tensor:
#      x y z
#    x 3.290960 0.000000 0.000000 
#    y 0.000000 3.402130 0.000000 
#    z 0.000000 0.000000 3.715620 
# 
# 
# High freq. dielectric constant tensor:
#      x y z
#    x 1.707630 0.000000 0.000000 
#    y 0.000000 1.704770 0.000000 
#    z 0.000000 0.000000 1.719720 
# 
# From -- ./inp_files/13459.got.cif
#   From: 2010.03.12/outbox.cif.g09.slc.cpg/sg44_7_cif.got.tgz:13459.got - 2010.04.14 02:36:11.
