data_PCOD8188528
_publ_section_title
;
Structure prediction by ZEFSAII (Michael W. Deem and Ramdas Pophale) SiO2 
 PCOD8188528
Probable space group: I M M 2
;
_chemical_formula_sum "Si O2"
_cell_formula_units_Z 48
_cell_length_a 13.695759
_cell_length_b 9.234366
_cell_length_c 23.417257
_cell_angle_alpha 90.000000
_cell_angle_beta 90.000000
_cell_angle_gamma 90.000000
_cell_volume 2961.619161
_symmetry_space_group_name_H-M "I M M 2"
_symmetry_group_IT_number 44
_symmetry_cell_setting 'orthorhombic'
loop_
_space_group_symop_operation_xyz
x,y,z
-x,-y,z
-x,y,z
x,-y,z
1/2+x,1/2+y,1/2+z
1/2-x,1/2-y,1/2+z
1/2-x,1/2+y,1/2+z
1/2+x,1/2-y,1/2+z
loop_
_atom_site_type_symbol
_atom_site_label
_atom_site_fract_x
_atom_site_fract_y
_atom_site_fract_z
Si Si1 0.610231 0.666328 0.013320
Si Si2 0.888033 0.332775 0.728202
Si Si3 0.285793 0.829536 0.111569
Si Si4 0.793782 0.334460 0.942678
Si Si5 0.612248 0.329877 0.341071
Si Si6 0.388870 0.168225 0.561909
O O1 0.500000 0.700069 0.993626
O O2 0.623172 0.500000 0.032991
O O3 0.637126 0.765523 0.066821
O O4 0.681480 0.697133 0.959929
O O5 0.875189 0.500000 0.744680
O O6 0.821517 0.289801 0.674717
O O7 0.852254 0.238501 0.781643
O O8 0.000000 0.297719 0.712434
O O9 0.178643 0.761712 0.103776
O O10 0.280423 0.000000 0.101635
O O11 0.808478 0.500000 0.922948
O O12 0.820465 0.229428 0.891368
O O13 0.862988 0.298493 0.996288
O O14 0.500000 0.286720 0.353211
O O15 0.626537 0.500000 0.337066
O O16 0.500000 0.213993 0.573270
O O17 0.370638 0.000000 0.575175
#
# Coordination Sequence:
#
# PCOD8188528 Si02
#       6
#     8   8   8   8   8   8
#     4   9  18  32  49  69  94 125 158 189 225 273
#     4   9  18  32  48  66  91 123 154 184 224 275
#     4  10  19  30  47  72  98 122 152 191 233 275
#     4   9  17  30  48  68  91 121 154 186 224 271
#     4  10  20  31  45  68  94 119 150 189 231 272
#     4   9  18  32  49  69  94 126 160 189 223 272
#
# _framework density 16.207350999999999
#
# number of rings (size 3 to 8) (size 9 to 14) (size 15 to 20)
#    0.000    2.667    0.000    3.000    0.000    7.000 
#    0.000    1.667    0.000    1.000    0.000    2.333 
#    0.000    0.000    0.000    0.000    0.000    0.000 
#
# Total GULP energy -297637.270928 kJ/mol
# GULP energy per Si atom -12401.552955 kJ/mol
# Density = 1.617046 g / cm^3
# Si number density = 16.207351 Si / 1000 Ang^3
#
#
#
# Elastic Constant Matrix: (Units=GPa)
#
#
# Indices 1 2 3 4 5 6 
#
# 1 122.3274 52.4894 67.5890 0.0000 0.0000 0.0000
# 2 52.4894 79.9876 68.6105 0.0000 0.0000 0.0000
# 3 67.5890 68.6105 118.8054 0.0000 0.0000 0.0000
# 4 0.0000 0.0000 0.0000 31.2739 0.0000 0.0000
# 5 0.0000 0.0000 0.0000 0.0000 22.6030 0.0000
# 6 0.0000 0.0000 0.0000 0.0000 0.0000 25.4636
#
#
#
# Elastic Compliance Matrix: (Units=1/GPa)
#
#
# Indices 1 2 3 4 5 6 
#
# 1 0.012596 -0.004199 -0.004741 0.000000 0.000000 0.000000
# 2 -0.004199 0.026174 -0.012727 0.000000 0.000000 0.000000
# 3 -0.004741 -0.012727 0.018464 0.000000 0.000000 0.000000
# 4 0.000000 0.000000 0.000000 0.031976 0.000000 0.000000
# 5 0.000000 0.000000 0.000000 0.000000 0.044242 0.000000
# 6 0.000000 0.000000 0.000000 0.000000 0.000000 0.039272
#
#
# Mechanical properties :
#
#
# Convention : Reuss Voigt Hill
#
# Bulk Modulus (GPa) = 71.93983 77.61094 74.77538
# Shear Modulus (GPa) = 22.65619 24.69686 23.67652
#
# Velocity S-wave (km/s) = 3.74290 3.90783 3.82625
# Velocity P-wave (km/s) = 7.94749 8.26751 8.10908
#
# Compressibility (1/GPa) = 0.01390051
#
# Stress axis : x y z
#
# Youngs Moduli (GPa) = 79.38963 38.20591 54.15957
#
# Poissons Ratio (x) = 0.16043 0.25677
# Poissons Ratio (y) = 0.33337 0.68927
# Poissons Ratio (z) = 0.37638 0.48623
#
# Static dielectric constant tensor:
#      x y z
#    x 3.169050 0.000000 0.000000 
#    y 0.000000 3.058900 0.000000 
#    z 0.000000 0.000000 2.910590 
# 
# 
# High freq. dielectric constant tensor:
#      x y z
#    x 1.617710 0.000000 0.000000 
#    y 0.000000 1.628070 0.000000 
#    z 0.000000 0.000000 1.608680 
# 
# From -- ./inp_files/22898.got.cif
#   From: 2010.03.12/outbox.cif.g09.slc.cpg/sg44_12_cif.got.tgz:22898.got - 2010.04.14 02:36:11.
