data_PCOD8188560
_publ_section_title
;
Structure prediction by ZEFSAII (Michael W. Deem and Ramdas Pophale) SiO2 
 PCOD8188560
Probable space group: I M M 2
;
_chemical_formula_sum "Si O2"
_cell_formula_units_Z 64
_cell_length_a 17.221648
_cell_length_b 12.392611
_cell_length_c 16.298101
_cell_angle_alpha 90.000000
_cell_angle_beta 90.000000
_cell_angle_gamma 90.000000
_cell_volume 3478.360020
_symmetry_space_group_name_H-M "I M M 2"
_symmetry_group_IT_number 44
_symmetry_cell_setting 'orthorhombic'
loop_
_space_group_symop_operation_xyz
x,y,z
-x,-y,z
-x,y,z
x,-y,z
1/2+x,1/2+y,1/2+z
1/2-x,1/2-y,1/2+z
1/2-x,1/2+y,1/2+z
1/2+x,1/2-y,1/2+z
loop_
_atom_site_type_symbol
_atom_site_label
_atom_site_fract_x
_atom_site_fract_y
_atom_site_fract_z
Si Si1 0.653014 0.120048 0.640650
Si Si2 0.590607 0.624075 0.060033
Si Si3 0.408599 0.236195 0.483383
Si Si4 0.675180 0.875261 0.335267
Si Si5 0.177420 0.787866 0.411200
Si Si6 0.773172 0.878449 0.017392
Si Si7 0.296145 0.768309 0.163533
Si Si8 0.587233 0.881198 0.808883
O O1 0.616301 0.155165 0.555020
O O2 0.726726 0.184280 0.674924
O O3 0.587269 0.126945 0.710235
O O4 0.683880 0.000000 0.626075
O O5 0.500000 0.650173 0.064237
O O6 0.607582 0.500000 0.084588
O O7 0.632444 0.706595 0.121127
O O8 0.619164 0.643334 0.966957
O O9 0.500000 0.259422 0.483260
O O10 0.384453 0.184841 0.396221
O O11 0.363870 0.348052 0.504162
O O12 0.763182 0.870168 0.368546
O O13 0.671113 0.815327 0.248032
O O14 0.650523 0.000000 0.325883
O O15 0.224415 0.703234 0.464141
O O16 0.133253 0.719769 0.343235
O O17 0.740813 0.865868 0.109942
O O18 0.760978 0.000000 0.987862
O O19 0.500000 0.872122 0.841195
O O20 0.620871 0.000000 0.835248
#
# Coordination Sequence:
#
# PCOD8188560 Si02
#       8
#     8   8   8   8   8   8   8   8
#     4  10  19  34  56  79 106 144 184 226 273 322
#     4  10  21  37  58  83 112 146 183 226 274 325
#     4  10  22  37  55  82 113 144 183 229 276 325
#     4  11  22  36  57  82 109 144 185 228 274 328
#     4  10  19  35  55  80 112 143 180 227 271 325
#     4   9  19  35  57  78 103 144 187 224 269 326
#     4  10  20  36  56  80 109 142 185 229 271 322
#     4  10  19  30  50  81 114 145 178 222 274 325
#
# _framework density 18.399474999999999
#
# number of rings (size 3 to 8) (size 9 to 14) (size 15 to 20)
#    0.000    2.000    1.250    3.375    0.000    2.250 
#    0.000    0.625    0.000    7.125    0.000    0.000 
#    0.000    0.000    0.000    0.000    0.000    0.000 
#
# Total GULP energy -396676.755202 kJ/mol
# GULP energy per Si atom -12396.148600 kJ/mol
# Density = 1.835760 g / cm^3
# Si number density = 18.399475 Si / 1000 Ang^3
#
#
#
# Elastic Constant Matrix: (Units=GPa)
#
#
# Indices 1 2 3 4 5 6 
#
# 1 101.5242 28.9838 27.3445 0.0000 0.0000 0.0000
# 2 28.9838 79.7931 22.6118 0.0000 0.0000 0.0000
# 3 27.3445 22.6118 100.7388 0.0000 0.0000 0.0000
# 4 0.0000 0.0000 0.0000 44.3555 0.0000 0.0000
# 5 0.0000 0.0000 0.0000 0.0000 24.6036 0.0000
# 6 0.0000 0.0000 0.0000 0.0000 0.0000 25.2673
#
#
#
# Elastic Compliance Matrix: (Units=1/GPa)
#
#
# Indices 1 2 3 4 5 6 
#
# 1 0.011479 -0.003510 -0.002328 0.000000 0.000000 0.000000
# 2 -0.003510 0.014457 -0.002292 0.000000 0.000000 0.000000
# 3 -0.002328 -0.002292 0.011073 0.000000 0.000000 0.000000
# 4 0.000000 0.000000 0.000000 0.022545 0.000000 0.000000
# 5 0.000000 0.000000 0.000000 0.000000 0.040644 0.000000
# 6 0.000000 0.000000 0.000000 0.000000 0.000000 0.039577
#
#
# Mechanical properties :
#
#
# Convention : Reuss Voigt Hill
#
# Bulk Modulus (GPa) = 48.19593 48.88180 48.53887
# Shear Modulus (GPa) = 30.68392 32.38635 31.53514
#
# Velocity S-wave (km/s) = 4.08812 4.20000 4.14444
# Velocity P-wave (km/s) = 6.96668 7.08129 7.02422
#
# Compressibility (1/GPa) = 0.02074864
#
# Stress axis : x y z
#
# Youngs Moduli (GPa) = 87.11633 69.17106 90.30898
#
# Poissons Ratio (x) = 0.24278 0.21024
# Poissons Ratio (y) = 0.30577 0.20701
# Poissons Ratio (z) = 0.20281 0.15856
#
# Static dielectric constant tensor:
#      x y z
#    x 3.444680 0.000000 0.000000 
#    y 0.000000 3.087370 0.000000 
#    z 0.000000 0.000000 3.460500 
# 
# 
# High freq. dielectric constant tensor:
#      x y z
#    x 1.709920 0.000000 0.000000 
#    y 0.000000 1.713010 0.000000 
#    z 0.000000 0.000000 1.715900 
# 
# From -- ./inp_files/17935.got.cif
#   From: 2010.03.12/outbox.cif.g09.slc.cpg/sg44_9_cif.got.tgz:17935.got - 2010.04.14 02:36:11.
