data_PCOD8188532
_publ_section_title
;
Structure prediction by ZEFSAII (Michael W. Deem and Ramdas Pophale) SiO2 
 PCOD8188532
Probable space group: I M M 2
;
_chemical_formula_sum "Si O2"
_cell_formula_units_Z 40
_cell_length_a 8.714078
_cell_length_b 12.714871
_cell_length_c 21.188975
_cell_angle_alpha 90.000000
_cell_angle_beta 90.000000
_cell_angle_gamma 90.000000
_cell_volume 2347.704054
_symmetry_space_group_name_H-M "I M M 2"
_symmetry_group_IT_number 44
_symmetry_cell_setting 'orthorhombic'
loop_
_space_group_symop_operation_xyz
x,y,z
-x,-y,z
-x,y,z
x,-y,z
1/2+x,1/2+y,1/2+z
1/2-x,1/2-y,1/2+z
1/2-x,1/2+y,1/2+z
1/2+x,1/2-y,1/2+z
loop_
_atom_site_type_symbol
_atom_site_label
_atom_site_fract_x
_atom_site_fract_y
_atom_site_fract_z
Si Si1 0.822039 0.617744 0.780420
Si Si2 0.681145 0.177857 0.738637
Si Si3 0.317692 0.332889 0.913299
Si Si4 0.818186 0.000000 0.512194
Si Si5 0.817827 0.000000 0.653995
Si Si6 0.181367 0.387302 0.377472
O O1 0.797162 0.500000 0.753038
O O2 0.736761 0.700872 0.734454
O O3 0.756637 0.619077 0.851048
O O4 0.000000 0.647772 0.782674
O O5 0.500000 0.172852 0.729705
O O6 0.758108 0.106661 0.685447
O O7 0.735648 0.133135 0.806028
O O8 0.500000 0.341787 0.904251
O O9 0.265952 0.210269 0.921391
O O10 0.260683 0.396349 0.974609
O O11 0.751715 0.000000 0.582575
O O12 0.000000 0.000000 0.514918
O O13 0.000000 0.000000 0.655565
O O14 0.250478 0.500000 0.400665
O O15 0.000000 0.394350 0.377983
#
# Coordination Sequence:
#
# PCOD8188532 Si02
#       6
#     8   8   8   4   4   8
#     4  10  19  30  47  74 105 129 155 203 260 304
#     4  10  19  32  49  70  97 129 170 208 247 307
#     4   9  16  28  47  68  94 131 169 200 237 292
#     4   9  18  31  47  69  97 133 174 207 242 291
#     4  11  21  33  49  69 101 137 170 217 260 291
#     4   8  13  23  43  69  93 114 146 201 246 279
#
# _framework density 17.037921999999998
#
# number of rings (size 3 to 8) (size 9 to 14) (size 15 to 20)
#    0.000    2.600    2.000    2.700    0.000    1.200 
#    0.000    2.000    0.000    1.200    0.000    5.600 
#    0.000    0.000    0.000    0.000    0.000    0.000 
#
# Total GULP energy -247838.857543 kJ/mol
# GULP energy per Si atom -12391.942877 kJ/mol
# Density = 1.699914 g / cm^3
# Si number density = 17.037922 Si / 1000 Ang^3
#
#
#
# Elastic Constant Matrix: (Units=GPa)
#
#
# Indices 1 2 3 4 5 6 
#
# 1 51.1795 30.5413 24.6943 0.0000 0.0000 0.0000
# 2 30.5413 176.3333 71.1540 0.0000 0.0000 0.0000
# 3 24.6943 71.1540 98.7807 0.0000 0.0000 0.0000
# 4 0.0000 0.0000 0.0000 21.0541 0.0000 0.0000
# 5 0.0000 0.0000 0.0000 0.0000 16.2184 0.0000
# 6 0.0000 0.0000 0.0000 0.0000 0.0000 22.4458
#
#
#
# Elastic Compliance Matrix: (Units=1/GPa)
#
#
# Indices 1 2 3 4 5 6 
#
# 1 0.022880 -0.002333 -0.004039 0.000000 0.000000 0.000000
# 2 -0.002333 0.008233 -0.005347 0.000000 0.000000 0.000000
# 3 -0.004039 -0.005347 0.014985 0.000000 0.000000 0.000000
# 4 0.000000 0.000000 0.000000 0.047497 0.000000 0.000000
# 5 0.000000 0.000000 0.000000 0.000000 0.061658 0.000000
# 6 0.000000 0.000000 0.000000 0.000000 0.000000 0.044552
#
#
# Mechanical properties :
#
#
# Convention : Reuss Voigt Hill
#
# Bulk Modulus (GPa) = 44.13228 64.34139 54.23683
# Shear Modulus (GPa) = 21.66410 25.27059 23.46734
#
# Velocity S-wave (km/s) = 3.56971 3.85541 3.71531
# Velocity P-wave (km/s) = 6.55355 7.59371 7.09273
#
# Compressibility (1/GPa) = 0.02265915
#
# Stress axis : x y z
#
# Youngs Moduli (GPa) = 43.70574 121.46548 66.73401
#
# Poissons Ratio (x) = 0.28337 0.26957
# Poissons Ratio (y) = 0.10196 0.35683
# Poissons Ratio (z) = 0.17655 0.64948
#
# Static dielectric constant tensor:
#      x y z
#    x 3.001050 0.000000 0.000000 
#    y 0.000000 3.895090 0.000000 
#    z 0.000000 0.000000 2.984000 
# 
# 
# High freq. dielectric constant tensor:
#      x y z
#    x 1.640290 0.000000 0.000000 
#    y 0.000000 1.681610 0.000000 
#    z 0.000000 0.000000 1.607130 
# 
# From -- ./inp_files/22788.got.cif
#   From: 2010.03.12/outbox.cif.g09.slc.cpg/sg44_12_cif.got.tgz:22788.got - 2010.04.14 02:36:11.
