data_PCOD8188281
_publ_section_title
;
Structure prediction by ZEFSAII (Michael W. Deem and Ramdas Pophale) SiO2 
 PCOD8188281
Probable space group: I M M 2
;
_chemical_formula_sum "Si O2"
_cell_formula_units_Z 64
_cell_length_a 8.578353
_cell_length_b 30.620631
_cell_length_c 14.458560
_cell_angle_alpha 90.000000
_cell_angle_beta 90.000000
_cell_angle_gamma 90.000000
_cell_volume 3797.896201
_symmetry_space_group_name_H-M "I M M 2"
_symmetry_group_IT_number 44
_symmetry_cell_setting 'orthorhombic'
loop_
_space_group_symop_operation_xyz
x,y,z
-x,-y,z
-x,y,z
x,-y,z
1/2+x,1/2+y,1/2+z
1/2-x,1/2-y,1/2+z
1/2-x,1/2+y,1/2+z
1/2+x,1/2-y,1/2+z
loop_
_atom_site_type_symbol
_atom_site_label
_atom_site_fract_x
_atom_site_fract_y
_atom_site_fract_z
Si Si1 0.683102 0.269456 0.319600
Si Si2 0.317372 0.714589 0.113784
Si Si3 0.685077 0.952293 0.436757
Si Si4 0.315321 0.952485 0.229016
Si Si5 0.182400 0.297635 0.497617
Si Si6 0.681810 0.862489 0.153877
Si Si7 0.820067 0.177611 0.329195
Si Si8 0.680380 0.862711 0.501600
O O1 0.500000 0.258861 0.317556
O O2 0.743105 0.285826 0.219598
O O3 0.724340 0.303664 0.401123
O O4 0.783267 0.227746 0.348904
O O5 0.500000 0.720105 0.114590
O O6 0.250342 0.755847 0.055832
O O7 0.275807 0.667932 0.070289
O O8 0.500000 0.951368 0.430255
O O9 0.750860 0.944325 0.332721
O O10 0.737123 0.913633 0.507330
O O11 0.742255 0.000000 0.473169
O O12 0.500000 0.953672 0.232680
O O13 0.261657 0.913100 0.161073
O O14 0.254345 0.000000 0.192730
O O15 0.214274 0.342710 0.552838
O O16 0.000000 0.291677 0.477630
O O17 0.500000 0.857763 0.179751
O O18 0.780513 0.833258 0.224012
O O19 0.709486 0.149514 0.395249
O O20 0.000000 0.168366 0.352236
O O21 0.500000 0.857395 0.526651
#
# Coordination Sequence:
#
# PCOD8188281 Si02
#       8
#     8   8   8   8   8   8   8   8
#     4  11  22  37  52  66  92 129 166 199 234 280
#     4  10  21  35  49  69  97 125 157 200 240 275
#     4   8  14  25  44  71  98 122 154 195 231 273
#     4   8  13  23  44  72  97 123 157 194 231 276
#     4  10  20  33  49  71  98 125 157 200 242 277
#     4  10  18  32  50  69  97 131 164 196 234 281
#     4  12  22  30  45  69 100 130 161 200 234 274
#     4  11  20  31  50  72  95 129 166 193 232 288
#
# _framework density 16.851434999999999
#
# number of rings (size 3 to 8) (size 9 to 14) (size 15 to 20)
#    0.000    2.000    3.750    2.625    0.000    1.500 
#    0.000    0.000    0.000    2.625    0.000    0.875 
#    0.000    5.000    0.000    0.000    0.000    0.000 
#
# Total GULP energy -396574.650711 kJ/mol
# GULP energy per Si atom -12392.957835 kJ/mol
# Density = 1.681308 g / cm^3
# Si number density = 16.851435 Si / 1000 Ang^3
#
#
#
# Elastic Constant Matrix: (Units=GPa)
#
#
# Indices 1 2 3 4 5 6 
#
# 1 20.2665 8.5324 13.9862 -0.0001 0.0000 0.0000
# 2 8.5324 112.6289 34.9064 0.0000 0.0000 0.0000
# 3 13.9862 34.9064 85.4135 -0.0005 0.0000 0.0000
# 4 -0.0001 0.0000 -0.0005 24.3656 0.0000 0.0000
# 5 0.0000 0.0000 0.0000 0.0000 22.3563 0.0000
# 6 0.0000 0.0000 0.0000 0.0000 0.0000 14.5094
#
#
#
# Elastic Compliance Matrix: (Units=1/GPa)
#
#
# Indices 1 2 3 4 5 6 
#
# 1 0.055879 -0.001600 -0.008496 0.000000 0.000000 0.000000
# 2 -0.001600 0.010212 -0.003911 0.000000 0.000000 0.000000
# 3 -0.008496 -0.003911 0.014697 0.000000 0.000000 0.000000
# 4 0.000000 0.000000 0.000000 0.041041 0.000000 0.000000
# 5 0.000000 0.000000 0.000000 0.000000 0.044730 0.000000
# 6 0.000000 0.000000 0.000000 0.000000 0.000000 0.068921
#
#
# Mechanical properties :
#
#
# Convention : Reuss Voigt Hill
#
# Bulk Modulus (GPa) = 18.94882 37.01764 27.98323
# Shear Modulus (GPa) = 17.78801 22.97187 20.37994
#
# Velocity S-wave (km/s) = 3.25249 3.69616 3.48140
# Velocity P-wave (km/s) = 5.03726 6.34273 5.72731
#
# Compressibility (1/GPa) = 0.05277375
#
# Stress axis : x y z
#
# Youngs Moduli (GPa) = 17.89566 97.92226 68.03886
#
# Poissons Ratio (x) = 0.15668 0.57807
# Poissons Ratio (y) = 0.02863 0.26613
# Poissons Ratio (z) = 0.15204 0.38302
#
# Static dielectric constant tensor:
#      x y z
#    x 2.858680 0.000000 0.000000 
#    y 0.000000 3.508650 0.000000 
#    z 0.000000 0.000000 3.035490 
# 
# 
# High freq. dielectric constant tensor:
#      x y z
#    x 1.627150 0.000000 0.000000 
#    y 0.000000 1.646910 0.000000 
#    z 0.000000 0.000000 1.620290 
# 
# From -- ./inp_files/17134.got.cif
#   From: 2010.03.12/outbox.cif.g09.slc.cpg/sg44_9_cif.got.tgz:17134.got - 2010.04.14 02:36:11.
