data_PCOD8188123
_publ_section_title
;
Structure prediction by ZEFSAII (Michael W. Deem and Ramdas Pophale) SiO2 
 PCOD8188123
Probable space group: I M M 2
;
_chemical_formula_sum "Si O2"
_cell_formula_units_Z 64
_cell_length_a 23.462205
_cell_length_b 8.948470
_cell_length_c 19.197622
_cell_angle_alpha 90.000000
_cell_angle_beta 90.000000
_cell_angle_gamma 90.000000
_cell_volume 4030.556818
_symmetry_space_group_name_H-M "I M M 2"
_symmetry_group_IT_number 44
_symmetry_cell_setting 'orthorhombic'
loop_
_space_group_symop_operation_xyz
x,y,z
-x,-y,z
-x,y,z
x,-y,z
1/2+x,1/2+y,1/2+z
1/2-x,1/2-y,1/2+z
1/2-x,1/2+y,1/2+z
1/2+x,1/2-y,1/2+z
loop_
_atom_site_type_symbol
_atom_site_label
_atom_site_fract_x
_atom_site_fract_y
_atom_site_fract_z
Si Si1 0.260518 0.172864 0.608430
Si Si2 0.730565 0.828259 0.307954
Si Si3 0.562950 0.822395 0.817447
Si Si4 0.667513 0.175278 0.734071
Si Si5 0.157373 0.675236 0.682094
Si Si6 0.118748 0.323666 0.461190
Si Si7 0.434216 0.675590 0.096651
Si Si8 0.261847 0.670919 0.956642
O O1 0.316048 0.218404 0.654403
O O2 0.206802 0.273250 0.629312
O O3 0.274378 0.200930 0.527110
O O4 0.244554 0.000000 0.622827
O O5 0.785501 0.735328 0.286766
O O6 0.675479 0.782677 0.261646
O O7 0.720249 0.799359 0.390376
O O8 0.744791 0.000000 0.292116
O O9 0.500000 0.754442 0.804352
O O10 0.605433 0.761754 0.756591
O O11 0.585462 0.769242 0.892531
O O12 0.560052 0.000000 0.815954
O O13 0.666766 0.000000 0.745185
O O14 0.147590 0.500000 0.672091
O O15 0.099073 0.759821 0.663714
O O16 0.114735 0.500000 0.471630
O O17 0.089709 0.246155 0.526522
O O18 0.184358 0.278923 0.454037
O O19 0.500000 0.718414 0.105848
O O20 0.424475 0.500000 0.092970
O O21 0.284032 0.500000 0.955533
#
# Coordination Sequence:
#
# PCOD8188123 Si02
#       8
#     8   8   8   8   8   8   8   8
#     4   9  17  28  45  65  88 118 150 186 227 271
#     4   9  18  30  45  65  91 119 147 185 230 273
#     4   9  17  28  42  62  89 119 151 188 224 255
#     4   9  16  28  44  63  85 114 153 190 224 265
#     4  10  19  31  47  67  89 117 153 192 231 270
#     4  11  20  30  45  66  93 123 158 191 219 260
#     4  11  23  36  48  64  90 124 158 192 231 275
#     4  10  18  29  45  66  94 124 151 180 226 278
#
# _framework density 15.8787
#
# number of rings (size 3 to 8) (size 9 to 14) (size 15 to 20)
#    0.000    2.250    2.500    1.500    0.000    2.000 
#    0.000    0.000    0.000    1.125    0.000    0.875 
#    0.000    5.000    0.000    0.000    0.000    0.500 
#
# Total GULP energy -396634.133994 kJ/mol
# GULP energy per Si atom -12394.816687 kJ/mol
# Density = 1.584256 g / cm^3
# Si number density = 15.878700 Si / 1000 Ang^3
#
#
#
# Elastic Constant Matrix: (Units=GPa)
#
#
# Indices 1 2 3 4 5 6 
#
# 1 97.4631 25.5702 68.0278 0.0000 0.0000 0.0000
# 2 25.5702 35.5957 26.4786 0.0000 0.0000 0.0000
# 3 68.0278 26.4786 135.3390 0.0000 0.0000 0.0000
# 4 0.0000 0.0000 0.0000 16.2595 0.0000 0.0000
# 5 0.0000 0.0000 0.0000 0.0000 24.1318 0.0000
# 6 0.0000 0.0000 0.0000 0.0000 0.0000 12.5343
#
#
#
# Elastic Compliance Matrix: (Units=1/GPa)
#
#
# Indices 1 2 3 4 5 6 
#
# 1 0.017145 -0.006911 -0.007266 0.000000 0.000000 0.000000
# 2 -0.006911 0.035664 -0.003504 0.000000 0.000000 0.000000
# 3 -0.007266 -0.003504 0.011726 0.000000 0.000000 0.000000
# 4 0.000000 0.000000 0.000000 0.061502 0.000000 0.000000
# 5 0.000000 0.000000 0.000000 0.000000 0.041439 0.000000
# 6 0.000000 0.000000 0.000000 0.000000 0.000000 0.079781
#
#
# Mechanical properties :
#
#
# Convention : Reuss Voigt Hill
#
# Bulk Modulus (GPa) = 34.27671 56.50568 45.39119
# Shear Modulus (GPa) = 17.10314 20.47320 18.78817
#
# Velocity S-wave (km/s) = 3.28550 3.59465 3.44354
# Velocity P-wave (km/s) = 6.00218 7.27267 6.66775
#
# Compressibility (1/GPa) = 0.02917433
#
# Stress axis : x y z
#
# Youngs Moduli (GPa) = 58.32656 28.03925 85.27778
#
# Poissons Ratio (x) = 0.19379 0.61960
# Poissons Ratio (y) = 0.40311 0.29878
# Poissons Ratio (z) = 0.42378 0.09824
#
# Static dielectric constant tensor:
#      x y z
#    x 3.106470 0.000000 0.000000 
#    y 0.000000 3.002600 0.000000 
#    z 0.000000 0.000000 3.313730 
# 
# 
# High freq. dielectric constant tensor:
#      x y z
#    x 1.580780 0.000000 0.000000 
#    y 0.000000 1.607110 0.000000 
#    z 0.000000 0.000000 1.611640 
# 
# From -- ./inp_files/20898.got.cif
#   From: 2010.03.12/outbox.cif.g09.slc.cpg/sg44_11_cif.got.tgz:20898.got - 2010.04.14 02:36:11.
