data_PCOD8188812
_publ_section_title
;
Structure prediction by ZEFSAII (Michael W. Deem and Ramdas Pophale) SiO2 
 PCOD8188812
Probable space group: I M M 2
;
_chemical_formula_sum "Si O2"
_cell_formula_units_Z 40
_cell_length_a 25.751504
_cell_length_b 8.790666
_cell_length_c 9.621246
_cell_angle_alpha 90.000000
_cell_angle_beta 90.000000
_cell_angle_gamma 90.000000
_cell_volume 2177.989076
_symmetry_space_group_name_H-M "I M M 2"
_symmetry_group_IT_number 44
_symmetry_cell_setting 'orthorhombic'
loop_
_space_group_symop_operation_xyz
x,y,z
-x,-y,z
-x,y,z
x,-y,z
1/2+x,1/2+y,1/2+z
1/2-x,1/2-y,1/2+z
1/2-x,1/2+y,1/2+z
1/2+x,1/2-y,1/2+z
loop_
_atom_site_type_symbol
_atom_site_label
_atom_site_fract_x
_atom_site_fract_y
_atom_site_fract_z
Si Si1 0.058000 0.320476 0.646980
Si Si2 0.358814 0.179877 0.370511
Si Si3 0.867868 0.175681 0.442467
Si Si4 0.671400 0.679281 0.644425
Si Si5 0.217362 0.177621 0.665918
O O1 0.056360 0.500000 0.643927
O O2 0.092581 0.264754 0.777184
O O3 0.083035 0.266158 0.502526
O O4 0.000000 0.252878 0.662260
O O5 0.364286 0.266486 0.516693
O O6 0.305366 0.228789 0.295928
O O7 0.358393 0.000000 0.394702
O O8 0.858734 0.225988 0.284218
O O9 0.815904 0.213562 0.528449
O O10 0.882104 0.000000 0.453625
O O11 0.682206 0.500000 0.639020
O O12 0.725022 0.768835 0.634560
O O13 0.216644 0.000000 0.703688
#
# Coordination Sequence:
#
# PCOD8188812 Si02
#       5
#     8   8   8   8   8
#     4   9  19  37  59  78  96 125 169 217 261 308
#     4  10  20  34  52  76 106 138 173 211 254 304
#     4   9  20  35  51  75 105 135 169 210 253 302
#     4  11  21  33  50  76 110 141 172 210 252 301
#     4  10  19  33  53  76 104 140 178 211 252 302
#
# _framework density 18.365566000000001
#
# number of rings (size 3 to 8) (size 9 to 14) (size 15 to 20)
#    0.000    2.200    0.000    3.000    0.000    5.200 
#    0.000    1.000    0.000    3.600    0.000    0.000 
#    0.000    0.000    0.000    0.000    0.000    0.000 
#
# Total GULP energy -248066.692602 kJ/mol
# GULP energy per Si atom -12403.334630 kJ/mol
# Density = 1.832377 g / cm^3
# Si number density = 18.365566 Si / 1000 Ang^3
#
#
#
# Elastic Constant Matrix: (Units=GPa)
#
#
# Indices 1 2 3 4 5 6 
#
# 1 116.7992 22.1640 52.2453 0.0000 0.0000 0.0000
# 2 22.1640 39.8776 29.7205 0.0000 0.0000 0.0000
# 3 52.2453 29.7205 145.0608 0.0000 0.0000 0.0000
# 4 0.0000 0.0000 0.0000 33.5150 0.0000 0.0000
# 5 0.0000 0.0000 0.0000 0.0000 11.5326 0.0000
# 6 0.0000 0.0000 0.0000 0.0000 0.0000 25.0446
#
#
#
# Elastic Compliance Matrix: (Units=1/GPa)
#
#
# Indices 1 2 3 4 5 6 
#
# 1 0.010627 -0.003604 -0.003089 0.000000 0.000000 0.000000
# 2 -0.003604 0.030819 -0.005016 0.000000 0.000000 0.000000
# 3 -0.003089 -0.005016 0.009034 0.000000 0.000000 0.000000
# 4 0.000000 0.000000 0.000000 0.029837 0.000000 0.000000
# 5 0.000000 0.000000 0.000000 0.000000 0.086711 0.000000
# 6 0.000000 0.000000 0.000000 0.000000 0.000000 0.039929
#
#
# Mechanical properties :
#
#
# Convention : Reuss Voigt Hill
#
# Bulk Modulus (GPa) = 36.95387 56.66635 46.81011
# Shear Modulus (GPa) = 20.88586 27.19230 24.03908
#
# Velocity S-wave (km/s) = 3.37594 3.85205 3.62183
# Velocity P-wave (km/s) = 5.94651 7.12082 6.55999
#
# Compressibility (1/GPa) = 0.02706076
#
# Stress axis : x y z
#
# Youngs Moduli (GPa) = 94.09566 32.44803 110.69375
#
# Poissons Ratio (x) = 0.11696 0.34195
# Poissons Ratio (y) = 0.33917 0.55524
# Poissons Ratio (z) = 0.29067 0.16276
#
# Static dielectric constant tensor:
#      x y z
#    x 3.402130 0.000000 0.000000 
#    y 0.000000 3.358630 0.000000 
#    z 0.000000 0.000000 3.562020 
# 
# 
# High freq. dielectric constant tensor:
#      x y z
#    x 1.694360 0.000000 0.000000 
#    y 0.000000 1.715950 0.000000 
#    z 0.000000 0.000000 1.718140 
# 
# From -- ./inp_files/4422.got.cif
#   From: 2010.03.12/outbox.cif.g09.slc.cpg/sg44_3_cif.got.tgz:4422.got - 2010.04.14 02:36:11.
