data_PCOD8188188
_publ_section_title
;
Structure prediction by ZEFSAII (Michael W. Deem and Ramdas Pophale) SiO2 
 PCOD8188188
Probable space group: I M M 2
;
_chemical_formula_sum "Si O2"
_cell_formula_units_Z 56
_cell_length_a 12.038902
_cell_length_b 22.200605
_cell_length_c 12.128074
_cell_angle_alpha 90.000000
_cell_angle_beta 90.000000
_cell_angle_gamma 90.000000
_cell_volume 3241.481349
_symmetry_space_group_name_H-M "I M M 2"
_symmetry_group_IT_number 44
_symmetry_cell_setting 'orthorhombic'
loop_
_space_group_symop_operation_xyz
x,y,z
-x,-y,z
-x,y,z
x,-y,z
1/2+x,1/2+y,1/2+z
1/2-x,1/2-y,1/2+z
1/2-x,1/2+y,1/2+z
1/2+x,1/2-y,1/2+z
loop_
_atom_site_type_symbol
_atom_site_label
_atom_site_fract_x
_atom_site_fract_y
_atom_site_fract_z
Si Si1 0.282190 0.362797 0.394150
Si Si2 0.119367 0.694611 0.237739
Si Si3 0.000000 0.933403 0.891064
Si Si4 0.500000 0.432319 0.650017
Si Si5 0.726743 0.736804 0.559542
Si Si6 0.377296 0.303806 0.905251
Si Si7 0.224240 0.131512 0.222144
Si Si8 0.373453 0.929646 0.070186
O O1 0.214280 0.349796 0.282485
O O2 0.389110 0.399097 0.353109
O O3 0.322036 0.301195 0.455714
O O4 0.202438 0.398739 0.477633
O O5 0.140462 0.715688 0.111609
O O6 0.111663 0.752679 0.314210
O O7 0.000000 0.661081 0.239177
O O8 0.000000 0.939568 0.020732
O O9 0.000000 0.000000 0.837169
O O10 0.500000 0.500000 0.703085
O O11 0.393211 0.393860 0.681285
O O12 0.831712 0.776120 0.518655
O O13 0.762622 0.691474 0.656552
O O14 0.500000 0.331506 0.928336
O O15 0.292478 0.353960 0.852530
O O16 0.321511 0.083720 0.192402
O O17 0.500000 0.905372 0.064027
O O18 0.370207 0.000000 0.048104
#
# Coordination Sequence:
#
# PCOD8188188 Si02
#       8
#     8   8   4   4   8   8   8   8
#     4  10  19  31  48  71 102 128 162 200 244 293
#     4   9  18  31  48  66  95 134 171 195 233 287
#     4  11  20  30  50  75 103 131 157 206 260 293
#     4  11  18  28  50  77  99 129 163 202 250 297
#     4   9  18  28  47  70  94 131 166 195 235 281
#     4   9  17  31  47  67  95 133 166 201 239 286
#     4  10  18  30  49  70 101 128 162 200 242 291
#     4  10  19  30  47  70 100 128 155 195 246 295
#
# _framework density 17.276052
#
# number of rings (size 3 to 8) (size 9 to 14) (size 15 to 20)
#    0.000    2.286    3.571    1.286    2.000    3.429 
#    1.286    0.714    7.857    0.000    0.000    5.000 
#    0.000    2.286    0.000    0.000    0.000    0.000 
#
# Total GULP energy -346888.408812 kJ/mol
# GULP energy per Si atom -12388.871743 kJ/mol
# Density = 1.723673 g / cm^3
# Si number density = 17.276052 Si / 1000 Ang^3
#
#
#
# Elastic Constant Matrix: (Units=GPa)
#
#
# Indices 1 2 3 4 5 6 
#
# 1 141.0662 49.7986 42.6350 0.0000 0.0000 0.0000
# 2 49.7986 63.6212 32.2186 0.0001 0.0000 0.0000
# 3 42.6350 32.2186 55.2218 -0.0003 0.0000 0.0000
# 4 0.0000 0.0001 -0.0003 13.3116 0.0000 0.0000
# 5 0.0000 0.0000 0.0000 0.0000 14.0555 0.0000
# 6 0.0000 0.0000 0.0000 0.0000 0.0000 33.9957
#
#
#
# Elastic Compliance Matrix: (Units=1/GPa)
#
#
# Indices 1 2 3 4 5 6 
#
# 1 0.010606 -0.005897 -0.004748 0.000000 0.000000 0.000000
# 2 -0.005897 0.025589 -0.010377 0.000000 0.000000 0.000000
# 3 -0.004748 -0.010377 0.027828 0.000001 0.000000 0.000000
# 4 0.000000 0.000000 0.000001 0.075122 0.000000 0.000000
# 5 0.000000 0.000000 0.000000 0.000000 0.071147 0.000000
# 6 0.000000 0.000000 0.000000 0.000000 0.000000 0.029415
#
#
# Mechanical properties :
#
#
# Convention : Reuss Voigt Hill
#
# Bulk Modulus (GPa) = 45.49560 56.57930 51.03745
# Shear Modulus (GPa) = 17.29647 21.28969 19.29308
#
# Velocity S-wave (km/s) = 3.16758 3.51426 3.34541
# Velocity P-wave (km/s) = 6.30632 7.02053 6.67299
#
# Compressibility (1/GPa) = 0.02198015
#
# Stress axis : x y z
#
# Youngs Moduli (GPa) = 94.29069 39.07980 35.93461
#
# Poissons Ratio (x) = 0.23046 0.17060
# Poissons Ratio (y) = 0.55604 0.37288
# Poissons Ratio (z) = 0.44765 0.40551
#
# Static dielectric constant tensor:
#      x y z
#    x 3.466260 0.000000 0.000000 
#    y 0.000000 3.299610 0.000000 
#    z 0.000000 0.000000 3.074190 
# 
# 
# High freq. dielectric constant tensor:
#      x y z
#    x 1.670140 0.000000 0.000000 
#    y 0.000000 1.648240 0.000000 
#    z 0.000000 0.000000 1.626850 
# 
# From -- ./inp_files/12620.got.cif
#   From: 2010.03.12/outbox.cif.g09.slc.cpg/sg44_7_cif.got.tgz:12620.got - 2010.04.14 02:36:11.
