data_PCOD8188264
_publ_section_title
;
Structure prediction by ZEFSAII (Michael W. Deem and Ramdas Pophale) SiO2 
 PCOD8188264
Probable space group: I M M 2
;
_chemical_formula_sum "Si O2"
_cell_formula_units_Z 64
_cell_length_a 20.763766
_cell_length_b 8.979843
_cell_length_c 19.654594
_cell_angle_alpha 90.000000
_cell_angle_beta 90.000000
_cell_angle_gamma 90.000000
_cell_volume 3664.704376
_symmetry_space_group_name_H-M "I M M 2"
_symmetry_group_IT_number 44
_symmetry_cell_setting 'orthorhombic'
loop_
_space_group_symop_operation_xyz
x,y,z
-x,-y,z
-x,y,z
x,-y,z
1/2+x,1/2+y,1/2+z
1/2-x,1/2-y,1/2+z
1/2-x,1/2+y,1/2+z
1/2+x,1/2-y,1/2+z
loop_
_atom_site_type_symbol
_atom_site_label
_atom_site_fract_x
_atom_site_fract_y
_atom_site_fract_z
Si Si1 0.760146 0.826053 0.024730
Si Si2 0.688784 0.324764 0.384136
Si Si3 0.875181 0.823721 0.527921
Si Si4 0.571885 0.672663 0.296375
Si Si5 0.927478 0.671625 0.399850
Si Si6 0.812979 0.675811 0.304610
Si Si7 0.878853 0.325088 0.666909
Si Si8 0.769947 0.828551 0.175377
O O1 0.696778 0.730194 0.012495
O O2 0.792243 0.791127 0.097954
O O3 0.739803 0.000000 0.021796
O O4 0.809529 0.783349 0.964302
O O5 0.690625 0.500000 0.375391
O O6 0.622669 0.262816 0.351607
O O7 0.751148 0.258236 0.345212
O O8 0.920970 0.770043 0.467297
O O9 0.901504 0.754229 0.597897
O O10 0.877061 0.000000 0.533621
O O11 0.500000 0.694077 0.326057
O O12 0.585968 0.500000 0.280105
O O13 0.577088 0.765240 0.227302
O O14 0.912243 0.500000 0.418259
O O15 0.878086 0.728956 0.342020
O O16 0.000000 0.689910 0.371556
O O17 0.809885 0.500000 0.300925
O O18 0.813158 0.735577 0.227557
O O19 0.888642 0.500000 0.657859
O O20 0.804831 0.284308 0.682995
O O21 0.780832 0.000000 0.192640
#
# Coordination Sequence:
#
# PCOD8188264 Si02
#       8
#     8   8   8   8   8   8   8   8
#     4   9  17  33  53  74 102 135 171 206 247 297
#     4   9  16  30  53  75  98 130 168 208 247 293
#     4  11  21  32  50  76 105 133 166 208 254 296
#     4  10  20  33  50  75 104 133 167 210 255 293
#     4  10  21  37  54  72  97 133 173 208 247 301
#     4  10  18  31  54  76  97 129 167 205 249 297
#     4  10  20  34  51  71 101 140 176 203 240 297
#     4   9  18  30  49  76 102 128 162 208 251 292
#
# _framework density 17.463892000000001
#
# number of rings (size 3 to 8) (size 9 to 14) (size 15 to 20)
#    0.000    2.250    2.500    2.250    0.000    3.500 
#    0.000    0.625    0.000    0.750    0.000    1.750 
#    0.000    0.000    0.000    0.000    0.000    0.000 
#
# Total GULP energy -396770.479772 kJ/mol
# GULP energy per Si atom -12399.077493 kJ/mol
# Density = 1.742414 g / cm^3
# Si number density = 17.463892 Si / 1000 Ang^3
#
#
#
# Elastic Constant Matrix: (Units=GPa)
#
#
# Indices 1 2 3 4 5 6 
#
# 1 103.3014 29.9112 66.8478 0.0000 0.0000 0.0000
# 2 29.9112 57.3856 32.6283 0.0000 0.0000 0.0000
# 3 66.8478 32.6283 132.0898 0.0000 0.0000 0.0000
# 4 0.0000 0.0000 0.0000 28.4520 0.0000 0.0000
# 5 0.0000 0.0000 0.0000 0.0000 24.6443 0.0000
# 6 0.0000 0.0000 0.0000 0.0000 0.0000 15.5293
#
#
#
# Elastic Compliance Matrix: (Units=1/GPa)
#
#
# Indices 1 2 3 4 5 6 
#
# 1 0.015190 -0.004126 -0.006668 0.000000 0.000000 0.000000
# 2 -0.004126 0.021394 -0.003196 0.000000 0.000000 0.000000
# 3 -0.006668 -0.003196 0.011735 0.000000 0.000000 0.000000
# 4 0.000000 0.000000 0.000000 0.035147 0.000000 0.000000
# 5 0.000000 0.000000 0.000000 0.000000 0.040577 0.000000
# 6 0.000000 0.000000 0.000000 0.000000 0.000000 0.064394
#
#
# Mechanical properties :
#
#
# Convention : Reuss Voigt Hill
#
# Bulk Modulus (GPa) = 49.17059 61.28347 55.22703
# Shear Modulus (GPa) = 22.40154 24.61775 23.50965
#
# Velocity S-wave (km/s) = 3.58541 3.75859 3.67302
# Velocity P-wave (km/s) = 6.73476 7.34872 7.04843
#
# Compressibility (1/GPa) = 0.02033736
#
# Stress axis : x y z
#
# Youngs Moduli (GPa) = 65.83159 46.74167 85.21636
#
# Poissons Ratio (x) = 0.19287 0.56824
# Poissons Ratio (y) = 0.27164 0.27239
# Poissons Ratio (z) = 0.43898 0.14941
#
# Static dielectric constant tensor:
#      x y z
#    x 3.159830 0.000000 0.000000 
#    y 0.000000 3.051180 0.000000 
#    z 0.000000 0.000000 3.400470 
# 
# 
# High freq. dielectric constant tensor:
#      x y z
#    x 1.648790 0.000000 0.000000 
#    y 0.000000 1.658910 0.000000 
#    z 0.000000 0.000000 1.678710 
# 
# From -- ./inp_files/22278.got.cif
#   From: 2010.03.12/outbox.cif.g09.slc.cpg/sg44_12_cif.got.tgz:22278.got - 2010.04.14 02:36:11.
