data_PCOD8188677
_publ_section_title
;
Structure prediction by ZEFSAII (Michael W. Deem and Ramdas Pophale) SiO2 
 PCOD8188677
Probable space group: I M M 2
;
_chemical_formula_sum "Si O2"
_cell_formula_units_Z 48
_cell_length_a 29.469138
_cell_length_b 10.421463
_cell_length_c 8.459005
_cell_angle_alpha 90.000000
_cell_angle_beta 90.000000
_cell_angle_gamma 90.000000
_cell_volume 2597.857979
_symmetry_space_group_name_H-M "I M M 2"
_symmetry_group_IT_number 44
_symmetry_cell_setting 'orthorhombic'
loop_
_space_group_symop_operation_xyz
x,y,z
-x,-y,z
-x,y,z
x,-y,z
1/2+x,1/2+y,1/2+z
1/2-x,1/2-y,1/2+z
1/2-x,1/2+y,1/2+z
1/2+x,1/2-y,1/2+z
loop_
_atom_site_type_symbol
_atom_site_label
_atom_site_fract_x
_atom_site_fract_y
_atom_site_fract_z
Si Si1 0.644918 0.353919 0.644430
Si Si2 0.810645 0.269559 0.701546
Si Si3 0.382301 0.355277 0.999567
Si Si4 0.236493 0.856843 0.977629
Si Si5 0.052717 0.353496 0.630919
Si Si6 0.613148 0.140615 0.416789
O O1 0.631016 0.500000 0.597927
O O2 0.638787 0.329373 0.828531
O O3 0.697412 0.327131 0.605635
O O4 0.614473 0.254168 0.544844
O O5 0.842470 0.157230 0.630212
O O6 0.785710 0.336398 0.554748
O O7 0.843551 0.363672 0.798610
O O8 0.771084 0.223622 0.818869
O O9 0.402081 0.500000 0.012841
O O10 0.421431 0.249592 0.022052
O O11 0.233544 0.000000 0.916468
O O12 0.062854 0.500000 0.573698
O O13 0.068059 0.337406 0.812843
O O14 0.000000 0.321352 0.619597
O O15 0.611425 0.000000 0.499807
#
# Coordination Sequence:
#
# PCOD8188677 Si02
#       6
#     8   8   8   8   8   8
#     4   9  19  34  51  73 103 137 171 211 253 295
#     4  10  19  32  49  73 101 134 171 214 255 297
#     4  10  20  35  54  76 104 136 170 208 253 302
#     4  10  19  32  49  70  99 135 175 213 252 297
#     4   9  19  36  57  80 104 130 163 205 252 304
#     4   9  18  33  53  75 100 131 167 207 254 306
#
# _framework density 18.476762000000001
#
# number of rings (size 3 to 8) (size 9 to 14) (size 15 to 20)
#    0.000    2.500    0.000    2.000    0.000    5.667 
#    0.000   11.667    0.000    3.000    0.000    0.000 
#    0.000    0.000    0.000    0.000    0.000    0.000 
#
# Total GULP energy -297454.287174 kJ/mol
# GULP energy per Si atom -12393.928632 kJ/mol
# Density = 1.843471 g / cm^3
# Si number density = 18.476762 Si / 1000 Ang^3
#
#
#
# Elastic Constant Matrix: (Units=GPa)
#
#
# Indices 1 2 3 4 5 6 
#
# 1 65.9861 29.8081 23.1363 0.0000 0.0000 0.0000
# 2 29.8081 105.1742 40.1696 0.0000 0.0000 0.0000
# 3 23.1363 40.1696 75.0355 0.0000 0.0000 0.0000
# 4 0.0000 0.0000 0.0000 27.9060 0.0000 0.0000
# 5 0.0000 0.0000 0.0000 0.0000 21.7677 0.0000
# 6 0.0000 0.0000 0.0000 0.0000 0.0000 24.4688
#
#
#
# Elastic Compliance Matrix: (Units=1/GPa)
#
#
# Indices 1 2 3 4 5 6 
#
# 1 0.018108 -0.003771 -0.003565 0.000000 0.000000 0.000000
# 2 -0.003771 0.012737 -0.005656 0.000000 0.000000 0.000000
# 3 -0.003565 -0.005656 0.017454 0.000000 0.000000 0.000000
# 4 0.000000 0.000000 0.000000 0.035835 0.000000 0.000000
# 5 0.000000 0.000000 0.000000 0.000000 0.045940 0.000000
# 6 0.000000 0.000000 0.000000 0.000000 0.000000 0.040868
#
#
# Mechanical properties :
#
#
# Convention : Reuss Voigt Hill
#
# Bulk Modulus (GPa) = 44.81057 48.04709 46.42883
# Shear Modulus (GPa) = 24.46628 25.03395 24.75012
#
# Velocity S-wave (km/s) = 3.64286 3.68487 3.66393
# Velocity P-wave (km/s) = 6.48066 6.64567 6.56368
#
# Compressibility (1/GPa) = 0.02231616
#
# Stress axis : x y z
#
# Youngs Moduli (GPa) = 55.22445 78.51216 57.29321
#
# Poissons Ratio (x) = 0.29603 0.20424
# Poissons Ratio (y) = 0.20823 0.32405
# Poissons Ratio (z) = 0.19687 0.44406
#
# Static dielectric constant tensor:
#      x y z
#    x 3.253330 0.000000 0.000000 
#    y 0.000000 3.458310 0.000000 
#    z 0.000000 0.000000 3.277620 
# 
# 
# High freq. dielectric constant tensor:
#      x y z
#    x 1.697760 0.000000 0.000000 
#    y 0.000000 1.722510 0.000000 
#    z 0.000000 0.000000 1.709490 
# 
# From -- ./inp_files/4923.got.cif
#   From: 2010.03.12/outbox.cif.g09.slc.cpg/sg44_3_cif.got.tgz:4923.got - 2010.04.14 02:36:11.
