data_PCOD8188533
_publ_section_title
;
Structure prediction by ZEFSAII (Michael W. Deem and Ramdas Pophale) SiO2 
 PCOD8188533
Probable space group: I M M 2
;
_chemical_formula_sum "Si O2"
_cell_formula_units_Z 64
_cell_length_a 8.941653
_cell_length_b 27.181788
_cell_length_c 14.685437
_cell_angle_alpha 90.000000
_cell_angle_beta 90.000000
_cell_angle_gamma 90.000000
_cell_volume 3569.297170
_symmetry_space_group_name_H-M "I M M 2"
_symmetry_group_IT_number 44
_symmetry_cell_setting 'orthorhombic'
loop_
_space_group_symop_operation_xyz
x,y,z
-x,-y,z
-x,y,z
x,-y,z
1/2+x,1/2+y,1/2+z
1/2-x,1/2-y,1/2+z
1/2-x,1/2+y,1/2+z
1/2+x,1/2-y,1/2+z
loop_
_atom_site_type_symbol
_atom_site_label
_atom_site_fract_x
_atom_site_fract_y
_atom_site_fract_z
Si Si1 0.327669 0.557745 0.857640
Si Si2 0.672397 0.370513 0.175349
Si Si3 0.175556 0.630629 0.726262
Si Si4 0.324508 0.324853 0.355526
Si Si5 0.826143 0.556917 0.043512
Si Si6 0.827789 0.778684 0.547750
Si Si7 0.676475 0.675469 0.559621
Si Si8 0.824190 0.284822 0.865646
O O1 0.500000 0.573398 0.856630
O O2 0.305105 0.500000 0.844874
O O3 0.242837 0.582829 0.774154
O O4 0.259151 0.575424 0.953450
O O5 0.500000 0.387860 0.173374
O O6 0.735868 0.362345 0.278379
O O7 0.771413 0.412788 0.130432
O O8 0.691485 0.318349 0.126501
O O9 0.248860 0.636363 0.627231
O O10 0.216343 0.678962 0.783982
O O11 0.000000 0.623307 0.715164
O O12 0.500000 0.322130 0.340770
O O13 0.283283 0.342765 0.457198
O O14 0.263629 0.269436 0.340157
O O15 0.791296 0.500000 0.063228
O O16 0.000000 0.566469 0.026752
O O17 0.739334 0.729908 0.577005
O O18 0.760947 0.802695 0.456136
O O19 0.000000 0.764290 0.533131
O O20 0.500000 0.676809 0.575331
O O21 0.000000 0.284606 0.887540
#
# Coordination Sequence:
#
# PCOD8188533 Si02
#       8
#     8   8   8   8   8   8   8   8
#     4  10  21  37  56  78 104 133 166 204 248 304
#     4  10  19  32  52  74  98 132 173 213 253 301
#     4  11  21  33  53  78 104 134 170 213 258 304
#     4   8  16  32  50  68  95 133 173 209 245 288
#     4  10  21  36  53  76 106 134 161 201 255 310
#     4  10  19  30  47  74 105 134 167 208 251 296
#     4  10  20  34  51  71 101 140 177 212 251 297
#     4   9  18  32  48  69 101 137 167 200 247 301
#
# _framework density 17.930700000000002
#
# number of rings (size 3 to 8) (size 9 to 14) (size 15 to 20)
#    0.000    2.250    0.000    4.125    0.000    7.500 
#    0.000    3.125    0.000    0.750    0.000    1.750 
#    0.000    0.000    0.000    0.000    0.000    0.000 
#
# Total GULP energy -396835.136034 kJ/mol
# GULP energy per Si atom -12401.098001 kJ/mol
# Density = 1.788989 g / cm^3
# Si number density = 17.930700 Si / 1000 Ang^3
#
#
#
# Elastic Constant Matrix: (Units=GPa)
#
#
# Indices 1 2 3 4 5 6 
#
# 1 84.7191 39.4326 54.2779 0.0000 -0.0001 -0.0001
# 2 39.4326 57.9659 50.8871 -0.0001 0.0000 0.0000
# 3 54.2779 50.8871 128.2658 -0.0007 0.0000 -0.0002
# 4 0.0000 -0.0001 -0.0007 30.1910 0.0000 -0.0001
# 5 -0.0001 0.0000 0.0000 0.0000 26.0694 -0.0001
# 6 -0.0001 0.0000 -0.0002 -0.0001 -0.0001 28.0019
#
#
#
# Elastic Compliance Matrix: (Units=1/GPa)
#
#
# Indices 1 2 3 4 5 6 
#
# 1 0.018772 -0.008894 -0.004415 0.000000 0.000000 0.000000
# 2 -0.008894 0.030685 -0.008410 0.000000 0.000000 0.000000
# 3 -0.004415 -0.008410 0.013001 0.000000 0.000000 0.000000
# 4 0.000000 0.000000 0.000000 0.033122 0.000000 0.000000
# 5 0.000000 0.000000 0.000000 0.000000 0.038359 0.000000
# 6 0.000000 0.000000 0.000000 0.000000 0.000000 0.035712
#
#
# Mechanical properties :
#
#
# Convention : Reuss Voigt Hill
#
# Bulk Modulus (GPa) = 52.57723 62.23843 57.40783
# Shear Modulus (GPa) = 22.78628 25.27602 24.03115
#
# Velocity S-wave (km/s) = 3.56869 3.75860 3.66488
# Velocity P-wave (km/s) = 6.80932 7.32271 7.07068
#
# Compressibility (1/GPa) = 0.01901964
#
# Stress axis : x y z
#
# Youngs Moduli (GPa) = 53.26999 32.58933 76.91627
#
# Poissons Ratio (x) = 0.28986 0.33960
# Poissons Ratio (y) = 0.47380 0.64686
# Poissons Ratio (z) = 0.23520 0.27407
#
# Static dielectric constant tensor:
#      x y z
#    x 3.330880 0.000000 0.000000 
#    y 0.000000 3.151330 0.000000 
#    z 0.000000 0.000000 3.531950 
# 
# 
# High freq. dielectric constant tensor:
#      x y z
#    x 1.693320 0.000000 0.000000 
#    y 0.000000 1.672040 0.000000 
#    z 0.000000 0.000000 1.697150 
# 
# From -- ./inp_files/16765.got.cif
#   From: 2010.03.12/outbox.cif.g09.slc.cpg/sg44_9_cif.got.tgz:16765.got - 2010.04.14 02:36:11.
