data_PCOD8188072
_publ_section_title
;
Structure prediction by ZEFSAII (Michael W. Deem and Ramdas Pophale) SiO2 
 PCOD8188072
Probable space group: I M M 2
;
_chemical_formula_sum "Si O2"
_cell_formula_units_Z 56
_cell_length_a 13.802794
_cell_length_b 7.812794
_cell_length_c 32.228456
_cell_angle_alpha 90.000000
_cell_angle_beta 90.000000
_cell_angle_gamma 90.000000
_cell_volume 3475.464683
_symmetry_space_group_name_H-M "I M M 2"
_symmetry_group_IT_number 44
_symmetry_cell_setting 'orthorhombic'
loop_
_space_group_symop_operation_xyz
x,y,z
-x,-y,z
-x,y,z
x,-y,z
1/2+x,1/2+y,1/2+z
1/2-x,1/2-y,1/2+z
1/2-x,1/2+y,1/2+z
1/2+x,1/2-y,1/2+z
loop_
_atom_site_type_symbol
_atom_site_label
_atom_site_fract_x
_atom_site_fract_y
_atom_site_fract_z
Si Si1 0.891353 0.302900 0.556980
Si Si2 0.210353 0.805917 0.637982
Si Si3 0.388590 0.190153 0.217780
Si Si4 0.385565 0.500000 0.366133
Si Si5 0.893164 0.703693 0.090570
Si Si6 0.786764 0.298074 0.010004
Si Si7 0.113742 0.697458 0.925589
Si Si8 0.884747 0.000000 0.773715
O O1 0.888948 0.500000 0.569649
O O2 0.855590 0.197866 0.596866
O O3 0.822552 0.269317 0.517197
O O4 0.000000 0.244164 0.545091
O O5 0.169474 0.690535 0.674745
O O6 0.318411 0.738762 0.626526
O O7 0.212619 0.000000 0.654182
O O8 0.500000 0.232643 0.207324
O O9 0.347564 0.329427 0.250198
O O10 0.378081 0.000000 0.237297
O O11 0.500000 0.500000 0.362779
O O12 0.352555 0.674633 0.389091
O O13 0.339860 0.500000 0.319999
O O14 0.895989 0.500000 0.088529
O O15 0.000000 0.778646 0.100047
O O16 0.856138 0.775743 0.046307
O O17 0.786167 0.500000 0.012214
O O18 0.827493 0.238601 0.965811
O O19 0.138098 0.500000 0.913548
O O20 0.000000 0.716090 0.935274
O O21 0.000000 0.000000 0.776227
#
# Coordination Sequence:
#
# PCOD8188072 Si02
#       8
#     8   8   8   4   8   8   8   4
#     4  10  20  30  40  58  86 119 154 194 231 262
#     4  10  18  28  44  63  86 119 155 189 225 266
#     4  10  19  30  46  66  90 121 152 186 225 267
#     4   9  18  30  46  68  93 121 151 187 228 268
#     4   8  14  25  41  61  86 117 152 188 223 260
#     4   9  17  28  44  63  84 117 154 187 223 261
#     4   9  17  29  46  68  93 121 152 184 221 270
#     4   9  18  32  46  66  93 119 153 189 224 274
#
# _framework density 16.112952
#
# number of rings (size 3 to 8) (size 9 to 14) (size 15 to 20)
#    0.000    2.714    0.714    2.571    1.000    5.143 
#    0.000    2.857    0.000    7.714    0.000    0.000 
#    0.000    2.286    0.000    3.143    0.000    0.286 
#
# Total GULP energy -347083.609026 kJ/mol
# GULP energy per Si atom -12395.843179 kJ/mol
# Density = 1.607628 g / cm^3
# Si number density = 16.112952 Si / 1000 Ang^3
#
#
#
# Elastic Constant Matrix: (Units=GPa)
#
#
# Indices 1 2 3 4 5 6 
#
# 1 92.7859 18.7965 44.2167 0.0000 0.0000 0.0000
# 2 18.7965 70.3754 45.3958 0.0000 0.0000 0.0000
# 3 44.2167 45.3958 109.9100 0.0000 0.0000 0.0000
# 4 0.0000 0.0000 0.0000 18.6729 0.0000 0.0000
# 5 0.0000 0.0000 0.0000 0.0000 15.8140 0.0000
# 6 0.0000 0.0000 0.0000 0.0000 0.0000 12.2983
#
#
#
# Elastic Compliance Matrix: (Units=1/GPa)
#
#
# Indices 1 2 3 4 5 6 
#
# 1 0.013335 -0.000138 -0.005308 0.000000 0.000000 0.000000
# 2 -0.000138 0.019372 -0.007946 0.000000 0.000000 0.000000
# 3 -0.005308 -0.007946 0.014515 0.000000 0.000000 0.000000
# 4 0.000000 0.000000 0.000000 0.053554 0.000000 0.000000
# 5 0.000000 0.000000 0.000000 0.000000 0.063235 0.000000
# 6 0.000000 0.000000 0.000000 0.000000 0.000000 0.081312
#
#
# Mechanical properties :
#
#
# Convention : Reuss Voigt Hill
#
# Bulk Modulus (GPa) = 48.92453 54.43214 51.67833
# Shear Modulus (GPa) = 17.92644 20.33453 19.13049
#
# Velocity S-wave (km/s) = 3.33911 3.55632 3.44942
# Velocity P-wave (km/s) = 6.73020 7.12167 6.92870
#
# Compressibility (1/GPa) = 0.02043965
#
# Stress axis : x y z
#
# Youngs Moduli (GPa) = 74.99202 51.62196 68.89275
#
# Poissons Ratio (x) = 0.00712 0.36566
# Poissons Ratio (y) = 0.01034 0.54739
# Poissons Ratio (z) = 0.39803 0.41016
#
# Static dielectric constant tensor:
#      x y z
#    x 3.078040 0.000000 0.000000 
#    y 0.000000 3.057280 0.000000 
#    z 0.000000 0.000000 3.020740 
# 
# 
# High freq. dielectric constant tensor:
#      x y z
#    x 1.589680 0.000000 0.000000 
#    y 0.000000 1.626740 0.000000 
#    z 0.000000 0.000000 1.592540 
# 
# From -- ./inp_files/27484.got.cif
#   From: 2010.03.12/outbox.cif.g09.slc.cpg/sg44_14_cif.got.tgz:27484.got - 2010.04.14 02:36:11.
