data_PCOD8188900
_publ_section_title
;
Structure prediction by ZEFSAII (Michael W. Deem and Ramdas Pophale) SiO2 
 PCOD8188900
Probable space group: I M M 2
;
_chemical_formula_sum "Si O2"
_cell_formula_units_Z 48
_cell_length_a 10.349505
_cell_length_b 9.044407
_cell_length_c 28.003256
_cell_angle_alpha 90.000000
_cell_angle_beta 90.000000
_cell_angle_gamma 90.000000
_cell_volume 2621.248571
_symmetry_space_group_name_H-M "I M M 2"
_symmetry_group_IT_number 44
_symmetry_cell_setting 'orthorhombic'
loop_
_space_group_symop_operation_xyz
x,y,z
-x,-y,z
-x,y,z
x,-y,z
1/2+x,1/2+y,1/2+z
1/2-x,1/2-y,1/2+z
1/2-x,1/2+y,1/2+z
1/2+x,1/2-y,1/2+z
loop_
_atom_site_type_symbol
_atom_site_label
_atom_site_fract_x
_atom_site_fract_y
_atom_site_fract_z
Si Si1 0.244640 0.324678 0.373090
Si Si2 0.500000 0.323838 0.532989
Si Si3 0.348521 0.670205 0.675624
Si Si4 0.000000 0.824467 0.924557
Si Si5 0.735249 0.826966 0.585926
Si Si6 0.500000 0.175115 0.933084
Si Si7 0.647163 0.327097 0.783628
Si Si8 0.500000 0.329011 0.034048
O O1 0.244462 0.500000 0.369461
O O2 0.374055 0.263206 0.397650
O O3 0.125312 0.266929 0.404833
O O4 0.238622 0.260566 0.319780
O O5 0.500000 0.500000 0.537194
O O6 0.500000 0.267067 0.478644
O O7 0.371742 0.263281 0.557304
O O8 0.500000 0.698878 0.667392
O O9 0.315734 0.500000 0.664501
O O10 0.266453 0.775501 0.640998
O O11 0.309022 0.710130 0.729762
O O12 0.000000 0.000000 0.924344
O O13 0.874872 0.787562 0.564938
O O14 0.704344 0.000000 0.582709
O O15 0.500000 0.000000 0.936659
O O16 0.500000 0.236013 0.986100
O O17 0.500000 0.274664 0.791318
O O18 0.659627 0.500000 0.793631
O O19 0.500000 0.500000 0.019759
#
# Coordination Sequence:
#
# PCOD8188900 Si02
#       8
#     8   4   8   4   8   4   8   4
#     4  10  19  34  54  79 107 137 177 222 262 311
#     4  11  21  37  60  81 106 145 187 227 270 317
#     4   9  18  34  56  81 107 137 176 221 269 322
#     4   9  20  35  52  75 108 144 175 214 268 317
#     4  11  22  37  56  82 112 143 181 225 271 322
#     4  10  20  34  55  80 103 136 187 230 259 308
#     4   9  18  33  54  80 108 137 172 218 268 317
#     4  10  24  40  53  76 115 151 179 219 273 326
#
# _framework density 18.311885
#
# number of rings (size 3 to 8) (size 9 to 14) (size 15 to 20)
#    0.000    2.167    1.667    2.750    0.000    4.000 
#    0.000    4.583    0.000    5.000    0.000    0.000 
#    0.000    0.000    0.000    0.000    0.000    0.000 
#
# Total GULP energy -297654.456395 kJ/mol
# GULP energy per Si atom -12402.269016 kJ/mol
# Density = 1.827021 g / cm^3
# Si number density = 18.311885 Si / 1000 Ang^3
#
#
#
# Elastic Constant Matrix: (Units=GPa)
#
#
# Indices 1 2 3 4 5 6 
#
# 1 131.5065 40.4339 71.5498 0.0000 0.0000 0.0000
# 2 40.4339 52.9913 49.4465 0.0000 0.0000 0.0000
# 3 71.5498 49.4465 155.4058 0.0000 0.0000 0.0000
# 4 0.0000 0.0000 0.0000 37.0721 0.0000 0.0000
# 5 0.0000 0.0000 0.0000 0.0000 5.2604 0.0000
# 6 0.0000 0.0000 0.0000 0.0000 0.0000 13.6519
#
#
#
# Elastic Compliance Matrix: (Units=1/GPa)
#
#
# Indices 1 2 3 4 5 6 
#
# 1 0.011088 -0.005258 -0.003432 0.000000 0.000000 0.000000
# 2 -0.005258 0.029333 -0.006912 0.000000 0.000000 0.000000
# 3 -0.003432 -0.006912 0.010214 0.000000 0.000000 0.000000
# 4 0.000000 0.000000 0.000000 0.026974 0.000000 0.000000
# 5 0.000000 0.000000 0.000000 0.000000 0.190100 0.000000
# 6 0.000000 0.000000 0.000000 0.000000 0.000000 0.073250
#
#
# Mechanical properties :
#
#
# Convention : Reuss Voigt Hill
#
# Bulk Modulus (GPa) = 51.46531 73.64046 62.55289
# Shear Modulus (GPa) = 13.20512 23.09509 18.15010
#
# Velocity S-wave (km/s) = 2.68829 3.55520 3.15169
# Velocity P-wave (km/s) = 6.14831 7.56006 6.89044
#
# Compressibility (1/GPa) = 0.01943056
#
# Stress axis : x y z
#
# Youngs Moduli (GPa) = 90.18594 34.09141 97.90287
#
# Poissons Ratio (x) = 0.17926 0.33601
# Poissons Ratio (y) = 0.47421 0.67672
# Poissons Ratio (z) = 0.30952 0.23565
#
# Static dielectric constant tensor:
#      x y z
#    x 3.417400 0.000000 0.000000 
#    y 0.000000 3.193560 0.000000 
#    z 0.000000 0.000000 3.530240 
# 
# 
# High freq. dielectric constant tensor:
#      x y z
#    x 1.698260 0.000000 0.000000 
#    y 0.000000 1.697770 0.000000 
#    z 0.000000 0.000000 1.725610 
# 
# From -- ./inp_files/27077.got.cif
#   From: 2010.03.12/outbox.cif.g09.slc.cpg/sg44_14_cif.got.tgz:27077.got - 2010.04.14 02:36:11.
