data_PCOD8188960
_publ_section_title
;
Structure prediction by ZEFSAII (Michael W. Deem and Ramdas Pophale) SiO2 
 PCOD8188960
Probable space group: I M M 2
;
_chemical_formula_sum "Si O2"
_cell_formula_units_Z 48
_cell_length_a 7.845300
_cell_length_b 19.954481
_cell_length_c 15.048717
_cell_angle_alpha 90.000000
_cell_angle_beta 90.000000
_cell_angle_gamma 90.000000
_cell_volume 2355.859939
_symmetry_space_group_name_H-M "I M M 2"
_symmetry_group_IT_number 44
_symmetry_cell_setting 'orthorhombic'
loop_
_space_group_symop_operation_xyz
x,y,z
-x,-y,z
-x,y,z
x,-y,z
1/2+x,1/2+y,1/2+z
1/2-x,1/2-y,1/2+z
1/2-x,1/2+y,1/2+z
1/2+x,1/2-y,1/2+z
loop_
_atom_site_type_symbol
_atom_site_label
_atom_site_fract_x
_atom_site_fract_y
_atom_site_fract_z
Si Si1 0.314522 0.377883 0.402330
Si Si2 0.500000 0.073979 0.596402
Si Si3 0.500000 0.072550 0.803180
Si Si4 0.307692 0.775054 0.384805
Si Si5 0.693860 0.329074 0.060405
Si Si6 0.201855 0.706688 0.685588
Si Si7 0.300269 0.074946 0.087559
O O1 0.500000 0.398442 0.363072
O O2 0.171403 0.389897 0.329539
O O3 0.310464 0.299736 0.422060
O O4 0.287435 0.418762 0.492371
O O5 0.500000 0.064824 0.700040
O O6 0.674592 0.110612 0.570795
O O7 0.500000 0.000000 0.551454
O O8 0.500000 0.000000 0.850451
O O9 0.500000 0.804755 0.385351
O O10 0.190579 0.813510 0.455248
O O11 0.228190 0.780672 0.285441
O O12 0.500000 0.349036 0.088297
O O13 0.762105 0.266077 0.119452
O O14 0.268929 0.633553 0.652851
O O15 0.000000 0.707456 0.687529
O O16 0.500000 0.085127 0.072216
O O17 0.260508 0.000000 0.125840
#
# Coordination Sequence:
#
# PCOD8188960 Si02
#       7
#     8   4   4   8   8   8   8
#     4  11  22  36  58  91 125 163 207 259 314 379
#     4  11  26  46  66  89 122 166 210 262 324 383
#     4  11  24  40  60  87 123 166 210 256 317 383
#     4  10  20  37  61  90 125 161 211 260 313 368
#     4  11  22  41  66  94 125 160 210 267 314 367
#     4   9  19  36  60  91 128 163 209 262 308 367
#     4  10  19  34  57  86 125 170 207 248 312 379
#
# _framework density 20.374725000000002
#
# number of rings (size 3 to 8) (size 9 to 14) (size 15 to 20)
#    0.000    1.667    3.333    1.500    1.167    3.667 
#    1.500    2.500    0.000    0.000    0.000    0.000 
#    0.000    0.000    0.000    0.000    0.000    0.000 
#
# Total GULP energy -297487.069061 kJ/mol
# GULP energy per Si atom -12395.294544 kJ/mol
# Density = 2.032835 g / cm^3
# Si number density = 20.374725 Si / 1000 Ang^3
#
#
#
# Elastic Constant Matrix: (Units=GPa)
#
#
# Indices 1 2 3 4 5 6 
#
# 1 109.8954 49.5048 22.3055 0.0000 0.0000 0.0000
# 2 49.5048 136.6318 44.2648 0.0000 0.0000 0.0000
# 3 22.3055 44.2648 110.2238 0.0001 0.0000 0.0000
# 4 0.0000 0.0000 0.0001 28.9520 0.0000 0.0000
# 5 0.0000 0.0000 0.0000 0.0000 22.2545 0.0000
# 6 0.0000 0.0000 0.0000 0.0000 0.0000 26.6878
#
#
#
# Elastic Compliance Matrix: (Units=1/GPa)
#
#
# Indices 1 2 3 4 5 6 
#
# 1 0.010923 -0.003726 -0.000714 0.000000 0.000000 0.000000
# 2 -0.003726 0.009685 -0.003135 0.000000 0.000000 0.000000
# 3 -0.000714 -0.003135 0.010476 0.000000 0.000000 0.000000
# 4 0.000000 0.000000 0.000000 0.034540 0.000000 0.000000
# 5 0.000000 0.000000 0.000000 0.000000 0.044935 0.000000
# 6 0.000000 0.000000 0.000000 0.000000 0.000000 0.037470
#
#
# Mechanical properties :
#
#
# Convention : Reuss Voigt Hill
#
# Bulk Modulus (GPa) = 62.76384 65.43347 64.09865
# Shear Modulus (GPa) = 29.67515 31.62390 30.64952
#
# Velocity S-wave (km/s) = 3.82051 3.94396 3.88273
# Velocity P-wave (km/s) = 7.09460 7.27492 7.18533
#
# Compressibility (1/GPa) = 0.01593274
#
# Stress axis : x y z
#
# Youngs Moduli (GPa) = 91.54903 103.25441 95.45612
#
# Poissons Ratio (x) = 0.38476 0.06815
# Poissons Ratio (y) = 0.34115 0.29928
# Poissons Ratio (z) = 0.06536 0.32373
#
# Static dielectric constant tensor:
#      x y z
#    x 3.490090 0.000000 0.000000 
#    y 0.000000 4.031310 0.000000 
#    z 0.000000 0.000000 3.687850 
# 
# 
# High freq. dielectric constant tensor:
#      x y z
#    x 1.789530 0.000000 0.000000 
#    y 0.000000 1.787790 0.000000 
#    z 0.000000 0.000000 1.786570 
# 
# From -- ./inp_files/16223.got.cif
#   From: 2010.03.12/outbox.cif.g09.slc.cpg/sg44_9_cif.got.tgz:16223.got - 2010.04.14 02:36:11.
