data_PCOD8188681
_publ_section_title
;
Structure prediction by ZEFSAII (Michael W. Deem and Ramdas Pophale) SiO2 
 PCOD8188681
Probable space group: I M M 2
;
_chemical_formula_sum "Si O2"
_cell_formula_units_Z 64
_cell_length_a 29.945596
_cell_length_b 9.024386
_cell_length_c 14.258474
_cell_angle_alpha 90.000000
_cell_angle_beta 90.000000
_cell_angle_gamma 90.000000
_cell_volume 3853.218816
_symmetry_space_group_name_H-M "I M M 2"
_symmetry_group_IT_number 44
_symmetry_cell_setting 'orthorhombic'
loop_
_space_group_symop_operation_xyz
x,y,z
-x,-y,z
-x,y,z
x,-y,z
1/2+x,1/2+y,1/2+z
1/2-x,1/2-y,1/2+z
1/2-x,1/2+y,1/2+z
1/2+x,1/2-y,1/2+z
loop_
_atom_site_type_symbol
_atom_site_label
_atom_site_fract_x
_atom_site_fract_y
_atom_site_fract_z
Si Si1 0.318938 0.832252 0.202210
Si Si2 0.630094 0.671188 0.362937
Si Si3 0.770639 0.675364 0.190462
Si Si4 0.300524 0.671738 0.517865
Si Si5 0.050429 0.171611 0.583867
Si Si6 0.714753 0.824350 0.902309
Si Si7 0.630071 0.832995 0.013640
Si Si8 0.449497 0.171162 0.281864
O O1 0.335394 0.734923 0.288145
O O2 0.274777 0.757047 0.161271
O O3 0.355730 0.831651 0.121730
O O4 0.309038 0.000000 0.235186
O O5 0.621789 0.500000 0.339808
O O6 0.652593 0.692106 0.464223
O O7 0.582986 0.756950 0.359398
O O8 0.764602 0.500000 0.185316
O O9 0.785318 0.726695 0.294187
O O10 0.805866 0.732307 0.112911
O O11 0.292292 0.500000 0.542899
O O12 0.259321 0.733906 0.454556
O O13 0.084589 0.237310 0.506483
O O14 0.057469 0.251060 0.682750
O O15 0.000000 0.197265 0.546977
O O16 0.060908 0.000000 0.599089
O O17 0.714446 0.000000 0.911084
O O18 0.669412 0.761846 0.949900
O O19 0.619533 0.000000 0.980133
O O20 0.500000 0.190715 0.318396
O O21 0.436632 0.000000 0.268926
#
# Coordination Sequence:
#
# PCOD8188681 Si02
#       8
#     8   8   8   8   8   8   8   8
#     4  11  20  30  48  72 101 135 168 205 246 289
#     4  11  21  33  51  72  99 136 171 205 246 294
#     4  11  21  34  51  72  98 132 172 211 245 288
#     4  10  20  36  51  69 101 135 165 203 250 296
#     4  10  20  32  47  70 101 131 160 201 248 295
#     4   9  18  34  50  67  97 132 165 201 245 288
#     4  10  19  32  50  69  94 134 170 201 242 290
#     4  10  20  33  49  71 101 133 164 202 248 298
#
# _framework density 16.609490000000001
#
# number of rings (size 3 to 8) (size 9 to 14) (size 15 to 20)
#    0.000    1.750    3.750    1.875    0.000    3.000 
#    0.000    1.250    0.000    0.000    0.000    0.875 
#    0.000    1.000    0.000    0.000    0.000    0.000 
#
# Total GULP energy -396794.694562 kJ/mol
# GULP energy per Si atom -12399.834205 kJ/mol
# Density = 1.657169 g / cm^3
# Si number density = 16.609490 Si / 1000 Ang^3
#
#
#
# Elastic Constant Matrix: (Units=GPa)
#
#
# Indices 1 2 3 4 5 6 
#
# 1 100.3594 49.8685 30.8221 0.0000 0.0000 0.0000
# 2 49.8685 89.2980 28.5423 0.0000 0.0000 0.0000
# 3 30.8221 28.5423 70.1330 0.0000 0.0000 0.0000
# 4 0.0000 0.0000 0.0000 23.5137 0.0000 0.0000
# 5 0.0000 0.0000 0.0000 0.0000 21.8800 0.0000
# 6 0.0000 0.0000 0.0000 0.0000 0.0000 29.3698
#
#
#
# Elastic Compliance Matrix: (Units=1/GPa)
#
#
# Indices 1 2 3 4 5 6 
#
# 1 0.014518 -0.006976 -0.003542 0.000000 0.000000 0.000000
# 2 -0.006976 0.016225 -0.003537 0.000000 0.000000 0.000000
# 3 -0.003542 -0.003537 0.017255 0.000000 0.000000 0.000000
# 4 0.000000 0.000000 0.000000 0.042528 0.000000 0.000000
# 5 0.000000 0.000000 0.000000 0.000000 0.045704 0.000000
# 6 0.000000 0.000000 0.000000 0.000000 0.000000 0.034049
#
#
# Mechanical properties :
#
#
# Convention : Reuss Voigt Hill
#
# Bulk Modulus (GPa) = 50.28064 53.13958 51.71011
# Shear Modulus (GPa) = 24.38828 24.98987 24.68908
#
# Velocity S-wave (km/s) = 3.83604 3.88307 3.85963
# Velocity P-wave (km/s) = 7.06811 7.22269 7.14582
#
# Compressibility (1/GPa) = 0.01988837
#
# Stress axis : x y z
#
# Youngs Moduli (GPa) = 68.87985 61.63467 57.95543
#
# Poissons Ratio (x) = 0.42994 0.20525
# Poissons Ratio (y) = 0.48048 0.20501
# Poissons Ratio (z) = 0.24394 0.21802
#
# Static dielectric constant tensor:
#      x y z
#    x 3.243600 0.000000 0.000000 
#    y 0.000000 3.140110 0.000000 
#    z 0.000000 0.000000 2.931400 
# 
# 
# High freq. dielectric constant tensor:
#      x y z
#    x 1.634890 0.000000 0.000000 
#    y 0.000000 1.642380 0.000000 
#    z 0.000000 0.000000 1.607410 
# 
# From -- ./inp_files/17119.got.cif
#   From: 2010.03.12/outbox.cif.g09.slc.cpg/sg44_9_cif.got.tgz:17119.got - 2010.04.14 02:36:11.
