data_PCOD8188058
_publ_section_title
;
Structure prediction by ZEFSAII (Michael W. Deem and Ramdas Pophale) SiO2 
 PCOD8188058
Probable space group: I M M 2
;
_chemical_formula_sum "Si O2"
_cell_formula_units_Z 64
_cell_length_a 26.322014
_cell_length_b 8.729644
_cell_length_c 18.231911
_cell_angle_alpha 90.000000
_cell_angle_beta 90.000000
_cell_angle_gamma 90.000000
_cell_volume 4189.361538
_symmetry_space_group_name_H-M "I M M 2"
_symmetry_group_IT_number 44
_symmetry_cell_setting 'orthorhombic'
loop_
_space_group_symop_operation_xyz
x,y,z
-x,-y,z
-x,y,z
x,-y,z
1/2+x,1/2+y,1/2+z
1/2-x,1/2-y,1/2+z
1/2-x,1/2+y,1/2+z
1/2+x,1/2-y,1/2+z
loop_
_atom_site_type_symbol
_atom_site_label
_atom_site_fract_x
_atom_site_fract_y
_atom_site_fract_z
Si Si1 0.239945 0.175223 0.454440
Si Si2 0.241291 0.320772 0.608027
Si Si3 0.700967 0.178621 0.729203
Si Si4 0.441345 0.822263 0.944643
Si Si5 0.850569 0.820258 0.696133
Si Si6 0.057565 0.177373 0.597207
Si Si7 0.855286 0.178822 0.354146
Si Si8 0.792516 0.323524 0.812064
O O1 0.248311 0.286056 0.522460
O O2 0.188939 0.224359 0.411444
O O3 0.288762 0.195302 0.400012
O O4 0.235578 0.000000 0.481650
O O5 0.234052 0.500000 0.619770
O O6 0.291943 0.263059 0.650732
O O7 0.191575 0.234638 0.638056
O O8 0.652867 0.239959 0.775354
O O9 0.751180 0.213335 0.775702
O O10 0.694294 0.000000 0.714814
O O11 0.500000 0.782481 0.930212
O O12 0.409368 0.728946 0.885359
O O13 0.429461 0.000000 0.934873
O O14 0.425820 0.774484 0.026653
O O15 0.906002 0.778690 0.664583
O O16 0.845326 0.732475 0.774995
O O17 0.844492 0.000000 0.708867
O O18 0.000000 0.215829 0.621252
O O19 0.063755 0.000000 0.575565
O O20 0.854454 0.000000 0.339185
O O21 0.781120 0.500000 0.790966
#
# Coordination Sequence:
#
# PCOD8188058 Si02
#       8
#     8   8   8   8   8   8   8   8
#     4   9  18  30  42  59  83 110 139 171 206 246
#     4  11  20  28  41  61  85 111 140 172 205 247
#     4  10  18  29  44  60  82 109 138 172 208 246
#     4  10  20  31  43  62  86 111 143 181 215 247
#     4  10  18  28  43  60  81 110 143 176 209 248
#     4   9  18  31  44  59  82 113 146 179 215 251
#     4  10  19  31  46  62  83 112 145 176 210 252
#     4   9  17  29  43  59  82 109 138 172 208 249
#
# _framework density 15.276790999999999
#
# number of rings (size 3 to 8) (size 9 to 14) (size 15 to 20)
#    0.000    2.250    0.000    6.750    0.000    7.750 
#    0.000    0.000    0.000    0.000    0.000    0.000 
#    0.000    1.000    0.000    6.500    0.000    4.250 
#
# Total GULP energy -396699.531384 kJ/mol
# GULP energy per Si atom -12396.860356 kJ/mol
# Density = 1.524202 g / cm^3
# Si number density = 15.276791 Si / 1000 Ang^3
#
#
#
# Elastic Constant Matrix: (Units=GPa)
#
#
# Indices 1 2 3 4 5 6 
#
# 1 64.1538 24.5052 38.7137 0.0000 0.0000 0.0000
# 2 24.5052 62.0452 32.8740 0.0000 0.0000 0.0000
# 3 38.7137 32.8740 80.9889 0.0000 0.0000 0.0000
# 4 0.0000 0.0000 0.0000 27.8369 0.0000 0.0000
# 5 0.0000 0.0000 0.0000 0.0000 27.6648 0.0000
# 6 0.0000 0.0000 0.0000 0.0000 0.0000 19.5386
#
#
#
# Elastic Compliance Matrix: (Units=1/GPa)
#
#
# Indices 1 2 3 4 5 6 
#
# 1 0.022696 -0.004097 -0.009186 0.000000 0.000000 0.000000
# 2 -0.004097 0.021273 -0.006677 0.000000 0.000000 0.000000
# 3 -0.009186 -0.006677 0.019448 0.000000 0.000000 0.000000
# 4 0.000000 0.000000 0.000000 0.035924 0.000000 0.000000
# 5 0.000000 0.000000 0.000000 0.000000 0.036147 0.000000
# 6 0.000000 0.000000 0.000000 0.000000 0.000000 0.051181
#
#
# Mechanical properties :
#
#
# Convention : Reuss Voigt Hill
#
# Bulk Modulus (GPa) = 42.55585 44.37486 43.46536
# Shear Modulus (GPa) = 21.32931 22.41439 21.87185
#
# Velocity S-wave (km/s) = 3.74062 3.83458 3.78789
# Velocity P-wave (km/s) = 6.82446 6.97966 6.90250
#
# Compressibility (1/GPa) = 0.02349853
#
# Stress axis : x y z
#
# Youngs Moduli (GPa) = 44.06138 47.00833 51.41818
#
# Poissons Ratio (x) = 0.19258 0.47232
# Poissons Ratio (y) = 0.18051 0.34329
# Poissons Ratio (z) = 0.40474 0.31385
#
# Static dielectric constant tensor:
#      x y z
#    x 2.865150 0.000000 0.000000 
#    y 0.000000 3.002090 0.000000 
#    z 0.000000 0.000000 3.076270 
# 
# 
# High freq. dielectric constant tensor:
#      x y z
#    x 1.548640 0.000000 0.000000 
#    y 0.000000 1.601300 0.000000 
#    z 0.000000 0.000000 1.574060 
# 
# From -- ./inp_files/22350.got.cif
#   From: 2010.03.12/outbox.cif.g09.slc.cpg/sg44_12_cif.got.tgz:22350.got - 2010.04.14 02:36:11.
