data_PCOD8188199
_publ_section_title
;
Structure prediction by ZEFSAII (Michael W. Deem and Ramdas Pophale) SiO2 
 PCOD8188199
Probable space group: I M M 2
;
_chemical_formula_sum "Si O2"
_cell_formula_units_Z 64
_cell_length_a 9.222615
_cell_length_b 23.180635
_cell_length_c 18.884011
_cell_angle_alpha 90.000000
_cell_angle_beta 90.000000
_cell_angle_gamma 90.000000
_cell_volume 4037.138536
_symmetry_space_group_name_H-M "I M M 2"
_symmetry_group_IT_number 44
_symmetry_cell_setting 'orthorhombic'
loop_
_space_group_symop_operation_xyz
x,y,z
-x,-y,z
-x,y,z
x,-y,z
1/2+x,1/2+y,1/2+z
1/2-x,1/2-y,1/2+z
1/2-x,1/2+y,1/2+z
1/2+x,1/2-y,1/2+z
loop_
_atom_site_type_symbol
_atom_site_label
_atom_site_fract_x
_atom_site_fract_y
_atom_site_fract_z
Si Si1 0.166362 0.565469 0.198040
Si Si2 0.334155 0.235713 0.212431
Si Si3 0.330758 0.830586 0.795064
Si Si4 0.828945 0.883864 0.565612
Si Si5 0.829920 0.776621 0.919596
Si Si6 0.671119 0.565165 0.917751
Si Si7 0.667137 0.251813 0.054952
Si Si8 0.665097 0.159540 0.339526
O O1 0.204178 0.500000 0.219650
O O2 0.198216 0.604985 0.266509
O O3 0.261488 0.583878 0.131755
O O4 0.000000 0.572117 0.174662
O O5 0.500000 0.257143 0.225440
O O6 0.227609 0.286563 0.235840
O O7 0.309503 0.220315 0.130294
O O8 0.305495 0.178178 0.258315
O O9 0.500000 0.818262 0.807750
O O10 0.245665 0.823597 0.868923
O O11 0.772392 0.914526 0.494375
O O12 0.779579 0.817532 0.563171
O O13 0.000000 0.889144 0.573659
O O14 0.794530 0.713075 0.890085
O O15 0.000000 0.789515 0.921789
O O16 0.764051 0.781845 0.997992
O O17 0.500000 0.570929 0.913905
O O18 0.723026 0.500000 0.904419
O O19 0.735712 0.605024 0.856293
O O20 0.500000 0.249714 0.030442
O O21 0.500000 0.140880 0.351463
#
# Coordination Sequence:
#
# PCOD8188199 Si02
#       8
#     8   8   8   8   8   8   8   8
#     4  10  21  34  47  67  96 129 165 202 236 275
#     4   9  18  32  48  69  96 122 152 195 239 280
#     4  10  19  31  48  68  92 125 162 198 238 281
#     4  10  19  31  47  67  95 129 164 195 227 275
#     4  10  20  32  48  69  96 123 155 197 239 283
#     4  10  20  32  45  64  92 125 161 196 226 263
#     4  10  18  30  50  72  96 126 156 189 235 286
#     4   9  18  31  46  65  90 121 154 191 232 272
#
# _framework density 15.852812
#
# number of rings (size 3 to 8) (size 9 to 14) (size 15 to 20)
#    0.000    2.250    2.500    1.875    0.000    5.000 
#    0.000    0.000    0.000    0.000    0.000    0.875 
#    0.000    3.000    0.000    0.000    0.000    0.000 
#
# Total GULP energy -396841.223270 kJ/mol
# GULP energy per Si atom -12401.288227 kJ/mol
# Density = 1.581673 g / cm^3
# Si number density = 15.852812 Si / 1000 Ang^3
#
#
#
# Elastic Constant Matrix: (Units=GPa)
#
#
# Indices 1 2 3 4 5 6 
#
# 1 62.2159 38.4708 50.2047 0.0000 0.0000 0.0000
# 2 38.4708 84.1764 57.9731 0.0000 0.0000 0.0000
# 3 50.2047 57.9731 120.1390 -0.0001 0.0000 0.0000
# 4 0.0000 0.0000 -0.0001 22.9494 0.0000 0.0000
# 5 0.0000 0.0000 0.0000 0.0000 28.8175 0.0000
# 6 0.0000 0.0000 0.0000 0.0000 0.0000 21.6348
#
#
#
# Elastic Compliance Matrix: (Units=1/GPa)
#
#
# Indices 1 2 3 4 5 6 
#
# 1 0.026578 -0.006736 -0.007856 0.000000 0.000000 0.000000
# 2 -0.006736 0.019500 -0.006595 0.000000 0.000000 0.000000
# 3 -0.007856 -0.006595 0.014789 0.000000 0.000000 0.000000
# 4 0.000000 0.000000 0.000000 0.043574 0.000000 0.000000
# 5 0.000000 0.000000 0.000000 0.000000 0.034701 0.000000
# 6 0.000000 0.000000 0.000000 0.000000 0.000000 0.046222
#
#
# Mechanical properties :
#
#
# Convention : Reuss Voigt Hill
#
# Bulk Modulus (GPa) = 54.07489 62.20318 58.13904
# Shear Modulus (GPa) = 21.37641 22.67251 22.02446
#
# Velocity S-wave (km/s) = 3.67608 3.78589 3.73139
# Velocity P-wave (km/s) = 7.22515 7.64419 7.43762
#
# Compressibility (1/GPa) = 0.01849287
#
# Stress axis : x y z
#
# Youngs Moduli (GPa) = 37.62561 51.28082 67.61787
#
# Poissons Ratio (x) = 0.34544 0.53120
# Poissons Ratio (y) = 0.25345 0.44594
# Poissons Ratio (z) = 0.29558 0.33820
#
# Static dielectric constant tensor:
#      x y z
#    x 3.018100 0.000000 0.000000 
#    y 0.000000 2.894710 0.000000 
#    z 0.000000 0.000000 3.054990 
# 
# 
# High freq. dielectric constant tensor:
#      x y z
#    x 1.613470 0.000000 0.000000 
#    y 0.000000 1.580520 0.000000 
#    z 0.000000 0.000000 1.605180 
# 
# From -- ./inp_files/20768.got.cif
#   From: 2010.03.12/outbox.cif.g09.slc.cpg/sg44_11_cif.got.tgz:20768.got - 2010.04.14 02:36:11.
