data_PCOD8188650
_publ_section_title
;
Structure prediction by ZEFSAII (Michael W. Deem and Ramdas Pophale) SiO2 
 PCOD8188650
Probable space group: I M M 2
;
_chemical_formula_sum "Si O2"
_cell_formula_units_Z 64
_cell_length_a 8.861316
_cell_length_b 20.750756
_cell_length_c 19.419088
_cell_angle_alpha 90.000000
_cell_angle_beta 90.000000
_cell_angle_gamma 90.000000
_cell_volume 3570.762602
_symmetry_space_group_name_H-M "I M M 2"
_symmetry_group_IT_number 44
_symmetry_cell_setting 'orthorhombic'
loop_
_space_group_symop_operation_xyz
x,y,z
-x,-y,z
-x,y,z
x,-y,z
1/2+x,1/2+y,1/2+z
1/2-x,1/2-y,1/2+z
1/2-x,1/2+y,1/2+z
1/2+x,1/2-y,1/2+z
loop_
_atom_site_type_symbol
_atom_site_label
_atom_site_fract_x
_atom_site_fract_y
_atom_site_fract_z
Si Si1 0.822724 0.267333 0.866930
Si Si2 0.326024 0.131464 0.867811
Si Si3 0.173735 0.427139 0.660241
Si Si4 0.174216 0.071623 0.745854
Si Si5 0.829209 0.636735 0.521356
Si Si6 0.677799 0.308661 0.155195
Si Si7 0.675729 0.769315 0.522581
Si Si8 0.677580 0.311074 0.734842
O O1 0.772733 0.194458 0.853037
O O2 0.736538 0.313060 0.813376
O O3 0.000000 0.272150 0.853689
O O4 0.780066 0.289117 0.944553
O O5 0.500000 0.148404 0.853866
O O6 0.270307 0.076604 0.815933
O O7 0.300643 0.106494 0.945849
O O8 0.220106 0.500000 0.678711
O O9 0.197827 0.417913 0.578274
O O10 0.280010 0.379292 0.701999
O O11 0.000000 0.413627 0.680077
O O12 0.229050 0.124812 0.690999
O O13 0.000000 0.082588 0.764505
O O14 0.200978 0.000000 0.715089
O O15 0.715374 0.694903 0.535903
O O16 0.000000 0.664350 0.525814
O O17 0.500000 0.299382 0.156849
O O18 0.733591 0.313488 0.076328
O O19 0.749476 0.247580 0.193069
O O20 0.500000 0.778795 0.536194
O O21 0.500000 0.301837 0.733543
#
# Coordination Sequence:
#
# PCOD8188650 Si02
#       8
#     8   8   8   8   8   8   8   8
#     4  10  20  35  55  80 111 144 178 223 278 329
#     4  10  19  31  51  80 110 143 183 225 266 316
#     4  10  21  37  56  78 109 151 190 224 272 331
#     4  10  22  38  54  75 107 149 189 224 269 327
#     4   9  18  32  51  76 109 146 183 219 264 322
#     4  11  21  35  57  80 108 145 183 226 276 327
#     4  10  20  33  54  83 111 138 177 227 274 323
#     4  12  23  35  56  84 111 141 185 234 275 320
#
# _framework density 17.923342999999999
#
# number of rings (size 3 to 8) (size 9 to 14) (size 15 to 20)
#    0.000    1.750    2.500    2.625    0.000    3.500 
#    0.000    1.250    0.000    0.750    0.000    3.500 
#    0.000    0.000    0.000    0.000    0.000    0.000 
#
# Total GULP energy -396834.416848 kJ/mol
# GULP energy per Si atom -12401.075527 kJ/mol
# Density = 1.788255 g / cm^3
# Si number density = 17.923343 Si / 1000 Ang^3
#
#
#
# Elastic Constant Matrix: (Units=GPa)
#
#
# Indices 1 2 3 4 5 6 
#
# 1 81.1936 38.4168 50.5154 0.0000 0.0000 0.0000
# 2 38.4168 98.7293 58.7523 0.0000 0.0000 0.0000
# 3 50.5154 58.7523 119.3913 0.0000 0.0000 0.0000
# 4 0.0000 0.0000 0.0000 24.3412 0.0000 0.0000
# 5 0.0000 0.0000 0.0000 0.0000 31.4928 0.0000
# 6 0.0000 0.0000 0.0000 0.0000 0.0000 17.0955
#
#
#
# Elastic Compliance Matrix: (Units=1/GPa)
#
#
# Indices 1 2 3 4 5 6 
#
# 1 0.017486 -0.003396 -0.005728 0.000000 0.000000 0.000000
# 2 -0.003396 0.014983 -0.005936 0.000000 0.000000 0.000000
# 3 -0.005728 -0.005936 0.013720 0.000000 0.000000 0.000000
# 4 0.000000 0.000000 0.000000 0.041083 0.000000 0.000000
# 5 0.000000 0.000000 0.000000 0.000000 0.031753 0.000000
# 6 0.000000 0.000000 0.000000 0.000000 0.000000 0.058495
#
#
# Mechanical properties :
#
#
# Convention : Reuss Voigt Hill
#
# Bulk Modulus (GPa) = 62.22632 66.07591 64.15112
# Shear Modulus (GPa) = 23.47463 24.69454 24.08458
#
# Velocity S-wave (km/s) = 3.62294 3.71588 3.66970
# Velocity P-wave (km/s) = 7.23148 7.44018 7.33657
#
# Compressibility (1/GPa) = 0.01607037
#
# Stress axis : x y z
#
# Youngs Moduli (GPa) = 57.18722 66.74444 72.88440
#
# Poissons Ratio (x) = 0.22665 0.41745
# Poissons Ratio (y) = 0.19420 0.43265
# Poissons Ratio (z) = 0.32754 0.39620
#
# Static dielectric constant tensor:
#      x y z
#    x 3.356950 0.000000 0.000000 
#    y 0.000000 3.051130 0.000000 
#    z 0.000000 0.000000 3.617050 
# 
# 
# High freq. dielectric constant tensor:
#      x y z
#    x 1.701390 0.000000 0.000000 
#    y 0.000000 1.659860 0.000000 
#    z 0.000000 0.000000 1.701630 
# 
# From -- ./inp_files/20747.got.cif
#   From: 2010.03.12/outbox.cif.g09.slc.cpg/sg44_11_cif.got.tgz:20747.got - 2010.04.14 02:36:11.
