data_PCOD8188373
_publ_section_title
;
Structure prediction by ZEFSAII (Michael W. Deem and Ramdas Pophale) SiO2 
 PCOD8188373
Probable space group: I M M 2
;
_chemical_formula_sum "Si O2"
_cell_formula_units_Z 40
_cell_length_a 11.845336
_cell_length_b 8.418660
_cell_length_c 20.235529
_cell_angle_alpha 90.000000
_cell_angle_beta 90.000000
_cell_angle_gamma 90.000000
_cell_volume 2017.924517
_symmetry_space_group_name_H-M "I M M 2"
_symmetry_group_IT_number 44
_symmetry_cell_setting 'orthorhombic'
loop_
_space_group_symop_operation_xyz
x,y,z
-x,-y,z
-x,y,z
x,-y,z
1/2+x,1/2+y,1/2+z
1/2-x,1/2-y,1/2+z
1/2-x,1/2+y,1/2+z
1/2+x,1/2-y,1/2+z
loop_
_atom_site_type_symbol
_atom_site_label
_atom_site_fract_x
_atom_site_fract_y
_atom_site_fract_z
Si Si1 0.125050 0.313385 0.021730
Si Si2 0.500000 0.179140 0.052580
Si Si3 0.245156 0.810537 0.393855
Si Si4 0.299052 0.684010 0.129679
Si Si5 0.000000 0.182373 0.414050
Si Si6 0.369593 0.187890 0.262441
O O1 0.114601 0.500000 0.010431
O O2 0.181662 0.276455 0.092696
O O3 0.000000 0.236455 0.021439
O O4 0.199159 0.242172 0.961278
O O5 0.607429 0.204072 0.098313
O O6 0.500000 0.000000 0.024964
O O7 0.500000 0.303522 0.993148
O O8 0.320465 0.753896 0.332460
O O9 0.116874 0.740972 0.386484
O O10 0.239291 0.000000 0.398046
O O11 0.331378 0.500000 0.120225
O O12 0.292932 0.727212 0.206986
O O13 0.000000 0.000000 0.393934
O O14 0.500000 0.242176 0.257360
O O15 0.358536 0.000000 0.254955
#
# Coordination Sequence:
#
# PCOD8188373 Si02
#       6
#     8   4   8   8   4   8
#     4   9  17  31  54  82 107 137 180 226 266 315
#     4  12  22  34  56  84 112 139 176 231 286 329
#     4   9  17  31  54  81 108 139 181 224 265 320
#     4  11  21  35  57  82 109 142 183 227 272 329
#     4  10  18  34  58  84 108 141 186 227 268 323
#     4  10  20  34  53  79 110 144 181 224 273 321
#
# _framework density 19.822347000000001
#
# number of rings (size 3 to 8) (size 9 to 14) (size 15 to 20)
#    0.000    2.000    3.000    2.100    0.000    2.400 
#    1.800    1.000    0.000    1.800    0.000    0.000 
#    0.000    0.000    0.000    0.000    0.000    0.000 
#
# Total GULP energy -247940.806572 kJ/mol
# GULP energy per Si atom -12397.040329 kJ/mol
# Density = 1.977723 g / cm^3
# Si number density = 19.822347 Si / 1000 Ang^3
#
#
#
# Elastic Constant Matrix: (Units=GPa)
#
#
# Indices 1 2 3 4 5 6 
#
# 1 167.2528 18.3532 73.6335 0.0000 0.0000 0.0000
# 2 18.3532 27.0504 11.6292 0.0000 0.0000 0.0000
# 3 73.6335 11.6292 143.8683 0.0000 0.0000 0.0000
# 4 0.0000 0.0000 0.0000 25.8598 0.0000 0.0000
# 5 0.0000 0.0000 0.0000 0.0000 48.0052 0.0000
# 6 0.0000 0.0000 0.0000 0.0000 0.0000 3.7559
#
#
#
# Elastic Compliance Matrix: (Units=1/GPa)
#
#
# Indices 1 2 3 4 5 6 
#
# 1 0.008086 -0.003840 -0.003828 0.000000 0.000000 0.000000
# 2 -0.003840 0.040123 -0.001278 0.000000 0.000000 0.000000
# 3 -0.003828 -0.001278 0.009013 0.000000 0.000000 0.000000
# 4 0.000000 0.000000 0.000000 0.038670 0.000000 0.000000
# 5 0.000000 0.000000 0.000000 0.000000 0.020831 0.000000
# 6 0.000000 0.000000 0.000000 0.000000 0.000000 0.266249
#
#
# Mechanical properties :
#
#
# Convention : Reuss Voigt Hill
#
# Bulk Modulus (GPa) = 25.42589 60.60035 43.01312
# Shear Modulus (GPa) = 12.07807 31.16121 21.61964
#
# Velocity S-wave (km/s) = 2.47111 3.96918 3.30611
# Velocity P-wave (km/s) = 4.58220 7.18637 6.02663
#
# Compressibility (1/GPa) = 0.03932999
#
# Stress axis : x y z
#
# Youngs Moduli (GPa) = 123.67632 24.92339 110.94786
#
# Poissons Ratio (x) = 0.09571 0.42470
# Poissons Ratio (y) = 0.47496 0.14176
# Poissons Ratio (z) = 0.47342 0.03184
#
# Static dielectric constant tensor:
#      x y z
#    x 3.812840 0.000000 0.000000 
#    y 0.000000 3.120730 0.000000 
#    z 0.000000 0.000000 3.647470 
# 
# 
# High freq. dielectric constant tensor:
#      x y z
#    x 1.778810 0.000000 0.000000 
#    y 0.000000 1.724750 0.000000 
#    z 0.000000 0.000000 1.772100 
# 
# From -- ./inp_files/22763.got.cif
#   From: 2010.03.12/outbox.cif.g09.slc.cpg/sg44_12_cif.got.tgz:22763.got - 2010.04.14 02:36:11.
