data_PCOD8188571
_publ_section_title
;
Structure prediction by ZEFSAII (Michael W. Deem and Ramdas Pophale) SiO2 
 PCOD8188571
Probable space group: I M M 2
;
_chemical_formula_sum "Si O2"
_cell_formula_units_Z 64
_cell_length_a 18.595331
_cell_length_b 8.973503
_cell_length_c 21.689135
_cell_angle_alpha 90.000000
_cell_angle_beta 90.000000
_cell_angle_gamma 90.000000
_cell_volume 3619.163119
_symmetry_space_group_name_H-M "I M M 2"
_symmetry_group_IT_number 44
_symmetry_cell_setting 'orthorhombic'
loop_
_space_group_symop_operation_xyz
x,y,z
-x,-y,z
-x,y,z
x,-y,z
1/2+x,1/2+y,1/2+z
1/2-x,1/2-y,1/2+z
1/2-x,1/2+y,1/2+z
1/2+x,1/2-y,1/2+z
loop_
_atom_site_type_symbol
_atom_site_label
_atom_site_fract_x
_atom_site_fract_y
_atom_site_fract_z
Si Si1 0.367600 0.672052 0.204240
Si Si2 0.777176 0.325358 0.525155
Si Si3 0.578617 0.662913 0.520827
Si Si4 0.282738 0.172586 0.645291
Si Si5 0.179145 0.672403 0.939099
Si Si6 0.078542 0.168490 0.165689
Si Si7 0.081789 0.322944 0.827681
Si Si8 0.420409 0.170999 0.086673
O O1 0.384725 0.500000 0.216591
O O2 0.283441 0.699629 0.191543
O O3 0.391691 0.766549 0.262307
O O4 0.413881 0.725074 0.146066
O O5 0.764924 0.500000 0.522607
O O6 0.729081 0.264246 0.582057
O O7 0.753045 0.255934 0.459035
O O8 0.860973 0.283523 0.535674
O O9 0.500000 0.677376 0.490793
O O10 0.611771 0.500000 0.503046
O O11 0.625669 0.798668 0.495952
O O12 0.571751 0.676045 0.593055
O O13 0.353819 0.226557 0.683066
O O14 0.289959 0.000000 0.627382
O O15 0.196857 0.500000 0.931566
O O16 0.139188 0.737438 0.878393
O O17 0.000000 0.221192 0.192771
O O18 0.094147 0.000000 0.188364
O O19 0.082969 0.500000 0.828108
O O20 0.000000 0.267064 0.841093
O O21 0.500000 0.192853 0.057936
O O22 0.407923 0.000000 0.107375
#
# Coordination Sequence:
#
# PCOD8188571 Si02
#       8
#     8   8   8   8   8   8   8   8
#     4  10  21  34  50  74 101 128 164 208 250 290
#     4  10  19  31  48  70  97 128 161 198 242 295
#     4   9  17  28  42  62  90 124 160 195 230 273
#     4  10  19  31  47  70  98 127 161 202 247 295
#     4  11  21  32  47  68  96 128 164 204 241 282
#     4   9  17  28  43  66  95 125 159 196 234 282
#     4  10  22  38  52  69  96 132 173 209 242 286
#     4   9  18  33  53  75  99 129 162 198 244 297
#
# _framework density 17.683647000000001
#
# number of rings (size 3 to 8) (size 9 to 14) (size 15 to 20)
#    0.000    2.250    1.250    3.000    0.000    6.000 
#    0.000    1.250    0.000    0.000    0.000    0.875 
#    0.000    3.000    0.000    0.000    0.000    0.125 
#
# Total GULP energy -396532.915529 kJ/mol
# GULP energy per Si atom -12391.653610 kJ/mol
# Density = 1.764340 g / cm^3
# Si number density = 17.683647 Si / 1000 Ang^3
#
#
#
# Elastic Constant Matrix: (Units=GPa)
#
#
# Indices 1 2 3 4 5 6 
#
# 1 137.0012 32.0392 41.1555 0.0000 0.0000 0.0000
# 2 32.0392 47.1225 19.9609 0.0000 0.0000 0.0000
# 3 41.1555 19.9609 61.8818 0.0000 0.0000 0.0000
# 4 0.0000 0.0000 0.0000 21.6241 0.0000 0.0000
# 5 0.0000 0.0000 0.0000 0.0000 19.9567 0.0000
# 6 0.0000 0.0000 0.0000 0.0000 0.0000 26.3148
#
#
#
# Elastic Compliance Matrix: (Units=1/GPa)
#
#
# Indices 1 2 3 4 5 6 
#
# 1 0.009903 -0.004568 -0.005113 0.000000 0.000000 0.000000
# 2 -0.004568 0.026686 -0.005570 0.000000 0.000000 0.000000
# 3 -0.005113 -0.005570 0.021357 0.000000 0.000000 0.000000
# 4 0.000000 0.000000 0.000000 0.046245 0.000000 0.000000
# 5 0.000000 0.000000 0.000000 0.000000 0.050109 0.000000
# 6 0.000000 0.000000 0.000000 0.000000 0.000000 0.038001
#
#
# Mechanical properties :
#
#
# Convention : Reuss Voigt Hill
#
# Bulk Modulus (GPa) = 36.43655 48.03517 42.23586
# Shear Modulus (GPa) = 21.55619 23.76910 22.66264
#
# Velocity S-wave (km/s) = 3.49519 3.67021 3.58377
# Velocity P-wave (km/s) = 6.07765 6.72185 6.40785
#
# Compressibility (1/GPa) = 0.02744497
#
# Stress axis : x y z
#
# Youngs Moduli (GPa) = 100.97597 37.47223 46.82267
#
# Poissons Ratio (x) = 0.17116 0.23941
# Poissons Ratio (y) = 0.46121 0.26082
# Poissons Ratio (z) = 0.51629 0.20874
#
# Static dielectric constant tensor:
#      x y z
#    x 3.800700 0.000000 0.000000 
#    y 0.000000 3.333370 0.000000 
#    z 0.000000 0.000000 2.923500 
# 
# 
# High freq. dielectric constant tensor:
#      x y z
#    x 1.698380 0.000000 0.000000 
#    y 0.000000 1.685050 0.000000 
#    z 0.000000 0.000000 1.628400 
# 
# From -- ./inp_files/24474.got.cif
#   From: 2010.03.12/outbox.cif.g09.slc.cpg/sg44_13_cif.got.tgz:24474.got - 2010.04.14 02:36:11.
