data_PCOD8188180
_publ_section_title
;
Structure prediction by ZEFSAII (Michael W. Deem and Ramdas Pophale) SiO2 
 PCOD8188180
Probable space group: I M M 2
;
_chemical_formula_sum "Si O2"
_cell_formula_units_Z 64
_cell_length_a 30.213166
_cell_length_b 8.674772
_cell_length_c 14.487909
_cell_angle_alpha 90.000000
_cell_angle_beta 90.000000
_cell_angle_gamma 90.000000
_cell_volume 3797.169775
_symmetry_space_group_name_H-M "I M M 2"
_symmetry_group_IT_number 44
_symmetry_cell_setting 'orthorhombic'
loop_
_space_group_symop_operation_xyz
x,y,z
-x,-y,z
-x,y,z
x,-y,z
1/2+x,1/2+y,1/2+z
1/2-x,1/2-y,1/2+z
1/2-x,1/2+y,1/2+z
1/2+x,1/2-y,1/2+z
loop_
_atom_site_type_symbol
_atom_site_label
_atom_site_fract_x
_atom_site_fract_y
_atom_site_fract_z
Si Si1 0.223277 0.327080 0.585640
Si Si2 0.451457 0.317321 0.501811
Si Si3 0.862081 0.677128 0.282860
Si Si4 0.214556 0.179959 0.388024
Si Si5 0.794958 0.816758 0.772669
Si Si6 0.950478 0.320190 0.198106
Si Si7 0.674666 0.327048 0.608632
Si Si8 0.363956 0.317643 0.417567
O O1 0.205434 0.500000 0.567038
O O2 0.218097 0.226942 0.494160
O O3 0.197350 0.250214 0.670707
O O4 0.273199 0.332534 0.619256
O O5 0.500000 0.249287 0.476058
O O6 0.452746 0.500000 0.499883
O O7 0.437495 0.269193 0.604826
O O8 0.414753 0.256950 0.427991
O O9 0.854987 0.500000 0.310804
O O10 0.835511 0.781879 0.355348
O O11 0.914743 0.719607 0.278627
O O12 0.843841 0.704476 0.180426
O O13 0.249891 0.266410 0.323641
O O14 0.223271 0.000000 0.377527
O O15 0.837756 0.752699 0.829164
O O16 0.793770 0.000000 0.767545
O O17 0.948119 0.500000 0.174149
O O18 0.000000 0.273457 0.231735
O O19 0.655293 0.500000 0.625857
O O20 0.662959 0.264995 0.507552
O O21 0.363781 0.500000 0.410873
#
# Coordination Sequence:
#
# PCOD8188180 Si02
#       8
#     8   8   8   8   8   8   8   8
#     4  11  22  37  52  71  99 132 168 212 253 294
#     4   9  16  27  46  71  98 131 168 202 240 290
#     4  11  21  32  49  73 100 135 172 206 245 299
#     4  12  24  36  51  72  99 133 170 210 250 296
#     4  11  21  35  52  72  99 133 170 208 251 300
#     4   9  18  31  46  69 101 132 162 201 249 297
#     4  10  18  30  48  70 101 134 164 202 246 290
#     4   9  17  30  47  69  99 133 165 200 241 286
#
# _framework density 16.854659000000002
#
# number of rings (size 3 to 8) (size 9 to 14) (size 15 to 20)
#    0.000    1.750    3.750    2.250    0.000    1.000 
#    0.000    1.250    0.000    0.000    0.000    0.875 
#    0.000    3.000    0.000    0.000    0.000    0.000 
#
# Total GULP energy -396627.204860 kJ/mol
# GULP energy per Si atom -12394.600152 kJ/mol
# Density = 1.681630 g / cm^3
# Si number density = 16.854659 Si / 1000 Ang^3
#
#
#
# Elastic Constant Matrix: (Units=GPa)
#
#
# Indices 1 2 3 4 5 6 
#
# 1 91.7034 15.5943 24.5230 0.0000 0.0000 0.0000
# 2 15.5943 45.4059 8.5485 0.0000 0.0000 0.0000
# 3 24.5230 8.5485 65.4197 0.0000 0.0000 0.0000
# 4 0.0000 0.0000 0.0000 25.2443 0.0000 0.0000
# 5 0.0000 0.0000 0.0000 0.0000 25.5057 0.0000
# 6 0.0000 0.0000 0.0000 0.0000 0.0000 16.2501
#
#
#
# Elastic Compliance Matrix: (Units=1/GPa)
#
#
# Indices 1 2 3 4 5 6 
#
# 1 0.012651 -0.003539 -0.004280 0.000000 0.000000 0.000000
# 2 -0.003539 0.023569 -0.001753 0.000000 0.000000 0.000000
# 3 -0.004280 -0.001753 0.017119 0.000000 0.000000 0.000000
# 4 0.000000 0.000000 0.000000 0.039613 0.000000 0.000000
# 5 0.000000 0.000000 0.000000 0.000000 0.039207 0.000000
# 6 0.000000 0.000000 0.000000 0.000000 0.000000 0.061538
#
#
# Mechanical properties :
#
#
# Convention : Reuss Voigt Hill
#
# Bulk Modulus (GPa) = 29.24387 33.31786 31.28086
# Shear Modulus (GPa) = 22.29754 23.65758 22.97756
#
# Velocity S-wave (km/s) = 3.64116 3.75056 3.69626
# Velocity P-wave (km/s) = 5.92163 6.21017 6.06761
#
# Compressibility (1/GPa) = 0.03419520
#
# Stress axis : x y z
#
# Youngs Moduli (GPa) = 79.04477 42.42846 58.41349
#
# Poissons Ratio (x) = 0.15016 0.25000
# Poissons Ratio (y) = 0.27975 0.10241
# Poissons Ratio (z) = 0.33830 0.07438
#
# Static dielectric constant tensor:
#      x y z
#    x 3.626720 0.000000 0.000000 
#    y 0.000000 3.122080 0.000000 
#    z 0.000000 0.000000 3.061600 
# 
# 
# High freq. dielectric constant tensor:
#      x y z
#    x 1.647390 0.000000 0.000000 
#    y 0.000000 1.645980 0.000000 
#    z 0.000000 0.000000 1.621290 
# 
# From -- ./inp_files/19707.got.cif
#   From: 2010.03.12/outbox.cif.g09.slc.cpg/sg44_10_cif.got.tgz:19707.got - 2010.04.14 02:36:11.
