data_PCOD8188479
_publ_section_title
;
Structure prediction by ZEFSAII (Michael W. Deem and Ramdas Pophale) SiO2 
 PCOD8188479
Probable space group: I M M 2
;
_chemical_formula_sum "Si O2"
_cell_formula_units_Z 40
_cell_length_a 18.539713
_cell_length_b 28.620712
_cell_length_c 5.038412
_cell_angle_alpha 90.000000
_cell_angle_beta 90.000000
_cell_angle_gamma 90.000000
_cell_volume 2673.481099
_symmetry_space_group_name_H-M "I M M 2"
_symmetry_group_IT_number 44
_symmetry_cell_setting 'orthorhombic'
loop_
_space_group_symop_operation_xyz
x,y,z
-x,-y,z
-x,y,z
x,-y,z
1/2+x,1/2+y,1/2+z
1/2-x,1/2-y,1/2+z
1/2-x,1/2+y,1/2+z
1/2+x,1/2-y,1/2+z
loop_
_atom_site_type_symbol
_atom_site_label
_atom_site_fract_x
_atom_site_fract_y
_atom_site_fract_z
Si Si1 0.084413 0.054395 0.920580
Si Si2 0.208992 0.805807 0.505788
Si Si3 0.000000 0.234674 0.899702
Si Si4 0.000000 0.175076 0.400794
Si Si5 0.130407 0.892953 0.425519
Si Si6 0.155782 0.753002 0.005349
O O1 0.121053 0.066106 0.640279
O O2 0.000000 0.068091 0.925627
O O3 0.094212 0.000000 0.977968
O O4 0.127678 0.083529 0.139100
O O5 0.203291 0.862028 0.461422
O O6 0.178791 0.792392 0.794048
O O7 0.293310 0.792392 0.479707
O O8 0.161927 0.777018 0.292171
O O9 0.000000 0.219908 0.592760
O O10 0.926873 0.263848 0.960381
O O11 0.000000 0.189285 0.091789
O O12 0.931069 0.144875 0.470944
#
# Coordination Sequence:
#
# PCOD8188479 Si02
#       6
#     8   8   4   4   8   8
#     4  11  22  32  43  61  83 107 140 182 220 248
#     4  10  20  30  43  62  86 112 143 179 212 245
#     4  12  18  30  44  62  89 114 147 182 206 242
#     4  12  20  26  43  70  78 112 154 180 205 244
#     4  12  19  31  45  59  83 112 145 178 209 248
#     4  10  19  30  42  63  88 111 142 179 212 242
#
# _framework density 14.961767
#
# number of rings (size 3 to 8) (size 9 to 14) (size 15 to 20)
#    0.000    1.000    6.000    3.000    0.000    1.600 
#    0.000    0.000    0.000    0.000    0.000    0.000 
#    0.000    0.000    0.000    5.400    0.000    0.000 
#
# Total GULP energy -247999.360622 kJ/mol
# GULP energy per Si atom -12399.968031 kJ/mol
# Density = 1.492771 g / cm^3
# Si number density = 14.961767 Si / 1000 Ang^3
#
#
#
# Elastic Constant Matrix: (Units=GPa)
#
#
# Indices 1 2 3 4 5 6 
#
# 1 81.2559 26.8529 6.1757 0.0001 0.0001 0.0000
# 2 26.8529 60.9933 10.2586 0.0000 0.0000 0.0000
# 3 6.1757 10.2586 65.4674 0.0001 0.0002 0.0000
# 4 0.0001 0.0000 0.0001 24.3970 0.0000 0.0000
# 5 0.0001 0.0000 0.0002 0.0000 14.1943 0.0000
# 6 0.0000 0.0000 0.0000 0.0000 0.0000 22.0013
#
#
#
# Elastic Compliance Matrix: (Units=1/GPa)
#
#
# Indices 1 2 3 4 5 6 
#
# 1 0.014411 -0.006282 -0.000375 0.000000 0.000000 0.000000
# 2 -0.006282 0.019577 -0.002475 0.000000 0.000000 0.000000
# 3 -0.000375 -0.002475 0.015698 0.000000 0.000000 0.000000
# 4 0.000000 0.000000 0.000000 0.040989 0.000000 0.000000
# 5 0.000000 0.000000 0.000000 0.000000 0.070451 0.000000
# 6 0.000000 0.000000 0.000000 0.000000 0.000000 0.045452
#
#
# Mechanical properties :
#
#
# Convention : Reuss Voigt Hill
#
# Bulk Modulus (GPa) = 31.82423 32.69900 32.26162
# Shear Modulus (GPa) = 21.24809 23.08049 22.16429
#
# Velocity S-wave (km/s) = 3.77259 3.93190 3.85307
# Velocity P-wave (km/s) = 6.34769 6.52040 6.43462
#
# Compressibility (1/GPa) = 0.03142260
#
# Stress axis : x y z
#
# Youngs Moduli (GPa) = 69.39054 51.08023 63.70234
#
# Poissons Ratio (x) = 0.32086 0.02390
# Poissons Ratio (y) = 0.43588 0.15767
# Poissons Ratio (z) = 0.02603 0.12643
#
# Static dielectric constant tensor:
#      x y z
#    x 3.134210 0.000000 0.000000 
#    y 0.000000 2.732200 0.000000 
#    z 0.000000 0.000000 3.051720 
# 
# 
# High freq. dielectric constant tensor:
#      x y z
#    x 1.545970 0.000000 0.000000 
#    y 0.000000 1.536780 0.000000 
#    z 0.000000 0.000000 1.599910 
# 
# From -- ./inp_files/2064.got.cif
#   From: 2010.03.12/outbox.cif.g09.slc.cpg/sg44_2_cif.got.tgz:2064.got - 2010.04.14 02:36:11.
