data_PCOD8188611
_publ_section_title
;
Structure prediction by ZEFSAII (Michael W. Deem and Ramdas Pophale) SiO2 
 PCOD8188611
Probable space group: I M M 2
;
_chemical_formula_sum "Si O2"
_cell_formula_units_Z 64
_cell_length_a 8.990108
_cell_length_b 14.191829
_cell_length_c 28.346479
_cell_angle_alpha 90.000000
_cell_angle_beta 90.000000
_cell_angle_gamma 90.000000
_cell_volume 3616.616008
_symmetry_space_group_name_H-M "I M M 2"
_symmetry_group_IT_number 44
_symmetry_cell_setting 'orthorhombic'
loop_
_space_group_symop_operation_xyz
x,y,z
-x,-y,z
-x,y,z
x,-y,z
1/2+x,1/2+y,1/2+z
1/2-x,1/2-y,1/2+z
1/2-x,1/2+y,1/2+z
1/2+x,1/2-y,1/2+z
loop_
_atom_site_type_symbol
_atom_site_label
_atom_site_fract_x
_atom_site_fract_y
_atom_site_fract_z
Si Si1 0.329209 0.392013 0.900850
Si Si2 0.169863 0.610446 0.720859
Si Si3 0.174241 0.608406 0.997488
Si Si4 0.671840 0.291521 0.806587
Si Si5 0.825406 0.891014 0.124743
Si Si6 0.671300 0.895262 0.760427
Si Si7 0.823420 0.227530 0.577618
Si Si8 0.324907 0.606587 0.166080
O O1 0.500000 0.372149 0.915209
O O2 0.309097 0.500000 0.884656
O O3 0.277039 0.325169 0.858102
O O4 0.223445 0.367848 0.944458
O O5 0.185225 0.500000 0.728717
O O6 0.230187 0.658418 0.767535
O O7 0.262063 0.642814 0.675138
O O8 0.000000 0.641370 0.712311
O O9 0.214714 0.500000 0.009736
O O10 0.263912 0.677982 0.030970
O O11 0.000000 0.627277 0.002702
O O12 0.500000 0.319103 0.798079
O O13 0.696542 0.178320 0.803128
O O14 0.747040 0.831440 0.083134
O O15 0.000000 0.872287 0.124211
O O16 0.786652 0.000000 0.115383
O O17 0.500000 0.900155 0.746138
O O18 0.756885 0.855199 0.714780
O O19 0.728797 0.000000 0.775253
O O20 0.767440 0.167445 0.622369
O O21 0.000000 0.234958 0.574363
O O22 0.500000 0.613077 0.170693
O O23 0.270705 0.500000 0.157353
#
# Coordination Sequence:
#
# PCOD8188611 Si02
#       8
#     8   8   8   8   8   8   8   8
#     4   9  18  33  52  73  97 125 160 204 254 306
#     4  10  20  32  47  71 103 135 167 205 249 298
#     4  10  21  36  54  77 104 132 163 201 248 304
#     4  10  19  31  50  73  97 130 170 208 250 302
#     4  10  21  36  52  71 100 137 173 210 251 295
#     4   9  18  31  46  67  97 131 165 202 241 281
#     4  11  21  33  53  77 101 131 168 209 252 300
#     4   9  18  31  46  68  99 132 164 198 239 288
#
# _framework density 17.696100000000001
#
# number of rings (size 3 to 8) (size 9 to 14) (size 15 to 20)
#    0.000    2.250    0.000    3.000    0.000    7.250 
#    0.000    2.500    0.000    0.750    0.000    1.750 
#    0.000    0.000    0.000    0.000    0.000    0.000 
#
# Total GULP energy -396855.544419 kJ/mol
# GULP energy per Si atom -12401.735763 kJ/mol
# Density = 1.765582 g / cm^3
# Si number density = 17.696100 Si / 1000 Ang^3
#
#
#
# Elastic Constant Matrix: (Units=GPa)
#
#
# Indices 1 2 3 4 5 6 
#
# 1 70.0216 44.5007 41.9903 0.0000 0.0000 0.0000
# 2 44.5007 80.5933 68.4976 0.0000 0.0000 0.0000
# 3 41.9903 68.4976 101.3168 0.0000 0.0000 0.0000
# 4 0.0000 0.0000 0.0000 32.3996 0.0000 0.0000
# 5 0.0000 0.0000 0.0000 0.0000 29.9438 0.0000
# 6 0.0000 0.0000 0.0000 0.0000 0.0000 25.1558
#
#
#
# Elastic Compliance Matrix: (Units=1/GPa)
#
#
# Indices 1 2 3 4 5 6 
#
# 1 0.022199 -0.010433 -0.002147 0.000000 0.000000 0.000000
# 2 -0.010433 0.034071 -0.018711 0.000000 0.000000 0.000000
# 3 -0.002147 -0.018711 0.023410 0.000000 0.000000 0.000000
# 4 0.000000 0.000000 0.000000 0.030865 0.000000 0.000000
# 5 0.000000 0.000000 0.000000 0.000000 0.033396 0.000000
# 6 0.000000 0.000000 0.000000 0.000000 0.000000 0.039752
#
#
# Mechanical properties :
#
#
# Convention : Reuss Voigt Hill
#
# Bulk Modulus (GPa) = 58.48339 62.43432 60.45885
# Shear Modulus (GPa) = 19.84333 23.96272 21.90302
#
# Velocity S-wave (km/s) = 3.35227 3.68383 3.52196
# Velocity P-wave (km/s) = 6.93571 7.31110 7.12588
#
# Compressibility (1/GPa) = 0.01709887
#
# Stress axis : x y z
#
# Youngs Moduli (GPa) = 45.04674 29.35022 42.71725
#
# Poissons Ratio (x) = 0.30621 0.09171
# Poissons Ratio (y) = 0.46996 0.79928
# Poissons Ratio (z) = 0.09671 0.54917
#
# Static dielectric constant tensor:
#      x y z
#    x 3.283590 0.000000 0.000000 
#    y 0.000000 3.490010 0.000000 
#    z 0.000000 0.000000 3.128860 
# 
# 
# High freq. dielectric constant tensor:
#      x y z
#    x 1.688800 0.000000 0.000000 
#    y 0.000000 1.687560 0.000000 
#    z 0.000000 0.000000 1.662990 
# 
# From -- ./inp_files/25141.got.cif
#   From: 2010.03.12/outbox.cif.g09.slc.cpg/sg44_13_cif.got.tgz:25141.got - 2010.04.14 02:36:11.
