data_PCOD8188859
_publ_section_title
;
Structure prediction by ZEFSAII (Michael W. Deem and Ramdas Pophale) SiO2 
 PCOD8188859
Probable space group: I M M 2
;
_chemical_formula_sum "Si O2"
_cell_formula_units_Z 64
_cell_length_a 31.728920
_cell_length_b 9.055396
_cell_length_c 11.765124
_cell_angle_alpha 90.000000
_cell_angle_beta 90.000000
_cell_angle_gamma 90.000000
_cell_volume 3380.331136
_symmetry_space_group_name_H-M "I M M 2"
_symmetry_group_IT_number 44
_symmetry_cell_setting 'orthorhombic'
loop_
_space_group_symop_operation_xyz
x,y,z
-x,-y,z
-x,y,z
x,-y,z
1/2+x,1/2+y,1/2+z
1/2-x,1/2-y,1/2+z
1/2-x,1/2+y,1/2+z
1/2+x,1/2-y,1/2+z
loop_
_atom_site_type_symbol
_atom_site_label
_atom_site_fract_x
_atom_site_fract_y
_atom_site_fract_z
Si Si1 0.186997 0.174212 0.928350
Si Si2 0.321803 0.334068 0.175411
Si Si3 0.363406 0.826961 0.848906
Si Si4 0.549282 0.673499 0.456074
Si Si5 0.281277 0.827380 0.980872
Si Si6 0.907863 0.167681 0.541327
Si Si7 0.450875 0.163667 0.230297
Si Si8 0.379415 0.174398 0.588808
O O1 0.173090 0.224947 0.802996
O O2 0.235628 0.222076 0.938458
O O3 0.180206 0.000000 0.949439
O O4 0.159334 0.264925 0.016423
O O5 0.304097 0.500000 0.178464
O O6 0.366754 0.323075 0.117988
O O7 0.288097 0.240321 0.105335
O O8 0.316980 0.774198 0.890896
O O9 0.369201 0.784071 0.718383
O O10 0.369541 0.000000 0.869995
O O11 0.399509 0.742405 0.919700
O O12 0.500000 0.706194 0.479018
O O13 0.558574 0.500000 0.453033
O O14 0.565714 0.739274 0.336213
O O15 0.576468 0.748812 0.555502
O O16 0.284180 0.000000 0.996041
O O17 0.943228 0.256474 0.610152
O O18 0.922859 0.000000 0.521722
O O19 0.500000 0.145485 0.245388
O O20 0.429734 0.000000 0.232042
O O21 0.383800 0.000000 0.570968
#
# Coordination Sequence:
#
# PCOD8188859 Si02
#       8
#     8   8   8   8   8   8   8   8
#     4  10  21  35  54  79 110 145 180 228 283 335
#     4   9  19  34  52  74 102 136 174 219 270 321
#     4   9  20  38  56  76 108 150 192 234 283 335
#     4  10  21  38  60  85 116 151 186 231 286 341
#     4   9  19  35  54  76 104 142 184 227 277 328
#     4  10  19  33  55  81 107 143 185 225 275 329
#     4  10  20  34  56  86 117 146 179 225 278 333
#     4  11  23  37  58  85 112 148 191 238 288 343
#
# _framework density 18.933056000000001
#
# number of rings (size 3 to 8) (size 9 to 14) (size 15 to 20)
#    0.000    2.250    0.000    2.250    1.750    5.000 
#    0.000    0.625    0.000    0.750    0.000    0.000 
#    0.000    0.000    0.000    0.000    0.000    0.000 
#
# Total GULP energy -396833.090808 kJ/mol
# GULP energy per Si atom -12401.034088 kJ/mol
# Density = 1.888996 g / cm^3
# Si number density = 18.933056 Si / 1000 Ang^3
#
#
#
# Elastic Constant Matrix: (Units=GPa)
#
#
# Indices 1 2 3 4 5 6 
#
# 1 61.8659 41.7934 47.5145 0.0000 0.0000 0.0000
# 2 41.7934 89.8285 61.5140 0.0000 0.0000 0.0000
# 3 47.5145 61.5140 152.2035 0.0000 0.0000 0.0000
# 4 0.0000 0.0000 0.0000 34.5605 0.0000 0.0000
# 5 0.0000 0.0000 0.0000 0.0000 25.3844 0.0000
# 6 0.0000 0.0000 0.0000 0.0000 0.0000 28.0993
#
#
#
# Elastic Compliance Matrix: (Units=1/GPa)
#
#
# Indices 1 2 3 4 5 6 
#
# 1 0.025524 -0.008875 -0.004381 0.000000 0.000000 0.000000
# 2 -0.008875 0.018478 -0.004698 0.000000 0.000000 0.000000
# 3 -0.004381 -0.004698 0.009836 0.000000 0.000000 0.000000
# 4 0.000000 0.000000 0.000000 0.028935 0.000000 0.000000
# 5 0.000000 0.000000 0.000000 0.000000 0.039394 0.000000
# 6 0.000000 0.000000 0.000000 0.000000 0.000000 0.035588
#
#
# Mechanical properties :
#
#
# Convention : Reuss Voigt Hill
#
# Bulk Modulus (GPa) = 55.76809 67.28243 61.52526
# Shear Modulus (GPa) = 25.04489 27.81390 26.42940
#
# Velocity S-wave (km/s) = 3.64100 3.83700 3.74028
# Velocity P-wave (km/s) = 6.86987 7.43265 7.15679
#
# Compressibility (1/GPa) = 0.01793140
#
# Stress axis : x y z
#
# Youngs Moduli (GPa) = 39.17806 54.11715 101.66326
#
# Poissons Ratio (x) = 0.48030 0.44541
# Poissons Ratio (y) = 0.34772 0.47757
# Poissons Ratio (z) = 0.17165 0.25422
#
# Static dielectric constant tensor:
#      x y z
#    x 3.440580 0.000000 0.000000 
#    y 0.000000 3.616000 0.000000 
#    z 0.000000 0.000000 3.532760 
# 
# 
# High freq. dielectric constant tensor:
#      x y z
#    x 1.728840 0.000000 0.000000 
#    y 0.000000 1.740010 0.000000 
#    z 0.000000 0.000000 1.735890 
# 
# From -- ./inp_files/15036.got.cif
#   From: 2010.03.12/outbox.cif.g09.slc.cpg/sg44_8_cif.got.tgz:15036.got - 2010.04.14 02:36:11.
