data_PCOD8188202
_publ_section_title
;
Structure prediction by ZEFSAII (Michael W. Deem and Ramdas Pophale) SiO2 
 PCOD8188202
Probable space group: I M M 2
;
_chemical_formula_sum "Si O2"
_cell_formula_units_Z 48
_cell_length_a 9.830715
_cell_length_b 10.638132
_cell_length_c 25.118478
_cell_angle_alpha 90.000000
_cell_angle_beta 90.000000
_cell_angle_gamma 90.000000
_cell_volume 2626.901577
_symmetry_space_group_name_H-M "I M M 2"
_symmetry_group_IT_number 44
_symmetry_cell_setting 'orthorhombic'
loop_
_space_group_symop_operation_xyz
x,y,z
-x,-y,z
-x,y,z
x,-y,z
1/2+x,1/2+y,1/2+z
1/2-x,1/2-y,1/2+z
1/2-x,1/2+y,1/2+z
1/2+x,1/2-y,1/2+z
loop_
_atom_site_type_symbol
_atom_site_label
_atom_site_fract_x
_atom_site_fract_y
_atom_site_fract_z
Si Si1 0.837034 0.000000 0.625000
Si Si2 0.657900 0.755718 0.177166
Si Si3 0.651252 0.000000 0.521087
Si Si4 0.162506 0.643338 0.787883
Si Si5 0.845985 0.236661 0.980965
Si Si6 0.148301 0.641358 0.567379
Si Si7 0.338101 0.357604 0.368542
O O1 0.786635 0.880716 0.659339
O O2 0.764408 0.000000 0.567404
O O3 0.000000 0.000000 0.615258
O O4 0.500000 0.741360 0.189406
O O5 0.723951 0.811681 0.230906
O O6 0.688611 0.852151 0.129398
O O7 0.664048 0.113458 0.479085
O O8 0.500000 0.000000 0.547874
O O9 0.213638 0.500000 0.800484
O O10 0.218188 0.748390 0.829481
O O11 0.000000 0.642369 0.787722
O O12 0.763477 0.204007 0.033257
O O13 0.000000 0.188415 0.988610
O O14 0.783481 0.175239 0.927686
O O15 0.135709 0.500000 0.548755
O O16 0.000000 0.708307 0.559365
O O17 0.500000 0.352145 0.368197
O O18 0.289663 0.500000 0.352769
#
# Coordination Sequence:
#
# PCOD8188202 Si02
#       7
#     4   8   4   8   8   8   8
#     4  10  18  30  50  74 100 130 162 199 246 298
#     4   9  17  28  44  68  99 127 157 198 245 293
#     4  10  20  32  48  72 100 132 168 203 242 298
#     4   9  17  28  44  67  97 130 160 196 247 299
#     4  10  20  33  49  70 101 132 163 205 251 296
#     4  10  19  31  49  72  98 129 164 203 247 298
#     4   9  18  30  45  66  94 128 165 203 245 295
#
# _framework density 18.272479000000001
#
# number of rings (size 3 to 8) (size 9 to 14) (size 15 to 20)
#    0.000    2.500    1.667    1.000    2.333    3.000 
#    0.000    0.000    0.000    0.000    0.000    2.333 
#    0.000    2.667    0.000    0.000    0.000    0.000 
#
# Total GULP energy -297340.791761 kJ/mol
# GULP energy per Si atom -12389.199657 kJ/mol
# Density = 1.823089 g / cm^3
# Si number density = 18.272479 Si / 1000 Ang^3
#
#
#
# Elastic Constant Matrix: (Units=GPa)
#
#
# Indices 1 2 3 4 5 6 
#
# 1 31.7356 17.4308 26.6786 0.0000 0.0000 0.0000
# 2 17.4308 131.7120 44.4739 0.0000 0.0000 0.0000
# 3 26.6786 44.4739 101.8278 0.0000 0.0000 0.0000
# 4 0.0000 0.0000 0.0000 37.7650 0.0000 0.0000
# 5 0.0000 0.0000 0.0000 0.0000 13.3632 0.0000
# 6 0.0000 0.0000 0.0000 0.0000 0.0000 14.9785
#
#
#
# Elastic Compliance Matrix: (Units=1/GPa)
#
#
# Indices 1 2 3 4 5 6 
#
# 1 0.040902 -0.002105 -0.009797 0.000000 0.000000 0.000000
# 2 -0.002105 0.009014 -0.003385 0.000000 0.000000 0.000000
# 3 -0.009797 -0.003385 0.013866 0.000000 0.000000 0.000000
# 4 0.000000 0.000000 0.000000 0.026480 0.000000 0.000000
# 5 0.000000 0.000000 0.000000 0.000000 0.074833 0.000000
# 6 0.000000 0.000000 0.000000 0.000000 0.000000 0.066762
#
#
# Mechanical properties :
#
#
# Convention : Reuss Voigt Hill
#
# Bulk Modulus (GPa) = 30.11362 49.16023 39.63693
# Shear Modulus (GPa) = 18.28148 25.00080 21.64114
#
# Velocity S-wave (km/s) = 3.16649 3.70296 3.44518
# Velocity P-wave (km/s) = 5.46671 6.72644 6.12903
#
# Compressibility (1/GPa) = 0.03320756
#
# Stress axis : x y z
#
# Youngs Moduli (GPa) = 24.44845 110.93833 72.11947
#
# Poissons Ratio (x) = 0.23352 0.70655
# Poissons Ratio (y) = 0.05146 0.24416
# Poissons Ratio (z) = 0.23952 0.37557
#
# Static dielectric constant tensor:
#      x y z
#    x 2.915510 0.000000 0.000000 
#    y 0.000000 3.811010 0.000000 
#    z 0.000000 0.000000 3.439410 
# 
# 
# High freq. dielectric constant tensor:
#      x y z
#    x 1.635810 0.000000 0.000000 
#    y 0.000000 1.730810 0.000000 
#    z 0.000000 0.000000 1.707420 
# 
# From -- ./inp_files/23735.got.cif
#   From: 2010.03.12/outbox.cif.g09.slc.cpg/sg44_12_cif.got.tgz:23735.got - 2010.04.14 02:36:11.
