data_PCOD8188676
_publ_section_title
;
Structure prediction by ZEFSAII (Michael W. Deem and Ramdas Pophale) SiO2 
 PCOD8188676
Probable space group: I M M 2
;
_chemical_formula_sum "Si O2"
_cell_formula_units_Z 48
_cell_length_a 8.582896
_cell_length_b 23.730936
_cell_length_c 13.792252
_cell_angle_alpha 90.000000
_cell_angle_beta 90.000000
_cell_angle_gamma 90.000000
_cell_volume 2809.208034
_symmetry_space_group_name_H-M "I M M 2"
_symmetry_group_IT_number 44
_symmetry_cell_setting 'orthorhombic'
loop_
_space_group_symop_operation_xyz
x,y,z
-x,-y,z
-x,y,z
x,-y,z
1/2+x,1/2+y,1/2+z
1/2-x,1/2-y,1/2+z
1/2-x,1/2+y,1/2+z
1/2+x,1/2-y,1/2+z
loop_
_atom_site_type_symbol
_atom_site_label
_atom_site_fract_x
_atom_site_fract_y
_atom_site_fract_z
Si Si1 0.182222 0.936596 0.386300
Si Si2 0.316319 0.333179 0.005518
Si Si3 0.816932 0.722328 0.400770
Si Si4 0.681570 0.668871 0.582912
Si Si5 0.818551 0.435803 0.678677
Si Si6 0.816120 0.772165 0.692954
O O1 0.244532 0.894014 0.469528
O O2 0.277065 0.923147 0.289817
O O3 0.000000 0.926798 0.364006
O O4 0.213695 0.000000 0.423343
O O5 0.500000 0.333887 0.010950
O O6 0.263155 0.285514 0.928966
O O7 0.255180 0.317291 0.112730
O O8 0.731094 0.678560 0.471688
O O9 0.769972 0.710604 0.290879
O O10 0.000000 0.714011 0.414708
O O11 0.500000 0.680409 0.596180
O O12 0.720829 0.604482 0.608502
O O13 0.773543 0.709665 0.656604
O O14 0.773304 0.500000 0.652501
O O15 0.000000 0.424489 0.662876
O O16 0.000000 0.775020 0.709550
#
# Coordination Sequence:
#
# PCOD8188676 Si02
#       6
#     8   8   8   8   8   8
#     4   9  16  28  48  72  97 127 162 197 235 283
#     4   8  16  29  45  67  95 124 154 193 238 284
#     4  10  19  32  49  70  97 127 161 202 248 295
#     4  11  21  33  50  72  98 128 163 202 245 292
#     4  10  20  33  49  71  99 128 158 197 245 294
#     4  10  19  32  49  70  98 130 164 202 245 292
#
# _framework density 17.086666000000001
#
# number of rings (size 3 to 8) (size 9 to 14) (size 15 to 20)
#    0.000    2.333    0.000    5.000    0.000    2.333 
#    0.000    4.167    0.000    1.000    0.000    2.333 
#    0.000    0.000    0.000    0.000    0.000    0.000 
#
# Total GULP energy -297585.608705 kJ/mol
# GULP energy per Si atom -12399.400363 kJ/mol
# Density = 1.704778 g / cm^3
# Si number density = 17.086666 Si / 1000 Ang^3
#
#
#
# Elastic Constant Matrix: (Units=GPa)
#
#
# Indices 1 2 3 4 5 6 
#
# 1 42.5063 19.8731 15.2326 -0.0001 0.0000 0.0000
# 2 19.8731 111.2625 60.6984 -0.0001 0.0000 0.0000
# 3 15.2326 60.6984 111.7378 -0.0005 0.0001 0.0000
# 4 -0.0001 -0.0001 -0.0005 29.4560 0.0000 0.0000
# 5 0.0000 0.0000 0.0001 0.0000 28.9290 0.0000
# 6 0.0000 0.0000 0.0000 0.0000 0.0000 20.6120
#
#
#
# Elastic Compliance Matrix: (Units=1/GPa)
#
#
# Indices 1 2 3 4 5 6 
#
# 1 0.025832 -0.003827 -0.001443 0.000000 0.000000 0.000000
# 2 -0.003827 0.013340 -0.006725 0.000000 0.000000 0.000000
# 3 -0.001443 -0.006725 0.012799 0.000000 0.000000 0.000000
# 4 0.000000 0.000000 0.000000 0.033949 0.000000 0.000000
# 5 0.000000 0.000000 0.000000 0.000000 0.034567 0.000000
# 6 0.000000 0.000000 0.000000 0.000000 0.000000 0.048515
#
#
# Mechanical properties :
#
#
# Convention : Reuss Voigt Hill
#
# Bulk Modulus (GPa) = 35.73668 50.79054 43.26361
# Shear Modulus (GPa) = 24.71336 27.11290 25.91313
#
# Velocity S-wave (km/s) = 3.80722 3.98777 3.89854
# Velocity P-wave (km/s) = 6.34720 7.14093 6.75573
#
# Compressibility (1/GPa) = 0.02798246
#
# Stress axis : x y z
#
# Youngs Moduli (GPa) = 38.71140 74.96241 78.12923
#
# Poissons Ratio (x) = 0.28688 0.11272
# Poissons Ratio (y) = 0.14815 0.52541
# Poissons Ratio (z) = 0.05585 0.50411
#
# Static dielectric constant tensor:
#      x y z
#    x 3.119920 0.000000 0.000000 
#    y 0.000000 3.347580 0.000000 
#    z 0.000000 0.000000 3.215990 
# 
# 
# High freq. dielectric constant tensor:
#      x y z
#    x 1.658030 0.000000 0.000000 
#    y 0.000000 1.649460 0.000000 
#    z 0.000000 0.000000 1.649780 
# 
# From -- ./inp_files/11128.got.cif
#   From: 2010.03.12/outbox.cif.g09.slc.cpg/sg44_6_cif.got.tgz:11128.got - 2010.04.14 02:36:11.
