data_PCOD8188094
_publ_section_title
;
Structure prediction by ZEFSAII (Michael W. Deem and Ramdas Pophale) SiO2 
 PCOD8188094
Probable space group: I M M 2
;
_chemical_formula_sum "Si O2"
_cell_formula_units_Z 64
_cell_length_a 28.267038
_cell_length_b 8.828766
_cell_length_c 14.647206
_cell_angle_alpha 90.000000
_cell_angle_beta 90.000000
_cell_angle_gamma 90.000000
_cell_volume 3655.401609
_symmetry_space_group_name_H-M "I M M 2"
_symmetry_group_IT_number 44
_symmetry_cell_setting 'orthorhombic'
loop_
_space_group_symop_operation_xyz
x,y,z
-x,-y,z
-x,y,z
x,-y,z
1/2+x,1/2+y,1/2+z
1/2-x,1/2-y,1/2+z
1/2-x,1/2+y,1/2+z
1/2+x,1/2-y,1/2+z
loop_
_atom_site_type_symbol
_atom_site_label
_atom_site_fract_x
_atom_site_fract_y
_atom_site_fract_z
Si Si1 0.672074 0.820208 0.246850
Si Si2 0.138259 0.179041 0.125888
Si Si3 0.222532 0.824900 0.243926
Si Si4 0.447711 0.680382 0.741782
Si Si5 0.947252 0.179926 0.446635
Si Si6 0.637147 0.679628 0.071078
Si Si7 0.725355 0.675293 0.950356
Si Si8 0.175784 0.177001 0.935323
O O1 0.725114 0.755060 0.228753
O O2 0.636865 0.752312 0.171549
O O3 0.656444 0.766210 0.347460
O O4 0.670019 0.000000 0.244780
O O5 0.183807 0.251896 0.177689
O O6 0.090402 0.247363 0.170115
O O7 0.139254 0.000000 0.142786
O O8 0.140344 0.216829 0.018614
O O9 0.205912 0.800643 0.347995
O O10 0.226764 0.000000 0.219574
O O11 0.500000 0.738182 0.713248
O O12 0.446874 0.500000 0.740593
O O13 0.435606 0.737545 0.844208
O O14 0.908481 0.244759 0.517209
O O15 0.000000 0.234078 0.475750
O O16 0.944818 0.000000 0.447335
O O17 0.634616 0.500000 0.079600
O O18 0.684560 0.730846 0.018536
O O19 0.738779 0.500000 0.965838
O O20 0.771802 0.774883 0.966844
O O21 0.176088 0.000000 0.913197
#
# Coordination Sequence:
#
# PCOD8188094 Si02
#       8
#     8   8   8   8   8   8   8   8
#     4  10  20  33  46  61  86 121 158 195 234 271
#     4   9  15  23  39  62  86 113 145 178 213 258
#     4   8  14  25  40  59  85 116 145 172 209 260
#     4   8  13  22  38  63  94 120 139 167 214 269
#     4   8  14  25  43  69  98 122 144 177 224 275
#     4  10  18  28  46  70  94 121 154 189 226 272
#     4   9  17  28  43  66  96 125 149 178 220 270
#     4  10  19  30  44  63  89 122 158 193 226 262
#
# _framework density 17.508334999999999
#
# number of rings (size 3 to 8) (size 9 to 14) (size 15 to 20)
#    0.000    3.000    0.000    3.750    0.000    4.500 
#    0.000    0.000    0.000    1.875    0.000    5.250 
#    0.000    3.500    0.000    0.000    0.000    0.000 
#
# Total GULP energy -396632.615643 kJ/mol
# GULP energy per Si atom -12394.769239 kJ/mol
# Density = 1.746849 g / cm^3
# Si number density = 17.508335 Si / 1000 Ang^3
#
#
#
# Elastic Constant Matrix: (Units=GPa)
#
#
# Indices 1 2 3 4 5 6 
#
# 1 103.9634 19.3116 81.7802 0.0000 0.0000 0.0000
# 2 19.3116 25.8399 24.7196 0.0000 0.0000 0.0000
# 3 81.7802 24.7196 131.8567 0.0000 0.0000 0.0000
# 4 0.0000 0.0000 0.0000 19.1836 0.0000 0.0000
# 5 0.0000 0.0000 0.0000 0.0000 32.1461 0.0000
# 6 0.0000 0.0000 0.0000 0.0000 0.0000 12.0668
#
#
#
# Elastic Compliance Matrix: (Units=1/GPa)
#
#
# Indices 1 2 3 4 5 6 
#
# 1 0.019050 -0.003575 -0.011145 0.000000 0.000000 0.000000
# 2 -0.003575 0.047828 -0.006749 0.000000 0.000000 0.000000
# 3 -0.011145 -0.006749 0.015761 0.000000 0.000000 0.000000
# 4 0.000000 0.000000 0.000000 0.052128 0.000000 0.000000
# 5 0.000000 0.000000 0.000000 0.000000 0.031108 0.000000
# 6 0.000000 0.000000 0.000000 0.000000 0.000000 0.082872
#
#
# Mechanical properties :
#
#
# Convention : Reuss Voigt Hill
#
# Bulk Modulus (GPa) = 25.18809 57.03142 41.10975
# Shear Modulus (GPa) = 16.39777 21.73585 19.06681
#
# Velocity S-wave (km/s) = 3.06366 3.52725 3.30360
# Velocity P-wave (km/s) = 5.18963 7.01664 6.17112
#
# Compressibility (1/GPa) = 0.03970131
#
# Stress axis : x y z
#
# Youngs Moduli (GPa) = 52.49463 20.90807 63.44611
#
# Poissons Ratio (x) = 0.07475 0.70709
# Poissons Ratio (y) = 0.18769 0.42820
# Poissons Ratio (z) = 0.58503 0.14111
#
# Static dielectric constant tensor:
#      x y z
#    x 3.453590 0.000000 0.000000 
#    y 0.000000 2.761290 0.000000 
#    z 0.000000 0.000000 3.359670 
# 
# 
# High freq. dielectric constant tensor:
#      x y z
#    x 1.659610 0.000000 0.000000 
#    y 0.000000 1.628140 0.000000 
#    z 0.000000 0.000000 1.680740 
# 
# From -- ./inp_files/17147.got.cif
#   From: 2010.03.12/outbox.cif.g09.slc.cpg/sg44_9_cif.got.tgz:17147.got - 2010.04.14 02:36:11.
