data_PCOD8188416
_publ_section_title
;
Structure prediction by ZEFSAII (Michael W. Deem and Ramdas Pophale) SiO2 
 PCOD8188416
Probable space group: I M M 2
;
_chemical_formula_sum "Si O2"
_cell_formula_units_Z 64
_cell_length_a 8.931243
_cell_length_b 34.250687
_cell_length_c 13.476238
_cell_angle_alpha 90.000000
_cell_angle_beta 90.000000
_cell_angle_gamma 90.000000
_cell_volume 4122.397490
_symmetry_space_group_name_H-M "I M M 2"
_symmetry_group_IT_number 44
_symmetry_cell_setting 'orthorhombic'
loop_
_space_group_symop_operation_xyz
x,y,z
-x,-y,z
-x,y,z
x,-y,z
1/2+x,1/2+y,1/2+z
1/2-x,1/2-y,1/2+z
1/2-x,1/2+y,1/2+z
1/2+x,1/2-y,1/2+z
loop_
_atom_site_type_symbol
_atom_site_label
_atom_site_fract_x
_atom_site_fract_y
_atom_site_fract_z
Si Si1 0.330418 0.691137 0.042200
Si Si2 0.324232 0.880149 0.225304
Si Si3 0.174417 0.381159 0.953585
Si Si4 0.168455 0.042290 0.460927
Si Si5 0.174449 0.763430 0.739823
Si Si6 0.678208 0.692908 0.630810
Si Si7 0.831219 0.957081 0.225310
Si Si8 0.823651 0.271798 0.443133
O O1 0.500000 0.677451 0.024575
O O2 0.304953 0.704222 0.155127
O O3 0.223534 0.655238 0.019611
O O4 0.290879 0.726811 0.969450
O O5 0.500000 0.872972 0.209716
O O6 0.274614 0.875025 0.339920
O O7 0.227938 0.850162 0.161389
O O8 0.281237 0.923564 0.186602
O O9 0.237864 0.421098 0.001455
O O10 0.000000 0.385206 0.959588
O O11 0.173146 0.042344 0.343110
O O12 0.000000 0.047392 0.499764
O O13 0.231642 0.000000 0.498355
O O14 0.252602 0.723149 0.709229
O O15 0.254473 0.780866 0.836253
O O16 0.000000 0.754672 0.759931
O O17 0.500000 0.696781 0.631590
O O18 0.741303 0.700385 0.521175
O O19 0.000000 0.947939 0.188907
O O20 0.780678 0.000000 0.185523
O O21 0.000000 0.280841 0.445789
#
# Coordination Sequence:
#
# PCOD8188416 Si02
#       8
#     8   8   8   8   8   8   8   8
#     4   9  19  32  45  62  86 114 144 177 212 256
#     4  10  19  29  41  61  89 118 149 186 222 259
#     4  10  19  27  40  62  87 115 146 182 218 251
#     4   8  14  25  40  56  78 111 145 174 209 255
#     4  10  20  34  49  66  88 114 146 184 223 263
#     4  11  21  32  47  66  88 117 150 184 221 260
#     4   8  14  25  40  58  81 111 146 179 213 259
#     4  10  20  34  50  67  87 114 146 182 224 265
#
# _framework density 15.524946
#
# number of rings (size 3 to 8) (size 9 to 14) (size 15 to 20)
#    0.000    2.500    0.000    4.875    0.000    7.000 
#    0.000    2.500    0.000    0.000    0.000    0.000 
#    0.000    1.000    0.000    8.750    0.000    5.375 
#
# Total GULP energy -396729.690655 kJ/mol
# GULP energy per Si atom -12397.802833 kJ/mol
# Density = 1.548961 g / cm^3
# Si number density = 15.524946 Si / 1000 Ang^3
#
#
#
# Elastic Constant Matrix: (Units=GPa)
#
#
# Indices 1 2 3 4 5 6 
#
# 1 78.3672 45.7241 27.5316 0.0000 0.0000 0.0000
# 2 45.7241 110.0012 29.3065 0.0004 0.0001 0.0000
# 3 27.5316 29.3065 56.4083 0.0009 0.0002 0.0000
# 4 0.0000 0.0004 0.0009 13.3684 0.0001 0.0001
# 5 0.0000 0.0001 0.0002 0.0001 22.6213 0.0001
# 6 0.0000 0.0000 0.0000 0.0001 0.0001 28.9424
#
#
#
# Elastic Compliance Matrix: (Units=1/GPa)
#
#
# Indices 1 2 3 4 5 6 
#
# 1 0.018344 -0.006082 -0.005794 0.000001 0.000000 0.000000
# 2 -0.006082 0.012567 -0.003561 0.000000 0.000000 0.000000
# 3 -0.005794 -0.003561 0.022406 -0.000001 0.000000 0.000000
# 4 0.000001 0.000000 -0.000001 0.074803 0.000000 0.000000
# 5 0.000000 0.000000 0.000000 0.000000 0.044206 0.000000
# 6 0.000000 0.000000 0.000000 0.000000 0.000000 0.034551
#
#
# Mechanical properties :
#
#
# Convention : Reuss Voigt Hill
#
# Bulk Modulus (GPa) = 44.55390 49.98902 47.27146
# Shear Modulus (GPa) = 20.38880 22.46738 21.42809
#
# Velocity S-wave (km/s) = 3.62787 3.80831 3.71918
# Velocity P-wave (km/s) = 6.80508 7.18378 6.99699
#
# Compressibility (1/GPa) = 0.02244472
#
# Stress axis : x y z
#
# Youngs Moduli (GPa) = 54.51314 79.57059 44.63127
#
# Poissons Ratio (x) = 0.48391 0.25858
# Poissons Ratio (y) = 0.33152 0.15894
# Poissons Ratio (z) = 0.31584 0.28336
#
# Static dielectric constant tensor:
#      x y z
#    x 3.043570 0.000000 0.000000 
#    y 0.000000 3.182100 0.000000 
#    z 0.000000 0.000000 2.689970 
# 
# 
# High freq. dielectric constant tensor:
#      x y z
#    x 1.607080 0.000000 0.000000 
#    y 0.000000 1.597030 0.000000 
#    z 0.000000 0.000000 1.548470 
# 
# From -- ./inp_files/17154.got.cif
#   From: 2010.03.12/outbox.cif.g09.slc.cpg/sg44_9_cif.got.tgz:17154.got - 2010.04.14 02:36:11.
