data_PCOD8188665
_publ_section_title
;
Structure prediction by ZEFSAII (Michael W. Deem and Ramdas Pophale) SiO2 
 PCOD8188665
Probable space group: I M M 2
;
_chemical_formula_sum "Si O2"
_cell_formula_units_Z 56
_cell_length_a 22.579289
_cell_length_b 8.811385
_cell_length_c 14.439309
_cell_angle_alpha 90.000000
_cell_angle_beta 90.000000
_cell_angle_gamma 90.000000
_cell_volume 2872.769956
_symmetry_space_group_name_H-M "I M M 2"
_symmetry_group_IT_number 44
_symmetry_cell_setting 'orthorhombic'
loop_
_space_group_symop_operation_xyz
x,y,z
-x,-y,z
-x,y,z
x,-y,z
1/2+x,1/2+y,1/2+z
1/2-x,1/2-y,1/2+z
1/2-x,1/2+y,1/2+z
1/2+x,1/2-y,1/2+z
loop_
_atom_site_type_symbol
_atom_site_label
_atom_site_fract_x
_atom_site_fract_y
_atom_site_fract_z
Si Si1 0.000000 0.678722 0.398760
Si Si2 0.500000 0.178644 0.107771
Si Si3 0.346104 0.321402 0.404523
Si Si4 0.895085 0.825786 0.718332
Si Si5 0.216977 0.826136 0.594547
Si Si6 0.787841 0.678769 0.405981
Si Si7 0.160829 0.823946 0.108208
Si Si8 0.609180 0.674969 0.798104
O O1 0.057440 0.728870 0.343009
O O2 0.000000 0.500000 0.404253
O O3 0.000000 0.746856 0.503148
O O4 0.441626 0.229138 0.161297
O O5 0.500000 0.000000 0.102289
O O6 0.345471 0.500000 0.392100
O O7 0.389954 0.259714 0.323986
O O8 0.279050 0.264256 0.389460
O O9 0.366926 0.274534 0.508337
O O10 0.829601 0.809137 0.676981
O O11 0.916647 0.000000 0.716578
O O12 0.194090 0.721369 0.510649
O O13 0.280896 0.773137 0.631698
O O14 0.221337 0.000000 0.561108
O O15 0.796838 0.500000 0.390462
O O16 0.827867 0.772034 0.335730
O O17 0.111143 0.798913 0.186915
O O18 0.180538 0.000000 0.103039
O O19 0.598177 0.500000 0.822530
#
# Coordination Sequence:
#
# PCOD8188665 Si02
#       8
#     4   4   8   8   8   8   8   8
#     4  11  25  43  60  77 102 142 183 221 274 333
#     4  11  25  41  56  77 104 134 173 221 272 323
#     4   8  16  33  55  79 107 141 179 213 253 315
#     4  10  20  35  56  78 103 140 181 218 259 311
#     4  10  19  31  52  84 115 143 181 225 268 318
#     4  10  19  33  54  80 113 149 181 219 271 327
#     4   9  19  35  55  81 114 147 177 216 270 325
#     4  11  22  36  56  82 110 142 183 229 273 321
#
# _framework density 19.493380999999999
#
# number of rings (size 3 to 8) (size 9 to 14) (size 15 to 20)
#    0.000    2.143    0.000    4.286    0.000    6.857 
#    0.000    4.286    0.000    4.286    0.000    0.000 
#    0.000    0.000    0.000    0.000    0.000    0.000 
#
# Total GULP energy -347138.285198 kJ/mol
# GULP energy per Si atom -12397.795900 kJ/mol
# Density = 1.944901 g / cm^3
# Si number density = 19.493381 Si / 1000 Ang^3
#
#
#
# Elastic Constant Matrix: (Units=GPa)
#
#
# Indices 1 2 3 4 5 6 
#
# 1 74.5424 29.0265 68.7027 0.0000 0.0000 0.0000
# 2 29.0265 52.8009 33.8647 0.0000 0.0000 0.0000
# 3 68.7027 33.8647 151.6839 0.0000 0.0000 0.0000
# 4 0.0000 0.0000 0.0000 22.6920 0.0000 0.0000
# 5 0.0000 0.0000 0.0000 0.0000 29.4574 0.0000
# 6 0.0000 0.0000 0.0000 0.0000 0.0000 24.0489
#
#
#
# Elastic Compliance Matrix: (Units=1/GPa)
#
#
# Indices 1 2 3 4 5 6 
#
# 1 0.025456 -0.007702 -0.009810 0.000000 0.000000 0.000000
# 2 -0.007702 0.024435 -0.001967 0.000000 0.000000 0.000000
# 3 -0.009810 -0.001967 0.011475 0.000000 0.000000 0.000000
# 4 0.000000 0.000000 0.000000 0.044068 0.000000 0.000000
# 5 0.000000 0.000000 0.000000 0.000000 0.033947 0.000000
# 6 0.000000 0.000000 0.000000 0.000000 0.000000 0.041582
#
#
# Mechanical properties :
#
#
# Convention : Reuss Voigt Hill
#
# Bulk Modulus (GPa) = 44.62778 60.24613 52.43695
# Shear Modulus (GPa) = 21.98854 25.06854 23.52854
#
# Velocity S-wave (km/s) = 3.36222 3.58998 3.47796
# Velocity P-wave (km/s) = 6.16573 6.93952 6.56404
#
# Compressibility (1/GPa) = 0.02240757
#
# Stress axis : x y z
#
# Youngs Moduli (GPa) = 39.28319 40.92568 87.14442
#
# Poissons Ratio (x) = 0.31521 0.85492
# Poissons Ratio (y) = 0.30256 0.17139
# Poissons Ratio (z) = 0.38538 0.08049
#
# Static dielectric constant tensor:
#      x y z
#    x 3.348350 0.000000 0.000000 
#    y 0.000000 3.479440 0.000000 
#    z 0.000000 0.000000 3.993860 
# 
# 
# High freq. dielectric constant tensor:
#      x y z
#    x 1.735230 0.000000 0.000000 
#    y 0.000000 1.747460 0.000000 
#    z 0.000000 0.000000 1.778180 
# 
# From -- ./inp_files/19217.got.cif
#   From: 2010.03.12/outbox.cif.g09.slc.cpg/sg44_10_cif.got.tgz:19217.got - 2010.04.14 02:36:11.
