data_PCOD8188686
_publ_section_title
;
Structure prediction by ZEFSAII (Michael W. Deem and Ramdas Pophale) SiO2 
 PCOD8188686
Probable space group: I M M 2
;
_chemical_formula_sum "Si O2"
_cell_formula_units_Z 48
_cell_length_a 23.839342
_cell_length_b 8.440883
_cell_length_c 13.745142
_cell_angle_alpha 90.000000
_cell_angle_beta 90.000000
_cell_angle_gamma 90.000000
_cell_volume 2765.867527
_symmetry_space_group_name_H-M "I M M 2"
_symmetry_group_IT_number 44
_symmetry_cell_setting 'orthorhombic'
loop_
_space_group_symop_operation_xyz
x,y,z
-x,-y,z
-x,y,z
x,-y,z
1/2+x,1/2+y,1/2+z
1/2-x,1/2-y,1/2+z
1/2-x,1/2+y,1/2+z
1/2+x,1/2-y,1/2+z
loop_
_atom_site_type_symbol
_atom_site_label
_atom_site_fract_x
_atom_site_fract_y
_atom_site_fract_z
Si Si1 0.667485 0.313501 0.486050
Si Si2 0.061914 0.186625 0.101684
Si Si3 0.436995 0.814710 0.809458
Si Si4 0.268759 0.685153 0.103258
Si Si5 0.167625 0.685391 0.430683
Si Si6 0.268440 0.814323 0.312259
O O1 0.666725 0.500000 0.464951
O O2 0.607527 0.249429 0.524710
O O3 0.713831 0.278333 0.567960
O O4 0.680968 0.220752 0.386897
O O5 0.080859 0.229424 0.210331
O O6 0.000000 0.258951 0.078884
O O7 0.059786 0.000000 0.093636
O O8 0.500000 0.765960 0.841590
O O9 0.394134 0.763786 0.894251
O O10 0.432401 0.000000 0.789071
O O11 0.255386 0.500000 0.106620
O O12 0.286976 0.748446 0.208123
O O13 0.319797 0.717608 0.028831
O O14 0.171120 0.500000 0.454158
O O15 0.212356 0.725732 0.346858
O O16 0.256568 0.000000 0.307754
#
# Coordination Sequence:
#
# PCOD8188686 Si02
#       6
#     8   8   8   8   8   8
#     4  10  19  32  50  72  98 126 158 194 235 281
#     4   9  18  31  48  71  98 127 157 191 231 276
#     4   9  18  31  48  71  98 127 157 191 231 276
#     4  11  21  33  49  70  97 126 159 196 237 282
#     4  10  19  32  50  72  98 126 158 194 235 281
#     4  11  21  33  49  70  97 126 159 196 237 282
#
# _framework density 17.354410999999999
#
# number of rings (size 3 to 8) (size 9 to 14) (size 15 to 20)
#    0.000    2.000    0.000    7.000    0.000    5.333 
#    0.000    0.000    0.000    1.000    0.000    0.000 
#    0.000    0.000    0.000    0.000    0.000    0.000 
#
# Total GULP energy -297613.163058 kJ/mol
# GULP energy per Si atom -12400.548461 kJ/mol
# Density = 1.731491 g / cm^3
# Si number density = 17.354411 Si / 1000 Ang^3
#
#
#
# Elastic Constant Matrix: (Units=GPa)
#
#
# Indices 1 2 3 4 5 6 
#
# 1 107.4041 10.5477 60.6672 0.0000 0.0000 0.0000
# 2 10.5477 40.3282 13.5094 0.0000 0.0000 0.0000
# 3 60.6672 13.5094 116.7203 0.0000 0.0000 0.0000
# 4 0.0000 0.0000 0.0000 30.1604 0.0000 0.0000
# 5 0.0000 0.0000 0.0000 0.0000 20.3336 0.0000
# 6 0.0000 0.0000 0.0000 0.0000 0.0000 17.1124
#
#
#
# Elastic Compliance Matrix: (Units=1/GPa)
#
#
# Indices 1 2 3 4 5 6 
#
# 1 0.013236 -0.001204 -0.006740 0.000000 0.000000 0.000000
# 2 -0.001204 0.025906 -0.002373 0.000000 0.000000 0.000000
# 3 -0.006740 -0.002373 0.012346 0.000000 0.000000 0.000000
# 4 0.000000 0.000000 0.000000 0.033156 0.000000 0.000000
# 5 0.000000 0.000000 0.000000 0.000000 0.049180 0.000000
# 6 0.000000 0.000000 0.000000 0.000000 0.000000 0.058437
#
#
# Mechanical properties :
#
#
# Convention : Reuss Voigt Hill
#
# Bulk Modulus (GPa) = 32.41070 48.21124 40.31097
# Shear Modulus (GPa) = 22.40351 25.50317 23.95334
#
# Velocity S-wave (km/s) = 3.59686 3.83763 3.71920
# Velocity P-wave (km/s) = 5.99718 6.89037 6.45924
#
# Compressibility (1/GPa) = 0.03085401
#
# Stress axis : x y z
#
# Youngs Moduli (GPa) = 75.55061 38.60072 81.00110
#
# Poissons Ratio (x) = 0.04647 0.54598
# Poissons Ratio (y) = 0.09096 0.19219
# Poissons Ratio (z) = 0.50924 0.09159
#
# Static dielectric constant tensor:
#      x y z
#    x 3.513950 0.000000 0.000000 
#    y 0.000000 3.257950 0.000000 
#    z 0.000000 0.000000 3.277380 
# 
# 
# High freq. dielectric constant tensor:
#      x y z
#    x 1.660530 0.000000 0.000000 
#    y 0.000000 1.678580 0.000000 
#    z 0.000000 0.000000 1.659740 
# 
# From -- ./inp_files/14596.got.cif
#   From: 2010.03.12/outbox.cif.g09.slc.cpg/sg44_8_cif.got.tgz:14596.got - 2010.04.14 02:36:11.
