data_PCOD8188179
_publ_section_title
;
Structure prediction by ZEFSAII (Michael W. Deem and Ramdas Pophale) SiO2 
 PCOD8188179
Probable space group: I M M 2
;
_chemical_formula_sum "Si O2"
_cell_formula_units_Z 56
_cell_length_a 8.373387
_cell_length_b 18.379283
_cell_length_c 20.749403
_cell_angle_alpha 90.000000
_cell_angle_beta 90.000000
_cell_angle_gamma 90.000000
_cell_volume 3193.267747
_symmetry_space_group_name_H-M "I M M 2"
_symmetry_group_IT_number 44
_symmetry_cell_setting 'orthorhombic'
loop_
_space_group_symop_operation_xyz
x,y,z
-x,-y,z
-x,y,z
x,-y,z
1/2+x,1/2+y,1/2+z
1/2-x,1/2-y,1/2+z
1/2-x,1/2+y,1/2+z
1/2+x,1/2-y,1/2+z
loop_
_atom_site_type_symbol
_atom_site_label
_atom_site_fract_x
_atom_site_fract_y
_atom_site_fract_z
Si Si1 0.686632 0.716758 0.007560
Si Si2 0.814224 0.156815 0.078263
Si Si3 0.314610 0.082870 0.952678
Si Si4 0.815183 0.416238 0.703348
Si Si5 0.686723 0.917908 0.451985
Si Si6 0.684105 0.655862 0.827058
Si Si7 0.815114 0.790942 0.882423
O O1 0.500000 0.732098 0.997689
O O2 0.749636 0.759990 0.070377
O O3 0.723348 0.630433 0.006951
O O4 0.789258 0.747424 0.948427
O O5 0.715072 0.119829 0.134693
O O6 0.000000 0.157610 0.095844
O O7 0.786940 0.110820 0.013298
O O8 0.500000 0.091625 0.969825
O O9 0.270977 0.130517 0.889256
O O10 0.269033 0.000000 0.937305
O O11 0.762666 0.500000 0.699703
O O12 0.709412 0.376423 0.756597
O O13 0.000000 0.408382 0.721887
O O14 0.500000 0.913725 0.465349
O O15 0.719502 0.891046 0.379343
O O16 0.750582 0.000000 0.459180
O O17 0.500000 0.652299 0.846627
O O18 0.740371 0.740602 0.826151
O O19 0.000000 0.803767 0.868256
#
# Coordination Sequence:
#
# PCOD8188179 Si02
#       7
#     8   8   8   8   8   8   8
#     4  10  18  30  48  68  93 124 159 197 238 284
#     4  11  21  33  49  69  96 128 163 199 236 282
#     4  10  19  31  48  71  99 128 158 196 242 286
#     4  11  23  37  51  69  96 129 164 199 235 277
#     4  10  19  31  48  71  99 128 158 196 242 286
#     4  11  21  33  49  69  96 128 163 199 236 282
#     4  10  18  30  48  68  93 124 159 197 238 284
#
# _framework density 17.536895000000001
#
# number of rings (size 3 to 8) (size 9 to 14) (size 15 to 20)
#    0.000    1.571    0.000   10.714    0.000    6.857 
#    0.000    0.000    0.000    0.000    0.000    1.000 
#    0.000    8.000    0.000    0.000    0.000    0.000 
#
# Total GULP energy -347174.341670 kJ/mol
# GULP energy per Si atom -12399.083631 kJ/mol
# Density = 1.749698 g / cm^3
# Si number density = 17.536895 Si / 1000 Ang^3
#
#
#
# Elastic Constant Matrix: (Units=GPa)
#
#
# Indices 1 2 3 4 5 6 
#
# 1 66.8933 24.9044 9.6386 0.0000 0.0000 0.0000
# 2 24.9044 147.6103 45.6996 0.0000 0.0000 0.0000
# 3 9.6386 45.6996 54.8041 0.0000 0.0000 0.0000
# 4 0.0000 0.0000 0.0000 30.3158 0.0000 0.0000
# 5 0.0000 0.0000 0.0000 0.0000 20.5602 0.0000
# 6 0.0000 0.0000 0.0000 0.0000 0.0000 28.2155
#
#
#
# Elastic Compliance Matrix: (Units=1/GPa)
#
#
# Indices 1 2 3 4 5 6 
#
# 1 0.015974 -0.002461 -0.000758 0.000000 0.000000 0.000000
# 2 -0.002461 0.009511 -0.007498 0.000000 0.000000 0.000000
# 3 -0.000758 -0.007498 0.024633 0.000000 0.000000 0.000000
# 4 0.000000 0.000000 0.000000 0.032986 0.000000 0.000000
# 5 0.000000 0.000000 0.000000 0.000000 0.048638 0.000000
# 6 0.000000 0.000000 0.000000 0.000000 0.000000 0.035442
#
#
# Mechanical properties :
#
#
# Convention : Reuss Voigt Hill
#
# Bulk Modulus (GPa) = 34.86130 47.75478 41.30804
# Shear Modulus (GPa) = 25.22977 28.42264 26.82620
#
# Velocity S-wave (km/s) = 3.79709 4.03020 3.91538
# Velocity P-wave (km/s) = 6.25667 6.99620 6.63674
#
# Compressibility (1/GPa) = 0.02868510
#
# Stress axis : x y z
#
# Youngs Moduli (GPa) = 62.60006 105.13917 40.59640
#
# Poissons Ratio (x) = 0.25870 0.03076
# Poissons Ratio (y) = 0.15403 0.30441
# Poissons Ratio (z) = 0.04743 0.78837
#
# Static dielectric constant tensor:
#      x y z
#    x 3.268920 0.000000 0.000000 
#    y 0.000000 3.835590 0.000000 
#    z 0.000000 0.000000 2.963420 
# 
# 
# High freq. dielectric constant tensor:
#      x y z
#    x 1.696320 0.000000 0.000000 
#    y 0.000000 1.686800 0.000000 
#    z 0.000000 0.000000 1.626420 
# 
# From -- ./inp_files/20675.got.cif
#   From: 2010.03.12/outbox.cif.g09.slc.cpg/sg44_11_cif.got.tgz:20675.got - 2010.04.14 02:36:11.
