data_PCOD8188097
_publ_section_title
;
Structure prediction by ZEFSAII (Michael W. Deem and Ramdas Pophale) SiO2 
 PCOD8188097
Probable space group: I M M 2
;
_chemical_formula_sum "Si O2"
_cell_formula_units_Z 64
_cell_length_a 28.068441
_cell_length_b 8.837127
_cell_length_c 14.714194
_cell_angle_alpha 90.000000
_cell_angle_beta 90.000000
_cell_angle_gamma 90.000000
_cell_volume 3649.773096
_symmetry_space_group_name_H-M "I M M 2"
_symmetry_group_IT_number 44
_symmetry_cell_setting 'orthorhombic'
loop_
_space_group_symop_operation_xyz
x,y,z
-x,-y,z
-x,y,z
x,-y,z
1/2+x,1/2+y,1/2+z
1/2-x,1/2-y,1/2+z
1/2-x,1/2+y,1/2+z
1/2+x,1/2-y,1/2+z
loop_
_atom_site_type_symbol
_atom_site_label
_atom_site_fract_x
_atom_site_fract_y
_atom_site_fract_z
Si Si1 0.136307 0.320000 0.549980
Si Si2 0.365757 0.322663 0.495935
Si Si3 0.825039 0.677308 0.366766
Si Si4 0.824406 0.320257 0.165458
Si Si5 0.052659 0.680340 0.673427
Si Si6 0.716950 0.676615 0.359623
Si Si7 0.724074 0.178021 0.171646
Si Si8 0.555423 0.174747 0.378116
O O1 0.132237 0.500000 0.550112
O O2 0.140799 0.256186 0.446442
O O3 0.089910 0.251324 0.600467
O O4 0.183469 0.269875 0.602519
O O5 0.366531 0.500000 0.512353
O O6 0.362533 0.242513 0.593889
O O7 0.320120 0.273015 0.436637
O O8 0.414376 0.273980 0.447798
O O9 0.832848 0.500000 0.363826
O O10 0.837919 0.741891 0.266786
O O11 0.770319 0.713048 0.393370
O O12 0.824369 0.500000 0.163359
O O13 0.771808 0.262725 0.141082
O O14 0.052592 0.500000 0.671862
O O15 0.066430 0.731585 0.775549
O O16 0.000000 0.741088 0.647940
O O17 0.711463 0.500000 0.334967
O O18 0.705874 0.775026 0.270974
O O19 0.733734 0.000000 0.167932
O O20 0.500000 0.198435 0.400883
O O21 0.569930 0.000000 0.389330
#
# Coordination Sequence:
#
# PCOD8188097 Si02
#       8
#     8   8   8   8   8   8   8   8
#     4   9  15  24  42  66  91 120 154 193 237 281
#     4  11  21  32  50  73  96 125 165 207 243 286
#     4   8  15  28  43  59  85 123 160 191 230 279
#     4  10  20  33  47  64  93 131 164 197 243 290
#     4   8  14  25  43  69  98 124 151 187 233 285
#     4   9  18  31  44  63  95 129 157 193 242 290
#     4  10  18  28  46  71  96 124 160 198 236 285
#     4   9  18  33  51  72 100 128 153 189 242 300
#
# _framework density 17.535335
#
# number of rings (size 3 to 8) (size 9 to 14) (size 15 to 20)
#    0.000    2.750    0.000    4.125    0.000    4.250 
#    0.000    0.000    0.000    3.000    0.000    3.500 
#    0.000    0.000    0.000    0.000    0.000    0.000 
#
# Total GULP energy -396665.791773 kJ/mol
# GULP energy per Si atom -12395.805993 kJ/mol
# Density = 1.749542 g / cm^3
# Si number density = 17.535335 Si / 1000 Ang^3
#
#
#
# Elastic Constant Matrix: (Units=GPa)
#
#
# Indices 1 2 3 4 5 6 
#
# 1 91.1119 23.0470 80.3426 0.0000 0.0000 0.0000
# 2 23.0470 35.4676 23.1328 0.0000 0.0000 0.0000
# 3 80.3426 23.1328 127.6876 0.0000 0.0000 0.0000
# 4 0.0000 0.0000 0.0000 19.3376 0.0000 0.0000
# 5 0.0000 0.0000 0.0000 0.0000 29.2660 0.0000
# 6 0.0000 0.0000 0.0000 0.0000 0.0000 21.0531
#
#
#
# Elastic Compliance Matrix: (Units=1/GPa)
#
#
# Indices 1 2 3 4 5 6 
#
# 1 0.026141 -0.007097 -0.015163 0.000000 0.000000 0.000000
# 2 -0.007097 0.033900 -0.001676 0.000000 0.000000 0.000000
# 3 -0.015163 -0.001676 0.017676 0.000000 0.000000 0.000000
# 4 0.000000 0.000000 0.000000 0.051713 0.000000 0.000000
# 5 0.000000 0.000000 0.000000 0.000000 0.034169 0.000000
# 6 0.000000 0.000000 0.000000 0.000000 0.000000 0.047499
#
#
# Mechanical properties :
#
#
# Convention : Reuss Voigt Hill
#
# Bulk Modulus (GPa) = 33.50622 56.36799 44.93711
# Shear Modulus (GPa) = 18.59309 22.44764 20.52036
#
# Velocity S-wave (km/s) = 3.25979 3.58178 3.42457
# Velocity P-wave (km/s) = 5.77214 7.02287 6.42800
#
# Compressibility (1/GPa) = 0.02984520
#
# Stress axis : x y z
#
# Youngs Moduli (GPa) = 38.25389 29.49885 56.57497
#
# Poissons Ratio (x) = 0.20936 0.85782
# Poissons Ratio (y) = 0.27150 0.09481
# Poissons Ratio (z) = 0.58003 0.04943
#
# Static dielectric constant tensor:
#      x y z
#    x 3.272230 0.000000 0.000000 
#    y 0.000000 2.942120 0.000000 
#    z 0.000000 0.000000 3.603770 
# 
# 
# High freq. dielectric constant tensor:
#      x y z
#    x 1.660000 0.000000 0.000000 
#    y 0.000000 1.645650 0.000000 
#    z 0.000000 0.000000 1.683280 
# 
# From -- ./inp_files/17169.got.cif
#   From: 2010.03.12/outbox.cif.g09.slc.cpg/sg44_9_cif.got.tgz:17169.got - 2010.04.14 02:36:11.
