data_PCOD8188936
_publ_section_title
;
Structure prediction by ZEFSAII (Michael W. Deem and Ramdas Pophale) SiO2 
 PCOD8188936
Probable space group: I M M 2
;
_chemical_formula_sum "Si O2"
_cell_formula_units_Z 64
_cell_length_a 8.856482
_cell_length_b 24.535620
_cell_length_c 15.147581
_cell_angle_alpha 90.000000
_cell_angle_beta 90.000000
_cell_angle_gamma 90.000000
_cell_volume 3291.558398
_symmetry_space_group_name_H-M "I M M 2"
_symmetry_group_IT_number 44
_symmetry_cell_setting 'orthorhombic'
loop_
_space_group_symop_operation_xyz
x,y,z
-x,-y,z
-x,y,z
x,-y,z
1/2+x,1/2+y,1/2+z
1/2-x,1/2-y,1/2+z
1/2-x,1/2+y,1/2+z
1/2+x,1/2-y,1/2+z
loop_
_atom_site_type_symbol
_atom_site_label
_atom_site_fract_x
_atom_site_fract_y
_atom_site_fract_z
Si Si1 0.175386 0.217442 0.935850
Si Si2 0.177965 0.858790 0.218424
Si Si3 0.324953 0.840063 0.395414
Si Si4 0.176197 0.855256 0.577762
Si Si5 0.675908 0.233749 0.117286
Si Si6 0.323062 0.112839 0.889019
Si Si7 0.677288 0.937147 0.076439
Si Si8 0.327314 0.437854 0.227322
O O1 0.206219 0.275223 0.889849
O O2 0.230877 0.168984 0.872103
O O3 0.000000 0.211057 0.960481
O O4 0.275778 0.210213 0.022967
O O5 0.235993 0.870379 0.317352
O O6 0.234442 0.798471 0.192359
O O7 0.238826 0.904741 0.153086
O O8 0.000000 0.860544 0.217051
O O9 0.500000 0.853555 0.385107
O O10 0.269013 0.863747 0.488363
O O11 0.215920 0.797487 0.623220
O O12 0.227865 0.901707 0.645146
O O13 0.000000 0.858056 0.553933
O O14 0.500000 0.222207 0.131388
O O15 0.500000 0.124725 0.885500
O O16 0.278239 0.071799 0.811401
O O17 0.273700 0.085650 0.981188
O O18 0.500000 0.929849 0.090674
O O19 0.726201 0.000000 0.082146
O O20 0.500000 0.423273 0.251901
O O21 0.310857 0.500000 0.197214
#
# Coordination Sequence:
#
# PCOD8188936 Si02
#       8
#     8   8   8   8   8   8   8   8
#     4  10  20  35  56  85 118 154 195 238 292 352
#     4  12  24  37  58  88 121 158 202 245 293 353
#     4  10  22  39  60  85 119 157 196 247 301 354
#     4   9  20  39  61  85 115 153 198 248 301 353
#     4  10  19  34  56  83 117 155 193 237 293 351
#     4  11  22  36  58  88 121 158 196 239 292 353
#     4  10  22  41  62  84 117 160 202 246 298 352
#     4  10  22  40  61  86 118 157 201 248 296 348
#
# _framework density 19.443678999999999
#
# number of rings (size 3 to 8) (size 9 to 14) (size 15 to 20)
#    0.000    1.750    1.250    3.000    1.750    4.000 
#    0.000    0.625    0.000    2.250    0.000    0.000 
#    0.000    0.000    0.000    0.000    0.000    0.000 
#
# Total GULP energy -396951.932933 kJ/mol
# GULP energy per Si atom -12404.747904 kJ/mol
# Density = 1.939942 g / cm^3
# Si number density = 19.443679 Si / 1000 Ang^3
#
#
#
# Elastic Constant Matrix: (Units=GPa)
#
#
# Indices 1 2 3 4 5 6 
#
# 1 82.6010 48.8324 58.9539 0.0001 0.0000 0.0000
# 2 48.8324 107.7248 70.5770 -0.0002 0.0000 0.0000
# 3 58.9539 70.5770 126.7762 -0.0004 0.0000 0.0000
# 4 0.0001 -0.0002 -0.0004 28.8194 0.0000 0.0000
# 5 0.0000 0.0000 0.0000 0.0000 34.7329 0.0000
# 6 0.0000 0.0000 0.0000 0.0000 0.0000 24.2467
#
#
#
# Elastic Compliance Matrix: (Units=1/GPa)
#
#
# Indices 1 2 3 4 5 6 
#
# 1 0.019440 -0.004549 -0.006508 0.000000 0.000000 0.000000
# 2 -0.004549 0.015677 -0.006612 0.000000 0.000000 0.000000
# 3 -0.006508 -0.006612 0.014595 0.000000 0.000000 0.000000
# 4 0.000000 0.000000 0.000000 0.034699 0.000000 0.000000
# 5 0.000000 0.000000 0.000000 0.000000 0.028791 0.000000
# 6 0.000000 0.000000 0.000000 0.000000 0.000000 0.041243
#
#
# Mechanical properties :
#
#
# Convention : Reuss Voigt Hill
#
# Bulk Modulus (GPa) = 69.56553 74.86985 72.21769
# Shear Modulus (GPa) = 25.69710 26.80905 26.25308
#
# Velocity S-wave (km/s) = 3.63935 3.71726 3.67851
# Velocity P-wave (km/s) = 7.31543 7.55073 7.43401
#
# Compressibility (1/GPa) = 0.01437493
#
# Stress axis : x y z
#
# Youngs Moduli (GPa) = 51.43942 63.78807 68.51522
#
# Poissons Ratio (x) = 0.29015 0.44589
# Poissons Ratio (y) = 0.23398 0.45303
# Poissons Ratio (z) = 0.33476 0.42178
#
# Static dielectric constant tensor:
#      x y z
#    x 3.513040 0.000000 0.000000 
#    y 0.000000 3.540460 0.000000 
#    z 0.000000 0.000000 3.486100 
# 
# 
# High freq. dielectric constant tensor:
#      x y z
#    x 1.759880 0.000000 0.000000 
#    y 0.000000 1.751320 0.000000 
#    z 0.000000 0.000000 1.754970 
# 
# From -- ./inp_files/16784.got.cif
#   From: 2010.03.12/outbox.cif.g09.slc.cpg/sg44_9_cif.got.tgz:16784.got - 2010.04.14 02:36:11.
