data_PCOD8188197
_publ_section_title
;
Structure prediction by ZEFSAII (Michael W. Deem and Ramdas Pophale) SiO2 
 PCOD8188197
Probable space group: I M M 2
;
_chemical_formula_sum "Si O2"
_cell_formula_units_Z 48
_cell_length_a 9.475625
_cell_length_b 12.396701
_cell_length_c 22.731874
_cell_angle_alpha 90.000000
_cell_angle_beta 90.000000
_cell_angle_gamma 90.000000
_cell_volume 2670.233448
_symmetry_space_group_name_H-M "I M M 2"
_symmetry_group_IT_number 44
_symmetry_cell_setting 'orthorhombic'
loop_
_space_group_symop_operation_xyz
x,y,z
-x,-y,z
-x,y,z
x,-y,z
1/2+x,1/2+y,1/2+z
1/2-x,1/2-y,1/2+z
1/2-x,1/2+y,1/2+z
1/2+x,1/2-y,1/2+z
loop_
_atom_site_type_symbol
_atom_site_label
_atom_site_fract_x
_atom_site_fract_y
_atom_site_fract_z
Si Si1 0.336427 0.665411 0.252940
Si Si2 0.331750 0.500000 0.155716
Si Si3 0.661053 0.118903 0.198015
Si Si4 0.668026 0.000000 0.531599
Si Si5 0.832505 0.880200 0.880427
Si Si6 0.337253 0.622238 0.583970
Si Si7 0.332761 0.227587 0.481491
O O1 0.500000 0.636262 0.256846
O O2 0.281073 0.602741 0.194968
O O3 0.307855 0.793270 0.247987
O O4 0.266121 0.630187 0.314750
O O5 0.500000 0.500000 0.142444
O O6 0.248499 0.500000 0.094001
O O7 0.500000 0.126332 0.176481
O O8 0.756551 0.147103 0.143217
O O9 0.695065 0.000000 0.223805
O O10 0.713480 0.103527 0.492001
O O11 0.500000 0.000000 0.544293
O O12 0.000000 0.866619 0.877267
O O13 0.794053 0.000000 0.904959
O O14 0.771350 0.784086 0.922141
O O15 0.500000 0.646493 0.596508
O O16 0.314192 0.500000 0.562266
O O17 0.274052 0.701811 0.535345
O O18 0.500000 0.236265 0.479594
#
# Coordination Sequence:
#
# PCOD8188197 Si02
#       7
#     8   4   8   4   8   8   8
#     4   9  16  27  43  66  92 116 149 191 229 266
#     4  10  18  30  50  72  92 118 157 198 226 264
#     4   9  17  28  41  62  92 119 142 175 223 274
#     4  10  20  32  44  68 102 128 147 180 232 286
#     4   9  15  26  44  65  90 118 149 190 233 265
#     4   9  16  27  44  65  86 112 150 188 216 254
#     4   9  17  28  42  63  93 122 148 180 225 274
#
# _framework density 17.975957000000001
#
# number of rings (size 3 to 8) (size 9 to 14) (size 15 to 20)
#    0.000    2.833    0.833    1.500    0.000    2.000 
#    1.500    0.000    0.000    0.000    0.000    4.667 
#    0.000    0.000    0.000    0.000    0.000    0.000 
#
# Total GULP energy -297359.346981 kJ/mol
# GULP energy per Si atom -12389.972791 kJ/mol
# Density = 1.793504 g / cm^3
# Si number density = 17.975957 Si / 1000 Ang^3
#
#
#
# Elastic Constant Matrix: (Units=GPa)
#
#
# Indices 1 2 3 4 5 6 
#
# 1 18.7706 18.6877 19.9703 0.0000 0.0000 0.0000
# 2 18.6877 144.1783 76.8271 0.0000 0.0000 0.0000
# 3 19.9703 76.8271 109.5471 0.0000 0.0000 0.0000
# 4 0.0000 0.0000 0.0000 29.2982 0.0000 0.0000
# 5 0.0000 0.0000 0.0000 0.0000 14.6694 0.0000
# 6 0.0000 0.0000 0.0000 0.0000 0.0000 12.9690
#
#
#
# Elastic Compliance Matrix: (Units=1/GPa)
#
#
# Indices 1 2 3 4 5 6 
#
# 1 0.067171 -0.003483 -0.009803 0.000000 0.000000 0.000000
# 2 -0.003483 0.011255 -0.007258 0.000000 0.000000 0.000000
# 3 -0.009803 -0.007258 0.016006 0.000000 0.000000 0.000000
# 4 0.000000 0.000000 0.000000 0.034132 0.000000 0.000000
# 5 0.000000 0.000000 0.000000 0.000000 0.068169 0.000000
# 6 0.000000 0.000000 0.000000 0.000000 0.000000 0.077107
#
#
# Mechanical properties :
#
#
# Convention : Reuss Voigt Hill
#
# Bulk Modulus (GPa) = 18.74610 55.94070 37.34340
# Shear Modulus (GPa) = 15.02812 21.85471 18.44142
#
# Velocity S-wave (km/s) = 2.89452 3.49058 3.20643
# Velocity P-wave (km/s) = 4.64996 6.88715 5.87601
#
# Compressibility (1/GPa) = 0.05334443
#
# Stress axis : x y z
#
# Youngs Moduli (GPa) = 14.88728 88.84925 62.47689
#
# Poissons Ratio (x) = 0.30946 0.61244
# Poissons Ratio (y) = 0.05185 0.45348
# Poissons Ratio (z) = 0.14593 0.64490
#
# Static dielectric constant tensor:
#      x y z
#    x 2.817920 0.000000 0.000000 
#    y 0.000000 3.668460 0.000000 
#    z 0.000000 0.000000 3.444100 
# 
# 
# High freq. dielectric constant tensor:
#      x y z
#    x 1.628750 0.000000 0.000000 
#    y 0.000000 1.716630 0.000000 
#    z 0.000000 0.000000 1.689260 
# 
# From -- ./inp_files/23717.got.cif
#   From: 2010.03.12/outbox.cif.g09.slc.cpg/sg44_12_cif.got.tgz:23717.got - 2010.04.14 02:36:11.
