data_PCOD8188775
_publ_section_title
;
Structure prediction by ZEFSAII (Michael W. Deem and Ramdas Pophale) SiO2 
 PCOD8188775
Probable space group: I M M 2
;
_chemical_formula_sum "Si O2"
_cell_formula_units_Z 40
_cell_length_a 7.601651
_cell_length_b 8.906254
_cell_length_c 29.097142
_cell_angle_alpha 90.000000
_cell_angle_beta 90.000000
_cell_angle_gamma 90.000000
_cell_volume 1969.941535
_symmetry_space_group_name_H-M "I M M 2"
_symmetry_group_IT_number 44
_symmetry_cell_setting 'orthorhombic'
loop_
_space_group_symop_operation_xyz
x,y,z
-x,-y,z
-x,y,z
x,-y,z
1/2+x,1/2+y,1/2+z
1/2-x,1/2-y,1/2+z
1/2-x,1/2+y,1/2+z
1/2+x,1/2-y,1/2+z
loop_
_atom_site_type_symbol
_atom_site_label
_atom_site_fract_x
_atom_site_fract_y
_atom_site_fract_z
Si Si1 0.291371 0.331609 0.476580
Si Si2 0.295550 0.176806 0.569624
Si Si3 0.794810 0.326490 0.885774
Si Si4 0.000000 0.823365 0.727198
Si Si5 0.695615 0.169443 0.795273
Si Si6 0.500000 0.177772 0.129582
O O1 0.500000 0.330924 0.473926
O O2 0.217213 0.500000 0.482009
O O3 0.229962 0.233700 0.519961
O O4 0.215556 0.260309 0.429795
O O5 0.500000 0.218678 0.578365
O O6 0.177649 0.255987 0.607856
O O7 0.265422 0.000000 0.572136
O O8 0.755350 0.500000 0.893760
O O9 0.699447 0.273138 0.839937
O O10 0.000000 0.292839 0.879911
O O11 0.828905 0.775788 0.756240
O O12 0.000000 0.721744 0.682564
O O13 0.000000 0.000000 0.714500
O O14 0.500000 0.177499 0.774102
O O15 0.745190 0.000000 0.810310
O O16 0.500000 0.000000 0.123689
#
# Coordination Sequence:
#
# PCOD8188775 Si02
#       6
#     8   8   8   4   8   4
#     4   9  17  31  55  86 121 161 202 245 299 358
#     4  10  21  40  65  91 123 161 204 255 307 362
#     4  10  19  32  54  84 120 161 202 243 294 355
#     4  10  22  42  64  86 118 156 200 254 309 364
#     4  10  21  38  61  87 115 151 197 248 301 357
#     4  12  26  42  64  94 126 160 204 254 311 374
#
# _framework density 20.30517
#
# number of rings (size 3 to 8) (size 9 to 14) (size 15 to 20)
#    0.000    2.000    1.000    2.700    0.000    6.400 
#    1.800    2.000    0.000    0.000    0.000    0.000 
#    0.000    0.000    0.000    0.000    0.000    0.000 
#
# Total GULP energy -248053.442581 kJ/mol
# GULP energy per Si atom -12402.672129 kJ/mol
# Density = 2.025895 g / cm^3
# Si number density = 20.305170 Si / 1000 Ang^3
#
#
#
# Elastic Constant Matrix: (Units=GPa)
#
#
# Indices 1 2 3 4 5 6 
#
# 1 99.3559 47.0278 59.6926 0.0000 0.0000 0.0000
# 2 47.0278 113.2991 60.7815 0.0000 0.0000 0.0000
# 3 59.6926 60.7815 149.5409 0.0000 0.0000 0.0000
# 4 0.0000 0.0000 0.0000 41.8827 0.0000 0.0000
# 5 0.0000 0.0000 0.0000 0.0000 -13.8658 0.0000
# 6 0.0000 0.0000 0.0000 0.0000 0.0000 21.4388
#
#
#
# Elastic Compliance Matrix: (Units=1/GPa)
#
#
# Indices 1 2 3 4 5 6 
#
# 1 0.014352 -0.003688 -0.004230 0.000000 0.000000 0.000000
# 2 -0.003688 0.012235 -0.003501 0.000000 0.000000 0.000000
# 3 -0.004230 -0.003501 0.009799 0.000000 0.000000 0.000000
# 4 0.000000 0.000000 0.000000 0.023876 0.000000 0.000000
# 5 0.000000 0.000000 0.000000 0.000000 -0.072120 0.000000
# 6 0.000000 0.000000 0.000000 0.000000 0.000000 0.046644
#
#
# Mechanical properties :
#
#
# Convention : Reuss Voigt Hill
#
# Bulk Modulus (GPa) = 73.81136 77.46663 75.63899
# Shear Modulus (GPa) = 80.46443 22.87073 51.66758
#
# Velocity S-wave (km/s) = 6.30187 3.35975 5.04983
# Velocity P-wave (km/s) = 9.45417 7.29963 8.44589
#
# Compressibility (1/GPa) = 0.01354805
#
# Stress axis : x y z
#
# Youngs Moduli (GPa) = 69.67840 81.73224 102.05619
#
# Poissons Ratio (x) = 0.30142 0.43168
# Poissons Ratio (y) = 0.25696 0.35729
# Poissons Ratio (z) = 0.29473 0.28614
#
# Static dielectric constant tensor:
#      x y z
#    x 3.749380 0.000000 0.000000 
#    y 0.000000 3.717340 0.000000 
#    z 0.000000 0.000000 3.624510 
# 
# 
# High freq. dielectric constant tensor:
#      x y z
#    x 1.790180 0.000000 0.000000 
#    y 0.000000 1.796740 0.000000 
#    z 0.000000 0.000000 1.789390 
# 
# From -- ./inp_files/25939.got.cif
#   From: 2010.03.12/outbox.cif.g09.slc.cpg/sg44_13_cif.got.tgz:25939.got - 2010.04.14 02:36:11.
