data_PCOD8188918
_publ_section_title
;
Structure prediction by ZEFSAII (Michael W. Deem and Ramdas Pophale) SiO2 
 PCOD8188918
Probable space group: I M M 2
;
_chemical_formula_sum "Si O2"
_cell_formula_units_Z 40
_cell_length_a 9.103323
_cell_length_b 25.292888
_cell_length_c 9.579412
_cell_angle_alpha 90.000000
_cell_angle_beta 90.000000
_cell_angle_gamma 90.000000
_cell_volume 2205.653186
_symmetry_space_group_name_H-M "I M M 2"
_symmetry_group_IT_number 44
_symmetry_cell_setting 'orthorhombic'
loop_
_space_group_symop_operation_xyz
x,y,z
-x,-y,z
-x,y,z
x,-y,z
1/2+x,1/2+y,1/2+z
1/2-x,1/2-y,1/2+z
1/2-x,1/2+y,1/2+z
1/2+x,1/2-y,1/2+z
loop_
_atom_site_type_symbol
_atom_site_label
_atom_site_fract_x
_atom_site_fract_y
_atom_site_fract_z
Si Si1 0.675220 0.000000 0.200081
Si Si2 0.667603 0.792854 0.674808
Si Si3 0.674220 0.092813 0.997762
Si Si4 0.170018 0.585345 0.182832
Si Si5 0.674951 0.500000 0.999714
Si Si6 0.326914 0.790833 0.990264
O O1 0.757454 0.000000 0.345768
O O2 0.500000 0.000000 0.223380
O O3 0.728318 0.051141 0.112638
O O4 0.500000 0.775658 0.655745
O O5 0.688142 0.854087 0.635737
O O6 0.721536 0.782500 0.831286
O O7 0.764162 0.757086 0.576372
O O8 0.500000 0.094284 0.989738
O O9 0.727230 0.077027 0.841796
O O10 0.732138 0.151384 0.040006
O O11 0.271266 0.551761 0.080592
O O12 0.000000 0.567516 0.168693
O O13 0.500000 0.500000 0.989246
O O14 0.500000 0.789752 0.005204
#
# Coordination Sequence:
#
# PCOD8188918 Si02
#       6
#     4   8   8   8   4   8
#     4  10  19  34  56  78 100 132 175 214 252 300
#     4   9  19  34  53  78 104 134 173 211 250 300
#     4   8  16  33  58  80  96 128 179 221 249 291
#     4   9  18  37  60  76  96 132 177 216 249 295
#     4  12  25  36  48  76 112 136 161 204 262 314
#     4   9  18  33  52  77 108 136 167 211 258 299
#
# _framework density 18.135217999999998
#
# number of rings (size 3 to 8) (size 9 to 14) (size 15 to 20)
#    0.000    2.800    0.000    3.900    0.000    4.800 
#    0.000   12.000    0.000    0.000    0.000    0.000 
#    0.000    0.000    0.000    0.000    0.000    0.000 
#
# Total GULP energy -247930.026815 kJ/mol
# GULP energy per Si atom -12396.501341 kJ/mol
# Density = 1.809394 g / cm^3
# Si number density = 18.135218 Si / 1000 Ang^3
#
#
#
# Elastic Constant Matrix: (Units=GPa)
#
#
# Indices 1 2 3 4 5 6 
#
# 1 40.6361 33.9159 40.9264 -0.0006 -0.0002 0.0000
# 2 33.9159 111.4638 74.7148 0.0002 0.0001 0.0001
# 3 40.9264 74.7148 119.1705 -0.0004 0.0008 0.0003
# 4 -0.0006 0.0002 -0.0004 51.5395 0.0005 0.0001
# 5 -0.0002 0.0001 0.0008 0.0005 24.2133 0.0000
# 6 0.0000 0.0001 0.0003 0.0001 0.0000 29.2149
#
#
#
# Elastic Compliance Matrix: (Units=1/GPa)
#
#
# Indices 1 2 3 4 5 6 
#
# 1 0.039176 -0.005006 -0.010316 0.000000 0.000001 0.000000
# 2 -0.005006 0.016114 -0.008384 0.000000 0.000000 0.000000
# 3 -0.010316 -0.008384 0.017190 0.000000 -0.000001 0.000000
# 4 0.000000 0.000000 0.000000 0.019403 0.000000 0.000000
# 5 0.000001 0.000000 -0.000001 0.000000 0.041300 0.000000
# 6 0.000000 0.000000 0.000000 0.000000 0.000000 0.034229
#
#
# Mechanical properties :
#
#
# Convention : Reuss Voigt Hill
#
# Bulk Modulus (GPa) = 39.88824 63.37607 51.63216
# Shear Modulus (GPa) = 22.40348 29.10776 25.75562
#
# Velocity S-wave (km/s) = 3.51858 4.01064 3.77264
# Velocity P-wave (km/s) = 6.20885 7.51460 6.89272
#
# Compressibility (1/GPa) = 0.02507005
#
# Stress axis : x y z
#
# Youngs Moduli (GPa) = 25.52591 62.05600 58.17177
#
# Poissons Ratio (x) = 0.31063 0.60009
# Poissons Ratio (y) = 0.12777 0.48771
# Poissons Ratio (z) = 0.26332 0.52028
#
# Static dielectric constant tensor:
#      x y z
#    x 3.009320 0.000000 0.000000 
#    y 0.000000 3.316380 0.000000 
#    z 0.000000 0.000000 3.368750 
# 
# 
# High freq. dielectric constant tensor:
#      x y z
#    x 1.669220 0.000000 0.000000 
#    y 0.000000 1.717980 0.000000 
#    z 0.000000 0.000000 1.703290 
# 
# From -- ./inp_files/4639.got.cif
#   From: 2010.03.12/outbox.cif.g09.slc.cpg/sg44_3_cif.got.tgz:4639.got - 2010.04.14 02:36:11.
