data_PCOD8188437
_publ_section_title
;
Structure prediction by ZEFSAII (Michael W. Deem and Ramdas Pophale) SiO2 
 PCOD8188437
Probable space group: I M M 2
;
_chemical_formula_sum "Si O2"
_cell_formula_units_Z 64
_cell_length_a 9.115669
_cell_length_b 13.571000
_cell_length_c 34.291259
_cell_angle_alpha 90.000000
_cell_angle_beta 90.000000
_cell_angle_gamma 90.000000
_cell_volume 4242.128581
_symmetry_space_group_name_H-M "I M M 2"
_symmetry_group_IT_number 44
_symmetry_cell_setting 'orthorhombic'
loop_
_space_group_symop_operation_xyz
x,y,z
-x,-y,z
-x,y,z
x,-y,z
1/2+x,1/2+y,1/2+z
1/2-x,1/2-y,1/2+z
1/2-x,1/2+y,1/2+z
1/2+x,1/2-y,1/2+z
loop_
_atom_site_type_symbol
_atom_site_label
_atom_site_fract_x
_atom_site_fract_y
_atom_site_fract_z
Si Si1 0.168689 0.390225 0.433360
Si Si2 0.672203 0.114717 0.552433
Si Si3 0.165285 0.882919 0.630284
Si Si4 0.327697 0.699818 0.978902
Si Si5 0.170957 0.199895 0.862950
Si Si6 0.331564 0.110231 0.408145
Si Si7 0.670713 0.385300 0.282345
Si Si8 0.665552 0.117379 0.705505
O O1 0.201945 0.500000 0.449287
O O2 0.211167 0.312069 0.466840
O O3 0.257306 0.373240 0.393882
O O4 0.000000 0.376556 0.421992
O O5 0.500000 0.134885 0.554637
O O6 0.744201 0.151437 0.592584
O O7 0.742677 0.179069 0.518483
O O8 0.706098 0.000000 0.544650
O O9 0.244889 0.839953 0.668659
O O10 0.000000 0.840797 0.628118
O O11 0.162086 0.000000 0.632474
O O12 0.500000 0.682555 0.985229
O O13 0.271901 0.626611 0.945278
O O14 0.207769 0.313521 0.873562
O O15 0.228749 0.176131 0.819627
O O16 0.000000 0.177144 0.864501
O O17 0.500000 0.125122 0.421703
O O18 0.305507 0.000000 0.392052
O O19 0.500000 0.366770 0.274007
O O20 0.702285 0.500000 0.290197
O O21 0.759323 0.345171 0.245175
O O22 0.500000 0.157830 0.703647
O O23 0.667541 0.000000 0.704256
#
# Coordination Sequence:
#
# PCOD8188437 Si02
#       8
#     8   8   8   8   8   8   8   8
#     4   9  18  31  44  58  79 106 134 167 207 245
#     4  10  19  29  41  58  82 110 137 166 199 235
#     4   9  16  26  40  57  78 105 135 164 194 231
#     4  10  19  29  42  60  80 104 136 170 202 239
#     4   9  17  28  42  60  80 104 137 172 203 239
#     4   9  17  29  43  58  79 107 136 168 207 245
#     4   9  16  25  37  54  77 104 133 165 198 232
#     4   9  16  25  37  54  77 105 134 161 192 233
#
# _framework density 15.086766000000001
#
# number of rings (size 3 to 8) (size 9 to 14) (size 15 to 20)
#    0.000    2.750    0.000    2.250    0.000    7.250 
#    0.000    1.250    0.000    0.000    0.000    0.000 
#    0.000    1.000    0.000    8.500    0.000    2.375 
#
# Total GULP energy -396769.680605 kJ/mol
# GULP energy per Si atom -12399.052519 kJ/mol
# Density = 1.505243 g / cm^3
# Si number density = 15.086766 Si / 1000 Ang^3
#
#
#
# Elastic Constant Matrix: (Units=GPa)
#
#
# Indices 1 2 3 4 5 6 
#
# 1 86.5188 28.5141 66.5695 0.0000 0.0000 0.0000
# 2 28.5141 62.9429 43.5556 0.0000 0.0000 0.0000
# 3 66.5695 43.5556 145.5096 0.0000 0.0000 0.0000
# 4 0.0000 0.0000 0.0000 18.2623 0.0000 0.0000
# 5 0.0000 0.0000 0.0000 0.0000 29.4904 0.0000
# 6 0.0000 0.0000 0.0000 0.0000 0.0000 14.5234
#
#
#
# Elastic Compliance Matrix: (Units=1/GPa)
#
#
# Indices 1 2 3 4 5 6 
#
# 1 0.018320 -0.003152 -0.007438 0.000000 0.000000 0.000000
# 2 -0.003152 0.020580 -0.004718 0.000000 0.000000 0.000000
# 3 -0.007438 -0.004718 0.011687 0.000000 0.000000 0.000000
# 4 0.000000 0.000000 0.000000 0.054758 0.000000 0.000000
# 5 0.000000 0.000000 0.000000 0.000000 0.033909 0.000000
# 6 0.000000 0.000000 0.000000 0.000000 0.000000 0.068855
#
#
# Mechanical properties :
#
#
# Convention : Reuss Voigt Hill
#
# Bulk Modulus (GPa) = 50.07209 63.58332 56.82770
# Shear Modulus (GPa) = 20.37637 22.87735 21.62686
#
# Velocity S-wave (km/s) = 3.67905 3.89830 3.79026
# Velocity P-wave (km/s) = 7.16301 7.90563 7.54346
#
# Compressibility (1/GPa) = 0.01997121
#
# Stress axis : x y z
#
# Youngs Moduli (GPa) = 54.58594 48.58988 85.56307
#
# Poissons Ratio (x) = 0.15318 0.63638
# Poissons Ratio (y) = 0.17208 0.40370
# Poissons Ratio (z) = 0.40598 0.22925
#
# Static dielectric constant tensor:
#      x y z
#    x 3.035360 0.000000 0.000000 
#    y 0.000000 2.697900 0.000000 
#    z 0.000000 0.000000 2.972350 
# 
# 
# High freq. dielectric constant tensor:
#      x y z
#    x 1.590000 0.000000 0.000000 
#    y 0.000000 1.531010 0.000000 
#    z 0.000000 0.000000 1.576500 
# 
# From -- ./inp_files/27300.got.cif
#   From: 2010.03.12/outbox.cif.g09.slc.cpg/sg44_14_cif.got.tgz:27300.got - 2010.04.14 02:36:11.
