data_PCOD8188699
_publ_section_title
;
Structure prediction by ZEFSAII (Michael W. Deem and Ramdas Pophale) SiO2 
 PCOD8188699
Probable space group: I M M 2
;
_chemical_formula_sum "Si O2"
_cell_formula_units_Z 64
_cell_length_a 8.526764
_cell_length_b 20.005041
_cell_length_c 20.200961
_cell_angle_alpha 90.000000
_cell_angle_beta 90.000000
_cell_angle_gamma 90.000000
_cell_volume 3445.844847
_symmetry_space_group_name_H-M "I M M 2"
_symmetry_group_IT_number 44
_symmetry_cell_setting 'orthorhombic'
loop_
_space_group_symop_operation_xyz
x,y,z
-x,-y,z
-x,y,z
x,-y,z
1/2+x,1/2+y,1/2+z
1/2-x,1/2-y,1/2+z
1/2-x,1/2+y,1/2+z
1/2+x,1/2-y,1/2+z
loop_
_atom_site_type_symbol
_atom_site_label
_atom_site_fract_x
_atom_site_fract_y
_atom_site_fract_z
Si Si1 0.313257 0.574562 0.371300
Si Si2 0.186388 0.925898 0.018669
Si Si3 0.315820 0.326948 0.117572
Si Si4 0.185220 0.177273 0.766313
Si Si5 0.817730 0.423816 0.009023
Si Si6 0.317953 0.577320 0.869477
Si Si7 0.684790 0.682780 0.621159
Si Si8 0.683402 0.173312 0.261154
O O1 0.500000 0.577501 0.368623
O O2 0.255847 0.500000 0.352761
O O3 0.255528 0.593780 0.444970
O O4 0.237620 0.626537 0.319097
O O5 0.251639 0.872616 0.070751
O O6 0.000000 0.926491 0.020496
O O7 0.249044 0.000000 0.037112
O O8 0.500000 0.337932 0.108252
O O9 0.259454 0.342417 0.192469
O O10 0.224737 0.376937 0.070014
O O11 0.273595 0.250555 0.101803
O O12 0.236742 0.252705 0.784626
O O13 0.000000 0.171416 0.769650
O O14 0.772963 0.500000 0.027678
O O15 0.000000 0.417008 0.992557
O O16 0.723850 0.400401 0.943927
O O17 0.500000 0.590187 0.856654
O O18 0.272196 0.500000 0.858970
O O19 0.219401 0.620314 0.817825
O O20 0.500000 0.694224 0.613587
O O21 0.723163 0.655884 0.694400
O O22 0.500000 0.172658 0.244276
#
# Coordination Sequence:
#
# PCOD8188699 Si02
#       8
#     8   8   8   8   8   8   8   8
#     4   8  13  24  43  67  95 124 156 196 242 292
#     4   8  15  27  44  69  99 128 162 209 258 302
#     4  10  20  34  51  74 106 138 172 216 262 310
#     4   8  16  29  45  69 101 135 168 205 249 297
#     4  10  21  37  56  78 104 135 173 216 263 319
#     4  10  21  37  56  78 104 134 170 214 264 319
#     4  10  19  32  51  74 103 139 178 217 259 311
#     4  10  20  34  51  73 104 137 171 214 259 306
#
# _framework density 18.573094000000001
#
# number of rings (size 3 to 8) (size 9 to 14) (size 15 to 20)
#    0.000    2.750    0.000    3.375    0.000    3.500 
#    0.000    5.000    0.000    1.125    0.000    2.625 
#    0.000   12.000    0.000    0.000    0.000    0.000 
#
# Total GULP energy -396741.890601 kJ/mol
# GULP energy per Si atom -12398.184081 kJ/mol
# Density = 1.853082 g / cm^3
# Si number density = 18.573094 Si / 1000 Ang^3
#
#
#
# Elastic Constant Matrix: (Units=GPa)
#
#
# Indices 1 2 3 4 5 6 
#
# 1 28.4093 10.7402 9.4386 0.0000 0.0000 0.0000
# 2 10.7402 115.0998 94.3464 0.0000 0.0000 0.0000
# 3 9.4386 94.3464 128.0290 0.0000 0.0000 0.0000
# 4 0.0000 0.0000 0.0000 45.0741 0.0000 0.0000
# 5 0.0000 0.0000 0.0000 0.0000 25.3549 0.0000
# 6 0.0000 0.0000 0.0000 0.0000 0.0000 23.1659
#
#
#
# Elastic Compliance Matrix: (Units=1/GPa)
#
#
# Indices 1 2 3 4 5 6 
#
# 1 0.036497 -0.003031 -0.000457 0.000000 0.000000 0.000000
# 2 -0.003031 0.022194 -0.016131 0.000000 0.000000 0.000000
# 3 -0.000457 -0.016131 0.019732 0.000000 0.000000 0.000000
# 4 0.000000 0.000000 0.000000 0.022186 0.000000 0.000000
# 5 0.000000 0.000000 0.000000 0.000000 0.039440 0.000000
# 6 0.000000 0.000000 0.000000 0.000000 0.000000 0.043167
#
#
# Mechanical properties :
#
#
# Convention : Reuss Voigt Hill
#
# Bulk Modulus (GPa) = 25.52056 55.62095 40.57075
# Shear Modulus (GPa) = 21.22994 29.18650 25.20822
#
# Velocity S-wave (km/s) = 3.38457 3.96844 3.68808
# Velocity P-wave (km/s) = 5.38926 7.14213 6.32670
#
# Compressibility (1/GPa) = 0.03918410
#
# Stress axis : x y z
#
# Youngs Moduli (GPa) = 27.39914 45.05767 50.67923
#
# Poissons Ratio (x) = 0.13657 0.02317
# Poissons Ratio (y) = 0.08305 0.81753
# Poissons Ratio (z) = 0.01252 0.72685
#
# Static dielectric constant tensor:
#      x y z
#    x 3.106390 0.000000 0.000000 
#    y 0.000000 3.622860 0.000000 
#    z 0.000000 0.000000 3.592610 
# 
# 
# High freq. dielectric constant tensor:
#      x y z
#    x 1.695000 0.000000 0.000000 
#    y 0.000000 1.723480 0.000000 
#    z 0.000000 0.000000 1.725430 
# 
# From -- ./inp_files/20772.got.cif
#   From: 2010.03.12/outbox.cif.g09.slc.cpg/sg44_11_cif.got.tgz:20772.got - 2010.04.14 02:36:11.
