data_PCOD8188750
_publ_section_title
;
Structure prediction by ZEFSAII (Michael W. Deem and Ramdas Pophale) SiO2 
 PCOD8188750
Probable space group: I M M 2
;
_chemical_formula_sum "Si O2"
_cell_formula_units_Z 64
_cell_length_a 20.578782
_cell_length_b 9.157932
_cell_length_c 19.529071
_cell_angle_alpha 90.000000
_cell_angle_beta 90.000000
_cell_angle_gamma 90.000000
_cell_volume 3680.430875
_symmetry_space_group_name_H-M "I M M 2"
_symmetry_group_IT_number 44
_symmetry_cell_setting 'orthorhombic'
loop_
_space_group_symop_operation_xyz
x,y,z
-x,-y,z
-x,y,z
x,-y,z
1/2+x,1/2+y,1/2+z
1/2-x,1/2-y,1/2+z
1/2-x,1/2+y,1/2+z
1/2+x,1/2-y,1/2+z
loop_
_atom_site_type_symbol
_atom_site_label
_atom_site_fract_x
_atom_site_fract_y
_atom_site_fract_z
Si Si1 0.627074 0.328712 0.044230
Si Si2 0.425601 0.830896 0.325644
Si Si3 0.682705 0.669040 0.406591
Si Si4 0.878506 0.165095 0.697559
Si Si5 0.572432 0.168494 0.922002
Si Si6 0.226364 0.332146 0.184404
Si Si7 0.761794 0.169180 0.050990
Si Si8 0.810611 0.673197 0.330564
O O1 0.637124 0.500000 0.032039
O O2 0.599216 0.298917 0.120194
O O3 0.695918 0.251971 0.032501
O O4 0.575974 0.262377 0.991187
O O5 0.500000 0.803835 0.346987
O O6 0.380920 0.752309 0.381449
O O7 0.414589 0.772125 0.249071
O O8 0.407672 0.000000 0.325393
O O9 0.674337 0.500000 0.386874
O O10 0.688489 0.690184 0.488239
O O11 0.746896 0.734360 0.369395
O O12 0.801589 0.187407 0.702822
O O13 0.897277 0.000000 0.717460
O O14 0.500000 0.185697 0.891418
O O15 0.623979 0.230865 0.866989
O O16 0.587830 0.000000 0.939583
O O17 0.210870 0.500000 0.166316
O O18 0.205587 0.234758 0.119512
O O19 0.187186 0.276776 0.251239
O O20 0.745324 0.000000 0.062757
O O21 0.807742 0.500000 0.333968
#
# Coordination Sequence:
#
# PCOD8188750 Si02
#       8
#     8   8   8   8   8   8   8   8
#     4  10  20  33  50  74 106 142 178 211 252 305
#     4  11  24  37  50  75 108 136 169 218 267 307
#     4  10  19  35  57  76 100 137 177 214 254 308
#     4   9  18  33  51  72  99 138 180 210 245 305
#     4  10  20  34  53  77 106 141 178 217 259 302
#     4   9  17  31  52  76 104 135 170 214 260 304
#     4  10  19  32  53  80 107 132 169 217 261 305
#     4   9  16  32  54  76 103 136 175 214 253 303
#
# _framework density 17.389267
#
# number of rings (size 3 to 8) (size 9 to 14) (size 15 to 20)
#    0.000    2.250    2.500    1.875    0.000    5.250 
#    0.000    3.125    0.000    0.750    0.000    1.750 
#    0.000    0.000    0.000    0.000    0.000    0.000 
#
# Total GULP energy -396790.947267 kJ/mol
# GULP energy per Si atom -12399.717102 kJ/mol
# Density = 1.734969 g / cm^3
# Si number density = 17.389267 Si / 1000 Ang^3
#
#
#
# Elastic Constant Matrix: (Units=GPa)
#
#
# Indices 1 2 3 4 5 6 
#
# 1 89.9218 45.9379 59.0404 0.0000 0.0000 0.0000
# 2 45.9379 86.4677 52.3011 0.0000 0.0000 0.0000
# 3 59.0404 52.3011 117.9670 0.0000 0.0000 0.0000
# 4 0.0000 0.0000 0.0000 30.9304 0.0000 0.0000
# 5 0.0000 0.0000 0.0000 0.0000 21.2429 0.0000
# 6 0.0000 0.0000 0.0000 0.0000 0.0000 20.9999
#
#
#
# Elastic Compliance Matrix: (Units=1/GPa)
#
#
# Indices 1 2 3 4 5 6 
#
# 1 0.018450 -0.005762 -0.006679 0.000000 0.000000 0.000000
# 2 -0.005762 0.017602 -0.004920 0.000000 0.000000 0.000000
# 3 -0.006679 -0.004920 0.014001 0.000000 0.000000 0.000000
# 4 0.000000 0.000000 0.000000 0.032331 0.000000 0.000000
# 5 0.000000 0.000000 0.000000 0.000000 0.047075 0.000000
# 6 0.000000 0.000000 0.000000 0.000000 0.000000 0.047619
#
#
# Mechanical properties :
#
#
# Convention : Reuss Voigt Hill
#
# Bulk Modulus (GPa) = 65.22977 67.65727 66.44352
# Shear Modulus (GPa) = 23.05097 23.77310 23.41203
#
# Velocity S-wave (km/s) = 3.64481 3.70146 3.67324
# Velocity P-wave (km/s) = 7.43679 7.56701 7.50218
#
# Compressibility (1/GPa) = 0.01533042
#
# Stress axis : x y z
#
# Youngs Moduli (GPa) = 54.20144 56.81104 71.42227
#
# Poissons Ratio (x) = 0.32733 0.47705
# Poissons Ratio (y) = 0.31230 0.35142
# Poissons Ratio (z) = 0.36202 0.27953
#
# Static dielectric constant tensor:
#      x y z
#    x 3.033520 0.000000 0.000000 
#    y 0.000000 3.167870 0.000000 
#    z 0.000000 0.000000 3.435140 
# 
# 
# High freq. dielectric constant tensor:
#      x y z
#    x 1.644510 0.000000 0.000000 
#    y 0.000000 1.662510 0.000000 
#    z 0.000000 0.000000 1.677260 
# 
# From -- ./inp_files/22283.got.cif
#   From: 2010.03.12/outbox.cif.g09.slc.cpg/sg44_12_cif.got.tgz:22283.got - 2010.04.14 02:36:11.
