data_PCOD8188786
_publ_section_title
;
Structure prediction by ZEFSAII (Michael W. Deem and Ramdas Pophale) SiO2 
 PCOD8188786
Probable space group: I M M 2
;
_chemical_formula_sum "Si O2"
_cell_formula_units_Z 48
_cell_length_a 9.224632
_cell_length_b 23.517785
_cell_length_c 11.711315
_cell_angle_alpha 90.000000
_cell_angle_beta 90.000000
_cell_angle_gamma 90.000000
_cell_volume 2540.686780
_symmetry_space_group_name_H-M "I M M 2"
_symmetry_group_IT_number 44
_symmetry_cell_setting 'orthorhombic'
loop_
_space_group_symop_operation_xyz
x,y,z
-x,-y,z
-x,y,z
x,-y,z
1/2+x,1/2+y,1/2+z
1/2-x,1/2-y,1/2+z
1/2-x,1/2+y,1/2+z
1/2+x,1/2-y,1/2+z
loop_
_atom_site_type_symbol
_atom_site_label
_atom_site_fract_x
_atom_site_fract_y
_atom_site_fract_z
Si Si1 0.828695 0.133647 0.041240
Si Si2 0.338812 0.154862 0.395082
Si Si3 0.172492 0.934743 0.818376
Si Si4 0.330326 0.776156 0.177366
Si Si5 0.838466 0.563750 0.718289
Si Si6 0.669028 0.350495 0.126100
O O1 0.752394 0.194295 0.069837
O O2 0.784726 0.090224 0.139670
O O3 0.000000 0.143725 0.039336
O O4 0.774150 0.104441 0.923747
O O5 0.500000 0.173704 0.433752
O O6 0.278282 0.198204 0.298580
O O7 0.340483 0.092266 0.341968
O O8 0.236460 0.151384 0.502350
O O9 0.228858 0.902464 0.704032
O O10 0.000000 0.937300 0.820111
O O11 0.233674 0.000000 0.823816
O O12 0.500000 0.789414 0.159809
O O13 0.296232 0.709590 0.185883
O O14 0.791878 0.500000 0.739606
O O15 0.000000 0.569505 0.662653
O O16 0.500000 0.358767 0.108744
#
# Coordination Sequence:
#
# PCOD8188786 Si02
#       6
#     8   8   8   8   8   8
#     4  10  19  32  56  84 108 137 179 230 272 312
#     4   9  19  35  53  75 105 137 175 220 265 317
#     4   9  19  35  54  79 111 145 179 218 270 326
#     4   9  20  37  55  76 107 143 179 220 274 333
#     4   9  18  34  55  77 107 146 178 212 266 323
#     4  10  21  36  55  77 105 143 181 220 268 325
#
# _framework density 18.892529
#
# number of rings (size 3 to 8) (size 9 to 14) (size 15 to 20)
#    0.000    2.667    0.000    2.000    2.333    5.000 
#    0.000    1.667    0.000    2.000    0.000    0.000 
#    0.000    0.000    0.000    0.000    0.000    0.000 
#
# Total GULP energy -297438.285687 kJ/mol
# GULP energy per Si atom -12393.261904 kJ/mol
# Density = 1.884953 g / cm^3
# Si number density = 18.892529 Si / 1000 Ang^3
#
#
#
# Elastic Constant Matrix: (Units=GPa)
#
#
# Indices 1 2 3 4 5 6 
#
# 1 40.2072 32.4470 35.8228 -0.0002 0.0000 0.0000
# 2 32.4470 98.8375 46.1800 -0.0002 -0.0001 0.0000
# 3 35.8228 46.1800 119.0758 -0.0009 -0.0005 -0.0001
# 4 -0.0002 -0.0002 -0.0009 20.0483 0.0000 0.0000
# 5 0.0000 -0.0001 -0.0005 0.0000 28.7846 -0.0001
# 6 0.0000 0.0000 -0.0001 0.0000 -0.0001 24.1211
#
#
#
# Elastic Compliance Matrix: (Units=1/GPa)
#
#
# Indices 1 2 3 4 5 6 
#
# 1 0.039720 -0.009107 -0.008418 0.000000 0.000000 0.000000
# 2 -0.009107 0.014444 -0.002862 0.000000 0.000000 0.000000
# 3 -0.008418 -0.002862 0.012040 0.000000 0.000000 0.000000
# 4 0.000000 0.000000 0.000000 0.049880 0.000000 0.000000
# 5 0.000000 0.000000 0.000000 0.000000 0.034741 0.000000
# 6 0.000000 0.000000 0.000000 0.000000 0.000000 0.041457
#
#
# Mechanical properties :
#
#
# Convention : Reuss Voigt Hill
#
# Bulk Modulus (GPa) = 39.32065 54.11335 46.71700
# Shear Modulus (GPa) = 20.70113 24.16885 22.43499
#
# Velocity S-wave (km/s) = 3.31377 3.58058 3.44976
# Velocity P-wave (km/s) = 5.95814 6.76750 6.37567
#
# Compressibility (1/GPa) = 0.02543193
#
# Stress axis : x y z
#
# Youngs Moduli (GPa) = 25.17633 69.23053 83.05356
#
# Poissons Ratio (x) = 0.63045 0.69912
# Poissons Ratio (y) = 0.22927 0.23772
# Poissons Ratio (z) = 0.21193 0.19816
#
# Static dielectric constant tensor:
#      x y z
#    x 3.292270 0.000000 0.000000 
#    y 0.000000 3.897790 0.000000 
#    z 0.000000 0.000000 3.410610 
# 
# 
# High freq. dielectric constant tensor:
#      x y z
#    x 1.708740 0.000000 0.000000 
#    y 0.000000 1.747340 0.000000 
#    z 0.000000 0.000000 1.726160 
# 
# From -- ./inp_files/11137.got.cif
#   From: 2010.03.12/outbox.cif.g09.slc.cpg/sg44_6_cif.got.tgz:11137.got - 2010.04.14 02:36:11.
