data_PCOD8188498
_publ_section_title
;
Structure prediction by ZEFSAII (Michael W. Deem and Ramdas Pophale) SiO2 
 PCOD8188498
Probable space group: I M M 2
;
_chemical_formula_sum "Si O2"
_cell_formula_units_Z 56
_cell_length_a 13.582346
_cell_length_b 28.828787
_cell_length_c 8.954200
_cell_angle_alpha 90.000000
_cell_angle_beta 90.000000
_cell_angle_gamma 90.000000
_cell_volume 3506.129473
_symmetry_space_group_name_H-M "I M M 2"
_symmetry_group_IT_number 44
_symmetry_cell_setting 'orthorhombic'
loop_
_space_group_symop_operation_xyz
x,y,z
-x,-y,z
-x,y,z
x,-y,z
1/2+x,1/2+y,1/2+z
1/2-x,1/2-y,1/2+z
1/2-x,1/2+y,1/2+z
1/2+x,1/2-y,1/2+z
loop_
_atom_site_type_symbol
_atom_site_label
_atom_site_fract_x
_atom_site_fract_y
_atom_site_fract_z
Si Si1 0.383021 0.000000 0.808230
Si Si2 0.613209 0.725937 0.803923
Si Si3 0.613160 0.092808 0.300799
Si Si4 0.886791 0.225937 0.649383
Si Si5 0.386840 0.092809 0.652498
Si Si6 0.214090 0.678429 0.650127
Si Si7 0.883021 0.500000 0.645057
Si Si8 0.214089 0.321570 0.303176
O O1 0.344106 0.954206 0.724826
O O2 0.500000 0.000000 0.804157
O O3 0.342343 0.000000 0.976644
O O4 0.500000 0.718349 0.762044
O O5 0.675870 0.691253 0.701735
O O6 0.641185 0.778992 0.768660
O O7 0.634780 0.714721 0.976653
O O8 0.500000 0.101082 0.252909
O O9 0.623705 0.088159 0.476649
O O10 0.678050 0.135015 0.243990
O O11 0.655893 0.045794 0.228464
O O12 0.858814 0.278993 0.684646
O O13 0.824130 0.191253 0.751570
O O14 0.000000 0.218349 0.691262
O O15 0.500000 0.101082 0.700391
O O16 0.321951 0.135015 0.709312
O O17 0.214873 0.665297 0.476651
O O18 0.000000 0.500000 0.649125
#
# Coordination Sequence:
#
# PCOD8188498 Si02
#       8
#     4   8   8   8   8   8   4   8
#     4   9  17  29  45  65  90 119 150 185 225 267
#     4   9  18  32  47  64  90 122 154 189 227 267
#     4  10  19  30  45  66  93 123 153 185 223 269
#     4   9  18  32  47  64  90 122 154 189 227 267
#     4  10  19  30  45  66  93 123 153 185 223 269
#     4  10  19  30  46  68  92 119 153 189 226 269
#     4   9  17  29  45  65  90 119 150 185 225 267
#     4  10  19  30  46  68  92 119 153 189 226 269
#
# _framework density 15.972028999999999
#
# number of rings (size 3 to 8) (size 9 to 14) (size 15 to 20)
#    0.000    2.429    0.000    3.000    0.000    6.286 
#    0.000    0.000    0.000    0.000    0.000    1.000 
#    0.000    8.000    0.000    0.000    0.000    0.000 
#
# Total GULP energy -347274.350416 kJ/mol
# GULP energy per Si atom -12402.655372 kJ/mol
# Density = 1.593568 g / cm^3
# Si number density = 15.972029 Si / 1000 Ang^3
#
#
#
# Elastic Constant Matrix: (Units=GPa)
#
#
# Indices 1 2 3 4 5 6 
#
# 1 68.0995 36.9273 29.2683 -0.0001 0.0001 -0.0001
# 2 36.9273 106.6043 47.1194 -0.0009 0.0002 -0.0002
# 3 29.2683 47.1194 74.9359 -0.0131 -0.0001 -0.0015
# 4 -0.0001 -0.0009 -0.0131 33.2475 0.0002 -0.0003
# 5 0.0001 0.0002 -0.0001 0.0002 24.2806 0.0001
# 6 -0.0001 -0.0002 -0.0015 -0.0003 0.0001 17.2988
#
#
#
# Elastic Compliance Matrix: (Units=1/GPa)
#
#
# Indices 1 2 3 4 5 6 
#
# 1 0.019153 -0.004609 -0.004583 -0.000002 0.000000 0.000000
# 2 -0.004609 0.014100 -0.007066 -0.000002 0.000000 0.000000
# 3 -0.004583 -0.007066 0.019578 0.000007 0.000000 0.000002
# 4 -0.000002 -0.000002 0.000007 0.030077 0.000000 0.000000
# 5 0.000000 0.000000 0.000000 0.000000 0.041185 0.000000
# 6 0.000000 0.000000 0.000002 0.000000 0.000000 0.057807
#
#
# Mechanical properties :
#
#
# Convention : Reuss Voigt Hill
#
# Bulk Modulus (GPa) = 49.22287 52.91884 51.07085
# Shear Modulus (GPa) = 22.60516 24.05371 23.32943
#
# Velocity S-wave (km/s) = 3.76612 3.88492 3.82598
# Velocity P-wave (km/s) = 7.05667 7.30257 7.18068
#
# Compressibility (1/GPa) = 0.02031576
#
# Stress axis : x y z
#
# Youngs Moduli (GPa) = 52.21048 70.92086 51.07858
#
# Poissons Ratio (x) = 0.32688 0.23408
# Poissons Ratio (y) = 0.24064 0.36092
# Poissons Ratio (z) = 0.23926 0.50112
#
# Static dielectric constant tensor:
#      x y z
#    x 2.833810 0.000000 0.000000 
#    y 0.000000 3.007410 0.000000 
#    z 0.000000 0.000000 3.135390 
# 
# 
# High freq. dielectric constant tensor:
#      x y z
#    x 1.581730 0.000000 0.000000 
#    y 0.000000 1.610250 0.000000 
#    z 0.000000 0.000000 1.628870 
# 
# From -- ./inp_files/7684.got.cif
#   From: 2010.03.12/outbox.cif.g09.slc.cpg/sg44_4_cif.got.tgz:7684.got - 2010.04.14 02:36:11.
