data_PCOD8188643
_publ_section_title
;
Structure prediction by ZEFSAII (Michael W. Deem and Ramdas Pophale) SiO2 
 PCOD8188643
Probable space group: I M M 2
;
_chemical_formula_sum "Si O2"
_cell_formula_units_Z 64
_cell_length_a 14.056751
_cell_length_b 9.044741
_cell_length_c 28.499425
_cell_angle_alpha 90.000000
_cell_angle_beta 90.000000
_cell_angle_gamma 90.000000
_cell_volume 3623.407549
_symmetry_space_group_name_H-M "I M M 2"
_symmetry_group_IT_number 44
_symmetry_cell_setting 'orthorhombic'
loop_
_space_group_symop_operation_xyz
x,y,z
-x,-y,z
-x,y,z
x,-y,z
1/2+x,1/2+y,1/2+z
1/2-x,1/2-y,1/2+z
1/2-x,1/2+y,1/2+z
1/2+x,1/2-y,1/2+z
loop_
_atom_site_type_symbol
_atom_site_label
_atom_site_fract_x
_atom_site_fract_y
_atom_site_fract_z
Si Si1 0.889827 0.172641 0.842030
Si Si2 0.390642 0.826691 0.075473
Si Si3 0.391058 0.670883 0.979455
Si Si4 0.607462 0.674222 0.802693
Si Si5 0.730845 0.325499 0.890142
Si Si6 0.207123 0.171965 0.660095
Si Si7 0.606533 0.170243 0.709696
Si Si8 0.887436 0.667763 0.746856
O O1 0.831188 0.239990 0.885888
O O2 0.854698 0.254205 0.794827
O O3 0.000000 0.204521 0.852333
O O4 0.869454 0.000000 0.836229
O O5 0.500000 0.788230 0.087732
O O6 0.321425 0.747064 0.111654
O O7 0.371871 0.000000 0.077909
O O8 0.364518 0.770005 0.023894
O O9 0.500000 0.696949 0.963423
O O10 0.375059 0.500000 0.992676
O O11 0.321797 0.721241 0.937755
O O12 0.500000 0.729975 0.810130
O O13 0.612507 0.500000 0.798352
O O14 0.666957 0.730384 0.846890
O O15 0.647647 0.741565 0.754415
O O16 0.748703 0.500000 0.888667
O O17 0.320704 0.196266 0.666755
O O18 0.151072 0.244270 0.702691
O O19 0.180259 0.000000 0.658242
O O20 0.500000 0.224267 0.695266
O O21 0.604462 0.000000 0.724371
O O22 0.847999 0.500000 0.747028
O O23 0.000000 0.668755 0.742808
#
# Coordination Sequence:
#
# PCOD8188643 Si02
#       8
#     8   8   8   8   8   8   8   8
#     4  10  21  35  49  68  98 135 172 209 247 287
#     4  10  21  36  53  75 103 131 159 196 244 296
#     4   9  18  34  55  78 104 131 159 195 242 296
#     4   9  17  29  46  71 102 132 161 194 235 285
#     4  10  19  31  51  76 100 129 165 203 243 289
#     4  11  21  32  51  75  98 129 167 205 247 295
#     4   9  19  34  48  66  96 131 165 201 239 280
#     4  10  20  33  49  71 101 134 166 203 247 294
#
# _framework density 17.662932999999999
#
# number of rings (size 3 to 8) (size 9 to 14) (size 15 to 20)
#    0.000    2.250    0.000    3.000    0.000    9.250 
#    0.000    0.000    0.000    4.500    0.000    1.750 
#    0.000    0.000    0.000    0.000    0.000    0.000 
#
# Total GULP energy -396857.359015 kJ/mol
# GULP energy per Si atom -12401.792469 kJ/mol
# Density = 1.762273 g / cm^3
# Si number density = 17.662933 Si / 1000 Ang^3
#
#
#
# Elastic Constant Matrix: (Units=GPa)
#
#
# Indices 1 2 3 4 5 6 
#
# 1 70.8812 47.2935 67.7135 0.0000 0.0000 0.0000
# 2 47.2935 83.7582 60.1044 0.0000 0.0000 0.0000
# 3 67.7135 60.1044 115.3044 0.0000 0.0000 0.0000
# 4 0.0000 0.0000 0.0000 31.5242 0.0000 0.0000
# 5 0.0000 0.0000 0.0000 0.0000 30.6878 0.0000
# 6 0.0000 0.0000 0.0000 0.0000 0.0000 25.6641
#
#
#
# Elastic Compliance Matrix: (Units=1/GPa)
#
#
# Indices 1 2 3 4 5 6 
#
# 1 0.035248 -0.008065 -0.016495 0.000000 0.000000 0.000000
# 2 -0.008065 0.020919 -0.006168 0.000000 0.000000 0.000000
# 3 -0.016495 -0.006168 0.021575 0.000000 0.000000 0.000000
# 4 0.000000 0.000000 0.000000 0.031722 0.000000 0.000000
# 5 0.000000 0.000000 0.000000 0.000000 0.032586 0.000000
# 6 0.000000 0.000000 0.000000 0.000000 0.000000 0.038965
#
#
# Mechanical properties :
#
#
# Convention : Reuss Voigt Hill
#
# Bulk Modulus (GPa) = 61.40858 68.90740 65.15799
# Shear Modulus (GPa) = 20.16941 23.89739 22.03340
#
# Velocity S-wave (km/s) = 3.38288 3.68226 3.53574
# Velocity P-wave (km/s) = 7.07820 7.56147 7.32382
#
# Compressibility (1/GPa) = 0.01628437
#
# Stress axis : x y z
#
# Youngs Moduli (GPa) = 28.37078 47.80248 46.35029
#
# Poissons Ratio (x) = 0.38555 0.76456
# Poissons Ratio (y) = 0.22882 0.28589
# Poissons Ratio (z) = 0.46798 0.29485
#
# Static dielectric constant tensor:
#      x y z
#    x 3.446580 0.000000 0.000000 
#    y 0.000000 3.317380 0.000000 
#    z 0.000000 0.000000 3.159590 
# 
# 
# High freq. dielectric constant tensor:
#      x y z
#    x 1.684790 0.000000 0.000000 
#    y 0.000000 1.688410 0.000000 
#    z 0.000000 0.000000 1.664120 
# 
# From -- ./inp_files/25129.got.cif
#   From: 2010.03.12/outbox.cif.g09.slc.cpg/sg44_13_cif.got.tgz:25129.got - 2010.04.14 02:36:11.
