data_PCOD8188925
_publ_section_title
;
Structure prediction by ZEFSAII (Michael W. Deem and Ramdas Pophale) SiO2 
 PCOD8188925
Probable space group: I M M 2
;
_chemical_formula_sum "Si O2"
_cell_formula_units_Z 64
_cell_length_a 8.643893
_cell_length_b 29.030833
_cell_length_c 12.679418
_cell_angle_alpha 90.000000
_cell_angle_beta 90.000000
_cell_angle_gamma 90.000000
_cell_volume 3181.765725
_symmetry_space_group_name_H-M "I M M 2"
_symmetry_group_IT_number 44
_symmetry_cell_setting 'orthorhombic'
loop_
_space_group_symop_operation_xyz
x,y,z
-x,-y,z
-x,y,z
x,-y,z
1/2+x,1/2+y,1/2+z
1/2-x,1/2-y,1/2+z
1/2-x,1/2+y,1/2+z
1/2+x,1/2-y,1/2+z
loop_
_atom_site_type_symbol
_atom_site_label
_atom_site_fract_x
_atom_site_fract_y
_atom_site_fract_z
Si Si1 0.682678 0.052430 0.563650
Si Si2 0.175027 0.298933 0.336121
Si Si3 0.824927 0.332547 0.558694
Si Si4 0.321529 0.607811 0.871605
Si Si5 0.325277 0.949638 0.194488
Si Si6 0.820797 0.076523 0.990711
Si Si7 0.183027 0.798891 0.268592
Si Si8 0.684491 0.101152 0.776733
O O1 0.500000 0.049467 0.569345
O O2 0.725260 0.083957 0.464197
O O3 0.745386 0.077621 0.669262
O O4 0.750016 0.000000 0.555144
O O5 0.185222 0.297135 0.462368
O O6 0.251722 0.250807 0.301980
O O7 0.249399 0.345973 0.286831
O O8 0.000000 0.298302 0.295928
O O9 0.703016 0.372490 0.535963
O O10 0.779027 0.307399 0.664156
O O11 0.000000 0.352453 0.566761
O O12 0.500000 0.599999 0.898111
O O13 0.282919 0.584710 0.759506
O O14 0.282007 0.662193 0.858105
O O15 0.500000 0.930320 0.195554
O O16 0.264933 0.956042 0.074811
O O17 0.320194 0.000000 0.248180
O O18 0.000000 0.063572 0.984837
O O19 0.748147 0.071050 0.874286
O O20 0.000000 0.798583 0.245716
O O21 0.500000 0.101389 0.784536
#
# Coordination Sequence:
#
# PCOD8188925 Si02
#       8
#     8   8   8   8   8   8   8   8
#     4  10  22  40  61  84 114 155 201 248 297 351
#     4   8  17  34  55  80 111 149 191 238 294 349
#     4  10  19  34  56  79 109 150 192 236 285 348
#     4  11  23  37  56  83 116 153 193 241 297 351
#     4  11  23  38  58  83 112 147 188 234 284 345
#     4  11  21  35  57  85 115 147 183 233 294 351
#     4  10  20  35  55  81 114 151 191 242 300 352
#     4   9  19  38  61  83 113 155 199 243 292 350
#
# _framework density 20.114616000000002
#
# number of rings (size 3 to 8) (size 9 to 14) (size 15 to 20)
#    0.000    2.000    1.250    3.375    0.000    5.250 
#    0.000    4.375    0.000    0.000    0.000    0.000 
#    0.000    0.000    0.000    0.000    0.000    0.000 
#
# Total GULP energy -396605.528677 kJ/mol
# GULP energy per Si atom -12393.922771 kJ/mol
# Density = 2.006883 g / cm^3
# Si number density = 20.114616 Si / 1000 Ang^3
#
#
#
# Elastic Constant Matrix: (Units=GPa)
#
#
# Indices 1 2 3 4 5 6 
#
# 1 38.4910 14.5811 14.5517 -0.0005 -0.0002 0.0000
# 2 14.5811 109.5558 49.5543 -0.0011 -0.0006 -0.0001
# 3 14.5517 49.5543 121.2254 -0.0023 -0.0010 -0.0001
# 4 -0.0005 -0.0011 -0.0023 25.9814 -0.0005 0.0000
# 5 -0.0002 -0.0006 -0.0010 -0.0005 29.8232 -0.0003
# 6 0.0000 -0.0001 -0.0001 0.0000 -0.0003 18.4610
#
#
#
# Elastic Compliance Matrix: (Units=1/GPa)
#
#
# Indices 1 2 3 4 5 6 
#
# 1 0.027848 -0.002692 -0.002242 0.000000 0.000000 0.000000
# 2 -0.002692 0.011459 -0.004361 0.000000 0.000000 0.000000
# 3 -0.002242 -0.004361 0.010301 0.000001 0.000000 0.000000
# 4 0.000000 0.000000 0.000001 0.038489 0.000001 0.000000
# 5 0.000000 0.000000 0.000000 0.000001 0.033531 0.000000
# 6 0.000000 0.000000 0.000000 0.000000 0.000000 0.054168
#
#
# Mechanical properties :
#
#
# Convention : Reuss Voigt Hill
#
# Bulk Modulus (GPa) = 32.24084 47.40515 39.82299
# Shear Modulus (GPa) = 24.42304 27.55880 25.99092
#
# Velocity S-wave (km/s) = 3.48831 3.70549 3.59854
# Velocity P-wave (km/s) = 5.68223 6.47504 6.09155
#
# Compressibility (1/GPa) = 0.03101656
#
# Stress axis : x y z
#
# Youngs Moduli (GPa) = 35.90973 87.27090 97.07905
#
# Poissons Ratio (x) = 0.23494 0.21768
# Poissons Ratio (y) = 0.09667 0.42335
# Poissons Ratio (z) = 0.08052 0.38058
#
# Static dielectric constant tensor:
#      x y z
#    x 3.394200 0.000000 0.000000 
#    y 0.000000 3.889770 0.000000 
#    z 0.000000 0.000000 3.721930 
# 
# 
# High freq. dielectric constant tensor:
#      x y z
#    x 1.764710 0.000000 0.000000 
#    y 0.000000 1.790150 0.000000 
#    z 0.000000 0.000000 1.785980 
# 
# From -- ./inp_files/11550.got.cif
#   From: 2010.03.12/outbox.cif.g09.slc.cpg/sg44_6_cif.got.tgz:11550.got - 2010.04.14 02:36:11.
