data_PCOD8188607
_publ_section_title
;
Structure prediction by ZEFSAII (Michael W. Deem and Ramdas Pophale) SiO2 
 PCOD8188607
Probable space group: I M M 2
;
_chemical_formula_sum "Si O2"
_cell_formula_units_Z 64
_cell_length_a 27.537008
_cell_length_b 8.900202
_cell_length_c 14.439359
_cell_angle_alpha 90.000000
_cell_angle_beta 90.000000
_cell_angle_gamma 90.000000
_cell_volume 3538.869343
_symmetry_space_group_name_H-M "I M M 2"
_symmetry_group_IT_number 44
_symmetry_cell_setting 'orthorhombic'
loop_
_space_group_symop_operation_xyz
x,y,z
-x,-y,z
-x,y,z
x,-y,z
1/2+x,1/2+y,1/2+z
1/2-x,1/2-y,1/2+z
1/2-x,1/2+y,1/2+z
1/2+x,1/2-y,1/2+z
loop_
_atom_site_type_symbol
_atom_site_label
_atom_site_fract_x
_atom_site_fract_y
_atom_site_fract_z
Si Si1 0.865643 0.322657 0.386190
Si Si2 0.943447 0.175056 0.511189
Si Si3 0.630214 0.327356 0.325174
Si Si4 0.275663 0.327616 0.211823
Si Si5 0.324466 0.675290 0.715775
Si Si6 0.280727 0.672838 0.998446
Si Si7 0.944235 0.674329 0.701345
Si Si8 0.681298 0.672974 0.506970
O O1 0.869508 0.500000 0.387175
O O2 0.914416 0.255759 0.429854
O O3 0.861880 0.264755 0.280644
O O4 0.818366 0.272136 0.442096
O O5 0.926359 0.236967 0.610658
O O6 0.000000 0.208939 0.494864
O O7 0.931223 0.000000 0.509041
O O8 0.617943 0.500000 0.302555
O O9 0.679682 0.278016 0.275083
O O10 0.586147 0.225342 0.290547
O O11 0.637197 0.301194 0.435186
O O12 0.260333 0.500000 0.230074
O O13 0.230601 0.222928 0.238813
O O14 0.291907 0.303380 0.106369
O O15 0.330157 0.500000 0.735899
O O16 0.337176 0.716854 0.609417
O O17 0.286702 0.500000 0.968717
O O18 0.226364 0.725422 0.975689
O O19 0.935807 0.500000 0.681903
O O20 0.000000 0.711261 0.723532
O O21 0.698830 0.500000 0.505233
#
# Coordination Sequence:
#
# PCOD8188607 Si02
#       8
#     8   8   8   8   8   8   8   8
#     4  12  23  34  52  76 104 137 173 213 256 305
#     4  10  21  38  59  81 105 132 163 203 253 309
#     4  10  19  32  52  75 101 136 175 213 254 302
#     4   9  18  31  48  74 107 137 166 205 253 303
#     4  10  20  34  51  72 102 139 178 216 254 299
#     4  10  19  31  49  75 107 140 173 208 251 306
#     4  10  21  36  54  79 109 136 164 203 252 306
#     4   9  19  34  51  74 105 139 176 219 261 300
#
# _framework density 18.084872000000001
#
# number of rings (size 3 to 8) (size 9 to 14) (size 15 to 20)
#    0.000    2.000    0.000    4.125    0.000    5.500 
#    0.000    0.000    0.000    0.750    0.000    1.750 
#    0.000    0.000    0.000    0.000    0.000    0.000 
#
# Total GULP energy -396938.180414 kJ/mol
# GULP energy per Si atom -12404.318138 kJ/mol
# Density = 1.804371 g / cm^3
# Si number density = 18.084872 Si / 1000 Ang^3
#
#
#
# Elastic Constant Matrix: (Units=GPa)
#
#
# Indices 1 2 3 4 5 6 
#
# 1 75.1735 50.9270 62.7557 0.0000 0.0000 0.0000
# 2 50.9270 103.0033 50.7067 0.0000 0.0000 0.0000
# 3 62.7557 50.7067 107.8682 0.0000 0.0000 0.0000
# 4 0.0000 0.0000 0.0000 27.4585 0.0000 0.0000
# 5 0.0000 0.0000 0.0000 0.0000 29.7030 0.0000
# 6 0.0000 0.0000 0.0000 0.0000 0.0000 31.6041
#
#
#
# Elastic Compliance Matrix: (Units=1/GPa)
#
#
# Indices 1 2 3 4 5 6 
#
# 1 0.030428 -0.008235 -0.013831 0.000000 0.000000 0.000000
# 2 -0.008235 0.014860 -0.002194 0.000000 0.000000 0.000000
# 3 -0.013831 -0.002194 0.018349 0.000000 0.000000 0.000000
# 4 0.000000 0.000000 0.000000 0.036419 0.000000 0.000000
# 5 0.000000 0.000000 0.000000 0.000000 0.033667 0.000000
# 6 0.000000 0.000000 0.000000 0.000000 0.000000 0.031641
#
#
# Mechanical properties :
#
#
# Convention : Reuss Voigt Hill
#
# Bulk Modulus (GPa) = 66.15772 68.31375 67.23573
# Shear Modulus (GPa) = 22.83888 25.86350 24.35119
#
# Velocity S-wave (km/s) = 3.55755 3.78579 3.67344
# Velocity P-wave (km/s) = 7.31683 7.54756 7.43309
#
# Compressibility (1/GPa) = 0.01511539
#
# Stress axis : x y z
#
# Youngs Moduli (GPa) = 32.86418 67.29266 54.49927
#
# Poissons Ratio (x) = 0.55419 0.75379
# Poissons Ratio (y) = 0.27065 0.11959
# Poissons Ratio (z) = 0.45455 0.14766
#
# Static dielectric constant tensor:
#      x y z
#    x 3.138450 0.000000 0.000000 
#    y 0.000000 3.401840 0.000000 
#    z 0.000000 0.000000 3.517800 
# 
# 
# High freq. dielectric constant tensor:
#      x y z
#    x 1.674690 0.000000 0.000000 
#    y 0.000000 1.709230 0.000000 
#    z 0.000000 0.000000 1.705570 
# 
# From -- ./inp_files/16844.got.cif
#   From: 2010.03.12/outbox.cif.g09.slc.cpg/sg44_9_cif.got.tgz:16844.got - 2010.04.14 02:36:11.
