data_PCOD8188066
_publ_section_title
;
Structure prediction by ZEFSAII (Michael W. Deem and Ramdas Pophale) SiO2 
 PCOD8188066
Probable space group: I M M 2
;
_chemical_formula_sum "Si O2"
_cell_formula_units_Z 56
_cell_length_a 22.152348
_cell_length_b 8.610909
_cell_length_c 17.718761
_cell_angle_alpha 90.000000
_cell_angle_beta 90.000000
_cell_angle_gamma 90.000000
_cell_volume 3379.886489
_symmetry_space_group_name_H-M "I M M 2"
_symmetry_group_IT_number 44
_symmetry_cell_setting 'orthorhombic'
loop_
_space_group_symop_operation_xyz
x,y,z
-x,-y,z
-x,y,z
x,-y,z
1/2+x,1/2+y,1/2+z
1/2-x,1/2-y,1/2+z
1/2-x,1/2+y,1/2+z
1/2+x,1/2-y,1/2+z
loop_
_atom_site_type_symbol
_atom_site_label
_atom_site_fract_x
_atom_site_fract_y
_atom_site_fract_z
Si Si1 0.717747 0.323120 0.225580
Si Si2 0.070079 0.179703 0.150807
Si Si3 0.151992 0.681994 0.027542
Si Si4 0.682700 0.680980 0.928209
Si Si5 0.192024 0.819617 0.886755
Si Si6 0.221081 0.318967 0.572952
Si Si7 0.353233 0.180085 0.779466
O O1 0.711992 0.500000 0.198173
O O2 0.674791 0.291495 0.298867
O O3 0.696406 0.213710 0.157261
O O4 0.786030 0.285635 0.250042
O O5 0.096996 0.279639 0.082525
O O6 0.099926 0.223131 0.230245
O O7 0.000000 0.219284 0.156660
O O8 0.082222 0.000000 0.133798
O O9 0.154770 0.500000 0.013494
O O10 0.213869 0.737443 0.066470
O O11 0.140475 0.768995 0.946564
O O12 0.667615 0.500000 0.928481
O O13 0.752267 0.710371 0.908420
O O14 0.640456 0.764973 0.866412
O O15 0.673009 0.751587 0.012220
O O16 0.210454 0.000000 0.897396
O O17 0.229215 0.500000 0.559171
O O18 0.369598 0.000000 0.773643
#
# Coordination Sequence:
#
# PCOD8188066 Si02
#       7
#     8   8   8   8   8   8   8
#     4   9  17  28  43  65  91 120 151 185 226 273
#     4  11  23  36  50  68  89 118 159 199 234 273
#     4  11  20  31  46  63  88 119 153 190 232 276
#     4  10  18  28  43  62  88 118 152 186 224 272
#     4   9  17  29  44  62  87 117 152 188 225 271
#     4  11  19  27  43  65  92 122 155 188 224 270
#     4  10  19  32  48  64  88 118 152 190 232 275
#
# _framework density 16.568603
#
# number of rings (size 3 to 8) (size 9 to 14) (size 15 to 20)
#    0.000    1.857    1.429    7.714    0.000    4.000 
#    0.000    0.000    0.000    0.000    0.000    0.000 
#    0.000    1.143    0.000   10.000    0.000    5.571 
#
# Total GULP energy -347109.683604 kJ/mol
# GULP energy per Si atom -12396.774414 kJ/mol
# Density = 1.653089 g / cm^3
# Si number density = 16.568603 Si / 1000 Ang^3
#
#
#
# Elastic Constant Matrix: (Units=GPa)
#
#
# Indices 1 2 3 4 5 6 
#
# 1 33.9955 11.7332 27.8081 0.0000 0.0000 0.0000
# 2 11.7332 75.2295 37.1786 0.0000 0.0000 0.0000
# 3 27.8081 37.1786 146.3596 0.0000 0.0000 0.0000
# 4 0.0000 0.0000 0.0000 33.4765 0.0000 0.0000
# 5 0.0000 0.0000 0.0000 0.0000 13.3942 0.0000
# 6 0.0000 0.0000 0.0000 0.0000 0.0000 14.8769
#
#
#
# Elastic Compliance Matrix: (Units=1/GPa)
#
#
# Indices 1 2 3 4 5 6 
#
# 1 0.035235 -0.002501 -0.006059 0.000000 0.000000 0.000000
# 2 -0.002501 0.015378 -0.003431 0.000000 0.000000 0.000000
# 3 -0.006059 -0.003431 0.008855 0.000000 0.000000 0.000000
# 4 0.000000 0.000000 0.000000 0.029872 0.000000 0.000000
# 5 0.000000 0.000000 0.000000 0.000000 0.074659 0.000000
# 6 0.000000 0.000000 0.000000 0.000000 0.000000 0.067218
#
#
# Mechanical properties :
#
#
# Convention : Reuss Voigt Hill
#
# Bulk Modulus (GPa) = 28.18012 45.44718 36.81365
# Shear Modulus (GPa) = 18.72446 24.27383 21.49914
#
# Velocity S-wave (km/s) = 3.36537 3.83175 3.60611
# Velocity P-wave (km/s) = 5.66974 6.86044 6.29332
#
# Compressibility (1/GPa) = 0.03548601
#
# Stress axis : x y z
#
# Youngs Moduli (GPa) = 28.38054 65.02593 112.92560
#
# Poissons Ratio (x) = 0.16263 0.68426
# Poissons Ratio (y) = 0.07098 0.38748
# Poissons Ratio (z) = 0.17197 0.22312
#
# Static dielectric constant tensor:
#      x y z
#    x 2.565420 0.000000 0.000000 
#    y 0.000000 3.179860 0.000000 
#    z 0.000000 0.000000 3.676090 
# 
# 
# High freq. dielectric constant tensor:
#      x y z
#    x 1.551760 0.000000 0.000000 
#    y 0.000000 1.655580 0.000000 
#    z 0.000000 0.000000 1.661990 
# 
# From -- ./inp_files/22251.got.cif
#   From: 2010.03.12/outbox.cif.g09.slc.cpg/sg44_12_cif.got.tgz:22251.got - 2010.04.14 02:36:11.
