data_PCOD8188985
_publ_section_title
;
Structure prediction by ZEFSAII (Michael W. Deem and Ramdas Pophale) SiO2 
 PCOD8188985
Probable space group: I M M 2
;
_chemical_formula_sum "Si O2"
_cell_formula_units_Z 48
_cell_length_a 8.813580
_cell_length_b 28.146962
_cell_length_c 10.371189
_cell_angle_alpha 90.000000
_cell_angle_beta 90.000000
_cell_angle_gamma 90.000000
_cell_volume 2572.837911
_symmetry_space_group_name_H-M "I M M 2"
_symmetry_group_IT_number 44
_symmetry_cell_setting 'orthorhombic'
loop_
_space_group_symop_operation_xyz
x,y,z
-x,-y,z
-x,y,z
x,-y,z
1/2+x,1/2+y,1/2+z
1/2-x,1/2-y,1/2+z
1/2-x,1/2+y,1/2+z
1/2+x,1/2-y,1/2+z
loop_
_atom_site_type_symbol
_atom_site_label
_atom_site_fract_x
_atom_site_fract_y
_atom_site_fract_z
Si Si1 0.323249 0.851289 0.349100
Si Si2 0.320592 0.301791 0.089590
Si Si3 0.173237 0.447259 0.973316
Si Si4 0.679729 0.805977 0.085672
Si Si5 0.820466 0.644307 0.329268
Si Si6 0.176943 0.946321 0.741965
O O1 0.500000 0.838426 0.367544
O O2 0.226795 0.822465 0.452439
O O3 0.295098 0.907935 0.363799
O O4 0.263756 0.836211 0.208412
O O5 0.500000 0.304986 0.105378
O O6 0.261015 0.247765 0.097853
O O7 0.244162 0.331251 0.202552
O O8 0.205065 0.500000 0.915910
O O9 0.000000 0.443357 0.022917
O O10 0.281433 0.436699 0.093452
O O11 0.500000 0.806662 0.078039
O O12 0.745758 0.829622 0.955788
O O13 0.767942 0.589468 0.334187
O O14 0.000000 0.646777 0.324199
O O15 0.000000 0.936743 0.758520
O O16 0.221188 0.000000 0.781546
#
# Coordination Sequence:
#
# PCOD8188985 Si02
#       6
#     8   8   8   8   8   8
#     4  10  19  35  56  78 106 140 177 222 270 320
#     4  11  21  35  55  79 107 142 185 228 267 317
#     4   9  17  30  52  80 105 132 172 220 267 317
#     4   9  21  37  53  77 111 145 180 223 271 319
#     4  11  21  36  56  80 110 145 183 224 267 320
#     4  10  20  34  54  80 109 139 176 223 271 319
#
# _framework density 18.656441999999998
#
# number of rings (size 3 to 8) (size 9 to 14) (size 15 to 20)
#    0.000    2.000    1.667    2.500    0.000    1.000 
#    0.000    5.833    0.000    3.000    0.000    2.333 
#    0.000    0.000    0.000    0.000    0.000    0.000 
#
# Total GULP energy -297621.098436 kJ/mol
# GULP energy per Si atom -12400.879102 kJ/mol
# Density = 1.861398 g / cm^3
# Si number density = 18.656442 Si / 1000 Ang^3
#
#
#
# Elastic Constant Matrix: (Units=GPa)
#
#
# Indices 1 2 3 4 5 6 
#
# 1 55.6306 34.8690 25.1503 -0.0006 -0.0001 0.0000
# 2 34.8690 148.0647 55.8902 -0.0001 -0.0004 -0.0001
# 3 25.1503 55.8902 96.7379 -0.0023 -0.0007 -0.0002
# 4 -0.0006 -0.0001 -0.0023 17.5597 -0.0001 0.0000
# 5 -0.0001 -0.0004 -0.0007 -0.0001 10.3863 -0.0001
# 6 0.0000 -0.0001 -0.0002 0.0000 -0.0001 26.8248
#
#
#
# Elastic Compliance Matrix: (Units=1/GPa)
#
#
# Indices 1 2 3 4 5 6 
#
# 1 0.021969 -0.003859 -0.003482 0.000000 0.000000 0.000000
# 2 -0.003859 0.009315 -0.004379 -0.000001 0.000000 0.000000
# 3 -0.003482 -0.004379 0.013772 0.000002 0.000001 0.000000
# 4 0.000000 -0.000001 0.000002 0.056948 0.000000 0.000000
# 5 0.000000 0.000000 0.000001 0.000000 0.096280 0.000001
# 6 0.000000 0.000000 0.000000 0.000000 0.000001 0.037279
#
#
# Mechanical properties :
#
#
# Convention : Reuss Voigt Hill
#
# Bulk Modulus (GPa) = 46.26010 59.13914 52.69962
# Shear Modulus (GPa) = 18.78221 23.25575 21.01898
#
# Velocity S-wave (km/s) = 3.17636 3.53445 3.36018
# Velocity P-wave (km/s) = 6.18886 6.95876 6.58507
#
# Compressibility (1/GPa) = 0.02161690
#
# Stress axis : x y z
#
# Youngs Moduli (GPa) = 45.51903 107.34810 72.61005
#
# Poissons Ratio (x) = 0.41429 0.25282
# Poissons Ratio (y) = 0.17567 0.31793
# Poissons Ratio (z) = 0.15849 0.47004
#
# Static dielectric constant tensor:
#      x y z
#    x 3.299060 0.000000 0.000000 
#    y 0.000000 3.857820 0.000000 
#    z 0.000000 0.000000 3.389520 
# 
# 
# High freq. dielectric constant tensor:
#      x y z
#    x 1.712570 0.000000 0.000000 
#    y 0.000000 1.745000 0.000000 
#    z 0.000000 0.000000 1.703790 
# 
# From -- ./inp_files/4906.got.cif
#   From: 2010.03.12/outbox.cif.g09.slc.cpg/sg44_3_cif.got.tgz:4906.got - 2010.04.14 02:36:11.
