data_PCOD8188114
_publ_section_title
;
Structure prediction by ZEFSAII (Michael W. Deem and Ramdas Pophale) SiO2 
 PCOD8188114
Probable space group: I M M 2
;
_chemical_formula_sum "Si O2"
_cell_formula_units_Z 56
_cell_length_a 21.325980
_cell_length_b 9.348844
_cell_length_c 17.746223
_cell_angle_alpha 90.000000
_cell_angle_beta 90.000000
_cell_angle_gamma 90.000000
_cell_volume 3538.122335
_symmetry_space_group_name_H-M "I M M 2"
_symmetry_group_IT_number 44
_symmetry_cell_setting 'orthorhombic'
loop_
_space_group_symop_operation_xyz
x,y,z
-x,-y,z
-x,y,z
x,-y,z
1/2+x,1/2+y,1/2+z
1/2-x,1/2-y,1/2+z
1/2-x,1/2+y,1/2+z
1/2+x,1/2-y,1/2+z
loop_
_atom_site_type_symbol
_atom_site_label
_atom_site_fract_x
_atom_site_fract_y
_atom_site_fract_z
Si Si1 0.649961 0.164384 0.320560
Si Si2 0.325102 0.842107 0.912057
Si Si3 0.140541 0.330304 0.574090
Si Si4 0.680504 0.660651 0.457503
Si Si5 0.221604 0.170117 0.114326
Si Si6 0.573302 0.335419 0.197127
Si Si7 0.705342 0.662220 0.777938
O O1 0.642066 0.232255 0.403949
O O2 0.607362 0.252716 0.264079
O O3 0.721253 0.176563 0.294289
O O4 0.627691 0.000000 0.322832
O O5 0.252904 0.842249 0.935225
O O6 0.336788 0.743243 0.839532
O O7 0.346193 0.000000 0.887809
O O8 0.365173 0.793077 0.984990
O O9 0.132108 0.500000 0.588017
O O10 0.207426 0.273836 0.604985
O O11 0.087575 0.241865 0.617774
O O12 0.652522 0.500000 0.450254
O O13 0.677335 0.717576 0.544248
O O14 0.193300 0.225616 0.193821
O O15 0.225981 0.000000 0.114692
O O16 0.500000 0.326565 0.212649
O O17 0.596139 0.500000 0.194679
O O18 0.682900 0.500000 0.782147
#
# Coordination Sequence:
#
# PCOD8188114 Si02
#       7
#     8   8   8   8   8   8   8
#     4  10  18  29  44  59  81 110 142 178 212 248
#     4   8  15  25  39  59  82 109 139 169 206 250
#     4   9  16  30  46  58  79 111 144 177 211 249
#     4   8  14  25  41  58  81 111 140 168 204 249
#     4   8  13  24  41  61  85 114 142 169 203 245
#     4  11  23  34  44  61  83 108 144 186 221 253
#     4   9  15  24  40  61  86 113 142 171 201 243
#
# _framework density 15.827603999999999
#
# number of rings (size 3 to 8) (size 9 to 14) (size 15 to 20)
#    0.000    3.000    1.429    2.571    0.000    2.286 
#    0.000    2.857    0.000    0.000    0.000    0.000 
#    0.000    1.143    0.000   10.286    0.000    6.571 
#
# Total GULP energy -346987.949470 kJ/mol
# GULP energy per Si atom -12392.426767 kJ/mol
# Density = 1.579158 g / cm^3
# Si number density = 15.827604 Si / 1000 Ang^3
#
#
#
# Elastic Constant Matrix: (Units=GPa)
#
#
# Indices 1 2 3 4 5 6 
#
# 1 19.7627 21.1712 16.7476 0.0000 0.0000 0.0000
# 2 21.1712 87.3511 63.4112 0.0000 0.0000 0.0000
# 3 16.7476 63.4112 149.1466 0.0000 0.0000 0.0000
# 4 0.0000 0.0000 0.0000 29.7124 0.0000 0.0000
# 5 0.0000 0.0000 0.0000 0.0000 9.9388 0.0000
# 6 0.0000 0.0000 0.0000 0.0000 0.0000 14.5763
#
#
#
# Elastic Compliance Matrix: (Units=1/GPa)
#
#
# Indices 1 2 3 4 5 6 
#
# 1 0.068432 -0.015922 -0.000915 0.000000 0.000000 0.000000
# 2 -0.015922 0.020263 -0.006827 0.000000 0.000000 0.000000
# 3 -0.000915 -0.006827 0.009710 0.000000 0.000000 0.000000
# 4 0.000000 0.000000 0.000000 0.033656 0.000000 0.000000
# 5 0.000000 0.000000 0.000000 0.000000 0.100616 0.000000
# 6 0.000000 0.000000 0.000000 0.000000 0.000000 0.068605
#
#
# Mechanical properties :
#
#
# Convention : Reuss Voigt Hill
#
# Bulk Modulus (GPa) = 19.57797 50.99116 35.28457
# Shear Modulus (GPa) = 13.67482 21.17419 17.42451
#
# Velocity S-wave (km/s) = 2.94255 3.66156 3.32157
# Velocity P-wave (km/s) = 4.89297 7.08256 6.08703
#
# Compressibility (1/GPa) = 0.05107782
#
# Stress axis : x y z
#
# Youngs Moduli (GPa) = 14.61301 49.35084 102.98429
#
# Poissons Ratio (x) = 0.78575 0.09423
# Poissons Ratio (y) = 0.23266 0.70310
# Poissons Ratio (z) = 0.01337 0.33693
#
# Static dielectric constant tensor:
#      x y z
#    x 2.442490 0.000000 0.000000 
#    y 0.000000 3.052040 0.000000 
#    z 0.000000 0.000000 3.525520 
# 
# 
# High freq. dielectric constant tensor:
#      x y z
#    x 1.534330 0.000000 0.000000 
#    y 0.000000 1.600050 0.000000 
#    z 0.000000 0.000000 1.626310 
# 
# From -- ./inp_files/20666.got.cif
#   From: 2010.03.12/outbox.cif.g09.slc.cpg/sg44_11_cif.got.tgz:20666.got - 2010.04.14 02:36:11.
