data_PCOD8188083
_publ_section_title
;
Structure prediction by ZEFSAII (Michael W. Deem and Ramdas Pophale) SiO2 
 PCOD8188083
Probable space group: I M M 2
;
_chemical_formula_sum "Si O2"
_cell_formula_units_Z 64
_cell_length_a 8.861652
_cell_length_b 23.570769
_cell_length_c 19.300496
_cell_angle_alpha 90.000000
_cell_angle_beta 90.000000
_cell_angle_gamma 90.000000
_cell_volume 4031.409481
_symmetry_space_group_name_H-M "I M M 2"
_symmetry_group_IT_number 44
_symmetry_cell_setting 'orthorhombic'
loop_
_space_group_symop_operation_xyz
x,y,z
-x,-y,z
-x,y,z
x,-y,z
1/2+x,1/2+y,1/2+z
1/2-x,1/2-y,1/2+z
1/2-x,1/2+y,1/2+z
1/2+x,1/2-y,1/2+z
loop_
_atom_site_type_symbol
_atom_site_label
_atom_site_fract_x
_atom_site_fract_y
_atom_site_fract_z
Si Si1 0.820326 0.883051 0.220900
Si Si2 0.322147 0.230682 0.571113
Si Si3 0.821472 0.244583 0.221576
Si Si4 0.177730 0.164356 0.455857
Si Si5 0.320408 0.436714 0.862345
Si Si6 0.822357 0.064986 0.077331
Si Si7 0.179239 0.662975 0.498115
Si Si8 0.322250 0.227610 0.868280
O O1 0.755738 0.819231 0.218330
O O2 0.755782 0.914434 0.289045
O O3 0.763342 0.916435 0.153020
O O4 0.000000 0.883125 0.223082
O O5 0.500000 0.236744 0.560643
O O6 0.279073 0.221083 0.651984
O O7 0.260752 0.176673 0.528581
O O8 0.246587 0.289426 0.548398
O O9 0.754853 0.276556 0.290061
O O10 0.000000 0.239448 0.228691
O O11 0.232125 0.104023 0.425254
O O12 0.226289 0.212194 0.400800
O O13 0.000000 0.165723 0.469872
O O14 0.500000 0.436376 0.858493
O O15 0.258439 0.500000 0.876665
O O16 0.740881 0.101417 0.017954
O O17 0.000000 0.075066 0.071230
O O18 0.778052 0.000000 0.064646
O O19 0.232266 0.676845 0.418893
O O20 0.000000 0.664921 0.504925
O O21 0.500000 0.225253 0.863272
#
# Coordination Sequence:
#
# PCOD8188083 Si02
#       8
#     8   8   8   8   8   8   8   8
#     4   9  14  23  39  63  91 116 148 184 211 241
#     4  10  18  28  45  65  87 113 145 181 219 264
#     4   9  14  23  42  64  85 111 142 179 217 254
#     4   9  16  27  42  62  89 115 141 177 219 261
#     4   9  15  23  40  65  89 116 152 188 215 245
#     4  10  19  30  45  65  90 120 152 182 211 249
#     4  10  19  30  45  64  88 116 145 181 221 260
#     4   8  14  25  41  61  83 109 141 177 219 255
#
# _framework density 15.875342
#
# number of rings (size 3 to 8) (size 9 to 14) (size 15 to 20)
#    0.000    2.750    2.500    1.875    0.000    1.750 
#    0.000    0.000    0.000   11.625    0.000    0.875 
#    0.000    5.000    0.000    0.000    0.000    0.000 
#
# Total GULP energy -396576.538337 kJ/mol
# GULP energy per Si atom -12393.016823 kJ/mol
# Density = 1.583921 g / cm^3
# Si number density = 15.875342 Si / 1000 Ang^3
#
#
#
# Elastic Constant Matrix: (Units=GPa)
#
#
# Indices 1 2 3 4 5 6 
#
# 1 26.7620 24.2442 32.8919 0.0000 0.0000 0.0000
# 2 24.2442 108.0941 80.9157 0.0000 0.0000 0.0000
# 3 32.8919 80.9157 150.4053 0.0000 0.0000 0.0000
# 4 0.0000 0.0000 0.0000 27.5339 0.0000 0.0000
# 5 0.0000 0.0000 0.0000 0.0000 18.3567 0.0000
# 6 0.0000 0.0000 0.0000 0.0000 0.0000 17.1009
#
#
#
# Elastic Compliance Matrix: (Units=1/GPa)
#
#
# Indices 1 2 3 4 5 6 
#
# 1 0.052897 -0.005366 -0.008681 0.000000 0.000000 0.000000
# 2 -0.005366 0.016033 -0.007452 0.000000 0.000000 0.000000
# 3 -0.008681 -0.007452 0.012556 0.000000 0.000000 0.000000
# 4 0.000000 0.000000 0.000000 0.036319 0.000000 0.000000
# 5 0.000000 0.000000 0.000000 0.000000 0.054476 0.000000
# 6 0.000000 0.000000 0.000000 0.000000 0.000000 0.058476
#
#
# Mechanical properties :
#
#
# Convention : Reuss Voigt Hill
#
# Bulk Modulus (GPa) = 25.98194 62.37390 44.17792
# Shear Modulus (GPa) = 17.44680 22.41227 19.92954
#
# Velocity S-wave (km/s) = 3.31869 3.76142 3.54697
# Velocity P-wave (km/s) = 5.57555 7.63148 6.68305
#
# Compressibility (1/GPa) = 0.03848827
#
# Stress axis : x y z
#
# Youngs Moduli (GPa) = 18.90465 62.37104 79.64087
#
# Poissons Ratio (x) = 0.33466 0.69139
# Poissons Ratio (y) = 0.10143 0.59350
# Poissons Ratio (z) = 0.16412 0.46480
#
# Static dielectric constant tensor:
#      x y z
#    x 2.640540 0.000000 0.000000 
#    y 0.000000 2.987630 0.000000 
#    z 0.000000 0.000000 3.414040 
# 
# 
# High freq. dielectric constant tensor:
#      x y z
#    x 1.569660 0.000000 0.000000 
#    y 0.000000 1.585410 0.000000 
#    z 0.000000 0.000000 1.612940 
# 
# From -- ./inp_files/23443.got.cif
#   From: 2010.03.12/outbox.cif.g09.slc.cpg/sg44_12_cif.got.tgz:23443.got - 2010.04.14 02:36:11.
