data_PCOD8188276
_publ_section_title
;
Structure prediction by ZEFSAII (Michael W. Deem and Ramdas Pophale) SiO2 
 PCOD8188276
Probable space group: I M M 2
;
_chemical_formula_sum "Si O2"
_cell_formula_units_Z 64
_cell_length_a 8.826756
_cell_length_b 25.023138
_cell_length_c 15.178540
_cell_angle_alpha 90.000000
_cell_angle_beta 90.000000
_cell_angle_gamma 90.000000
_cell_volume 3352.531691
_symmetry_space_group_name_H-M "I M M 2"
_symmetry_group_IT_number 44
_symmetry_cell_setting 'orthorhombic'
loop_
_space_group_symop_operation_xyz
x,y,z
-x,-y,z
-x,y,z
x,-y,z
1/2+x,1/2+y,1/2+z
1/2-x,1/2-y,1/2+z
1/2-x,1/2+y,1/2+z
1/2+x,1/2-y,1/2+z
loop_
_atom_site_type_symbol
_atom_site_label
_atom_site_fract_x
_atom_site_fract_y
_atom_site_fract_z
Si Si1 0.819838 0.939803 0.072410
Si Si2 0.321809 0.357795 0.424741
Si Si3 0.679306 0.388106 0.753489
Si Si4 0.179302 0.852641 0.566722
Si Si5 0.326110 0.779144 0.227267
Si Si6 0.827816 0.734598 0.523969
Si Si7 0.820378 0.940991 0.432724
Si Si8 0.321105 0.832344 0.749699
O O1 0.759118 0.915416 0.164227
O O2 0.000000 0.940412 0.074924
O O3 0.756613 0.000000 0.060715
O O4 0.761800 0.903395 0.991670
O O5 0.500000 0.362022 0.410585
O O6 0.282856 0.299187 0.462294
O O7 0.239402 0.367174 0.331706
O O8 0.500000 0.379190 0.749388
O O9 0.756751 0.331375 0.771804
O O10 0.729010 0.425553 0.834222
O O11 0.220840 0.796650 0.519771
O O12 0.243350 0.899596 0.504728
O O13 0.258553 0.858691 0.660757
O O14 0.000000 0.855213 0.582939
O O15 0.500000 0.771493 0.255174
O O16 0.309317 0.786080 0.122993
O O17 0.234711 0.728227 0.261817
O O18 0.000000 0.726941 0.490700
O O19 0.000000 0.940374 0.438670
O O20 0.756135 0.000000 0.453722
O O21 0.500000 0.833532 0.747552
#
# Coordination Sequence:
#
# PCOD8188276 Si02
#       8
#     8   8   8   8   8   8   8   8
#     4   9  18  33  54  82 116 150 188 232 273 323
#     4  11  21  34  55  84 114 147 189 233 279 332
#     4  10  18  31  55  87 117 150 188 225 273 331
#     4   9  19  37  57  81 113 148 187 234 284 331
#     4  10  20  35  54  81 116 150 184 225 275 330
#     4   9  18  32  51  77 112 148 180 224 277 332
#     4   9  18  33  57  87 115 146 189 236 279 327
#     4  11  23  38  57  79 109 148 190 236 289 340
#
# _framework density 19.090052
#
# number of rings (size 3 to 8) (size 9 to 14) (size 15 to 20)
#    0.000    2.250    1.250    3.000    1.750    3.500 
#    0.000    1.250    0.000    9.375    0.000    0.000 
#    0.000    0.000    0.000    0.000    0.000    0.000 
#
# Total GULP energy -396845.343750 kJ/mol
# GULP energy per Si atom -12401.416992 kJ/mol
# Density = 1.904660 g / cm^3
# Si number density = 19.090052 Si / 1000 Ang^3
#
#
#
# Elastic Constant Matrix: (Units=GPa)
#
#
# Indices 1 2 3 4 5 6 
#
# 1 64.1760 28.9552 40.6806 0.0000 -0.0001 0.0000
# 2 28.9552 138.0591 78.0815 0.0000 0.0000 0.0000
# 3 40.6806 78.0815 129.7475 0.0000 -0.0001 -0.0001
# 4 0.0000 0.0000 0.0000 30.9167 0.0000 0.0000
# 5 -0.0001 0.0000 -0.0001 0.0000 23.8785 0.0000
# 6 0.0000 0.0000 -0.0001 0.0000 0.0000 20.2672
#
#
#
# Elastic Compliance Matrix: (Units=1/GPa)
#
#
# Indices 1 2 3 4 5 6 
#
# 1 0.019531 -0.000959 -0.005546 0.000000 0.000000 0.000000
# 2 -0.000959 0.011028 -0.006336 0.000000 0.000000 0.000000
# 3 -0.005546 -0.006336 0.013259 0.000000 0.000000 0.000000
# 4 0.000000 0.000000 0.000000 0.032345 0.000000 0.000000
# 5 0.000000 0.000000 0.000000 0.000000 0.041879 0.000000
# 6 0.000000 0.000000 0.000000 0.000000 0.000000 0.049341
#
#
# Mechanical properties :
#
#
# Convention : Reuss Voigt Hill
#
# Bulk Modulus (GPa) = 55.14240 69.71302 62.42771
# Shear Modulus (GPa) = 25.11182 27.29682 26.20432
#
# Velocity S-wave (km/s) = 3.63083 3.78550 3.70897
# Velocity P-wave (km/s) = 6.82095 7.46351 7.14945
#
# Compressibility (1/GPa) = 0.01813487
#
# Stress axis : x y z
#
# Youngs Moduli (GPa) = 51.20141 90.68078 75.42080
#
# Poissons Ratio (x) = 0.08700 0.41830
# Poissons Ratio (y) = 0.04913 0.47784
# Poissons Ratio (z) = 0.28397 0.57452
#
# Static dielectric constant tensor:
#      x y z
#    x 3.184920 0.000000 0.000000 
#    y 0.000000 3.604290 0.000000 
#    z 0.000000 0.000000 3.578520 
# 
# 
# High freq. dielectric constant tensor:
#      x y z
#    x 1.713790 0.000000 0.000000 
#    y 0.000000 1.736400 0.000000 
#    z 0.000000 0.000000 1.747410 
# 
# From -- ./inp_files/16893.got.cif
#   From: 2010.03.12/outbox.cif.g09.slc.cpg/sg44_9_cif.got.tgz:16893.got - 2010.04.14 02:36:11.
