data_PCOD8188259
_publ_section_title
;
Structure prediction by ZEFSAII (Michael W. Deem and Ramdas Pophale) SiO2 
 PCOD8188259
Probable space group: I M M 2
;
_chemical_formula_sum "Si O2"
_cell_formula_units_Z 64
_cell_length_a 9.166500
_cell_length_b 33.076856
_cell_length_c 11.622585
_cell_angle_alpha 90.000000
_cell_angle_beta 90.000000
_cell_angle_gamma 90.000000
_cell_volume 3523.956156
_symmetry_space_group_name_H-M "I M M 2"
_symmetry_group_IT_number 44
_symmetry_cell_setting 'orthorhombic'
loop_
_space_group_symop_operation_xyz
x,y,z
-x,-y,z
-x,y,z
x,-y,z
1/2+x,1/2+y,1/2+z
1/2-x,1/2-y,1/2+z
1/2-x,1/2+y,1/2+z
1/2+x,1/2-y,1/2+z
loop_
_atom_site_type_symbol
_atom_site_label
_atom_site_fract_x
_atom_site_fract_y
_atom_site_fract_z
Si Si1 0.329199 0.767241 0.941240
Si Si2 0.671712 0.954160 0.639409
Si Si3 0.334141 0.826879 0.146528
Si Si4 0.833237 0.170053 0.798849
Si Si5 0.165013 0.888278 0.012742
Si Si6 0.338024 0.954000 0.902042
Si Si7 0.173693 0.875516 0.566167
Si Si8 0.828705 0.685972 0.909245
O O1 0.500000 0.759385 0.921163
O O2 0.266608 0.791411 0.830497
O O3 0.245918 0.725479 0.962200
O O4 0.296720 0.791170 0.058332
O O5 0.500000 0.945392 0.625106
O O6 0.720230 0.950205 0.772018
O O7 0.764875 0.921272 0.569158
O O8 0.706765 0.000000 0.596345
O O9 0.500000 0.840675 0.132492
O O10 0.237973 0.866070 0.120252
O O11 0.299750 0.811739 0.273579
O O12 0.782037 0.149854 0.679887
O O13 0.000000 0.185264 0.790619
O O14 0.814033 0.136622 0.896154
O O15 0.000000 0.895298 0.047091
O O16 0.235851 0.931661 0.992606
O O17 0.500000 0.935228 0.908561
O O18 0.340210 0.000000 0.941894
O O19 0.250068 0.853684 0.458925
O O20 0.000000 0.877174 0.550327
O O21 0.000000 0.685037 0.939286
#
# Coordination Sequence:
#
# PCOD8188259 Si02
#       8
#     8   8   8   8   8   8   8   8
#     4  10  21  37  58  82 105 138 180 226 276 322
#     4   9  18  33  54  81 114 150 187 227 274 333
#     4   9  21  40  57  74 103 142 181 221 268 323
#     4   9  19  34  51  76 110 144 176 216 267 324
#     4  10  18  31  53  79 106 139 176 218 266 316
#     4   9  17  29  48  77 112 146 178 214 262 323
#     4  11  22  36  55  82 116 149 185 229 277 330
#     4  11  24  40  57  79 108 145 186 228 276 329
#
# _framework density 18.161407000000001
#
# number of rings (size 3 to 8) (size 9 to 14) (size 15 to 20)
#    0.000    2.250    1.250    2.250    1.750    3.500 
#    0.000    1.250    0.000    0.750    0.000    5.250 
#    0.000    0.000    0.000    0.000    0.000    0.000 
#
# Total GULP energy -396839.715500 kJ/mol
# GULP energy per Si atom -12401.241109 kJ/mol
# Density = 1.812007 g / cm^3
# Si number density = 18.161407 Si / 1000 Ang^3
#
#
#
# Elastic Constant Matrix: (Units=GPa)
#
#
# Indices 1 2 3 4 5 6 
#
# 1 106.5182 69.0442 41.9333 -0.0001 0.0002 0.0001
# 2 69.0442 119.6440 37.0960 -0.0001 -0.0001 0.0000
# 3 41.9333 37.0960 63.8226 -0.0012 -0.0005 0.0001
# 4 -0.0001 -0.0001 -0.0012 26.0878 -0.0003 0.0001
# 5 0.0002 -0.0001 -0.0005 -0.0003 22.9267 -0.0001
# 6 0.0001 0.0000 0.0001 0.0001 -0.0001 38.3172
#
#
#
# Elastic Compliance Matrix: (Units=1/GPa)
#
#
# Indices 1 2 3 4 5 6 
#
# 1 0.017059 -0.007769 -0.006692 0.000000 0.000000 0.000000
# 2 -0.007769 0.013734 -0.002878 0.000000 0.000000 0.000000
# 3 -0.006692 -0.002878 0.021738 0.000001 0.000000 0.000000
# 4 0.000000 0.000000 0.000001 0.038332 0.000001 0.000000
# 5 0.000000 0.000000 0.000000 0.000001 0.043617 0.000000
# 6 0.000000 0.000000 0.000000 0.000000 0.000000 0.026098
#
#
# Mechanical properties :
#
#
# Convention : Reuss Voigt Hill
#
# Bulk Modulus (GPa) = 56.01692 65.12576 60.57134
# Shear Modulus (GPa) = 24.84997 26.92710 25.88853
#
# Velocity S-wave (km/s) = 3.70305 3.85470 3.77964
# Velocity P-wave (km/s) = 7.01386 7.46652 7.24373
#
# Compressibility (1/GPa) = 0.01785175
#
# Stress axis : x y z
#
# Youngs Moduli (GPa) = 58.62167 72.81237 46.00186
#
# Poissons Ratio (x) = 0.56569 0.30785
# Poissons Ratio (y) = 0.45544 0.13240
# Poissons Ratio (z) = 0.39231 0.20956
#
# Static dielectric constant tensor:
#      x y z
#    x 3.397220 0.000000 0.000000 
#    y 0.000000 3.312140 0.000000 
#    z 0.000000 0.000000 3.153830 
# 
# 
# High freq. dielectric constant tensor:
#      x y z
#    x 1.710460 0.000000 0.000000 
#    y 0.000000 1.703970 0.000000 
#    z 0.000000 0.000000 1.676570 
# 
# From -- ./inp_files/11428.got.cif
#   From: 2010.03.12/outbox.cif.g09.slc.cpg/sg44_6_cif.got.tgz:11428.got - 2010.04.14 02:36:11.
