data_PCOD8188355
_publ_section_title
;
Structure prediction by ZEFSAII (Michael W. Deem and Ramdas Pophale) SiO2 
 PCOD8188355
Probable space group: I M M 2
;
_chemical_formula_sum "Si O2"
_cell_formula_units_Z 64
_cell_length_a 15.428412
_cell_length_b 8.853739
_cell_length_c 23.956352
_cell_angle_alpha 90.000000
_cell_angle_beta 90.000000
_cell_angle_gamma 90.000000
_cell_volume 3272.416914
_symmetry_space_group_name_H-M "I M M 2"
_symmetry_group_IT_number 44
_symmetry_cell_setting 'orthorhombic'
loop_
_space_group_symop_operation_xyz
x,y,z
-x,-y,z
-x,y,z
x,-y,z
1/2+x,1/2+y,1/2+z
1/2-x,1/2-y,1/2+z
1/2-x,1/2+y,1/2+z
1/2+x,1/2-y,1/2+z
loop_
_atom_site_type_symbol
_atom_site_label
_atom_site_fract_x
_atom_site_fract_y
_atom_site_fract_z
Si Si1 0.251407 0.821654 0.018380
Si Si2 0.668710 0.826431 0.335124
Si Si3 0.597289 0.326831 0.949312
Si Si4 0.597743 0.325908 0.724851
Si Si5 0.850749 0.677500 0.338479
Si Si6 0.904638 0.320717 0.717679
Si Si7 0.747958 0.320494 0.643986
Si Si8 0.597619 0.172666 0.454203
O O1 0.245031 0.756993 0.081248
O O2 0.260957 0.000000 0.017911
O O3 0.336853 0.755335 0.990363
O O4 0.164284 0.779031 0.986097
O O5 0.750849 0.720925 0.344080
O O6 0.618357 0.770062 0.280396
O O7 0.605808 0.807216 0.387721
O O8 0.699565 0.000000 0.328080
O O9 0.500000 0.312675 0.973869
O O10 0.626755 0.500000 0.944069
O O11 0.596592 0.254984 0.888111
O O12 0.500000 0.307041 0.702191
O O13 0.618721 0.500000 0.739289
O O14 0.609232 0.229025 0.780216
O O15 0.662675 0.265033 0.677182
O O16 0.861354 0.500000 0.344418
O O17 0.905640 0.500000 0.714255
O O18 0.833589 0.255166 0.674687
O O19 0.000000 0.256412 0.702315
O O20 0.750429 0.500000 0.643116
O O21 0.500000 0.218787 0.471206
O O22 0.617149 0.000000 0.470955
#
# Coordination Sequence:
#
# PCOD8188355 Si02
#       8
#     8   8   8   8   8   8   8   8
#     4  11  23  38  59  88 120 153 193 248 301 337
#     4  10  18  33  59  85 114 148 186 232 283 349
#     4  11  24  42  63  85 113 155 201 241 289 355
#     4  10  20  37  61  85 112 152 197 235 277 339
#     4  12  23  35  57  89 122 151 183 235 300 353
#     4   9  16  29  55  87 112 139 181 231 279 331
#     4   9  19  35  55  84 116 148 191 237 283 335
#     4  10  21  37  59  87 117 153 196 239 286 346
#
# _framework density 19.557409
#
# number of rings (size 3 to 8) (size 9 to 14) (size 15 to 20)
#    0.000    1.750    2.500    2.625    0.000    5.500 
#    0.000    3.750    0.000    1.125    0.000    0.000 
#    0.000    0.000    0.000    0.000    0.000    0.000 
#
# Total GULP energy -396851.591858 kJ/mol
# GULP energy per Si atom -12401.612246 kJ/mol
# Density = 1.951290 g / cm^3
# Si number density = 19.557409 Si / 1000 Ang^3
#
#
#
# Elastic Constant Matrix: (Units=GPa)
#
#
# Indices 1 2 3 4 5 6 
#
# 1 147.5253 36.6793 61.1953 0.0000 0.0000 0.0000
# 2 36.6793 72.9190 37.1998 0.0000 0.0000 0.0000
# 3 61.1953 37.1998 145.5112 0.0000 0.0000 0.0000
# 4 0.0000 0.0000 0.0000 23.3741 0.0000 0.0000
# 5 0.0000 0.0000 0.0000 0.0000 11.0042 0.0000
# 6 0.0000 0.0000 0.0000 0.0000 0.0000 14.8876
#
#
#
# Elastic Compliance Matrix: (Units=1/GPa)
#
#
# Indices 1 2 3 4 5 6 
#
# 1 0.008710 -0.002889 -0.002924 0.000000 0.000000 0.000000
# 2 -0.002889 0.016729 -0.003062 0.000000 0.000000 0.000000
# 3 -0.002924 -0.003062 0.008885 0.000000 0.000000 0.000000
# 4 0.000000 0.000000 0.000000 0.042782 0.000000 0.000000
# 5 0.000000 0.000000 0.000000 0.000000 0.090874 0.000000
# 6 0.000000 0.000000 0.000000 0.000000 0.000000 0.067170
#
#
# Mechanical properties :
#
#
# Convention : Reuss Voigt Hill
#
# Bulk Modulus (GPa) = 60.33821 70.67825 65.50823
# Shear Modulus (GPa) = 19.34790 25.24526 22.29658
#
# Velocity S-wave (km/s) = 3.14871 3.59671 3.38014
# Velocity P-wave (km/s) = 6.64364 7.31203 6.98583
#
# Compressibility (1/GPa) = 0.01657325
#
# Stress axis : x y z
#
# Youngs Moduli (GPa) = 114.81144 59.77588 112.55086
#
# Poissons Ratio (x) = 0.17271 0.32914
# Poissons Ratio (y) = 0.33173 0.34459
# Poissons Ratio (z) = 0.33575 0.18301
#
# Static dielectric constant tensor:
#      x y z
#    x 3.761590 0.000000 0.000000 
#    y 0.000000 3.268800 0.000000 
#    z 0.000000 0.000000 3.699190 
# 
# 
# High freq. dielectric constant tensor:
#      x y z
#    x 1.777750 0.000000 0.000000 
#    y 0.000000 1.729980 0.000000 
#    z 0.000000 0.000000 1.760670 
# 
# From -- ./inp_files/25092.got.cif
#   From: 2010.03.12/outbox.cif.g09.slc.cpg/sg44_13_cif.got.tgz:25092.got - 2010.04.14 02:36:11.
