data_PCOD8188899
_publ_section_title
;
Structure prediction by ZEFSAII (Michael W. Deem and Ramdas Pophale) SiO2 
 PCOD8188899
Probable space group: I M M 2
;
_chemical_formula_sum "Si O2"
_cell_formula_units_Z 64
_cell_length_a 8.928886
_cell_length_b 24.984405
_cell_length_c 15.182738
_cell_angle_alpha 90.000000
_cell_angle_beta 90.000000
_cell_angle_gamma 90.000000
_cell_volume 3387.009284
_symmetry_space_group_name_H-M "I M M 2"
_symmetry_group_IT_number 44
_symmetry_cell_setting 'orthorhombic'
loop_
_space_group_symop_operation_xyz
x,y,z
-x,-y,z
-x,y,z
x,-y,z
1/2+x,1/2+y,1/2+z
1/2-x,1/2-y,1/2+z
1/2-x,1/2+y,1/2+z
1/2+x,1/2-y,1/2+z
loop_
_atom_site_type_symbol
_atom_site_label
_atom_site_fract_x
_atom_site_fract_y
_atom_site_fract_z
Si Si1 0.671923 0.757929 0.595410
Si Si2 0.323003 0.938413 0.650522
Si Si3 0.327618 0.220146 0.798077
Si Si4 0.174002 0.438912 0.487258
Si Si5 0.675901 0.170554 0.316040
Si Si6 0.176401 0.350375 0.622432
Si Si7 0.324116 0.861311 0.501131
Si Si8 0.177481 0.889090 0.822301
O O1 0.500000 0.745021 0.574386
O O2 0.692435 0.780223 0.693471
O O3 0.761120 0.703373 0.578216
O O4 0.740683 0.804005 0.532967
O O5 0.500000 0.930846 0.665087
O O6 0.264205 0.910247 0.560445
O O7 0.238884 0.912167 0.731559
O O8 0.278087 0.000000 0.642415
O O9 0.500000 0.215981 0.826269
O O10 0.258592 0.274143 0.837148
O O11 0.240288 0.170190 0.839690
O O12 0.199905 0.500000 0.516523
O O13 0.231482 0.401874 0.567852
O O14 0.269911 0.427553 0.400628
O O15 0.000000 0.427911 0.465732
O O16 0.500000 0.182795 0.311410
O O17 0.732706 0.144595 0.224157
O O18 0.714172 0.130487 0.397447
O O19 0.000000 0.346440 0.620369
O O20 0.500000 0.858249 0.516693
O O21 0.000000 0.887400 0.818865
#
# Coordination Sequence:
#
# PCOD8188899 Si02
#       8
#     8   8   8   8   8   8   8   8
#     4   9  17  31  52  76 107 144 177 213 261 319
#     4  10  20  37  59  80 108 148 187 220 261 320
#     4  10  19  34  54  78 110 146 184 217 259 323
#     4  10  22  40  58  76 104 145 187 226 272 326
#     4   9  18  33  54  81 115 145 176 223 273 315
#     4   9  19  35  54  79 108 139 180 227 271 315
#     4   9  17  32  53  80 112 145 179 216 264 319
#     4  12  24  36  54  81 111 141 178 226 279 325
#
# _framework density 18.895726
#
# number of rings (size 3 to 8) (size 9 to 14) (size 15 to 20)
#    0.000    2.250    1.250    1.875    1.750    3.000 
#    0.000    1.250    0.000    3.750    0.000    0.000 
#    0.000    3.000    0.000    0.000    0.000    0.000 
#
# Total GULP energy -396764.814668 kJ/mol
# GULP energy per Si atom -12398.900458 kJ/mol
# Density = 1.885272 g / cm^3
# Si number density = 18.895726 Si / 1000 Ang^3
#
#
#
# Elastic Constant Matrix: (Units=GPa)
#
#
# Indices 1 2 3 4 5 6 
#
# 1 42.5618 27.6356 20.3582 0.0000 0.0000 0.0000
# 2 27.6356 111.7316 51.0312 0.0000 0.0000 0.0000
# 3 20.3582 51.0312 91.8213 0.0000 0.0000 0.0000
# 4 0.0000 0.0000 0.0000 29.4844 0.0000 0.0000
# 5 0.0000 0.0000 0.0000 0.0000 14.7172 0.0000
# 6 0.0000 0.0000 0.0000 0.0000 0.0000 23.9359
#
#
#
# Elastic Compliance Matrix: (Units=1/GPa)
#
#
# Indices 1 2 3 4 5 6 
#
# 1 0.028692 -0.005617 -0.003240 0.000000 0.000000 0.000000
# 2 -0.005617 0.013094 -0.006032 0.000000 0.000000 0.000000
# 3 -0.003240 -0.006032 0.014961 0.000000 0.000000 0.000000
# 4 0.000000 0.000000 0.000000 0.033916 0.000000 0.000000
# 5 0.000000 0.000000 0.000000 0.000000 0.067948 0.000000
# 6 0.000000 0.000000 0.000000 0.000000 0.000000 0.041778
#
#
# Mechanical properties :
#
#
# Convention : Reuss Voigt Hill
#
# Bulk Modulus (GPa) = 37.07783 49.35163 43.21473
# Shear Modulus (GPa) = 20.90670 23.43346 22.17008
#
# Velocity S-wave (km/s) = 3.32990 3.52539 3.42904
# Velocity P-wave (km/s) = 5.86935 6.53802 6.21269
#
# Compressibility (1/GPa) = 0.02697029
#
# Stress axis : x y z
#
# Youngs Moduli (GPa) = 34.85289 76.36897 66.83859
#
# Poissons Ratio (x) = 0.42896 0.21654
# Poissons Ratio (y) = 0.19577 0.40317
# Poissons Ratio (z) = 0.11291 0.46066
#
# Static dielectric constant tensor:
#      x y z
#    x 3.290810 0.000000 0.000000 
#    y 0.000000 3.528960 0.000000 
#    z 0.000000 0.000000 3.674300 
# 
# 
# High freq. dielectric constant tensor:
#      x y z
#    x 1.711920 0.000000 0.000000 
#    y 0.000000 1.726970 0.000000 
#    z 0.000000 0.000000 1.739750 
# 
# From -- ./inp_files/16822.got.cif
#   From: 2010.03.12/outbox.cif.g09.slc.cpg/sg44_9_cif.got.tgz:16822.got - 2010.04.14 02:36:11.
