data_PCOD8188146
_publ_section_title
;
Structure prediction by ZEFSAII (Michael W. Deem and Ramdas Pophale) SiO2 
 PCOD8188146
Probable space group: I M M 2
;
_chemical_formula_sum "Si O2"
_cell_formula_units_Z 64
_cell_length_a 9.335473
_cell_length_b 14.444041
_cell_length_c 28.144268
_cell_angle_alpha 90.000000
_cell_angle_beta 90.000000
_cell_angle_gamma 90.000000
_cell_volume 3795.028113
_symmetry_space_group_name_H-M "I M M 2"
_symmetry_group_IT_number 44
_symmetry_cell_setting 'orthorhombic'
loop_
_space_group_symop_operation_xyz
x,y,z
-x,-y,z
-x,y,z
x,-y,z
1/2+x,1/2+y,1/2+z
1/2-x,1/2-y,1/2+z
1/2-x,1/2+y,1/2+z
1/2+x,1/2-y,1/2+z
loop_
_atom_site_type_symbol
_atom_site_label
_atom_site_fract_x
_atom_site_fract_y
_atom_site_fract_z
Si Si1 0.665607 0.896808 0.408460
Si Si2 0.663044 0.892252 0.944209
Si Si3 0.831211 0.212807 0.594963
Si Si4 0.164018 0.893108 0.501024
Si Si5 0.669451 0.101021 0.050117
Si Si6 0.831849 0.393292 0.176081
Si Si7 0.334488 0.606602 0.271189
Si Si8 0.166147 0.211279 0.863913
O O1 0.500000 0.899420 0.422308
O O2 0.747446 0.862005 0.455215
O O3 0.693598 0.822531 0.366399
O O4 0.717381 0.000000 0.392437
O O5 0.500000 0.857237 0.940009
O O6 0.756720 0.836259 0.907476
O O7 0.673476 0.000000 0.931788
O O8 0.725100 0.873443 0.997239
O O9 0.783339 0.162334 0.546842
O O10 0.789045 0.321023 0.588638
O O11 0.740037 0.172927 0.637787
O O12 0.000000 0.198530 0.605098
O O13 0.000000 0.870003 0.489663
O O14 0.188872 0.000000 0.512730
O O15 0.500000 0.094750 0.045315
O O16 0.729705 0.000000 0.066348
O O17 0.800124 0.500000 0.162735
O O18 0.763207 0.368375 0.226511
O O19 0.000000 0.373156 0.178400
O O20 0.500000 0.626802 0.258258
O O21 0.313936 0.500000 0.286567
O O22 0.278184 0.671906 0.313759
O O23 0.000000 0.186697 0.868827
#
# Coordination Sequence:
#
# PCOD8188146 Si02
#       8
#     8   8   8   8   8   8   8   8
#     4   9  18  31  45  64  94 129 160 191 227 264
#     4   9  17  29  46  69  97 127 156 187 225 269
#     4  10  18  29  49  71  91 121 158 192 227 269
#     4   9  17  28  43  66  94 123 158 195 227 266
#     4   8  15  28  45  67  95 125 158 193 224 259
#     4  10  21  35  50  70  95 119 145 183 231 280
#     4   9  18  33  51  69  90 116 147 185 230 280
#     4  10  19  30  47  70  94 122 156 192 229 269
#
# _framework density 16.864170000000001
#
# number of rings (size 3 to 8) (size 9 to 14) (size 15 to 20)
#    0.000    2.750    0.000    2.625    0.000    4.500 
#    0.000    3.125    0.000    1.875    0.000    3.500 
#    0.000    0.000    0.000    0.000    0.000    0.000 
#
# Total GULP energy -396703.958565 kJ/mol
# GULP energy per Si atom -12396.998705 kJ/mol
# Density = 1.682579 g / cm^3
# Si number density = 16.864170 Si / 1000 Ang^3
#
#
#
# Elastic Constant Matrix: (Units=GPa)
#
#
# Indices 1 2 3 4 5 6 
#
# 1 50.5682 43.3523 48.7797 0.0000 0.0000 0.0000
# 2 43.3523 104.9284 86.3566 0.0000 0.0000 0.0000
# 3 48.7797 86.3566 114.0210 0.0000 0.0000 0.0000
# 4 0.0000 0.0000 0.0000 29.8245 0.0000 0.0000
# 5 0.0000 0.0000 0.0000 0.0000 26.9469 0.0000
# 6 0.0000 0.0000 0.0000 0.0000 0.0000 18.2115
#
#
#
# Elastic Compliance Matrix: (Units=1/GPa)
#
#
# Indices 1 2 3 4 5 6 
#
# 1 0.034891 -0.005657 -0.010643 0.000000 0.000000 0.000000
# 2 -0.005657 0.026218 -0.017437 0.000000 0.000000 0.000000
# 3 -0.010643 -0.017437 0.026530 0.000000 0.000000 0.000000
# 4 0.000000 0.000000 0.000000 0.033529 0.000000 0.000000
# 5 0.000000 0.000000 0.000000 0.000000 0.037110 0.000000
# 6 0.000000 0.000000 0.000000 0.000000 0.000000 0.054910
#
#
# Mechanical properties :
#
#
# Convention : Reuss Voigt Hill
#
# Bulk Modulus (GPa) = 49.58768 69.61052 59.59910
# Shear Modulus (GPa) = 17.39840 21.06518 19.23179
#
# Velocity S-wave (km/s) = 3.21546 3.53811 3.38063
# Velocity P-wave (km/s) = 6.57674 7.61956 7.11728
#
# Compressibility (1/GPa) = 0.02016630
#
# Stress axis : x y z
#
# Youngs Moduli (GPa) = 28.66081 38.14166 37.69372
#
# Poissons Ratio (x) = 0.21575 0.40116
# Poissons Ratio (y) = 0.16212 0.65726
# Poissons Ratio (z) = 0.30503 0.66507
#
# Static dielectric constant tensor:
#      x y z
#    x 3.033760 0.000000 0.000000 
#    y 0.000000 3.533790 0.000000 
#    z 0.000000 0.000000 3.056230 
# 
# 
# High freq. dielectric constant tensor:
#      x y z
#    x 1.634350 0.000000 0.000000 
#    y 0.000000 1.656890 0.000000 
#    z 0.000000 0.000000 1.630110 
# 
# From -- ./inp_files/25122.got.cif
#   From: 2010.03.12/outbox.cif.g09.slc.cpg/sg44_13_cif.got.tgz:25122.got - 2010.04.14 02:36:11.
