data_PCOD8188368
_publ_section_title
;
Structure prediction by ZEFSAII (Michael W. Deem and Ramdas Pophale) SiO2 
 PCOD8188368
Probable space group: I M M 2
;
_chemical_formula_sum "Si O2"
_cell_formula_units_Z 48
_cell_length_a 8.814388
_cell_length_b 10.387418
_cell_length_c 28.096632
_cell_angle_alpha 90.000000
_cell_angle_beta 90.000000
_cell_angle_gamma 90.000000
_cell_volume 2572.492015
_symmetry_space_group_name_H-M "I M M 2"
_symmetry_group_IT_number 44
_symmetry_cell_setting 'orthorhombic'
loop_
_space_group_symop_operation_xyz
x,y,z
-x,-y,z
-x,y,z
x,-y,z
1/2+x,1/2+y,1/2+z
1/2-x,1/2-y,1/2+z
1/2-x,1/2+y,1/2+z
1/2+x,1/2-y,1/2+z
loop_
_atom_site_type_symbol
_atom_site_label
_atom_site_fract_x
_atom_site_fract_y
_atom_site_fract_z
Si Si1 0.680186 0.000000 0.684610
Si Si2 0.178320 0.255123 0.533964
Si Si3 0.180262 0.743590 0.243124
Si Si4 0.677559 0.647910 0.335762
Si Si5 0.319211 0.000000 0.576185
Si Si6 0.819422 0.000000 0.084702
Si Si7 0.174198 0.647120 0.431867
Si Si8 0.680106 0.500000 0.693290
O O1 0.743785 0.125585 0.711542
O O2 0.738680 0.000000 0.630576
O O3 0.500000 0.000000 0.685323
O O4 0.254529 0.373172 0.560750
O O5 0.209646 0.266299 0.477674
O O6 0.000000 0.255318 0.545023
O O7 0.254420 0.124353 0.550464
O O8 0.240079 0.734842 0.296724
O O9 0.000000 0.742109 0.244123
O O10 0.243966 0.874217 0.219931
O O11 0.500000 0.663231 0.329341
O O12 0.730604 0.500000 0.329631
O O13 0.724774 0.697593 0.388029
O O14 0.500000 0.000000 0.573171
O O15 0.763916 0.000000 0.139141
O O16 0.000000 0.000000 0.080289
O O17 0.215280 0.500000 0.444987
O O18 0.000000 0.658795 0.416301
O O19 0.500000 0.500000 0.694718
#
# Coordination Sequence:
#
# PCOD8188368 Si02
#       8
#     4   8   8   8   4   4   8   4
#     4   9  18  33  56  79 104 143 192 231 264 321
#     4  11  22  39  59  86 119 152 191 237 287 342
#     4  10  18  34  57  79 105 144 186 225 269 324
#     4  10  20  33  52  82 113 136 173 231 284 328
#     4  11  23  39  58  85 118 155 196 237 284 337
#     4  11  21  37  62  87 114 151 196 243 284 333
#     4   9  18  35  58  81 107 143 186 226 271 336
#     4   9  20  35  54  81 112 145 188 231 268 323
#
# _framework density 18.658950999999998
#
# number of rings (size 3 to 8) (size 9 to 14) (size 15 to 20)
#    0.000    2.000    1.667    2.500    0.000    4.667 
#    0.000    6.250    0.000    2.000    0.000    0.000 
#    0.000    0.000    0.000    0.000    0.000    0.000 
#
# Total GULP energy -297664.615158 kJ/mol
# GULP energy per Si atom -12402.692298 kJ/mol
# Density = 1.861648 g / cm^3
# Si number density = 18.658951 Si / 1000 Ang^3
#
#
#
# Elastic Constant Matrix: (Units=GPa)
#
#
# Indices 1 2 3 4 5 6 
#
# 1 61.9831 42.1412 46.7230 0.0000 0.0000 0.0000
# 2 42.1412 148.2480 76.4184 0.0000 0.0000 0.0000
# 3 46.7230 76.4184 146.4594 0.0000 0.0000 0.0000
# 4 0.0000 0.0000 0.0000 10.9672 0.0000 0.0000
# 5 0.0000 0.0000 0.0000 0.0000 30.9558 0.0000
# 6 0.0000 0.0000 0.0000 0.0000 0.0000 24.8470
#
#
#
# Elastic Compliance Matrix: (Units=1/GPa)
#
#
# Indices 1 2 3 4 5 6 
#
# 1 0.022642 -0.003711 -0.005287 0.000000 0.000000 0.000000
# 2 -0.003711 0.009835 -0.003948 0.000000 0.000000 0.000000
# 3 -0.005287 -0.003948 0.010574 0.000000 0.000000 0.000000
# 4 0.000000 0.000000 0.000000 0.091181 0.000000 0.000000
# 5 0.000000 0.000000 0.000000 0.000000 0.032304 0.000000
# 6 0.000000 0.000000 0.000000 0.000000 0.000000 0.040246
#
#
# Mechanical properties :
#
#
# Convention : Reuss Voigt Hill
#
# Bulk Modulus (GPa) = 58.27516 76.36175 67.31846
# Shear Modulus (GPa) = 20.97367 26.11452 23.54410
#
# Velocity S-wave (km/s) = 3.35633 3.74514 3.55605
# Velocity P-wave (km/s) = 6.80584 7.72757 7.28130
#
# Compressibility (1/GPa) = 0.01715997
#
# Stress axis : x y z
#
# Youngs Moduli (GPa) = 44.16642 101.67320 94.56823
#
# Poissons Ratio (x) = 0.37730 0.49997
# Poissons Ratio (y) = 0.16390 0.37336
# Poissons Ratio (z) = 0.23350 0.40141
#
# Static dielectric constant tensor:
#      x y z
#    x 3.270520 0.000000 0.000000 
#    y 0.000000 3.339000 0.000000 
#    z 0.000000 0.000000 3.591100 
# 
# 
# High freq. dielectric constant tensor:
#      x y z
#    x 1.711150 0.000000 0.000000 
#    y 0.000000 1.713950 0.000000 
#    z 0.000000 0.000000 1.739830 
# 
# From -- ./inp_files/27061.got.cif
#   From: 2010.03.12/outbox.cif.g09.slc.cpg/sg44_14_cif.got.tgz:27061.got - 2010.04.14 02:36:11.
