data_PCOD8188107
_publ_section_title
;
Structure prediction by ZEFSAII (Michael W. Deem and Ramdas Pophale) SiO2 
 PCOD8188107
Probable space group: I M M 2
;
_chemical_formula_sum "Si O2"
_cell_formula_units_Z 64
_cell_length_a 14.400526
_cell_length_b 9.016423
_cell_length_c 28.080690
_cell_angle_alpha 90.000000
_cell_angle_beta 90.000000
_cell_angle_gamma 90.000000
_cell_volume 3646.031437
_symmetry_space_group_name_H-M "I M M 2"
_symmetry_group_IT_number 44
_symmetry_cell_setting 'orthorhombic'
loop_
_space_group_symop_operation_xyz
x,y,z
-x,-y,z
-x,y,z
x,-y,z
1/2+x,1/2+y,1/2+z
1/2-x,1/2-y,1/2+z
1/2-x,1/2+y,1/2+z
1/2+x,1/2-y,1/2+z
loop_
_atom_site_type_symbol
_atom_site_label
_atom_site_fract_x
_atom_site_fract_y
_atom_site_fract_z
Si Si1 0.102733 0.175598 0.064580
Si Si2 0.107064 0.170068 0.887989
Si Si3 0.607525 0.329820 0.831527
Si Si4 0.895560 0.173557 0.440536
Si Si5 0.223497 0.325088 0.252234
Si Si6 0.106030 0.325483 0.790518
Si Si7 0.224145 0.175409 0.978606
Si Si8 0.608325 0.328106 0.671839
O O1 0.135214 0.216261 0.117879
O O2 0.000000 0.242034 0.054794
O O3 0.096505 0.000000 0.059420
O O4 0.174860 0.240320 0.025998
O O5 0.133132 0.272049 0.843372
O O6 0.166044 0.227085 0.932698
O O7 0.000000 0.187207 0.902410
O O8 0.130426 0.000000 0.874813
O O9 0.500000 0.310523 0.817866
O O10 0.637782 0.500000 0.822841
O O11 0.624708 0.282249 0.885933
O O12 0.668100 0.222653 0.799206
O O13 0.827272 0.259228 0.475902
O O14 0.000000 0.220192 0.454283
O O15 0.881412 0.000000 0.447381
O O16 0.233543 0.500000 0.251347
O O17 0.326368 0.253509 0.252713
O O18 0.170142 0.273231 0.205417
O O19 0.120848 0.500000 0.787789
O O20 0.000000 0.280639 0.778407
O O21 0.230712 0.000000 0.981253
O O22 0.500000 0.296496 0.681361
O O23 0.630436 0.500000 0.682123
#
# Coordination Sequence:
#
# PCOD8188107 Si02
#       8
#     8   8   8   8   8   8   8   8
#     4   8  15  30  52  76 100 126 157 193 234 282
#     4   9  17  29  46  72 106 135 156 187 237 290
#     4   9  18  33  51  70  96 132 171 205 236 279
#     4   9  19  34  48  64  92 131 169 203 239 278
#     4  12  23  32  48  74 102 129 157 197 249 298
#     4  10  21  36  52  69  93 129 171 208 237 275
#     4  10  18  28  48  76 100 125 160 199 237 280
#     4   9  18  34  55  75  97 128 163 197 235 284
#
# _framework density 17.553332000000001
#
# number of rings (size 3 to 8) (size 9 to 14) (size 15 to 20)
#    0.000    2.500    0.000    4.500    0.000    7.500 
#    0.000    1.875    0.000    2.625    0.000    1.750 
#    0.000    0.000    0.000    0.000    0.000    0.000 
#
# Total GULP energy -396814.212235 kJ/mol
# GULP energy per Si atom -12400.444132 kJ/mol
# Density = 1.751338 g / cm^3
# Si number density = 17.553332 Si / 1000 Ang^3
#
#
#
# Elastic Constant Matrix: (Units=GPa)
#
#
# Indices 1 2 3 4 5 6 
#
# 1 113.5109 47.6676 72.4282 0.0000 0.0000 0.0000
# 2 47.6676 69.1230 44.2389 0.0000 0.0000 0.0000
# 3 72.4282 44.2389 96.2272 0.0000 0.0000 0.0000
# 4 0.0000 0.0000 0.0000 21.1907 0.0000 0.0000
# 5 0.0000 0.0000 0.0000 0.0000 29.7858 0.0000
# 6 0.0000 0.0000 0.0000 0.0000 0.0000 27.8536
#
#
#
# Elastic Compliance Matrix: (Units=1/GPa)
#
#
# Indices 1 2 3 4 5 6 
#
# 1 0.018261 -0.005379 -0.011272 0.000000 0.000000 0.000000
# 2 -0.005379 0.022083 -0.006104 0.000000 0.000000 0.000000
# 3 -0.011272 -0.006104 0.021682 0.000000 0.000000 0.000000
# 4 0.000000 0.000000 0.000000 0.047190 0.000000 0.000000
# 5 0.000000 0.000000 0.000000 0.000000 0.033573 0.000000
# 6 0.000000 0.000000 0.000000 0.000000 0.000000 0.035902
#
#
# Mechanical properties :
#
#
# Convention : Reuss Voigt Hill
#
# Bulk Modulus (GPa) = 60.54285 67.50337 64.02311
# Shear Modulus (GPa) = 21.76714 23.40111 22.58412
#
# Velocity S-wave (km/s) = 3.52527 3.65518 3.59081
# Velocity P-wave (km/s) = 7.15092 7.50690 7.33107
#
# Compressibility (1/GPa) = 0.01651723
#
# Stress axis : x y z
#
# Youngs Moduli (GPa) = 54.76293 45.28470 46.12127
#
# Poissons Ratio (x) = 0.24357 0.51986
# Poissons Ratio (y) = 0.29456 0.28151
# Poissons Ratio (z) = 0.61726 0.27640
#
# Static dielectric constant tensor:
#      x y z
#    x 3.411840 0.000000 0.000000 
#    y 0.000000 3.024380 0.000000 
#    z 0.000000 0.000000 3.256210 
# 
# 
# High freq. dielectric constant tensor:
#      x y z
#    x 1.683160 0.000000 0.000000 
#    y 0.000000 1.661020 0.000000 
#    z 0.000000 0.000000 1.661350 
# 
# From -- ./inp_files/27530.got.cif
#   From: 2010.03.12/outbox.cif.g09.slc.cpg/sg44_14_cif.got.tgz:27530.got - 2010.04.14 02:36:11.
