data_PCOD8188305
_publ_section_title
;
Structure prediction by ZEFSAII (Michael W. Deem and Ramdas Pophale) SiO2 
 PCOD8188305
Probable space group: I M M 2
;
_chemical_formula_sum "Si O2"
_cell_formula_units_Z 56
_cell_length_a 16.910224
_cell_length_b 9.585945
_cell_length_c 20.016805
_cell_angle_alpha 90.000000
_cell_angle_beta 90.000000
_cell_angle_gamma 90.000000
_cell_volume 3244.733643
_symmetry_space_group_name_H-M "I M M 2"
_symmetry_group_IT_number 44
_symmetry_cell_setting 'orthorhombic'
loop_
_space_group_symop_operation_xyz
x,y,z
-x,-y,z
-x,y,z
x,-y,z
1/2+x,1/2+y,1/2+z
1/2-x,1/2-y,1/2+z
1/2-x,1/2+y,1/2+z
1/2+x,1/2-y,1/2+z
loop_
_atom_site_type_symbol
_atom_site_label
_atom_site_fract_x
_atom_site_fract_y
_atom_site_fract_z
Si Si1 0.414265 0.155818 0.552960
Si Si2 0.000000 0.338966 0.447690
Si Si3 0.500000 0.331868 0.085673
Si Si4 0.169788 0.340852 0.399993
Si Si5 0.910662 0.158401 0.179914
Si Si6 0.249053 0.157725 0.510004
Si Si7 0.835399 0.162812 0.644194
Si Si8 0.284888 0.836211 0.753079
O O1 0.500000 0.169119 0.516842
O O2 0.406312 0.275443 0.607095
O O3 0.343480 0.175196 0.500235
O O4 0.406034 0.000000 0.585488
O O5 0.000000 0.239276 0.512720
O O6 0.924296 0.308921 0.400061
O O7 0.000000 0.500000 0.472440
O O8 0.500000 0.500000 0.075238
O O9 0.576838 0.278081 0.127689
O O10 0.184861 0.500000 0.418465
O O11 0.206666 0.252645 0.458046
O O12 0.216603 0.304613 0.331925
O O13 0.859548 0.249512 0.229470
O O14 0.000000 0.161192 0.207102
O O15 0.878726 0.000000 0.176054
O O16 0.225019 0.203569 0.585004
O O17 0.221007 0.000000 0.497084
O O18 0.795251 0.215136 0.714184
O O19 0.846240 0.000000 0.650316
O O20 0.299648 0.000000 0.739116
#
# Coordination Sequence:
#
# PCOD8188305 Si02
#       8
#     8   4   4   8   8   8   8   8
#     4   9  17  31  52  75  97 129 171 209 247 298
#     4  10  20  34  48  76 110 137 172 208 257 322
#     4  10  18  32  56  80 102 131 168 220 271 302
#     4  10  22  35  51  74 106 141 171 212 265 318
#     4  10  20  31  45  73 107 132 159 201 252 300
#     4  10  18  32  54  78 102 130 171 217 259 310
#     4   9  17  31  53  80 100 126 173 219 257 303
#     4  10  20  36  54  72 100 139 181 214 249 311
#
# _framework density 17.258735999999999
#
# number of rings (size 3 to 8) (size 9 to 14) (size 15 to 20)
#    0.000    2.286    2.857    0.429    1.000    2.000 
#    0.000    0.714    1.571    0.000    0.000    0.000 
#    0.000    0.000    0.000    0.000    0.000    0.000 
#
# Total GULP energy -346932.866943 kJ/mol
# GULP energy per Si atom -12390.459534 kJ/mol
# Density = 1.721945 g / cm^3
# Si number density = 17.258736 Si / 1000 Ang^3
#
#
#
# Elastic Constant Matrix: (Units=GPa)
#
#
# Indices 1 2 3 4 5 6 
#
# 1 105.5129 14.7968 41.2844 0.0000 0.0000 0.0000
# 2 14.7968 28.2881 19.8699 0.0000 0.0000 0.0000
# 3 41.2844 19.8699 81.5517 0.0000 0.0000 0.0000
# 4 0.0000 0.0000 0.0000 14.2379 0.0000 0.0000
# 5 0.0000 0.0000 0.0000 0.0000 28.5400 0.0000
# 6 0.0000 0.0000 0.0000 0.0000 0.0000 20.5712
#
#
#
# Elastic Compliance Matrix: (Units=1/GPa)
#
#
# Indices 1 2 3 4 5 6 
#
# 1 0.011954 -0.002416 -0.005463 0.000000 0.000000 0.000000
# 2 -0.002416 0.043138 -0.009288 0.000000 0.000000 0.000000
# 3 -0.005463 -0.009288 0.017291 0.000000 0.000000 0.000000
# 4 0.000000 0.000000 0.000000 0.070235 0.000000 0.000000
# 5 0.000000 0.000000 0.000000 0.000000 0.035039 0.000000
# 6 0.000000 0.000000 0.000000 0.000000 0.000000 0.048612
#
#
# Mechanical properties :
#
#
# Convention : Reuss Voigt Hill
#
# Bulk Modulus (GPa) = 26.28110 40.80608 33.54359
# Shear Modulus (GPa) = 18.29606 21.96326 20.12966
#
# Velocity S-wave (km/s) = 3.25946 3.57121 3.41889
# Velocity P-wave (km/s) = 5.42459 6.37963 5.92140
#
# Compressibility (1/GPa) = 0.03805015
#
# Stress axis : x y z
#
# Youngs Moduli (GPa) = 83.65583 23.18151 57.83505
#
# Poissons Ratio (x) = 0.05600 0.31595
# Poissons Ratio (y) = 0.20207 0.53715
# Poissons Ratio (z) = 0.45700 0.21530
#
# Static dielectric constant tensor:
#      x y z
#    x 3.815940 0.000000 0.000000 
#    y 0.000000 3.180810 0.000000 
#    z 0.000000 0.000000 3.082600 
# 
# 
# High freq. dielectric constant tensor:
#      x y z
#    x 1.677660 0.000000 0.000000 
#    y 0.000000 1.655800 0.000000 
#    z 0.000000 0.000000 1.634280 
# 
# From -- ./inp_files/24162.got.cif
#   From: 2010.03.12/outbox.cif.g09.slc.cpg/sg44_13_cif.got.tgz:24162.got - 2010.04.14 02:36:11.
