data_PCOD8188698
_publ_section_title
;
Structure prediction by ZEFSAII (Michael W. Deem and Ramdas Pophale) SiO2 
 PCOD8188698
Probable space group: I M M 2
;
_chemical_formula_sum "Si O2"
_cell_formula_units_Z 64
_cell_length_a 16.070809
_cell_length_b 8.836117
_cell_length_c 23.234432
_cell_angle_alpha 90.000000
_cell_angle_beta 90.000000
_cell_angle_gamma 90.000000
_cell_volume 3299.371794
_symmetry_space_group_name_H-M "I M M 2"
_symmetry_group_IT_number 44
_symmetry_cell_setting 'orthorhombic'
loop_
_space_group_symop_operation_xyz
x,y,z
-x,-y,z
-x,y,z
x,-y,z
1/2+x,1/2+y,1/2+z
1/2-x,1/2-y,1/2+z
1/2-x,1/2+y,1/2+z
1/2+x,1/2-y,1/2+z
loop_
_atom_site_type_symbol
_atom_site_label
_atom_site_fract_x
_atom_site_fract_y
_atom_site_fract_z
Si Si1 0.904208 0.664491 0.233190
Si Si2 0.759080 0.680049 0.434600
Si Si3 0.265228 0.680142 0.054073
Si Si4 0.911906 0.823009 0.887521
Si Si5 0.593160 0.320367 0.142177
Si Si6 0.653210 0.323326 0.266098
Si Si7 0.191431 0.824382 0.321163
Si Si8 0.406392 0.179803 0.606610
O O1 0.860121 0.500000 0.244840
O O2 0.889773 0.785014 0.284027
O O3 0.878124 0.730196 0.170696
O O4 0.000000 0.632042 0.229095
O O5 0.761960 0.500000 0.438719
O O6 0.792892 0.752850 0.492855
O O7 0.666046 0.746389 0.421825
O O8 0.814828 0.733384 0.381010
O O9 0.267024 0.500000 0.052007
O O10 0.334677 0.740682 0.099341
O O11 0.170556 0.738892 0.067121
O O12 0.908415 0.791648 0.819222
O O13 0.000000 0.753823 0.909808
O O14 0.910340 0.000000 0.899195
O O15 0.500000 0.261631 0.124901
O O16 0.593197 0.500000 0.140829
O O17 0.612677 0.264200 0.206965
O O18 0.675769 0.500000 0.262003
O O19 0.736225 0.230036 0.278377
O O20 0.198543 0.000000 0.335472
O O21 0.500000 0.243403 0.589683
O O22 0.410763 0.000000 0.603791
#
# Coordination Sequence:
#
# PCOD8188698 Si02
#       8
#     8   8   8   8   8   8   8   8
#     4   9  17  32  55  80 105 134 169 206 247 304
#     4  10  21  36  52  69  94 132 177 217 254 305
#     4  10  19  32  51  74 102 135 171 214 259 299
#     4   8  14  26  47  74  98 120 153 201 251 298
#     4   9  17  30  52  80 104 131 172 217 258 304
#     4   9  16  29  52  78 103 131 162 198 246 309
#     4  11  21  33  51  75 104 134 166 209 260 308
#     4   8  15  29  51  79 108 137 167 198 241 306
#
# _framework density 19.397632999999999
#
# number of rings (size 3 to 8) (size 9 to 14) (size 15 to 20)
#    0.000    2.750    0.000    4.125    0.000    4.250 
#    0.000    3.125    0.000   16.500    0.000    0.000 
#    0.000    0.000    0.000    0.000    0.000    0.000 
#
# Total GULP energy -396447.846198 kJ/mol
# GULP energy per Si atom -12388.995194 kJ/mol
# Density = 1.935348 g / cm^3
# Si number density = 19.397633 Si / 1000 Ang^3
#
#
#
# Elastic Constant Matrix: (Units=GPa)
#
#
# Indices 1 2 3 4 5 6 
#
# 1 56.5125 13.4417 42.6179 0.0000 0.0000 0.0000
# 2 13.4417 36.2361 19.5755 0.0000 0.0000 0.0000
# 3 42.6179 19.5755 106.9503 0.0000 0.0000 0.0000
# 4 0.0000 0.0000 0.0000 23.9043 0.0000 0.0000
# 5 0.0000 0.0000 0.0000 0.0000 193.5513 0.0000
# 6 0.0000 0.0000 0.0000 0.0000 0.0000 10.1659
#
#
#
# Elastic Compliance Matrix: (Units=1/GPa)
#
#
# Indices 1 2 3 4 5 6 
#
# 1 0.025937 -0.004481 -0.009515 0.000000 0.000000 0.000000
# 2 -0.004481 0.031399 -0.003962 0.000000 0.000000 0.000000
# 3 -0.009515 -0.003962 0.013867 0.000000 0.000000 0.000000
# 4 0.000000 0.000000 0.000000 0.041833 0.000000 0.000000
# 5 0.000000 0.000000 0.000000 0.000000 0.005167 0.000000
# 6 0.000000 0.000000 0.000000 0.000000 0.000000 0.098368
#
#
# Mechanical properties :
#
#
# Convention : Reuss Voigt Hill
#
# Bulk Modulus (GPa) = 28.33870 38.99659 33.66765
# Shear Modulus (GPa) = 18.92156 53.79522 36.35839
#
# Velocity S-wave (km/s) = 3.12662 5.27191 4.33410
# Velocity P-wave (km/s) = 5.26074 7.56339 6.51461
#
# Compressibility (1/GPa) = 0.03528743
#
# Stress axis : x y z
#
# Youngs Moduli (GPa) = 38.55538 31.84807 72.11426
#
# Poissons Ratio (x) = 0.14271 0.68618
# Poissons Ratio (y) = 0.17276 0.28568
# Poissons Ratio (z) = 0.36686 0.12617
#
# Static dielectric constant tensor:
#      x y z
#    x -68.590750 0.000000 0.000000 
#    y 0.000000 3.054460 0.000000 
#    z 0.000000 0.000000 3.641800 
# 
# 
# High freq. dielectric constant tensor:
#      x y z
#    x 1.753450 0.000000 0.000000 
#    y 0.000000 1.703600 0.000000 
#    z 0.000000 0.000000 1.753570 
# 
# From -- ./inp_files/24362.got.cif
#   From: 2010.03.12/outbox.cif.g09.slc.cpg/sg44_13_cif.got.tgz:24362.got - 2010.04.14 02:36:11.
