data_PCOD8188807
_publ_section_title
;
Structure prediction by ZEFSAII (Michael W. Deem and Ramdas Pophale) SiO2 
 PCOD8188807
Probable space group: I M M 2
;
_chemical_formula_sum "Si O2"
_cell_formula_units_Z 64
_cell_length_a 9.076900
_cell_length_b 15.823879
_cell_length_c 23.419093
_cell_angle_alpha 90.000000
_cell_angle_beta 90.000000
_cell_angle_gamma 90.000000
_cell_volume 3363.725716
_symmetry_space_group_name_H-M "I M M 2"
_symmetry_group_IT_number 44
_symmetry_cell_setting 'orthorhombic'
loop_
_space_group_symop_operation_xyz
x,y,z
-x,-y,z
-x,y,z
x,-y,z
1/2+x,1/2+y,1/2+z
1/2-x,1/2-y,1/2+z
1/2-x,1/2+y,1/2+z
1/2+x,1/2-y,1/2+z
loop_
_atom_site_type_symbol
_atom_site_label
_atom_site_fract_x
_atom_site_fract_y
_atom_site_fract_z
Si Si1 0.325910 0.403825 0.582280
Si Si2 0.673747 0.250317 0.393520
Si Si3 0.830824 0.178163 0.286383
Si Si4 0.324225 0.904339 0.607626
Si Si5 0.839276 0.596888 0.693820
Si Si6 0.170109 0.593787 0.350647
Si Si7 0.168099 0.355321 0.230156
Si Si8 0.173545 0.737274 0.021546
O O1 0.500000 0.403493 0.590059
O O2 0.274331 0.500000 0.565324
O O3 0.258825 0.369592 0.641585
O O4 0.272320 0.332937 0.536734
O O5 0.500000 0.246872 0.382234
O O6 0.757560 0.192950 0.347750
O O7 0.728965 0.346875 0.389412
O O8 0.716371 0.216718 0.456286
O O9 0.744757 0.104271 0.254211
O O10 0.812412 0.256666 0.243296
O O11 0.000000 0.153599 0.296352
O O12 0.500000 0.897470 0.608390
O O13 0.255857 0.880939 0.670201
O O14 0.259023 0.836798 0.561821
O O15 0.275471 0.000000 0.591300
O O16 0.866514 0.500000 0.682277
O O17 0.000000 0.642617 0.695733
O O18 0.181785 0.500000 0.376064
O O19 0.230718 0.594508 0.285284
O O20 0.000000 0.626911 0.351111
O O21 0.000000 0.382062 0.223229
O O22 0.000000 0.736335 0.029249
#
# Coordination Sequence:
#
# PCOD8188807 Si02
#       8
#     8   8   8   8   8   8   8   8
#     4   9  17  31  52  75 100 134 173 209 248 301
#     4  10  20  33  48  68  98 133 171 215 256 294
#     4  10  19  33  53  73  96 129 168 207 250 305
#     4   9  15  24  42  68  95 122 153 192 242 296
#     4  10  20  33  50  76 107 131 156 201 261 317
#     4   9  17  30  48  72 101 128 157 198 248 305
#     4   8  14  25  45  72  96 118 148 192 243 292
#     4   9  18  31  46  67  97 133 173 214 250 291
#
# _framework density 19.026522
#
# number of rings (size 3 to 8) (size 9 to 14) (size 15 to 20)
#    0.000    2.750    0.000    3.000    0.000    5.000 
#    0.000    3.125    0.000    3.750    0.000    0.000 
#    0.000   20.500    0.000    0.000    0.000    0.000 
#
# Total GULP energy -396524.669088 kJ/mol
# GULP energy per Si atom -12391.395909 kJ/mol
# Density = 1.898322 g / cm^3
# Si number density = 19.026522 Si / 1000 Ang^3
#
#
#
# Elastic Constant Matrix: (Units=GPa)
#
#
# Indices 1 2 3 4 5 6 
#
# 1 58.6724 12.1338 27.8166 0.0000 0.0000 0.0000
# 2 12.1338 63.7763 43.3495 0.0000 0.0000 0.0000
# 3 27.8166 43.3495 113.0609 0.0000 0.0000 0.0000
# 4 0.0000 0.0000 0.0000 18.5647 0.0000 0.0000
# 5 0.0000 0.0000 0.0000 0.0000 23.6829 0.0000
# 6 0.0000 0.0000 0.0000 0.0000 0.0000 17.4536
#
#
#
# Elastic Compliance Matrix: (Units=1/GPa)
#
#
# Indices 1 2 3 4 5 6 
#
# 1 0.019311 -0.000601 -0.004521 0.000000 0.000000 0.000000
# 2 -0.000601 0.021225 -0.007990 0.000000 0.000000 0.000000
# 3 -0.004521 -0.007990 0.013021 0.000000 0.000000 0.000000
# 4 0.000000 0.000000 0.000000 0.053866 0.000000 0.000000
# 5 0.000000 0.000000 0.000000 0.000000 0.042224 0.000000
# 6 0.000000 0.000000 0.000000 0.000000 0.000000 0.057295
#
#
# Mechanical properties :
#
#
# Convention : Reuss Voigt Hill
#
# Bulk Modulus (GPa) = 36.58599 44.67881 40.63240
# Shear Modulus (GPa) = 20.63748 22.08755 21.36252
#
# Velocity S-wave (km/s) = 3.29700 3.41087 3.35442
# Velocity P-wave (km/s) = 5.81071 6.24863 6.03364
#
# Compressibility (1/GPa) = 0.02733287
#
# Stress axis : x y z
#
# Youngs Moduli (GPa) = 51.78291 47.11376 76.80148
#
# Poissons Ratio (x) = 0.02833 0.34719
# Poissons Ratio (y) = 0.03114 0.61366
# Poissons Ratio (z) = 0.23409 0.37645
#
# Static dielectric constant tensor:
#      x y z
#    x 3.291870 0.000000 0.000000 
#    y 0.000000 3.499460 0.000000 
#    z 0.000000 0.000000 3.545130 
# 
# 
# High freq. dielectric constant tensor:
#      x y z
#    x 1.699590 0.000000 0.000000 
#    y 0.000000 1.730790 0.000000 
#    z 0.000000 0.000000 1.737510 
# 
# From -- ./inp_files/24371.got.cif
#   From: 2010.03.12/outbox.cif.g09.slc.cpg/sg44_13_cif.got.tgz:24371.got - 2010.04.14 02:36:11.
