data_PCOD8188385
_publ_section_title
;
Structure prediction by ZEFSAII (Michael W. Deem and Ramdas Pophale) SiO2 
 PCOD8188385
Probable space group: I M M 2
;
_chemical_formula_sum "Si O2"
_cell_formula_units_Z 48
_cell_length_a 18.374710
_cell_length_b 8.598450
_cell_length_c 15.223770
_cell_angle_alpha 90.000000
_cell_angle_beta 90.000000
_cell_angle_gamma 90.000000
_cell_volume 2405.264701
_symmetry_space_group_name_H-M "I M M 2"
_symmetry_group_IT_number 44
_symmetry_cell_setting 'orthorhombic'
loop_
_space_group_symop_operation_xyz
x,y,z
-x,-y,z
-x,y,z
x,-y,z
1/2+x,1/2+y,1/2+z
1/2-x,1/2-y,1/2+z
1/2-x,1/2+y,1/2+z
1/2+x,1/2-y,1/2+z
loop_
_atom_site_type_symbol
_atom_site_label
_atom_site_fract_x
_atom_site_fract_y
_atom_site_fract_z
Si Si1 0.773530 0.817533 0.453640
Si Si2 0.000000 0.685506 0.055675
Si Si3 0.388454 0.817029 0.696089
Si Si4 0.920108 0.318362 0.386789
Si Si5 0.500000 0.318650 0.367962
Si Si6 0.231614 0.184657 0.652447
Si Si7 0.346224 0.183990 0.312908
O O1 0.856623 0.780122 0.430206
O O2 0.765413 0.751533 0.552547
O O3 0.712994 0.748564 0.384958
O O4 0.761906 0.000000 0.454996
O O5 0.930198 0.743033 0.110505
O O6 0.000000 0.500000 0.034411
O O7 0.000000 0.789094 0.970609
O O8 0.426438 0.764213 0.785733
O O9 0.306189 0.758069 0.696722
O O10 0.391024 0.000000 0.688993
O O11 0.899920 0.500000 0.394334
O O12 0.000000 0.285329 0.429672
O O13 0.500000 0.500000 0.346252
O O14 0.427212 0.243419 0.329470
O O15 0.170618 0.262976 0.713261
O O16 0.220257 0.000000 0.653998
O O17 0.345946 0.000000 0.318568
#
# Coordination Sequence:
#
# PCOD8188385 Si02
#       7
#     8   4   8   8   4   8   8
#     4  10  22  39  61  89 121 158 198 243 301 360
#     4  10  18  34  60  89 120 157 198 241 292 358
#     4   9  16  30  57  86 115 151 192 240 294 351
#     4  10  19  34  58  87 117 154 199 242 288 348
#     4  12  26  42  60  87 120 157 198 247 306 360
#     4  10  20  37  60  86 116 158 203 244 297 358
#     4  11  23  42  65  89 119 158 203 252 298 353
#
# _framework density 19.956222
#
# number of rings (size 3 to 8) (size 9 to 14) (size 15 to 20)
#    0.000    1.833    2.500    2.250    0.000    4.333 
#    1.500    3.333    0.000    0.000    0.000    0.000 
#    0.000    0.000    0.000    0.000    0.000    0.000 
#
# Total GULP energy -297425.188473 kJ/mol
# GULP energy per Si atom -12392.716186 kJ/mol
# Density = 1.991080 g / cm^3
# Si number density = 19.956222 Si / 1000 Ang^3
#
#
#
# Elastic Constant Matrix: (Units=GPa)
#
#
# Indices 1 2 3 4 5 6 
#
# 1 136.2538 22.2976 53.3059 0.0000 0.0000 0.0000
# 2 22.2976 34.1813 27.0189 0.0000 0.0000 0.0000
# 3 53.3059 27.0189 109.9083 0.0000 0.0000 0.0000
# 4 0.0000 0.0000 0.0000 29.3685 0.0000 0.0000
# 5 0.0000 0.0000 0.0000 0.0000 18.8729 0.0000
# 6 0.0000 0.0000 0.0000 0.0000 0.0000 28.4242
#
#
#
# Elastic Compliance Matrix: (Units=1/GPa)
#
#
# Indices 1 2 3 4 5 6 
#
# 1 0.009317 -0.003110 -0.003754 0.000000 0.000000 0.000000
# 2 -0.003110 0.037350 -0.007673 0.000000 0.000000 0.000000
# 3 -0.003754 -0.007673 0.012806 0.000000 0.000000 0.000000
# 4 0.000000 0.000000 0.000000 0.034050 0.000000 0.000000
# 5 0.000000 0.000000 0.000000 0.000000 0.052986 0.000000
# 6 0.000000 0.000000 0.000000 0.000000 0.000000 0.035181
#
#
# Mechanical properties :
#
#
# Convention : Reuss Voigt Hill
#
# Bulk Modulus (GPa) = 32.89777 53.95424 43.42600
# Shear Modulus (GPa) = 22.63488 27.18120 24.90804
#
# Velocity S-wave (km/s) = 3.37148 3.69459 3.53673
# Velocity P-wave (km/s) = 5.62820 6.73015 6.20369
#
# Compressibility (1/GPa) = 0.03039720
#
# Stress axis : x y z
#
# Youngs Moduli (GPa) = 107.33133 26.77366 78.09071
#
# Poissons Ratio (x) = 0.08327 0.29316
# Poissons Ratio (y) = 0.33383 0.59922
# Poissons Ratio (z) = 0.40294 0.20544
#
# Static dielectric constant tensor:
#      x y z
#    x 7.468060 0.000000 0.000000 
#    y 0.000000 3.278980 0.000000 
#    z 0.000000 0.000000 3.876080 
# 
# 
# High freq. dielectric constant tensor:
#      x y z
#    x 1.792640 0.000000 0.000000 
#    y 0.000000 1.744630 0.000000 
#    z 0.000000 0.000000 1.780340 
# 
# From -- ./inp_files/16108.got.cif
#   From: 2010.03.12/outbox.cif.g09.slc.cpg/sg44_9_cif.got.tgz:16108.got - 2010.04.14 02:36:11.
