data_PCOD8188829
_publ_section_title
;
Structure prediction by ZEFSAII (Michael W. Deem and Ramdas Pophale) SiO2 
 PCOD8188829
Probable space group: I M M 2
;
_chemical_formula_sum "Si O2"
_cell_formula_units_Z 48
_cell_length_a 8.941461
_cell_length_b 31.522569
_cell_length_c 9.129704
_cell_angle_alpha 90.000000
_cell_angle_beta 90.000000
_cell_angle_gamma 90.000000
_cell_volume 2573.278479
_symmetry_space_group_name_H-M "I M M 2"
_symmetry_group_IT_number 44
_symmetry_cell_setting 'orthorhombic'
loop_
_space_group_symop_operation_xyz
x,y,z
-x,-y,z
-x,y,z
x,-y,z
1/2+x,1/2+y,1/2+z
1/2-x,1/2-y,1/2+z
1/2-x,1/2+y,1/2+z
1/2+x,1/2-y,1/2+z
loop_
_atom_site_type_symbol
_atom_site_label
_atom_site_fract_x
_atom_site_fract_y
_atom_site_fract_z
Si Si1 0.673804 0.953622 0.031420
Si Si2 0.826611 0.863731 0.709780
Si Si3 0.826905 0.294040 0.709778
Si Si4 0.170826 0.045074 0.728301
Si Si5 0.674403 0.711946 0.015496
Si Si6 0.676710 0.369656 0.542908
O O1 0.500000 0.942853 0.046003
O O2 0.766545 0.915251 0.104599
O O3 0.709217 0.000000 0.103896
O O4 0.715674 0.956452 0.861548
O O5 0.797197 0.911094 0.639668
O O6 0.755203 0.828041 0.605492
O O7 0.000000 0.852481 0.718497
O O8 0.763442 0.862276 0.876349
O O9 0.798086 0.253771 0.608727
O O10 0.738175 0.333801 0.648092
O O11 0.000000 0.305930 0.718394
O O12 0.767761 0.282495 0.869194
O O13 0.000000 0.048491 0.788855
O O14 0.189032 0.000000 0.638911
O O15 0.500000 0.705142 0.977990
O O16 0.500000 0.369163 0.550119
#
# Coordination Sequence:
#
# PCOD8188829 Si02
#       6
#     8   8   8   8   8   8
#     4   9  16  26  43  71 106 138 169 210 256 299
#     4   8  15  29  50  75 101 131 169 211 254 302
#     4  11  23  37  54  77 103 131 170 216 260 310
#     4   8  13  23  42  69 100 134 172 212 252 296
#     4  10  21  37  55  74 100 134 169 209 259 312
#     4  10  19  33  54  77 104 138 175 214 257 306
#
# _framework density 18.653247
#
# number of rings (size 3 to 8) (size 9 to 14) (size 15 to 20)
#    0.000    2.667    0.000    3.500    0.000    3.667 
#    0.000    4.167    0.000    1.000    0.000    2.333 
#    0.000    0.000    0.000    0.000    0.000    0.000 
#
# Total GULP energy -297327.120428 kJ/mol
# GULP energy per Si atom -12388.630018 kJ/mol
# Density = 1.861079 g / cm^3
# Si number density = 18.653247 Si / 1000 Ang^3
#
#
#
# Elastic Constant Matrix: (Units=GPa)
#
#
# Indices 1 2 3 4 5 6 
#
# 1 72.0658 57.8975 33.5601 -0.0013 -0.0003 -0.0002
# 2 57.8975 157.0491 40.6071 -0.0045 0.0002 0.0002
# 3 33.5601 40.6071 65.2815 -0.0067 0.0006 -0.0001
# 4 -0.0013 -0.0045 -0.0067 26.0247 0.0005 0.0001
# 5 -0.0003 0.0002 0.0006 0.0005 19.4128 -0.0017
# 6 -0.0002 0.0002 -0.0001 0.0001 -0.0017 22.9652
#
#
#
# Elastic Compliance Matrix: (Units=1/GPa)
#
#
# Indices 1 2 3 4 5 6 
#
# 1 0.022516 -0.006325 -0.007641 -0.000002 0.000001 0.000000
# 2 -0.006325 0.009365 -0.002573 0.000001 0.000000 0.000000
# 3 -0.007641 -0.002573 0.020847 0.000005 -0.000001 0.000000
# 4 -0.000002 0.000001 0.000005 0.038425 -0.000001 0.000000
# 5 0.000001 0.000000 -0.000001 -0.000001 0.051512 0.000004
# 6 0.000000 0.000000 0.000000 0.000000 0.000004 0.043544
#
#
# Mechanical properties :
#
#
# Convention : Reuss Voigt Hill
#
# Bulk Modulus (GPa) = 50.89288 62.05842 56.47565
# Shear Modulus (GPa) = 22.13983 24.50265 23.32124
#
# Velocity S-wave (km/s) = 3.44890 3.62828 3.53973
# Velocity P-wave (km/s) = 6.57288 7.13402 6.85919
#
# Compressibility (1/GPa) = 0.01964911
#
# Stress axis : x y z
#
# Youngs Moduli (GPa) = 44.41299 106.78459 47.96860
#
# Poissons Ratio (x) = 0.67542 0.36651
# Poissons Ratio (y) = 0.28092 0.12345
# Poissons Ratio (z) = 0.33934 0.27481
#
# Static dielectric constant tensor:
#      x y z
#    x 3.304230 0.000000 0.000000 
#    y 0.000000 4.079980 0.000000 
#    z 0.000000 0.000000 3.033730 
# 
# 
# High freq. dielectric constant tensor:
#      x y z
#    x 1.712120 0.000000 0.000000 
#    y 0.000000 1.758960 0.000000 
#    z 0.000000 0.000000 1.667350 
# 
# From -- ./inp_files/4935.got.cif
#   From: 2010.03.12/outbox.cif.g09.slc.cpg/sg44_3_cif.got.tgz:4935.got - 2010.04.14 02:36:11.
