data_PCOD8188579
_publ_section_title
;
Structure prediction by ZEFSAII (Michael W. Deem and Ramdas Pophale) SiO2 
 PCOD8188579
Probable space group: I M M 2
;
_chemical_formula_sum "Si O2"
_cell_formula_units_Z 64
_cell_length_a 19.776146
_cell_length_b 8.877571
_cell_length_c 20.943165
_cell_angle_alpha 90.000000
_cell_angle_beta 90.000000
_cell_angle_gamma 90.000000
_cell_volume 3676.868757
_symmetry_space_group_name_H-M "I M M 2"
_symmetry_group_IT_number 44
_symmetry_cell_setting 'orthorhombic'
loop_
_space_group_symop_operation_xyz
x,y,z
-x,-y,z
-x,y,z
x,-y,z
1/2+x,1/2+y,1/2+z
1/2-x,1/2-y,1/2+z
1/2-x,1/2+y,1/2+z
1/2+x,1/2-y,1/2+z
loop_
_atom_site_type_symbol
_atom_site_label
_atom_site_fract_x
_atom_site_fract_y
_atom_site_fract_z
Si Si1 0.203183 0.821667 0.656510
Si Si2 0.285564 0.820625 0.535054
Si Si3 0.076799 0.324389 0.601456
Si Si4 0.288838 0.676163 0.909472
Si Si5 0.073544 0.679052 0.990865
Si Si6 0.573803 0.178599 0.347190
Si Si7 0.289343 0.179210 0.287063
Si Si8 0.424844 0.673327 0.967944
O O1 0.248996 0.758344 0.598340
O O2 0.126375 0.765189 0.648252
O O3 0.234296 0.755646 0.721542
O O4 0.204144 0.000000 0.659448
O O5 0.248351 0.755740 0.471904
O O6 0.363952 0.764465 0.534564
O O7 0.281005 0.000000 0.535020
O O8 0.092296 0.500000 0.608146
O O9 0.089326 0.276475 0.528698
O O10 0.000000 0.286793 0.621919
O O11 0.273615 0.500000 0.908528
O O12 0.259379 0.741938 0.843470
O O13 0.369236 0.711633 0.913882
O O14 0.073920 0.500000 0.989103
O O15 0.084467 0.740364 0.918991
O O16 0.000000 0.735450 0.017103
O O17 0.500000 0.231762 0.321039
O O18 0.634212 0.235824 0.302138
O O19 0.576616 0.000000 0.349675
O O20 0.284829 0.000000 0.279822
O O21 0.500000 0.702799 0.939754
O O22 0.416660 0.500000 0.990300
#
# Coordination Sequence:
#
# PCOD8188579 Si02
#       8
#     8   8   8   8   8   8   8   8
#     4  11  22  34  48  67  98 134 166 201 244 294
#     4   9  15  26  45  68  92 122 159 199 240 282
#     4  10  20  33  49  71  99 129 163 202 244 292
#     4   9  15  27  48  71  92 123 163 203 243 283
#     4   8  12  20  39  68  95 115 144 190 239 281
#     4   8  13  22  39  65  92 114 139 178 227 274
#     4  10  19  31  48  68  95 127 160 198 240 286
#     4   9  16  28  49  75  99 125 161 203 249 297
#
# _framework density 17.406113999999999
#
# number of rings (size 3 to 8) (size 9 to 14) (size 15 to 20)
#    0.000    2.750    2.500    1.500    0.000    1.250 
#    0.000    1.875    0.000    0.750    0.000    0.000 
#    0.000    1.500    0.000    0.000    0.000    0.000 
#
# Total GULP energy -396557.402163 kJ/mol
# GULP energy per Si atom -12392.418818 kJ/mol
# Density = 1.736650 g / cm^3
# Si number density = 17.406114 Si / 1000 Ang^3
#
#
#
# Elastic Constant Matrix: (Units=GPa)
#
#
# Indices 1 2 3 4 5 6 
#
# 1 127.3784 19.1770 70.8354 0.0000 0.0000 0.0000
# 2 19.1770 25.6646 23.2491 0.0000 0.0000 0.0000
# 3 70.8354 23.2491 125.2921 0.0000 0.0000 0.0000
# 4 0.0000 0.0000 0.0000 20.4035 0.0000 0.0000
# 5 0.0000 0.0000 0.0000 0.0000 25.8725 0.0000
# 6 0.0000 0.0000 0.0000 0.0000 0.0000 11.0599
#
#
#
# Elastic Compliance Matrix: (Units=1/GPa)
#
#
# Indices 1 2 3 4 5 6 
#
# 1 0.011679 -0.003300 -0.005990 0.000000 0.000000 0.000000
# 2 -0.003300 0.047770 -0.006998 0.000000 0.000000 0.000000
# 3 -0.005990 -0.006998 0.012667 0.000000 0.000000 0.000000
# 4 0.000000 0.000000 0.000000 0.049011 0.000000 0.000000
# 5 0.000000 0.000000 0.000000 0.000000 0.038651 0.000000
# 6 0.000000 0.000000 0.000000 0.000000 0.000000 0.090417
#
#
# Mechanical properties :
#
#
# Convention : Reuss Voigt Hill
#
# Bulk Modulus (GPa) = 25.29237 56.09535 40.69386
# Shear Modulus (GPa) = 16.89468 22.47208 19.68338
#
# Velocity S-wave (km/s) = 3.11885 3.59701 3.36643
# Velocity P-wave (km/s) = 5.24709 7.03908 6.20808
#
# Compressibility (1/GPa) = 0.03953762
#
# Stress axis : x y z
#
# Youngs Moduli (GPa) = 85.62614 20.93375 78.94725
#
# Poissons Ratio (x) = 0.06908 0.47292
# Poissons Ratio (y) = 0.28256 0.55251
# Poissons Ratio (z) = 0.51293 0.14650
#
# Static dielectric constant tensor:
#      x y z
#    x 3.671930 0.000000 0.000000 
#    y 0.000000 2.762460 0.000000 
#    z 0.000000 0.000000 3.167150 
# 
# 
# High freq. dielectric constant tensor:
#      x y z
#    x 1.683740 0.000000 0.000000 
#    y 0.000000 1.620920 0.000000 
#    z 0.000000 0.000000 1.647850 
# 
# From -- ./inp_files/20742.got.cif
#   From: 2010.03.12/outbox.cif.g09.slc.cpg/sg44_11_cif.got.tgz:20742.got - 2010.04.14 02:36:11.
