data_PCOD8188147
_publ_section_title
;
Structure prediction by ZEFSAII (Michael W. Deem and Ramdas Pophale) SiO2 
 PCOD8188147
Probable space group: I M M 2
;
_chemical_formula_sum "Si O2"
_cell_formula_units_Z 64
_cell_length_a 14.384116
_cell_length_b 9.293041
_cell_length_c 28.021849
_cell_angle_alpha 90.000000
_cell_angle_beta 90.000000
_cell_angle_gamma 90.000000
_cell_volume 3745.741636
_symmetry_space_group_name_H-M "I M M 2"
_symmetry_group_IT_number 44
_symmetry_cell_setting 'orthorhombic'
loop_
_space_group_symop_operation_xyz
x,y,z
-x,-y,z
-x,y,z
x,-y,z
1/2+x,1/2+y,1/2+z
1/2-x,1/2-y,1/2+z
1/2-x,1/2+y,1/2+z
1/2+x,1/2-y,1/2+z
loop_
_atom_site_type_symbol
_atom_site_label
_atom_site_fract_x
_atom_site_fract_y
_atom_site_fract_z
Si Si1 0.273491 0.169668 0.649270
Si Si2 0.897789 0.670461 0.506606
Si Si3 0.604072 0.665976 0.465815
Si Si4 0.715218 0.167388 0.915990
Si Si5 0.106754 0.830801 0.335473
Si Si6 0.893328 0.665756 0.239808
Si Si7 0.392759 0.168307 0.112945
Si Si8 0.106642 0.667873 0.059744
O O1 0.328246 0.216119 0.696641
O O2 0.173096 0.245951 0.649444
O O3 0.332407 0.223781 0.603862
O O4 0.258850 0.000000 0.647880
O O5 0.901307 0.500000 0.508931
O O6 0.827976 0.723211 0.465869
O O7 0.868969 0.724773 0.559324
O O8 0.000000 0.730693 0.493600
O O9 0.500000 0.712481 0.449934
O O10 0.607464 0.500000 0.480982
O O11 0.673803 0.692827 0.421330
O O12 0.638741 0.752776 0.511810
O O13 0.676017 0.262391 0.873581
O O14 0.691057 0.000000 0.906450
O O15 0.132224 0.764530 0.284530
O O16 0.000000 0.794418 0.349128
O O17 0.124097 0.000000 0.333411
O O18 0.875124 0.500000 0.253778
O O19 0.000000 0.687627 0.223924
O O20 0.500000 0.201906 0.125400
O O21 0.372297 0.000000 0.118203
O O22 0.121215 0.500000 0.051054
O O23 0.000000 0.704454 0.071736
#
# Coordination Sequence:
#
# PCOD8188147 Si02
#       8
#     8   8   8   8   8   8   8   8
#     4  10  19  30  48  73  97 123 159 200 236 273
#     4   8  14  25  42  65  91 120 158 196 224 263
#     4   9  18  31  46  68  98 129 163 201 233 265
#     4  10  18  29  49  71  92 125 164 196 231 279
#     4  10  21  35  50  72 100 122 145 188 242 288
#     4   9  18  34  54  73  95 124 155 186 227 284
#     4   9  18  32  48  67  95 131 166 198 233 274
#     4   9  17  29  45  68 100 133 160 189 232 284
#
# _framework density 17.086068000000001
#
# number of rings (size 3 to 8) (size 9 to 14) (size 15 to 20)
#    0.000    2.750    0.000    2.625    0.000    5.500 
#    0.000    0.625    0.000    5.250    0.000    1.750 
#    0.000    0.000    0.000    0.000    0.000    0.000 
#
# Total GULP energy -396745.921094 kJ/mol
# GULP energy per Si atom -12398.310034 kJ/mol
# Density = 1.704718 g / cm^3
# Si number density = 17.086068 Si / 1000 Ang^3
#
#
#
# Elastic Constant Matrix: (Units=GPa)
#
#
# Indices 1 2 3 4 5 6 
#
# 1 106.2737 46.0629 73.8674 0.0000 0.0000 0.0000
# 2 46.0629 54.0741 50.6957 0.0000 0.0000 0.0000
# 3 73.8674 50.6957 106.3536 0.0000 0.0000 0.0000
# 4 0.0000 0.0000 0.0000 26.0118 0.0000 0.0000
# 5 0.0000 0.0000 0.0000 0.0000 29.1130 0.0000
# 6 0.0000 0.0000 0.0000 0.0000 0.0000 25.8304
#
#
#
# Elastic Compliance Matrix: (Units=1/GPa)
#
#
# Indices 1 2 3 4 5 6 
#
# 1 0.019596 -0.007110 -0.010221 0.000000 0.000000 0.000000
# 2 -0.007110 0.036015 -0.012229 0.000000 0.000000 0.000000
# 3 -0.010221 -0.012229 0.022331 0.000000 0.000000 0.000000
# 4 0.000000 0.000000 0.000000 0.038444 0.000000 0.000000
# 5 0.000000 0.000000 0.000000 0.000000 0.034349 0.000000
# 6 0.000000 0.000000 0.000000 0.000000 0.000000 0.038714
#
#
# Mechanical properties :
#
#
# Convention : Reuss Voigt Hill
#
# Bulk Modulus (GPa) = 53.13153 67.55036 60.34095
# Shear Modulus (GPa) = 19.62003 22.59607 21.10805
#
# Velocity S-wave (km/s) = 3.39234 3.64054 3.51863
# Velocity P-wave (km/s) = 6.81967 7.56919 7.20418
#
# Compressibility (1/GPa) = 0.01882121
#
# Stress axis : x y z
#
# Youngs Moduli (GPa) = 51.03167 27.76633 44.78179
#
# Poissons Ratio (x) = 0.19743 0.45771
# Poissons Ratio (y) = 0.36285 0.54763
# Poissons Ratio (z) = 0.52158 0.33955
#
# Static dielectric constant tensor:
#      x y z
#    x 3.306330 0.000000 0.000000 
#    y 0.000000 2.996440 0.000000 
#    z 0.000000 0.000000 3.095450 
# 
# 
# High freq. dielectric constant tensor:
#      x y z
#    x 1.662410 0.000000 0.000000 
#    y 0.000000 1.643570 0.000000 
#    z 0.000000 0.000000 1.639500 
# 
# From -- ./inp_files/25164.got.cif
#   From: 2010.03.12/outbox.cif.g09.slc.cpg/sg44_13_cif.got.tgz:25164.got - 2010.04.14 02:36:11.
