data_PCOD8188211
_publ_section_title
;
Structure prediction by ZEFSAII (Michael W. Deem and Ramdas Pophale) SiO2 
 PCOD8188211
Probable space group: I M M 2
;
_chemical_formula_sum "Si O2"
_cell_formula_units_Z 48
_cell_length_a 11.658977
_cell_length_b 9.450320
_cell_length_c 24.845791
_cell_angle_alpha 90.000000
_cell_angle_beta 90.000000
_cell_angle_gamma 90.000000
_cell_volume 2737.535676
_symmetry_space_group_name_H-M "I M M 2"
_symmetry_group_IT_number 44
_symmetry_cell_setting 'orthorhombic'
loop_
_space_group_symop_operation_xyz
x,y,z
-x,-y,z
-x,y,z
x,-y,z
1/2+x,1/2+y,1/2+z
1/2-x,1/2-y,1/2+z
1/2-x,1/2+y,1/2+z
1/2+x,1/2-y,1/2+z
loop_
_atom_site_type_symbol
_atom_site_label
_atom_site_fract_x
_atom_site_fract_y
_atom_site_fract_z
Si Si1 0.751022 0.338928 0.407290
Si Si2 0.272785 0.834498 0.216886
Si Si3 0.634676 0.662790 0.000021
Si Si4 0.132422 0.337460 0.603265
Si Si5 0.000000 0.332647 0.774084
Si Si6 0.131818 0.336581 0.296307
Si Si7 0.500000 0.657053 0.377769
O O1 0.792309 0.500000 0.418428
O O2 0.805232 0.233286 0.449505
O O3 0.791061 0.292191 0.347567
O O4 0.613773 0.325959 0.413762
O O5 0.283995 0.803849 0.153302
O O6 0.388182 0.775233 0.244021
O O7 0.166747 0.751964 0.243386
O O8 0.255258 0.000000 0.227870
O O9 0.500000 0.680439 0.991845
O O10 0.672080 0.500000 0.003484
O O11 0.674156 0.739009 0.054689
O O12 0.145658 0.500000 0.585160
O O13 0.000000 0.307414 0.619509
O O14 0.000000 0.278845 0.834278
O O15 0.000000 0.500000 0.773956
O O16 0.150676 0.500000 0.282159
O O17 0.000000 0.303435 0.310261
O O18 0.500000 0.500000 0.350814
#
# Coordination Sequence:
#
# PCOD8188211 Si02
#       7
#     8   8   8   8   4   8   4
#     4  10  20  35  55  77 103 136 173 213 257 307
#     4  10  19  32  53  80 108 137 170 208 254 308
#     4  10  21  35  52  78 107 135 171 214 259 306
#     4   9  17  32  54  78 104 135 171 212 258 306
#     4  10  18  30  50  80 112 136 162 203 256 307
#     4  10  21  35  52  76 106 141 177 211 253 305
#     4  10  20  34  54  80 104 132 174 213 252 307
#
# _framework density 17.534018
#
# number of rings (size 3 to 8) (size 9 to 14) (size 15 to 20)
#    0.000    2.167    2.500    1.000    0.000    4.000 
#    0.000    0.000    1.833    0.000    0.000    0.000 
#    0.000    0.000    0.000    0.000    0.000    0.000 
#
# Total GULP energy -297623.459445 kJ/mol
# GULP energy per Si atom -12400.977477 kJ/mol
# Density = 1.749411 g / cm^3
# Si number density = 17.534018 Si / 1000 Ang^3
#
#
#
# Elastic Constant Matrix: (Units=GPa)
#
#
# Indices 1 2 3 4 5 6 
#
# 1 69.3669 39.8131 39.7501 0.0000 0.0000 0.0000
# 2 39.8131 77.6619 64.3682 0.0000 0.0000 0.0000
# 3 39.7501 64.3682 110.8174 0.0000 0.0000 0.0000
# 4 0.0000 0.0000 0.0000 33.8661 0.0000 0.0000
# 5 0.0000 0.0000 0.0000 0.0000 28.2358 0.0000
# 6 0.0000 0.0000 0.0000 0.0000 0.0000 26.4255
#
#
#
# Elastic Compliance Matrix: (Units=1/GPa)
#
#
# Indices 1 2 3 4 5 6 
#
# 1 0.020763 -0.008622 -0.002439 0.000000 0.000000 0.000000
# 2 -0.008622 0.028411 -0.013410 0.000000 0.000000 0.000000
# 3 -0.002439 -0.013410 0.017688 0.000000 0.000000 0.000000
# 4 0.000000 0.000000 0.000000 0.029528 0.000000 0.000000
# 5 0.000000 0.000000 0.000000 0.000000 0.035416 0.000000
# 6 0.000000 0.000000 0.000000 0.000000 0.000000 0.037842
#
#
# Mechanical properties :
#
#
# Convention : Reuss Voigt Hill
#
# Bulk Modulus (GPa) = 55.80675 60.63432 58.22053
# Shear Modulus (GPa) = 22.26555 25.29981 23.78268
#
# Velocity S-wave (km/s) = 3.56736 3.80267 3.68689
# Velocity P-wave (km/s) = 6.99034 7.34414 7.16943
#
# Compressibility (1/GPa) = 0.01791898
#
# Stress axis : x y z
#
# Youngs Moduli (GPa) = 48.16357 35.19817 56.53613
#
# Poissons Ratio (x) = 0.30348 0.13792
# Poissons Ratio (y) = 0.41527 0.75812
# Poissons Ratio (z) = 0.11749 0.47199
#
# Static dielectric constant tensor:
#      x y z
#    x 3.213380 0.000000 0.000000 
#    y 0.000000 3.232710 0.000000 
#    z 0.000000 0.000000 3.151480 
# 
# 
# High freq. dielectric constant tensor:
#      x y z
#    x 1.664730 0.000000 0.000000 
#    y 0.000000 1.676680 0.000000 
#    z 0.000000 0.000000 1.670200 
# 
# From -- ./inp_files/23741.got.cif
#   From: 2010.03.12/outbox.cif.g09.slc.cpg/sg44_12_cif.got.tgz:23741.got - 2010.04.14 02:36:11.
