data_PCOD8188745
_publ_section_title
;
Structure prediction by ZEFSAII (Michael W. Deem and Ramdas Pophale) SiO2 
 PCOD8188745
Probable space group: I M M 2
;
_chemical_formula_sum "Si O2"
_cell_formula_units_Z 56
_cell_length_a 22.773173
_cell_length_b 8.838612
_cell_length_c 14.350312
_cell_angle_alpha 90.000000
_cell_angle_beta 90.000000
_cell_angle_gamma 90.000000
_cell_volume 2888.477297
_symmetry_space_group_name_H-M "I M M 2"
_symmetry_group_IT_number 44
_symmetry_cell_setting 'orthorhombic'
loop_
_space_group_symop_operation_xyz
x,y,z
-x,-y,z
-x,y,z
x,-y,z
1/2+x,1/2+y,1/2+z
1/2-x,1/2-y,1/2+z
1/2-x,1/2+y,1/2+z
1/2+x,1/2-y,1/2+z
loop_
_atom_site_type_symbol
_atom_site_label
_atom_site_fract_x
_atom_site_fract_y
_atom_site_fract_z
Si Si1 0.500000 0.820749 0.806690
Si Si2 0.649681 0.678106 0.296678
Si Si3 0.218100 0.679597 0.301054
Si Si4 0.150630 0.177978 0.008766
Si Si5 0.218485 0.679479 0.506803
Si Si6 0.889856 0.321212 0.184295
Si Si7 0.892816 0.320804 0.620468
Si Si8 0.500000 0.320263 0.010134
O O1 0.443771 0.767578 0.747679
O O2 0.500000 0.736874 0.904655
O O3 0.500000 0.000000 0.825294
O O4 0.642364 0.500000 0.280098
O O5 0.716286 0.731961 0.274367
O O6 0.633369 0.721213 0.402909
O O7 0.605881 0.767942 0.228122
O O8 0.215426 0.500000 0.301668
O O9 0.201660 0.740050 0.404015
O O10 0.170126 0.744698 0.229540
O O11 0.216393 0.239097 0.032562
O O12 0.104990 0.255017 0.079936
O O13 0.147209 0.000000 0.021962
O O14 0.220650 0.500000 0.504174
O O15 0.169520 0.736013 0.578929
O O16 0.889516 0.500000 0.176962
O O17 0.901416 0.500000 0.613214
O O18 0.943277 0.240640 0.562900
O O19 0.500000 0.500000 0.011723
#
# Coordination Sequence:
#
# PCOD8188745 Si02
#       8
#     4   8   8   8   8   8   8   4
#     4  10  22  40  59  80 107 140 179 220 264 312
#     4   9  18  33  52  76 107 141 177 219 268 321
#     4   8  14  27  49  76 106 139 173 214 269 325
#     4   9  18  33  53  78 110 145 179 219 266 317
#     4   8  15  29  51  79 109 141 176 215 264 319
#     4  10  19  32  53  78 105 140 180 224 270 316
#     4  11  21  35  57  81 107 141 180 222 267 315
#     4  12  26  42  59  80 107 138 175 218 262 314
#
# _framework density 19.387377000000001
#
# number of rings (size 3 to 8) (size 9 to 14) (size 15 to 20)
#    0.000    2.571    0.000    4.500    0.000    3.429 
#    0.000    1.429    0.000    7.714    0.000    0.000 
#    0.000    0.000    0.000    0.000    0.000    0.000 
#
# Total GULP energy -347103.277269 kJ/mol
# GULP energy per Si atom -12396.545617 kJ/mol
# Density = 1.934325 g / cm^3
# Si number density = 19.387377 Si / 1000 Ang^3
#
#
#
# Elastic Constant Matrix: (Units=GPa)
#
#
# Indices 1 2 3 4 5 6 
#
# 1 84.4998 38.9740 80.9688 0.0000 0.0000 0.0000
# 2 38.9740 51.3336 51.9678 0.0000 0.0000 0.0000
# 3 80.9688 51.9678 166.9379 0.0000 0.0000 0.0000
# 4 0.0000 0.0000 0.0000 33.6155 0.0000 0.0000
# 5 0.0000 0.0000 0.0000 0.0000 33.8273 0.0000
# 6 0.0000 0.0000 0.0000 0.0000 0.0000 12.1207
#
#
#
# Elastic Compliance Matrix: (Units=1/GPa)
#
#
# Indices 1 2 3 4 5 6 
#
# 1 0.025103 -0.009831 -0.009115 0.000000 0.000000 0.000000
# 2 -0.009831 0.032295 -0.005285 0.000000 0.000000 0.000000
# 3 -0.009115 -0.005285 0.012057 0.000000 0.000000 0.000000
# 4 0.000000 0.000000 0.000000 0.029748 0.000000 0.000000
# 5 0.000000 0.000000 0.000000 0.000000 0.029562 0.000000
# 6 0.000000 0.000000 0.000000 0.000000 0.000000 0.082504
#
#
# Mechanical properties :
#
#
# Convention : Reuss Voigt Hill
#
# Bulk Modulus (GPa) = 47.63782 71.84362 59.74072
# Shear Modulus (GPa) = 18.74567 24.63674 21.69121
#
# Velocity S-wave (km/s) = 3.11288 3.56864 3.34852
# Velocity P-wave (km/s) = 6.12739 7.35647 6.76988
#
# Compressibility (1/GPa) = 0.02099172
#
# Stress axis : x y z
#
# Youngs Moduli (GPa) = 39.83584 30.96460 82.94268
#
# Poissons Ratio (x) = 0.30442 0.75603
# Poissons Ratio (y) = 0.39164 0.43835
# Poissons Ratio (z) = 0.36311 0.16365
#
# Static dielectric constant tensor:
#      x y z
#    x 3.648550 0.000000 0.000000 
#    y 0.000000 3.109580 0.000000 
#    z 0.000000 0.000000 3.738050 
# 
# 
# High freq. dielectric constant tensor:
#      x y z
#    x 1.740810 0.000000 0.000000 
#    y 0.000000 1.719930 0.000000 
#    z 0.000000 0.000000 1.771250 
# 
# From -- ./inp_files/16563.got.cif
#   From: 2010.03.12/outbox.cif.g09.slc.cpg/sg44_9_cif.got.tgz:16563.got - 2010.04.14 02:36:11.
