data_PCOD8188572
_publ_section_title
;
Structure prediction by ZEFSAII (Michael W. Deem and Ramdas Pophale) SiO2 
 PCOD8188572
Probable space group: I M M 2
;
_chemical_formula_sum "Si O2"
_cell_formula_units_Z 40
_cell_length_a 25.602753
_cell_length_b 9.348017
_cell_length_c 9.547500
_cell_angle_alpha 90.000000
_cell_angle_beta 90.000000
_cell_angle_gamma 90.000000
_cell_volume 2285.050629
_symmetry_space_group_name_H-M "I M M 2"
_symmetry_group_IT_number 44
_symmetry_cell_setting 'orthorhombic'
loop_
_space_group_symop_operation_xyz
x,y,z
-x,-y,z
-x,y,z
x,-y,z
1/2+x,1/2+y,1/2+z
1/2-x,1/2-y,1/2+z
1/2-x,1/2+y,1/2+z
1/2+x,1/2-y,1/2+z
loop_
_atom_site_type_symbol
_atom_site_label
_atom_site_fract_x
_atom_site_fract_y
_atom_site_fract_z
Si Si1 0.715068 0.165722 0.036270
Si Si2 0.164779 0.834331 0.034618
Si Si3 0.867633 0.668636 0.766964
Si Si4 0.643650 0.335896 0.843685
Si Si5 0.440065 0.334215 0.069238
O O1 0.774952 0.208567 0.056704
O O2 0.683793 0.208321 0.177042
O O3 0.707842 0.000000 0.004060
O O4 0.692312 0.247491 0.902744
O O5 0.134998 0.802332 0.180102
O O6 0.159467 0.000000 0.989837
O O7 0.138118 0.734956 0.920022
O O8 0.876243 0.500000 0.780159
O O9 0.918363 0.737618 0.694902
O O10 0.659745 0.500000 0.863839
O O11 0.590389 0.298368 0.925420
O O12 0.500000 0.294144 0.043228
O O13 0.433091 0.500000 0.110846
#
# Coordination Sequence:
#
# PCOD8188572 Si02
#       5
#     8   8   8   8   8
#     4   9  18  31  47  69  99 135 169 199 237 288
#     4  10  19  31  47  71 104 134 161 199 244 289
#     4  10  20  33  50  74 102 131 165 203 244 290
#     4   9  18  32  50  72  98 128 165 207 245 286
#     4   9  18  35  57  75  92 122 165 208 250 296
#
# _framework density 17.505082000000002
#
# number of rings (size 3 to 8) (size 9 to 14) (size 15 to 20)
#    0.000    2.600    0.000    1.800    0.000    4.400 
#    0.000    1.000    0.000    3.600    0.000    0.000 
#    0.000    0.000    0.000    0.000    0.000    0.000 
#
# Total GULP energy -248045.036968 kJ/mol
# GULP energy per Si atom -12402.251848 kJ/mol
# Density = 1.746524 g / cm^3
# Si number density = 17.505082 Si / 1000 Ang^3
#
#
#
# Elastic Constant Matrix: (Units=GPa)
#
#
# Indices 1 2 3 4 5 6 
#
# 1 104.8571 45.8672 55.9845 0.0000 0.0000 0.0000
# 2 45.8672 66.1679 57.9804 0.0000 0.0000 0.0000
# 3 55.9845 57.9804 127.2842 0.0000 0.0000 0.0000
# 4 0.0000 0.0000 0.0000 28.9473 0.0000 0.0000
# 5 0.0000 0.0000 0.0000 0.0000 13.5732 0.0000
# 6 0.0000 0.0000 0.0000 0.0000 0.0000 24.8041
#
#
#
# Elastic Compliance Matrix: (Units=1/GPa)
#
#
# Indices 1 2 3 4 5 6 
#
# 1 0.014326 -0.007339 -0.002958 0.000000 0.000000 0.000000
# 2 -0.007339 0.028912 -0.009942 0.000000 0.000000 0.000000
# 3 -0.002958 -0.009942 0.013687 0.000000 0.000000 0.000000
# 4 0.000000 0.000000 0.000000 0.034546 0.000000 0.000000
# 5 0.000000 0.000000 0.000000 0.000000 0.073674 0.000000
# 6 0.000000 0.000000 0.000000 0.000000 0.000000 0.040316
#
#
# Mechanical properties :
#
#
# Convention : Reuss Voigt Hill
#
# Bulk Modulus (GPa) = 60.80307 68.66372 64.73339
# Shear Modulus (GPa) = 19.88691 22.69674 21.29182
#
# Velocity S-wave (km/s) = 3.37421 3.60471 3.49136
# Velocity P-wave (km/s) = 7.07038 7.52565 7.30157
#
# Compressibility (1/GPa) = 0.01644654
#
# Stress axis : x y z
#
# Youngs Moduli (GPa) = 69.80095 34.58758 73.06459
#
# Poissons Ratio (x) = 0.25383 0.21616
# Poissons Ratio (y) = 0.51224 0.72642
# Poissons Ratio (z) = 0.20650 0.34388
#
# Static dielectric constant tensor:
#      x y z
#    x 3.174280 0.000000 0.000000 
#    y 0.000000 3.240800 0.000000 
#    z 0.000000 0.000000 3.288310 
# 
# 
# High freq. dielectric constant tensor:
#      x y z
#    x 1.660790 0.000000 0.000000 
#    y 0.000000 1.676400 0.000000 
#    z 0.000000 0.000000 1.677310 
# 
# From -- ./inp_files/4419.got.cif
#   From: 2010.03.12/outbox.cif.g09.slc.cpg/sg44_3_cif.got.tgz:4419.got - 2010.04.14 02:36:11.
