data_PCOD8188682
_publ_section_title
;
Structure prediction by ZEFSAII (Michael W. Deem and Ramdas Pophale) SiO2 
 PCOD8188682
Probable space group: I M M 2
;
_chemical_formula_sum "Si O2"
_cell_formula_units_Z 64
_cell_length_a 18.551892
_cell_length_b 9.124871
_cell_length_c 20.847663
_cell_angle_alpha 90.000000
_cell_angle_beta 90.000000
_cell_angle_gamma 90.000000
_cell_volume 3529.167888
_symmetry_space_group_name_H-M "I M M 2"
_symmetry_group_IT_number 44
_symmetry_cell_setting 'orthorhombic'
loop_
_space_group_symop_operation_xyz
x,y,z
-x,-y,z
-x,y,z
x,-y,z
1/2+x,1/2+y,1/2+z
1/2-x,1/2-y,1/2+z
1/2-x,1/2+y,1/2+z
1/2+x,1/2-y,1/2+z
loop_
_atom_site_type_symbol
_atom_site_label
_atom_site_fract_x
_atom_site_fract_y
_atom_site_fract_z
Si Si1 0.582783 0.672330 0.865980
Si Si2 0.585900 0.837089 0.989367
Si Si3 0.414456 0.165345 0.492162
Si Si4 0.084234 0.827841 0.864643
Si Si5 0.167957 0.325970 0.750618
Si Si6 0.919904 0.325620 0.628663
Si Si7 0.667164 0.326338 0.743659
Si Si8 0.084030 0.828587 0.118899
O O1 0.500000 0.718817 0.856635
O O2 0.591742 0.500000 0.870618
O O3 0.615524 0.737262 0.931743
O O4 0.626526 0.737796 0.805896
O O5 0.500000 0.840763 0.989185
O O6 0.617174 0.000000 0.979030
O O7 0.609958 0.772717 0.058967
O O8 0.500000 0.164508 0.493178
O O9 0.387612 0.256503 0.430727
O O10 0.386514 0.243368 0.556670
O O11 0.383816 0.000000 0.488584
O O12 0.129056 0.755577 0.808080
O O13 0.000000 0.794136 0.853376
O O14 0.099343 0.000000 0.867552
O O15 0.159625 0.500000 0.760297
O O16 0.132674 0.270884 0.684369
O O17 0.250484 0.275529 0.747094
O O18 0.923766 0.500000 0.626798
O O19 0.000000 0.262152 0.642036
O O20 0.660275 0.500000 0.743645
O O21 0.628983 0.267079 0.679358
O O22 0.000000 0.797419 0.132132
O O23 0.097652 0.000000 0.107108
#
# Coordination Sequence:
#
# PCOD8188682 Si02
#       8
#     8   8   8   8   8   8   8   8
#     4   9  16  28  47  69  93 123 159 195 231 275
#     4   8  14  26  44  66  90 114 146 191 237 279
#     4   9  17  30  50  76 101 124 157 202 247 290
#     4  10  20  34  52  74  99 126 158 198 244 294
#     4  10  19  32  50  70  95 127 162 199 238 285
#     4   8  14  26  46  69  89 112 145 184 228 279
#     4   9  18  31  47  69  97 129 164 200 238 283
#     4   9  16  29  50  72  96 130 169 206 245 289
#
# _framework density 18.134585999999999
#
# number of rings (size 3 to 8) (size 9 to 14) (size 15 to 20)
#    0.000    3.000    0.000    2.250    0.000    4.250 
#    0.000    3.750    0.000    6.750    0.000    0.000 
#    0.000    0.000    0.000    0.000    0.000    0.000 
#
# Total GULP energy -396694.243124 kJ/mol
# GULP energy per Si atom -12396.695098 kJ/mol
# Density = 1.809331 g / cm^3
# Si number density = 18.134586 Si / 1000 Ang^3
#
#
#
# Elastic Constant Matrix: (Units=GPa)
#
#
# Indices 1 2 3 4 5 6 
#
# 1 79.0776 35.0978 78.9882 0.0000 0.0000 0.0000
# 2 35.0978 56.5882 59.4509 0.0000 0.0000 0.0000
# 3 78.9882 59.4509 214.7777 0.0000 0.0000 0.0000
# 4 0.0000 0.0000 0.0000 33.3806 0.0000 0.0000
# 5 0.0000 0.0000 0.0000 0.0000 -3.8345 0.0000
# 6 0.0000 0.0000 0.0000 0.0000 0.0000 13.2457
#
#
#
# Elastic Compliance Matrix: (Units=1/GPa)
#
#
# Indices 1 2 3 4 5 6 
#
# 1 0.021899 -0.007221 -0.006055 0.000000 0.000000 0.000000
# 2 -0.007221 0.027299 -0.004901 0.000000 0.000000 0.000000
# 3 -0.006055 -0.004901 0.008239 0.000000 0.000000 0.000000
# 4 0.000000 0.000000 0.000000 0.029958 0.000000 0.000000
# 5 0.000000 0.000000 0.000000 0.000000 -0.260793 0.000000
# 6 0.000000 0.000000 0.000000 0.000000 0.000000 0.075496
#
#
# Mechanical properties :
#
#
# Convention : Reuss Voigt Hill
#
# Bulk Modulus (GPa) = 47.43024 77.50194 62.46609
# Shear Modulus (GPa) = -91.70742 20.35215 -35.67763
#
# Velocity S-wave (km/s) = -7.11901 3.35368 -4.44033
# Velocity P-wave (km/s) = 6.43135 7.60435 2.86913
#
# Compressibility (1/GPa) = 0.02108360
#
# Stress axis : x y z
#
# Youngs Moduli (GPa) = 45.66447 36.63143 121.37014
#
# Poissons Ratio (x) = 0.26452 0.73488
# Poissons Ratio (y) = 0.32975 0.59480
# Poissons Ratio (z) = 0.27649 0.17952
#
# Static dielectric constant tensor:
#      x y z
#    x 3.181670 0.000000 0.000000 
#    y 0.000000 3.139230 0.000000 
#    z 0.000000 0.000000 3.787890 
# 
# 
# High freq. dielectric constant tensor:
#      x y z
#    x 1.668810 0.000000 0.000000 
#    y 0.000000 1.672220 0.000000 
#    z 0.000000 0.000000 1.724380 
# 
# From -- ./inp_files/24360.got.cif
#   From: 2010.03.12/outbox.cif.g09.slc.cpg/sg44_13_cif.got.tgz:24360.got - 2010.04.14 02:36:11.
