data_PCOD8188451
_publ_section_title
;
Structure prediction by ZEFSAII (Michael W. Deem and Ramdas Pophale) SiO2 
 PCOD8188451
Probable space group: I M M 2
;
_chemical_formula_sum "Si O2"
_cell_formula_units_Z 40
_cell_length_a 13.784307
_cell_length_b 8.992049
_cell_length_c 18.699756
_cell_angle_alpha 90.000000
_cell_angle_beta 90.000000
_cell_angle_gamma 90.000000
_cell_volume 2317.819123
_symmetry_space_group_name_H-M "I M M 2"
_symmetry_group_IT_number 44
_symmetry_cell_setting 'orthorhombic'
loop_
_space_group_symop_operation_xyz
x,y,z
-x,-y,z
-x,y,z
x,-y,z
1/2+x,1/2+y,1/2+z
1/2-x,1/2-y,1/2+z
1/2-x,1/2+y,1/2+z
1/2+x,1/2-y,1/2+z
loop_
_atom_site_type_symbol
_atom_site_label
_atom_site_fract_x
_atom_site_fract_y
_atom_site_fract_z
Si Si1 0.796656 0.322784 0.906390
Si Si2 0.106493 0.676384 0.049583
Si Si3 0.393408 0.323576 0.978439
Si Si4 0.296916 0.675020 0.125326
Si Si5 0.889471 0.323289 0.760860
O O1 0.799299 0.500000 0.905320
O O2 0.685790 0.266960 0.920431
O O3 0.837504 0.259136 0.832034
O O4 0.863212 0.262826 0.971354
O O5 0.103969 0.500000 0.044900
O O6 0.185478 0.722650 0.109123
O O7 0.000000 0.739999 0.070021
O O8 0.500000 0.256425 0.960858
O O9 0.396804 0.500000 0.975863
O O10 0.362626 0.275485 0.058227
O O11 0.306190 0.500000 0.139872
O O12 0.330788 0.763744 0.193888
O O13 0.886664 0.500000 0.760081
O O14 0.000000 0.265252 0.758941
#
# Coordination Sequence:
#
# PCOD8188451 Si02
#       5
#     8   8   8   8   8
#     4   8  14  24  39  60  83 107 139 175 207 243
#     4   8  13  24  44  66  84 106 141 181 212 238
#     4   8  13  23  41  63  83 104 136 178 213 238
#     4   9  17  28  44  66  88 110 139 174 209 248
#     4  10  19  29  42  62  88 114 138 170 213 255
#
# _framework density 17.257603
#
# number of rings (size 3 to 8) (size 9 to 14) (size 15 to 20)
#    0.000    3.400    0.000    3.600    0.000    3.600 
#    0.000    1.000    0.000    6.600    0.000    0.000 
#    0.000    0.000    0.000    0.000    0.000    0.000 
#
# Total GULP energy -247821.312189 kJ/mol
# GULP energy per Si atom -12391.065609 kJ/mol
# Density = 1.721832 g / cm^3
# Si number density = 17.257603 Si / 1000 Ang^3
#
#
#
# Elastic Constant Matrix: (Units=GPa)
#
#
# Indices 1 2 3 4 5 6 
#
# 1 189.3020 12.5927 85.9410 0.0000 0.0000 0.0000
# 2 12.5927 6.1680 13.5933 0.0000 0.0000 0.0000
# 3 85.9410 13.5933 130.8767 0.0000 0.0000 0.0000
# 4 0.0000 0.0000 0.0000 23.0875 0.0000 0.0000
# 5 0.0000 0.0000 0.0000 0.0000 25.1428 0.0000
# 6 0.0000 0.0000 0.0000 0.0000 0.0000 12.7516
#
#
#
# Elastic Compliance Matrix: (Units=1/GPa)
#
#
# Indices 1 2 3 4 5 6 
#
# 1 0.007690 -0.005928 -0.004434 0.000000 0.000000 0.000000
# 2 -0.005928 0.214824 -0.018420 0.000000 0.000000 0.000000
# 3 -0.004434 -0.018420 0.012465 0.000000 0.000000 0.000000
# 4 0.000000 0.000000 0.000000 0.043313 0.000000 0.000000
# 5 0.000000 0.000000 0.000000 0.000000 0.039773 0.000000
# 6 0.000000 0.000000 0.000000 0.000000 0.000000 0.078421
#
#
# Mechanical properties :
#
#
# Convention : Reuss Voigt Hill
#
# Bulk Modulus (GPa) = 5.63647 61.17786 33.40717
# Shear Modulus (GPa) = 9.74300 26.47770 18.11035
#
# Velocity S-wave (km/s) = 2.37863 3.92122 3.24298
# Velocity P-wave (km/s) = 3.28892 7.48519 5.78122
#
# Compressibility (1/GPa) = 0.17741594
#
# Stress axis : x y z
#
# Youngs Moduli (GPa) = 130.04164 4.65498 80.22191
#
# Poissons Ratio (x) = 0.02760 0.35569
# Poissons Ratio (y) = 0.77091 1.47765
# Poissons Ratio (z) = 0.57659 0.08574
#
# Static dielectric constant tensor:
#      x y z
#    x 3.930190 0.000000 0.000000 
#    y 0.000000 2.566250 0.000000 
#    z 0.000000 0.000000 3.208510 
# 
# 
# High freq. dielectric constant tensor:
#      x y z
#    x 1.684930 0.000000 0.000000 
#    y 0.000000 1.598440 0.000000 
#    z 0.000000 0.000000 1.657170 
# 
# From -- ./inp_files/15798.got.cif
#   From: 2010.03.12/outbox.cif.g09.slc.cpg/sg44_8_cif.got.tgz:15798.got - 2010.04.14 02:36:11.
