data_PCOD8188888
_publ_section_title
;
Structure prediction by ZEFSAII (Michael W. Deem and Ramdas Pophale) SiO2 
 PCOD8188888
Probable space group: I M M 2
;
_chemical_formula_sum "Si O2"
_cell_formula_units_Z 64
_cell_length_a 9.377827
_cell_length_b 28.932469
_cell_length_c 12.810305
_cell_angle_alpha 90.000000
_cell_angle_beta 90.000000
_cell_angle_gamma 90.000000
_cell_volume 3475.739209
_symmetry_space_group_name_H-M "I M M 2"
_symmetry_group_IT_number 44
_symmetry_cell_setting 'orthorhombic'
loop_
_space_group_symop_operation_xyz
x,y,z
-x,-y,z
-x,y,z
x,-y,z
1/2+x,1/2+y,1/2+z
1/2-x,1/2-y,1/2+z
1/2-x,1/2+y,1/2+z
1/2+x,1/2-y,1/2+z
loop_
_atom_site_type_symbol
_atom_site_label
_atom_site_fract_x
_atom_site_fract_y
_atom_site_fract_z
Si Si1 0.844252 0.286787 0.143070
Si Si2 0.333171 0.446339 0.459994
Si Si3 0.169338 0.377845 0.609623
Si Si4 0.838856 0.945370 0.724383
Si Si5 0.167955 0.386136 0.063708
Si Si6 0.667346 0.754917 0.317724
Si Si7 0.831498 0.357482 0.841839
Si Si8 0.657407 0.298522 0.508498
O O1 0.788221 0.336786 0.110460
O O2 0.729603 0.259603 0.208410
O O3 0.859751 0.254675 0.042427
O O4 0.000000 0.291031 0.198229
O O5 0.500000 0.436968 0.479025
O O6 0.297361 0.500000 0.475713
O O7 0.240871 0.418790 0.544387
O O8 0.291147 0.430512 0.341960
O O9 0.210349 0.382447 0.732452
O O10 0.227369 0.328722 0.569273
O O11 0.000000 0.379239 0.593207
O O12 0.741336 0.924940 0.633581
O O13 0.000000 0.928466 0.705469
O O14 0.828764 0.000000 0.715938
O O15 0.000000 0.394828 0.069246
O O16 0.222178 0.387202 0.942368
O O17 0.500000 0.760073 0.305096
O O18 0.732650 0.805367 0.347077
O O19 0.708892 0.711058 0.390636
O O20 0.000000 0.353470 0.850830
O O21 0.500000 0.322697 0.514294
#
# Coordination Sequence:
#
# PCOD8188888 Si02
#       8
#     8   8   8   8   8   8   8   8
#     4  10  20  33  50  76 108 140 181 228 264 306
#     4   9  20  41  64  82 107 142 175 215 274 338
#     4  11  22  35  56  83 111 143 184 232 270 315
#     4   9  20  40  62  83 108 137 172 218 272 329
#     4  10  20  36  57  80 109 144 182 222 268 322
#     4  10  19  34  52  69 101 149 188 219 262 318
#     4   9  18  35  54  75 108 149 185 219 265 315
#     4  10  20  34  52  74 106 150 188 220 266 321
#
# _framework density 18.413350000000001
#
# number of rings (size 3 to 8) (size 9 to 14) (size 15 to 20)
#    0.000    2.250    2.500    1.125    1.750    2.000 
#    0.000    3.750    0.000    3.750    0.000    0.000 
#    0.000    0.000    0.000    0.000    0.000    0.000 
#
# Total GULP energy -396515.102716 kJ/mol
# GULP energy per Si atom -12391.096960 kJ/mol
# Density = 1.837144 g / cm^3
# Si number density = 18.413350 Si / 1000 Ang^3
#
#
#
# Elastic Constant Matrix: (Units=GPa)
#
#
# Indices 1 2 3 4 5 6 
#
# 1 55.6783 32.6706 53.3596 0.0000 0.0000 0.0000
# 2 32.6706 61.7662 50.1464 -0.0001 0.0000 0.0000
# 3 53.3596 50.1464 128.2271 0.0003 -0.0001 -0.0001
# 4 0.0000 -0.0001 0.0003 28.7926 0.0000 -0.0001
# 5 0.0000 0.0000 -0.0001 0.0000 28.0902 0.0002
# 6 0.0000 0.0000 -0.0001 -0.0001 0.0002 31.0513
#
#
#
# Elastic Compliance Matrix: (Units=1/GPa)
#
#
# Indices 1 2 3 4 5 6 
#
# 1 0.033147 -0.009281 -0.010164 0.000000 0.000000 0.000000
# 2 -0.009281 0.026320 -0.006431 0.000000 0.000000 0.000000
# 3 -0.010164 -0.006431 0.014543 0.000000 0.000000 0.000000
# 4 0.000000 0.000000 0.000000 0.034731 0.000000 0.000000
# 5 0.000000 0.000000 0.000000 0.000000 0.035600 0.000000
# 6 0.000000 0.000000 0.000000 0.000000 0.000000 0.032205
#
#
# Mechanical properties :
#
#
# Convention : Reuss Voigt Hill
#
# Bulk Modulus (GPa) = 44.92656 57.55830 51.24243
# Shear Modulus (GPa) = 21.21185 24.88650 23.04917
#
# Velocity S-wave (km/s) = 3.39777 3.68033 3.54187
# Velocity P-wave (km/s) = 6.31229 7.02756 6.67951
#
# Compressibility (1/GPa) = 0.02225855
#
# Stress axis : x y z
#
# Youngs Moduli (GPa) = 30.16886 37.99346 68.75997
#
# Poissons Ratio (x) = 0.35261 0.69888
# Poissons Ratio (y) = 0.27999 0.44221
# Poissons Ratio (z) = 0.30664 0.24434
#
# Static dielectric constant tensor:
#      x y z
#    x 3.200070 0.000000 0.000000 
#    y 0.000000 3.238560 0.000000 
#    z 0.000000 0.000000 3.637950 
# 
# 
# High freq. dielectric constant tensor:
#      x y z
#    x 1.695280 0.000000 0.000000 
#    y 0.000000 1.703370 0.000000 
#    z 0.000000 0.000000 1.724210 
# 
# From -- ./inp_files/11411.got.cif
#   From: 2010.03.12/outbox.cif.g09.slc.cpg/sg44_6_cif.got.tgz:11411.got - 2010.04.14 02:36:11.
