data_PCOD8188549
_publ_section_title
;
Structure prediction by ZEFSAII (Michael W. Deem and Ramdas Pophale) SiO2 
 PCOD8188549
Probable space group: I M M 2
;
_chemical_formula_sum "Si O2"
_cell_formula_units_Z 64
_cell_length_a 16.976635
_cell_length_b 17.460813
_cell_length_c 11.464490
_cell_angle_alpha 90.000000
_cell_angle_beta 90.000000
_cell_angle_gamma 90.000000
_cell_volume 3398.371183
_symmetry_space_group_name_H-M "I M M 2"
_symmetry_group_IT_number 44
_symmetry_cell_setting 'orthorhombic'
loop_
_space_group_symop_operation_xyz
x,y,z
-x,-y,z
-x,y,z
x,-y,z
1/2+x,1/2+y,1/2+z
1/2-x,1/2-y,1/2+z
1/2-x,1/2+y,1/2+z
1/2+x,1/2-y,1/2+z
loop_
_atom_site_type_symbol
_atom_site_label
_atom_site_fract_x
_atom_site_fract_y
_atom_site_fract_z
Si Si1 0.638560 0.913485 0.237340
Si Si2 0.785473 0.914042 0.084894
Si Si3 0.788082 0.155816 0.661708
Si Si4 0.290143 0.189214 0.891316
Si Si5 0.913205 0.084706 0.805831
Si Si6 0.090114 0.716560 0.574991
Si Si7 0.316341 0.174077 0.457683
Si Si8 0.911374 0.189284 0.028667
O O1 0.728406 0.913036 0.194826
O O2 0.586043 0.861068 0.151972
O O3 0.639645 0.883072 0.369903
O O4 0.604121 0.000000 0.235745
O O5 0.812510 0.000000 0.055210
O O6 0.746058 0.878505 0.969680
O O7 0.860112 0.860911 0.119595
O O8 0.717359 0.167720 0.755760
O O9 0.848237 0.090773 0.704218
O O10 0.844137 0.229813 0.637045
O O11 0.739550 0.128289 0.548547
O O12 0.240171 0.266558 0.894097
O O13 0.379171 0.201706 0.941724
O O14 0.899118 0.149931 0.901953
O O15 0.000000 0.096532 0.750576
O O16 0.906855 0.000000 0.862051
O O17 0.000000 0.749192 0.570206
O O18 0.383670 0.222874 0.524478
O O19 0.000000 0.186317 0.072789
#
# Coordination Sequence:
#
# PCOD8188549 Si02
#       8
#     8   8   8   8   8   8   8   8
#     4  10  20  35  54  76 104 139 177 221 265 311
#     4   9  17  31  52  75 101 132 170 215 263 313
#     4  11  19  33  56  75 106 146 176 211 268 320
#     4   9  18  32  52  77 103 136 174 221 265 311
#     4  10  19  30  49  80 110 131 162 212 268 323
#     4  10  20  35  56  80 104 136 182 231 269 308
#     4  10  20  33  51  74 105 140 181 213 252 317
#     4  10  19  30  48  75 104 133 165 214 269 310
#
# _framework density 18.832550000000001
#
# number of rings (size 3 to 8) (size 9 to 14) (size 15 to 20)
#    0.000    2.125    3.750    1.500    0.000    3.000 
#    0.000    0.625    0.000    0.750    0.000    0.000 
#    0.000    3.000    0.000    0.000    0.000    0.000 
#
# Total GULP energy -396432.925506 kJ/mol
# GULP energy per Si atom -12388.528922 kJ/mol
# Density = 1.878969 g / cm^3
# Si number density = 18.832550 Si / 1000 Ang^3
#
#
#
# Elastic Constant Matrix: (Units=GPa)
#
#
# Indices 1 2 3 4 5 6 
#
# 1 90.9613 13.4622 22.2452 0.0000 0.0000 0.0000
# 2 13.4622 57.7198 6.0036 0.0000 0.0000 0.0000
# 3 22.2452 6.0036 55.5264 0.0000 0.0000 0.0000
# 4 0.0000 0.0000 0.0000 19.2558 0.0000 0.0000
# 5 0.0000 0.0000 0.0000 0.0000 16.9500 0.0000
# 6 0.0000 0.0000 0.0000 0.0000 0.0000 18.5370
#
#
#
# Elastic Compliance Matrix: (Units=1/GPa)
#
#
# Indices 1 2 3 4 5 6 
#
# 1 0.012515 -0.002425 -0.004751 0.000000 0.000000 0.000000
# 2 -0.002425 0.017992 -0.000974 0.000000 0.000000 0.000000
# 3 -0.004751 -0.000974 0.020018 0.000000 0.000000 0.000000
# 4 0.000000 0.000000 0.000000 0.051932 0.000000 0.000000
# 5 0.000000 0.000000 0.000000 0.000000 0.058997 0.000000
# 6 0.000000 0.000000 0.000000 0.000000 0.000000 0.053946
#
#
# Mechanical properties :
#
#
# Convention : Reuss Voigt Hill
#
# Bulk Modulus (GPa) = 29.21870 31.95884 30.58877
# Shear Modulus (GPa) = 20.56695 21.78167 21.17431
#
# Velocity S-wave (km/s) = 3.30827 3.40457 3.35677
# Velocity P-wave (km/s) = 5.49013 5.69751 5.59478
#
# Compressibility (1/GPa) = 0.03422466
#
# Stress axis : x y z
#
# Youngs Moduli (GPa) = 79.90718 55.58067 49.95425
#
# Poissons Ratio (x) = 0.13476 0.23736
# Poissons Ratio (y) = 0.19374 0.04865
# Poissons Ratio (z) = 0.37968 0.05413
#
# Static dielectric constant tensor:
#      x y z
#    x 3.554340 0.000000 0.000000 
#    y 0.000000 3.438480 0.000000 
#    z 0.000000 0.000000 3.275240 
# 
# 
# High freq. dielectric constant tensor:
#      x y z
#    x 1.725480 0.000000 0.000000 
#    y 0.000000 1.719760 0.000000 
#    z 0.000000 0.000000 1.701940 
# 
# From -- ./inp_files/14058.got.cif
#   From: 2010.03.12/outbox.cif.g09.slc.cpg/sg44_8_cif.got.tgz:14058.got - 2010.04.14 02:36:11.
