data_PCOD8188424
_publ_section_title
;
Structure prediction by ZEFSAII (Michael W. Deem and Ramdas Pophale) SiO2 
 PCOD8188424
Probable space group: I M M 2
;
_chemical_formula_sum "Si O2"
_cell_formula_units_Z 64
_cell_length_a 18.604886
_cell_length_b 9.123881
_cell_length_c 21.367995
_cell_angle_alpha 90.000000
_cell_angle_beta 90.000000
_cell_angle_gamma 90.000000
_cell_volume 3627.190781
_symmetry_space_group_name_H-M "I M M 2"
_symmetry_group_IT_number 44
_symmetry_cell_setting 'orthorhombic'
loop_
_space_group_symop_operation_xyz
x,y,z
-x,-y,z
-x,y,z
x,-y,z
1/2+x,1/2+y,1/2+z
1/2-x,1/2-y,1/2+z
1/2-x,1/2+y,1/2+z
1/2+x,1/2-y,1/2+z
loop_
_atom_site_type_symbol
_atom_site_label
_atom_site_fract_x
_atom_site_fract_y
_atom_site_fract_z
Si Si1 0.333404 0.329598 0.161100
Si Si2 0.418264 0.171700 0.266650
Si Si3 0.077227 0.834896 0.443726
Si Si4 0.286545 0.830011 0.567720
Si Si5 0.079452 0.660682 0.566338
Si Si6 0.233768 0.832310 0.431409
Si Si7 0.134314 0.828202 0.886676
Si Si8 0.919722 0.828736 0.023407
O O1 0.339504 0.500000 0.178505
O O2 0.356576 0.235446 0.221092
O O3 0.254775 0.289984 0.132507
O O4 0.385894 0.291296 0.104814
O O5 0.500000 0.202150 0.242711
O O6 0.410393 0.246778 0.333645
O O7 0.403922 0.000000 0.272954
O O8 0.076579 0.709581 0.495129
O O9 0.151655 0.810062 0.405769
O O10 0.000000 0.820816 0.406170
O O11 0.081626 0.000000 0.472512
O O12 0.239976 0.787371 0.505430
O O13 0.362675 0.747829 0.568950
O O14 0.303826 0.000000 0.565900
O O15 0.118249 0.500000 0.572116
O O16 0.000000 0.641110 0.593422
O O17 0.283704 0.729285 0.389071
O O18 0.258753 0.000000 0.422428
O O19 0.095566 0.788446 0.951463
O O20 0.134818 0.000000 0.872424
O O21 0.000000 0.774930 0.040424
O O22 0.911717 0.000000 0.034038
#
# Coordination Sequence:
#
# PCOD8188424 Si02
#       8
#     8   8   8   8   8   8   8   8
#     4  11  21  34  50  69  96 132 171 208 245 293
#     4  11  24  39  53  73 101 134 173 213 252 295
#     4   9  16  27  44  66  95 131 167 202 243 293
#     4   9  18  31  47  71  99 129 165 202 247 301
#     4  10  19  28  40  62  93 128 165 203 241 283
#     4   9  16  30  48  70 100 131 167 210 254 301
#     4  10  20  34  53  75  99 132 172 211 253 300
#     4   9  18  32  51  76 103 130 162 203 251 300
#
# _framework density 17.64451
#
# number of rings (size 3 to 8) (size 9 to 14) (size 15 to 20)
#    0.000    2.250    1.250    2.250    0.000    6.000 
#    0.000    0.000    0.000    0.000    0.000    0.875 
#    0.000    5.000    0.000    0.000    0.000    0.000 
#
# Total GULP energy -396479.821261 kJ/mol
# GULP energy per Si atom -12389.994414 kJ/mol
# Density = 1.760435 g / cm^3
# Si number density = 17.644510 Si / 1000 Ang^3
#
#
#
# Elastic Constant Matrix: (Units=GPa)
#
#
# Indices 1 2 3 4 5 6 
#
# 1 132.6172 50.3203 31.2464 0.0000 0.0000 0.0000
# 2 50.3203 76.3360 33.4667 0.0000 0.0000 0.0000
# 3 31.2464 33.4667 48.4029 0.0000 0.0000 0.0000
# 4 0.0000 0.0000 0.0000 24.8433 0.0000 0.0000
# 5 0.0000 0.0000 0.0000 0.0000 22.1838 0.0000
# 6 0.0000 0.0000 0.0000 0.0000 0.0000 27.9736
#
#
#
# Elastic Compliance Matrix: (Units=1/GPa)
#
#
# Indices 1 2 3 4 5 6 
#
# 1 0.010315 -0.005568 -0.002809 0.000000 0.000000 0.000000
# 2 -0.005568 0.021804 -0.011481 0.000000 0.000000 0.000000
# 3 -0.002809 -0.011481 0.030411 0.000000 0.000000 0.000000
# 4 0.000000 0.000000 0.000000 0.040252 0.000000 0.000000
# 5 0.000000 0.000000 0.000000 0.000000 0.045078 0.000000
# 6 0.000000 0.000000 0.000000 0.000000 0.000000 0.035748
#
#
# Mechanical properties :
#
#
# Convention : Reuss Voigt Hill
#
# Bulk Modulus (GPa) = 43.83270 54.15811 48.99541
# Shear Modulus (GPa) = 21.65159 24.48834 23.06996
#
# Velocity S-wave (km/s) = 3.50680 3.72946 3.61984
# Velocity P-wave (km/s) = 6.42596 7.02181 6.73048
#
# Compressibility (1/GPa) = 0.02281402
#
# Stress axis : x y z
#
# Youngs Moduli (GPa) = 96.94498 45.86320 32.88233
#
# Poissons Ratio (x) = 0.25538 0.09236
# Poissons Ratio (y) = 0.53981 0.37753
# Poissons Ratio (z) = 0.27231 0.52656
#
# Static dielectric constant tensor:
#      x y z
#    x 3.560480 0.000000 0.000000 
#    y 0.000000 3.367030 0.000000 
#    z 0.000000 0.000000 2.903250 
# 
# 
# High freq. dielectric constant tensor:
#      x y z
#    x 1.688170 0.000000 0.000000 
#    y 0.000000 1.692210 0.000000 
#    z 0.000000 0.000000 1.624640 
# 
# From -- ./inp_files/24356.got.cif
#   From: 2010.03.12/outbox.cif.g09.slc.cpg/sg44_13_cif.got.tgz:24356.got - 2010.04.14 02:36:11.
