data_PCOD8188848
_publ_section_title
;
Structure prediction by ZEFSAII (Michael W. Deem and Ramdas Pophale) SiO2 
 PCOD8188848
Probable space group: I M M 2
;
_chemical_formula_sum "Si O2"
_cell_formula_units_Z 56
_cell_length_a 23.757559
_cell_length_b 8.846883
_cell_length_c 13.549540
_cell_angle_alpha 90.000000
_cell_angle_beta 90.000000
_cell_angle_gamma 90.000000
_cell_volume 2847.846990
_symmetry_space_group_name_H-M "I M M 2"
_symmetry_group_IT_number 44
_symmetry_cell_setting 'orthorhombic'
loop_
_space_group_symop_operation_xyz
x,y,z
-x,-y,z
-x,y,z
x,-y,z
1/2+x,1/2+y,1/2+z
1/2-x,1/2-y,1/2+z
1/2-x,1/2+y,1/2+z
1/2+x,1/2-y,1/2+z
loop_
_atom_site_type_symbol
_atom_site_label
_atom_site_fract_x
_atom_site_fract_y
_atom_site_fract_z
Si Si1 0.838339 0.174702 0.732530
Si Si2 0.336288 0.676699 0.455278
Si Si3 0.730393 0.678529 0.044405
Si Si4 0.562449 0.822246 0.132087
Si Si5 0.564650 0.676547 0.765336
Si Si6 0.370419 0.822183 0.940091
Si Si7 0.435692 0.824296 0.557378
O O1 0.816657 0.208444 0.842747
O O2 0.791741 0.228445 0.652968
O O3 0.897397 0.258793 0.716971
O O4 0.851055 0.000000 0.715616
O O5 0.343728 0.500000 0.475547
O O6 0.290481 0.743552 0.530000
O O7 0.395669 0.760039 0.471945
O O8 0.737448 0.500000 0.034886
O O9 0.688111 0.737463 0.960296
O O10 0.500000 0.753120 0.144112
O O11 0.560636 0.000000 0.143889
O O12 0.585248 0.776090 0.024485
O O13 0.500000 0.712025 0.792892
O O14 0.578064 0.500000 0.774088
O O15 0.605207 0.769637 0.836381
O O16 0.577927 0.731232 0.655670
O O17 0.358436 0.000000 0.937600
O O18 0.500000 0.798975 0.523310
O O19 0.423404 0.000000 0.576993
#
# Coordination Sequence:
#
# PCOD8188848 Si02
#       7
#     8   8   8   8   8   8   8
#     4   9  21  39  57  79 109 144 182 227 275 326
#     4  11  23  40  61  84 111 145 184 227 281 338
#     4  10  21  39  59  81 111 146 189 235 278 329
#     4   9  18  32  52  80 113 148 186 228 273 323
#     4  10  20  34  54  82 115 151 191 234 280 332
#     4  10  19  33  54  81 115 152 189 231 282 335
#     4  10  22  40  60  83 112 146 185 230 279 332
#
# _framework density 19.663976999999999
#
# number of rings (size 3 to 8) (size 9 to 14) (size 15 to 20)
#    0.000    2.143    0.000    2.571    0.000    6.571 
#    0.000    7.143    0.000    0.000    0.000    0.000 
#    0.000    0.000    0.000    0.000    0.000    0.000 
#
# Total GULP energy -347298.432713 kJ/mol
# GULP energy per Si atom -12403.515454 kJ/mol
# Density = 1.961922 g / cm^3
# Si number density = 19.663977 Si / 1000 Ang^3
#
#
#
# Elastic Constant Matrix: (Units=GPa)
#
#
# Indices 1 2 3 4 5 6 
#
# 1 115.8979 36.0892 43.1018 0.0000 0.0000 0.0000
# 2 36.0892 53.0960 22.9450 0.0000 0.0000 0.0000
# 3 43.1018 22.9450 79.4687 0.0000 0.0000 0.0000
# 4 0.0000 0.0000 0.0000 32.7977 0.0000 0.0000
# 5 0.0000 0.0000 0.0000 0.0000 28.4126 0.0000
# 6 0.0000 0.0000 0.0000 0.0000 0.0000 35.4158
#
#
#
# Elastic Compliance Matrix: (Units=1/GPa)
#
#
# Indices 1 2 3 4 5 6 
#
# 1 0.012424 -0.006321 -0.004913 0.000000 0.000000 0.000000
# 2 -0.006321 0.024735 -0.003713 0.000000 0.000000 0.000000
# 3 -0.004913 -0.003713 0.016321 0.000000 0.000000 0.000000
# 4 0.000000 0.000000 0.000000 0.030490 0.000000 0.000000
# 5 0.000000 0.000000 0.000000 0.000000 0.035196 0.000000
# 6 0.000000 0.000000 0.000000 0.000000 0.000000 0.028236
#
#
# Mechanical properties :
#
#
# Convention : Reuss Voigt Hill
#
# Bulk Modulus (GPa) = 42.40186 50.30386 46.35286
# Shear Modulus (GPa) = 27.00399 29.08032 28.04216
#
# Velocity S-wave (km/s) = 3.70979 3.84977 3.78043
# Velocity P-wave (km/s) = 6.32140 6.73782 6.53293
#
# Compressibility (1/GPa) = 0.02358387
#
# Stress axis : x y z
#
# Youngs Moduli (GPa) = 80.49030 40.42849 61.27258
#
# Poissons Ratio (x) = 0.25556 0.30105
# Poissons Ratio (y) = 0.50880 0.22752
# Poissons Ratio (z) = 0.39547 0.15012
#
# Static dielectric constant tensor:
#      x y z
#    x 3.674690 0.000000 0.000000 
#    y 0.000000 3.582000 0.000000 
#    z 0.000000 0.000000 3.505160 
# 
# 
# High freq. dielectric constant tensor:
#      x y z
#    x 1.766560 0.000000 0.000000 
#    y 0.000000 1.772980 0.000000 
#    z 0.000000 0.000000 1.760580 
# 
# From -- ./inp_files/16493.got.cif
#   From: 2010.03.12/outbox.cif.g09.slc.cpg/sg44_9_cif.got.tgz:16493.got - 2010.04.14 02:36:11.
