data_PCOD8188427
_publ_section_title
;
Structure prediction by ZEFSAII (Michael W. Deem and Ramdas Pophale) SiO2 
 PCOD8188427
Probable space group: I M M 2
;
_chemical_formula_sum "Si O2"
_cell_formula_units_Z 56
_cell_length_a 13.519714
_cell_length_b 9.496474
_cell_length_c 28.946646
_cell_angle_alpha 90.000000
_cell_angle_beta 90.000000
_cell_angle_gamma 90.000000
_cell_volume 3716.448663
_symmetry_space_group_name_H-M "I M M 2"
_symmetry_group_IT_number 44
_symmetry_cell_setting 'orthorhombic'
loop_
_space_group_symop_operation_xyz
x,y,z
-x,-y,z
-x,y,z
x,-y,z
1/2+x,1/2+y,1/2+z
1/2-x,1/2-y,1/2+z
1/2-x,1/2+y,1/2+z
1/2+x,1/2-y,1/2+z
loop_
_atom_site_type_symbol
_atom_site_label
_atom_site_fract_x
_atom_site_fract_y
_atom_site_fract_z
Si Si1 0.382553 0.655537 0.125000
Si Si2 0.885118 0.336517 0.540495
Si Si3 0.198250 0.336505 0.444282
Si Si4 0.384951 0.335380 0.228259
Si Si5 0.698613 0.165351 0.310012
Si Si6 0.610430 0.339629 0.864672
Si Si7 0.610687 0.339318 0.390536
O O1 0.500000 0.652010 0.123742
O O2 0.340335 0.500000 0.114820
O O3 0.341495 0.759131 0.085639
O O4 0.350757 0.704343 0.176278
O O5 0.869166 0.500000 0.549683
O O6 0.823175 0.283740 0.496148
O O7 0.000000 0.300283 0.531989
O O8 0.170806 0.500000 0.440131
O O9 0.127081 0.256422 0.409159
O O10 0.313039 0.306376 0.432029
O O11 0.500000 0.299636 0.236218
O O12 0.365784 0.500000 0.238182
O O13 0.318679 0.238745 0.261082
O O14 0.812397 0.195284 0.323933
O O15 0.626916 0.234783 0.347886
O O16 0.674657 0.000000 0.306678
O O17 0.500000 0.313022 0.845365
O O18 0.624797 0.500000 0.881111
O O19 0.500000 0.316541 0.409869
O O20 0.625393 0.500000 0.372931
#
# Coordination Sequence:
#
# PCOD8188427 Si02
#       7
#     8   8   8   8   8   8   8
#     4   8  15  27  41  57  78 105 134 160 190 235
#     4   9  16  25  38  58  83 106 128 161 203 238
#     4   9  17  28  42  61  83 107 137 169 199 234
#     4   9  17  29  43  59  82 110 136 163 197 238
#     4  10  19  28  41  62  83 105 135 168 202 238
#     4   9  18  31  43  57  81 110 137 166 199 236
#     4   9  17  29  43  58  80 111 141 167 197 234
#
# _framework density 15.068148000000001
#
# number of rings (size 3 to 8) (size 9 to 14) (size 15 to 20)
#    0.000    3.000    0.000    2.143    0.000    4.857 
#    0.000    2.857    0.000    0.000    0.000    1.000 
#    0.000    5.714    0.000    0.000    0.000    0.000 
#
# Total GULP energy -347115.673769 kJ/mol
# GULP energy per Si atom -12396.988349 kJ/mol
# Density = 1.503385 g / cm^3
# Si number density = 15.068148 Si / 1000 Ang^3
#
#
#
# Elastic Constant Matrix: (Units=GPa)
#
#
# Indices 1 2 3 4 5 6 
#
# 1 75.3477 35.7129 48.6172 0.0000 0.0000 0.0000
# 2 35.7129 68.7904 65.4872 0.0000 0.0000 0.0000
# 3 48.6172 65.4872 136.1193 0.0000 0.0000 0.0000
# 4 0.0000 0.0000 0.0000 29.2058 0.0000 0.0000
# 5 0.0000 0.0000 0.0000 0.0000 20.0537 0.0000
# 6 0.0000 0.0000 0.0000 0.0000 0.0000 17.2847
#
#
#
# Elastic Compliance Matrix: (Units=1/GPa)
#
#
# Indices 1 2 3 4 5 6 
#
# 1 0.018549 -0.006131 -0.003676 0.000000 0.000000 0.000000
# 2 -0.006131 0.028847 -0.011689 0.000000 0.000000 0.000000
# 3 -0.003676 -0.011689 0.014283 0.000000 0.000000 0.000000
# 4 0.000000 0.000000 0.000000 0.034240 0.000000 0.000000
# 5 0.000000 0.000000 0.000000 0.000000 0.049866 0.000000
# 6 0.000000 0.000000 0.000000 0.000000 0.000000 0.057855
#
#
# Mechanical properties :
#
#
# Convention : Reuss Voigt Hill
#
# Bulk Modulus (GPa) = 53.50764 64.43244 58.97004
# Shear Modulus (GPa) = 19.77380 22.00484 20.88932
#
# Velocity S-wave (km/s) = 3.62649 3.82560 3.72738
# Velocity P-wave (km/s) = 7.28853 7.89729 7.59901
#
# Compressibility (1/GPa) = 0.01868892
#
# Stress axis : x y z
#
# Youngs Moduli (GPa) = 53.91030 34.66542 70.01462
#
# Poissons Ratio (x) = 0.21253 0.25735
# Poissons Ratio (y) = 0.33052 0.81838
# Poissons Ratio (z) = 0.19815 0.40519
#
# Static dielectric constant tensor:
#      x y z
#    x 2.775680 0.000000 0.000000 
#    y 0.000000 3.004510 0.000000 
#    z 0.000000 0.000000 2.963280 
# 
# 
# High freq. dielectric constant tensor:
#      x y z
#    x 1.548000 0.000000 0.000000 
#    y 0.000000 1.582370 0.000000 
#    z 0.000000 0.000000 1.569310 
# 
# From -- ./inp_files/27211.got.cif
#   From: 2010.03.12/outbox.cif.g09.slc.cpg/sg44_14_cif.got.tgz:27211.got - 2010.04.14 02:36:11.
