data_PCOD8188921
_publ_section_title
;
Structure prediction by ZEFSAII (Michael W. Deem and Ramdas Pophale) SiO2 
 PCOD8188921
Probable space group: I M M 2
;
_chemical_formula_sum "Si O2"
_cell_formula_units_Z 64
_cell_length_a 19.474448
_cell_length_b 8.762357
_cell_length_c 20.914331
_cell_angle_alpha 90.000000
_cell_angle_beta 90.000000
_cell_angle_gamma 90.000000
_cell_volume 3568.864646
_symmetry_space_group_name_H-M "I M M 2"
_symmetry_group_IT_number 44
_symmetry_cell_setting 'orthorhombic'
loop_
_space_group_symop_operation_xyz
x,y,z
-x,-y,z
-x,y,z
x,-y,z
1/2+x,1/2+y,1/2+z
1/2-x,1/2-y,1/2+z
1/2-x,1/2+y,1/2+z
1/2+x,1/2-y,1/2+z
loop_
_atom_site_type_symbol
_atom_site_label
_atom_site_fract_x
_atom_site_fract_y
_atom_site_fract_z
Si Si1 0.075303 0.819330 0.837450
Si Si2 0.203551 0.319142 0.278195
Si Si3 0.077022 0.321167 0.700526
Si Si4 0.577341 0.324173 0.722021
Si Si5 0.922210 0.322306 0.086408
Si Si6 0.788826 0.180354 0.898247
Si Si7 0.208402 0.179093 0.654759
Si Si8 0.708976 0.678959 0.540111
O O1 0.092011 0.754652 0.768175
O O2 0.133678 0.757922 0.885620
O O3 0.000000 0.764203 0.861444
O O4 0.077655 0.000000 0.830900
O O5 0.192650 0.500000 0.278943
O O6 0.130032 0.235648 0.275322
O O7 0.237577 0.257383 0.343804
O O8 0.250095 0.268535 0.217866
O O9 0.086161 0.500000 0.707835
O O10 0.133636 0.257688 0.651370
O O11 0.000000 0.280425 0.676113
O O12 0.500000 0.304115 0.748578
O O13 0.592090 0.500000 0.704460
O O14 0.589040 0.221289 0.659926
O O15 0.904478 0.500000 0.078835
O O16 0.871568 0.221647 0.043255
O O17 0.000000 0.285662 0.064812
O O18 0.791171 0.000000 0.892390
O O19 0.764788 0.227559 0.969307
O O20 0.249204 0.226203 0.591697
O O21 0.197511 0.000000 0.654733
O O22 0.718645 0.500000 0.552534
#
# Coordination Sequence:
#
# PCOD8188921 Si02
#       8
#     8   8   8   8   8   8   8   8
#     4   9  16  30  52  75 104 143 182 215 252 305
#     4  10  19  34  56  79 105 138 178 220 262 313
#     4  10  20  33  52  81 112 138 172 221 270 311
#     4  10  20  33  52  80 109 136 173 221 270 315
#     4  10  20  34  51  73 106 146 183 216 255 311
#     4   9  19  35  52  76 106 140 180 218 258 311
#     4  11  21  35  57  80 106 140 178 220 264 316
#     4  11  22  35  54  78 108 141 178 224 268 312
#
# _framework density 17.932873000000001
#
# number of rings (size 3 to 8) (size 9 to 14) (size 15 to 20)
#    0.000    2.000    2.500    1.875    0.000    3.250 
#    0.000    3.750    0.000    2.250    0.000    1.750 
#    0.000    0.000    0.000    0.000    0.000    0.000 
#
# Total GULP energy -396755.772686 kJ/mol
# GULP energy per Si atom -12398.617896 kJ/mol
# Density = 1.789206 g / cm^3
# Si number density = 17.932873 Si / 1000 Ang^3
#
#
#
# Elastic Constant Matrix: (Units=GPa)
#
#
# Indices 1 2 3 4 5 6 
#
# 1 139.2897 64.9223 81.7268 0.0000 0.0000 0.0000
# 2 64.9223 83.4495 54.2543 0.0000 0.0000 0.0000
# 3 81.7268 54.2543 129.4155 0.0000 0.0000 0.0000
# 4 0.0000 0.0000 0.0000 19.2405 0.0000 0.0000
# 5 0.0000 0.0000 0.0000 0.0000 24.2579 0.0000
# 6 0.0000 0.0000 0.0000 0.0000 0.0000 30.9712
#
#
#
# Elastic Compliance Matrix: (Units=1/GPa)
#
#
# Indices 1 2 3 4 5 6 
#
# 1 0.013852 -0.006996 -0.005815 0.000000 0.000000 0.000000
# 2 -0.006996 0.020007 -0.003969 0.000000 0.000000 0.000000
# 3 -0.005815 -0.003969 0.013063 0.000000 0.000000 0.000000
# 4 0.000000 0.000000 0.000000 0.051974 0.000000 0.000000
# 5 0.000000 0.000000 0.000000 0.000000 0.041224 0.000000
# 6 0.000000 0.000000 0.000000 0.000000 0.000000 0.032288
#
#
# Mechanical properties :
#
#
# Convention : Reuss Voigt Hill
#
# Bulk Modulus (GPa) = 74.84085 83.77350 79.30718
# Shear Modulus (GPa) = 23.76194 24.97735 24.36965
#
# Velocity S-wave (km/s) = 3.64407 3.73611 3.69038
# Velocity P-wave (km/s) = 7.71558 8.08874 7.90436
#
# Compressibility (1/GPa) = 0.01336169
#
# Stress axis : x y z
#
# Youngs Moduli (GPa) = 72.19290 49.98308 76.55232
#
# Poissons Ratio (x) = 0.34969 0.44512
# Poissons Ratio (y) = 0.50507 0.30385
# Poissons Ratio (z) = 0.41977 0.19839
#
# Static dielectric constant tensor:
#      x y z
#    x 3.587940 0.000000 0.000000 
#    y 0.000000 3.221730 0.000000 
#    z 0.000000 0.000000 3.171920 
# 
# 
# High freq. dielectric constant tensor:
#      x y z
#    x 1.701240 0.000000 0.000000 
#    y 0.000000 1.690360 0.000000 
#    z 0.000000 0.000000 1.665030 
# 
# From -- ./inp_files/24340.got.cif
#   From: 2010.03.12/outbox.cif.g09.slc.cpg/sg44_13_cif.got.tgz:24340.got - 2010.04.14 02:36:11.
