data_PCOD8188402
_publ_section_title
;
Structure prediction by ZEFSAII (Michael W. Deem and Ramdas Pophale) SiO2 
 PCOD8188402
Probable space group: I M M 2
;
_chemical_formula_sum "Si O2"
_cell_formula_units_Z 38
_cell_length_a 12.166155
_cell_length_b 15.100121
_cell_length_c 10.645999
_cell_angle_alpha 90.000000
_cell_angle_beta 90.000000
_cell_angle_gamma 90.000000
_cell_volume 1955.780869
_symmetry_space_group_name_H-M "I M M 2"
_symmetry_group_IT_number 44
_symmetry_cell_setting 'orthorhombic'
loop_
_space_group_symop_operation_xyz
x,y,z
-x,-y,z
-x,y,z
x,-y,z
1/2+x,1/2+y,1/2+z
1/2-x,1/2-y,1/2+z
1/2-x,1/2+y,1/2+z
1/2+x,1/2-y,1/2+z
loop_
_atom_site_type_symbol
_atom_site_label
_atom_site_fract_x
_atom_site_fract_y
_atom_site_fract_z
Si Si1 0.272616 0.500000 0.417940
Si Si2 0.626760 0.500000 0.151521
Si Si3 0.371820 0.141016 0.050114
Si Si4 0.679268 0.336590 0.975086
Si Si5 0.123947 0.601847 0.833107
Si Si6 0.500000 0.598393 0.804598
Si Si7 0.000000 0.000000 0.064240
O O1 0.291802 0.500000 0.269747
O O2 0.202642 0.413128 0.452860
O O3 0.391096 0.500000 0.482622
O O4 0.500000 0.500000 0.195040
O O5 0.651730 0.411816 0.074545
O O6 0.500000 0.120553 0.023823
O O7 0.338044 0.111342 0.189506
O O8 0.346825 0.244201 0.039288
O O9 0.804899 0.339662 0.928888
O O10 0.607138 0.348972 0.849376
O O11 0.137255 0.500000 0.872835
O O12 0.000000 0.635972 0.848535
O O13 0.500000 0.500000 0.868591
O O14 0.500000 0.587898 0.653438
#
# Coordination Sequence:
#
# PCOD8188402 Si02
#       7
#     4   4   8   8   8   4   2
#     4  12  25  43  62  92 134 167 207 262 317 386
#     4  12  23  43  64  92 132 171 204 260 326 375
#     4  11  24  43  66  92 126 169 210 257 322 378
#     4  12  21  41  67  95 123 166 217 258 314 377
#     4  10  21  41  69  92 122 165 216 265 310 372
#     4  10  18  35  68  94 117 157 210 270 298 358
#     4  10  22  42  66  94 122 164 214 274 314 352
#
# _framework density 19.429580999999999
#
# number of rings (size 3 to 8) (size 9 to 14) (size 15 to 20)
#    0.316    0.632    5.789    1.579    2.947    0.000 
#    1.895    2.105    0.000    0.000    0.000    0.000 
#    0.000    0.000    0.000    0.000    0.000    0.000 
#
# Total GULP energy -235641.457222 kJ/mol
# GULP energy per Si atom -12402.181959 kJ/mol
# Density = 1.938536 g / cm^3
# Si number density = 19.429581 Si / 1000 Ang^3
#
#
#
# Elastic Constant Matrix: (Units=GPa)
#
#
# Indices 1 2 3 4 5 6 
#
# 1 118.2165 33.5412 48.2838 0.0000 0.0000 0.0000
# 2 33.5412 99.8792 22.5363 0.0000 0.0000 0.0000
# 3 48.2838 22.5363 77.5746 0.0000 0.0000 0.0000
# 4 0.0000 0.0000 0.0000 11.7126 0.0000 0.0000
# 5 0.0000 0.0000 0.0000 0.0000 41.4504 0.0000
# 6 0.0000 0.0000 0.0000 0.0000 0.0000 23.5882
#
#
#
# Elastic Compliance Matrix: (Units=1/GPa)
#
#
# Indices 1 2 3 4 5 6 
#
# 1 0.011893 -0.002487 -0.006680 0.000000 0.000000 0.000000
# 2 -0.002487 0.011234 -0.001716 0.000000 0.000000 0.000000
# 3 -0.006680 -0.001716 0.017547 0.000000 0.000000 0.000000
# 4 0.000000 0.000000 0.000000 0.085378 0.000000 0.000000
# 5 0.000000 0.000000 0.000000 0.000000 0.024125 0.000000
# 6 0.000000 0.000000 0.000000 0.000000 0.000000 0.042394
#
#
# Mechanical properties :
#
#
# Convention : Reuss Voigt Hill
#
# Bulk Modulus (GPa) = 52.88440 56.04365 54.46403
# Shear Modulus (GPa) = 22.66138 28.10417 25.38278
#
# Velocity S-wave (km/s) = 3.41887 3.80737 3.61833
# Velocity P-wave (km/s) = 6.54694 6.94515 6.74899
#
# Compressibility (1/GPa) = 0.01890917
#
# Stress axis : x y z
#
# Youngs Moduli (GPa) = 84.08364 89.01288 56.98954
#
# Poissons Ratio (x) = 0.22134 0.38069
# Poissons Ratio (y) = 0.20908 0.09779
# Poissons Ratio (z) = 0.56168 0.15274
#
# Static dielectric constant tensor:
#      x y z
#    x 3.731040 0.000000 0.000000 
#    y 0.000000 3.451530 0.000000 
#    z 0.000000 0.000000 3.396660 
# 
# 
# High freq. dielectric constant tensor:
#      x y z
#    x 1.771650 0.000000 0.000000 
#    y 0.000000 1.749790 0.000000 
#    z 0.000000 0.000000 1.746710 
# 
# From -- ./inp_files/12094.got.cif
#   From: 2010.03.12/outbox.cif.g09.slc.cpg/sg44_7_cif.got.tgz:12094.got - 2010.04.14 02:36:11.
