data_PCOD8188392
_publ_section_title
;
Structure prediction by ZEFSAII (Michael W. Deem and Ramdas Pophale) SiO2 
 PCOD8188392
Probable space group: I M M 2
;
_chemical_formula_sum "Si O2"
_cell_formula_units_Z 48
_cell_length_a 8.577016
_cell_length_b 18.176960
_cell_length_c 14.853099
_cell_angle_alpha 90.000000
_cell_angle_beta 90.000000
_cell_angle_gamma 90.000000
_cell_volume 2315.658686
_symmetry_space_group_name_H-M "I M M 2"
_symmetry_group_IT_number 44
_symmetry_cell_setting 'orthorhombic'
loop_
_space_group_symop_operation_xyz
x,y,z
-x,-y,z
-x,y,z
x,-y,z
1/2+x,1/2+y,1/2+z
1/2-x,1/2-y,1/2+z
1/2-x,1/2+y,1/2+z
1/2+x,1/2-y,1/2+z
loop_
_atom_site_type_symbol
_atom_site_label
_atom_site_fract_x
_atom_site_fract_y
_atom_site_fract_z
Si Si1 0.322202 0.623041 0.293800
Si Si2 0.184210 0.653620 0.899698
Si Si3 0.818292 0.267867 0.545111
Si Si4 0.176989 0.918696 0.992716
Si Si5 0.685451 0.500000 0.962216
Si Si6 0.319357 0.735230 0.740498
Si Si7 0.814977 0.000000 0.663887
O O1 0.500000 0.649610 0.275646
O O2 0.313949 0.577533 0.385313
O O3 0.207520 0.692278 0.300791
O O4 0.255004 0.572792 0.213732
O O5 0.241853 0.670264 0.798331
O O6 0.000000 0.651781 0.901975
O O7 0.237176 0.714519 0.972696
O O8 0.250953 0.573104 0.916863
O O9 0.785924 0.354274 0.529808
O O10 0.761473 0.249743 0.645163
O O11 0.000000 0.251787 0.537729
O O12 0.000000 0.902126 0.024146
O O13 0.229111 0.000000 0.028236
O O14 0.500000 0.500000 0.958723
O O15 0.749878 0.500000 0.063722
O O16 0.500000 0.717892 0.726501
O O17 0.000000 0.000000 0.669250
#
# Coordination Sequence:
#
# PCOD8188392 Si02
#       7
#     8   8   8   8   4   8   4
#     4  10  18  34  61  92 127 165 205 253 315 386
#     4  12  25  45  69  95 132 174 218 272 329 388
#     4  12  25  43  67  96 130 172 220 271 328 389
#     4  10  20  37  63  94 131 171 210 256 319 387
#     4  11  23  41  65  96 133 172 217 267 326 389
#     4  12  25  42  65  95 126 167 220 272 328 389
#     4   9  18  33  59  94 127 164 205 251 312 385
#
# _framework density 20.728442999999999
#
# number of rings (size 3 to 8) (size 9 to 14) (size 15 to 20)
#    0.000    1.000    2.500    5.750    0.000    1.667 
#    1.500    1.250    0.000    0.000    0.000    0.000 
#    0.000    0.000    0.000    0.000    0.000    0.000 
#
# Total GULP energy -297598.435676 kJ/mol
# GULP energy per Si atom -12399.934820 kJ/mol
# Density = 2.068126 g / cm^3
# Si number density = 20.728443 Si / 1000 Ang^3
#
#
#
# Elastic Constant Matrix: (Units=GPa)
#
#
# Indices 1 2 3 4 5 6 
#
# 1 112.7201 29.5138 21.5153 0.0000 0.0000 0.0000
# 2 29.5138 125.6739 18.4771 0.0000 0.0000 0.0000
# 3 21.5153 18.4771 68.2524 0.0000 0.0000 0.0000
# 4 0.0000 0.0000 0.0000 34.9092 0.0000 0.0000
# 5 0.0000 0.0000 0.0000 0.0000 29.9376 0.0000
# 6 0.0000 0.0000 0.0000 0.0000 0.0000 24.9702
#
#
#
# Elastic Compliance Matrix: (Units=1/GPa)
#
#
# Indices 1 2 3 4 5 6 
#
# 1 0.009873 -0.001938 -0.002588 0.000000 0.000000 0.000000
# 2 -0.001938 0.008667 -0.001735 0.000000 0.000000 0.000000
# 3 -0.002588 -0.001735 0.015937 0.000000 0.000000 0.000000
# 4 0.000000 0.000000 0.000000 0.028646 0.000000 0.000000
# 5 0.000000 0.000000 0.000000 0.000000 0.033403 0.000000
# 6 0.000000 0.000000 0.000000 0.000000 0.000000 0.040048
#
#
# Mechanical properties :
#
#
# Convention : Reuss Voigt Hill
#
# Bulk Modulus (GPa) = 45.54774 49.51764 47.53269
# Shear Modulus (GPa) = 31.96640 33.77275 32.86958
#
# Velocity S-wave (km/s) = 3.93128 4.04083 3.98643
# Velocity P-wave (km/s) = 6.52900 6.76104 6.64604
#
# Compressibility (1/GPa) = 0.02195499
#
# Stress axis : x y z
#
# Youngs Moduli (GPa) = 101.28734 115.37458 62.74707
#
# Poissons Ratio (x) = 0.22361 0.16236
# Poissons Ratio (y) = 0.19631 0.10889
# Poissons Ratio (z) = 0.26209 0.20023
#
# Static dielectric constant tensor:
#      x y z
#    x 3.653960 0.000000 0.000000 
#    y 0.000000 3.816060 0.000000 
#    z 0.000000 0.000000 3.860880 
# 
# 
# High freq. dielectric constant tensor:
#      x y z
#    x 1.801410 0.000000 0.000000 
#    y 0.000000 1.822720 0.000000 
#    z 0.000000 0.000000 1.811480 
# 
# From -- ./inp_files/16199.got.cif
#   From: 2010.03.12/outbox.cif.g09.slc.cpg/sg44_9_cif.got.tgz:16199.got - 2010.04.14 02:36:11.
