data_PCOD8188990
_publ_section_title
;
Structure prediction by ZEFSAII (Michael W. Deem and Ramdas Pophale) SiO2 
 PCOD8188990
Probable space group: I M M 2
;
_chemical_formula_sum "Si O2"
_cell_formula_units_Z 64
_cell_length_a 15.645639
_cell_length_b 8.689062
_cell_length_c 23.416923
_cell_angle_alpha 90.000000
_cell_angle_beta 90.000000
_cell_angle_gamma 90.000000
_cell_volume 3183.435312
_symmetry_space_group_name_H-M "I M M 2"
_symmetry_group_IT_number 44
_symmetry_cell_setting 'orthorhombic'
loop_
_space_group_symop_operation_xyz
x,y,z
-x,-y,z
-x,y,z
x,-y,z
1/2+x,1/2+y,1/2+z
1/2-x,1/2-y,1/2+z
1/2-x,1/2+y,1/2+z
1/2+x,1/2-y,1/2+z
loop_
_atom_site_type_symbol
_atom_site_label
_atom_site_fract_x
_atom_site_fract_y
_atom_site_fract_z
Si Si1 0.346731 0.180677 0.166530
Si Si2 0.096487 0.834196 0.213812
Si Si3 0.267409 0.182567 0.373215
Si Si4 0.407381 0.323172 0.057111
Si Si5 0.900537 0.679688 0.327210
Si Si6 0.240386 0.682025 0.999125
Si Si7 0.097822 0.820279 0.784741
Si Si8 0.322425 0.819265 0.617903
O O1 0.410129 0.224355 0.115112
O O2 0.387305 0.229902 0.226276
O O3 0.259112 0.271475 0.155605
O O4 0.329529 0.000000 0.167246
O O5 0.129367 0.717352 0.262351
O O6 0.099689 0.760642 0.150595
O O7 0.000000 0.868831 0.228075
O O8 0.145690 0.000000 0.216786
O O9 0.167657 0.228075 0.365501
O O10 0.291211 0.240891 0.437587
O O11 0.334560 0.264310 0.331926
O O12 0.276229 0.000000 0.366007
O O13 0.500000 0.308541 0.027448
O O14 0.386365 0.500000 0.073914
O O15 0.337033 0.260522 0.012631
O O16 0.888722 0.500000 0.337903
O O17 0.000000 0.727846 0.339843
O O18 0.239941 0.500000 0.997435
O O19 0.181832 0.740393 0.052160
O O20 0.000000 0.788568 0.805225
O O21 0.112838 0.000000 0.773984
O O22 0.334417 0.000000 0.618910
#
# Coordination Sequence:
#
# PCOD8188990 Si02
#       8
#     8   8   8   8   8   8   8   8
#     4  11  21  33  53  82 113 140 171 217 272 325
#     4  10  20  34  53  80 111 138 170 217 271 323
#     4  11  22  38  60  83 110 144 186 236 281 321
#     4   9  17  32  54  79 109 143 176 211 256 316
#     4  10  21  37  57  83 116 152 187 222 267 329
#     4   8  18  35  54  77 103 138 182 222 262 314
#     4  11  24  41  59  79 107 146 189 230 277 335
#     4  10  19  35  57  78 105 141 180 217 260 321
#
# _framework density 20.104068999999999
#
# number of rings (size 3 to 8) (size 9 to 14) (size 15 to 20)
#    0.000    2.000    0.000    4.875    0.000    4.750 
#    0.000    8.125    0.000    3.750    0.000    0.000 
#    0.000    0.000    0.000    0.000    0.000    0.000 
#
# Total GULP energy -396519.584196 kJ/mol
# GULP energy per Si atom -12391.237006 kJ/mol
# Density = 2.005831 g / cm^3
# Si number density = 20.104069 Si / 1000 Ang^3
#
#
#
# Elastic Constant Matrix: (Units=GPa)
#
#
# Indices 1 2 3 4 5 6 
#
# 1 51.2348 10.8550 21.2288 0.0000 0.0000 0.0000
# 2 10.8550 62.0276 11.2662 0.0000 0.0000 0.0000
# 3 21.2288 11.2662 102.9529 0.0000 0.0000 0.0000
# 4 0.0000 0.0000 0.0000 24.9189 0.0000 0.0000
# 5 0.0000 0.0000 0.0000 0.0000 18.2735 0.0000
# 6 0.0000 0.0000 0.0000 0.0000 0.0000 25.0940
#
#
#
# Elastic Compliance Matrix: (Units=1/GPa)
#
#
# Indices 1 2 3 4 5 6 
#
# 1 0.021901 -0.003074 -0.004180 0.000000 0.000000 0.000000
# 2 -0.003074 0.016880 -0.001213 0.000000 0.000000 0.000000
# 3 -0.004180 -0.001213 0.010708 0.000000 0.000000 0.000000
# 4 0.000000 0.000000 0.000000 0.040130 0.000000 0.000000
# 5 0.000000 0.000000 0.000000 0.000000 0.054724 0.000000
# 6 0.000000 0.000000 0.000000 0.000000 0.000000 0.039850
#
#
# Mechanical properties :
#
#
# Convention : Reuss Voigt Hill
#
# Bulk Modulus (GPa) = 30.71665 33.65726 32.18696
# Shear Modulus (GPa) = 23.58730 25.18164 24.38447
#
# Velocity S-wave (km/s) = 3.42900 3.54300 3.48647
# Velocity P-wave (km/s) = 5.56681 5.78921 5.67910
#
# Compressibility (1/GPa) = 0.03255563
#
# Stress axis : x y z
#
# Youngs Moduli (GPa) = 45.66008 59.24124 93.38986
#
# Poissons Ratio (x) = 0.18208 0.39033
# Poissons Ratio (y) = 0.14034 0.11332
# Poissons Ratio (z) = 0.19084 0.07188
#
# Static dielectric constant tensor:
#      x y z
#    x 3.686310 0.000000 0.000000 
#    y 0.000000 3.716570 0.000000 
#    z 0.000000 0.000000 3.922070 
# 
# 
# High freq. dielectric constant tensor:
#      x y z
#    x 1.775940 0.000000 0.000000 
#    y 0.000000 1.780690 0.000000 
#    z 0.000000 0.000000 1.779910 
# 
# From -- ./inp_files/25778.got.cif
#   From: 2010.03.12/outbox.cif.g09.slc.cpg/sg44_13_cif.got.tgz:25778.got - 2010.04.14 02:36:11.
