data_PCOD8188961
_publ_section_title
;
Structure prediction by ZEFSAII (Michael W. Deem and Ramdas Pophale) SiO2 
 PCOD8188961
Probable space group: I M M 2
;
_chemical_formula_sum "Si O2"
_cell_formula_units_Z 48
_cell_length_a 8.508977
_cell_length_b 14.547177
_cell_length_c 20.301237
_cell_angle_alpha 90.000000
_cell_angle_beta 90.000000
_cell_angle_gamma 90.000000
_cell_volume 2512.919486
_symmetry_space_group_name_H-M "I M M 2"
_symmetry_group_IT_number 44
_symmetry_cell_setting 'orthorhombic'
loop_
_space_group_symop_operation_xyz
x,y,z
-x,-y,z
-x,y,z
x,-y,z
1/2+x,1/2+y,1/2+z
1/2-x,1/2-y,1/2+z
1/2-x,1/2+y,1/2+z
1/2+x,1/2-y,1/2+z
loop_
_atom_site_type_symbol
_atom_site_label
_atom_site_fract_x
_atom_site_fract_y
_atom_site_fract_z
Si Si1 0.183500 0.195258 0.428200
Si Si2 0.183990 0.806301 0.578503
Si Si3 0.682712 0.685037 0.313989
Si Si4 0.684184 0.697597 0.695309
Si Si5 0.183746 0.000000 0.627521
Si Si6 0.314190 0.500000 0.734222
Si Si7 0.813542 0.000000 0.381125
Si Si8 0.818039 0.500000 0.271249
O O1 0.216078 0.222457 0.503483
O O2 0.278673 0.263364 0.381597
O O3 0.000000 0.202344 0.410024
O O4 0.245658 0.091172 0.418307
O O5 0.277118 0.734309 0.623098
O O6 0.252305 0.908413 0.593087
O O7 0.000000 0.801940 0.595803
O O8 0.500000 0.661862 0.311222
O O9 0.725819 0.745619 0.250832
O O10 0.777725 0.589765 0.313781
O O11 0.500000 0.705793 0.710333
O O12 0.742528 0.591730 0.696809
O O13 0.218530 0.000000 0.704592
O O14 0.000000 0.000000 0.615331
O O15 0.500000 0.500000 0.739367
O O16 0.242793 0.500000 0.807655
O O17 0.000000 0.000000 0.380047
O O18 0.000000 0.500000 0.252268
#
# Coordination Sequence:
#
# PCOD8188961 Si02
#       8
#     8   8   8   8   4   4   4   4
#     4  10  20  37  60  86 118 159 201 238 289 354
#     4  10  21  36  57  87 122 157 193 239 293 348
#     4  12  24  39  59  86 120 154 192 244 300 352
#     4  11  21  37  60  84 114 154 199 243 290 350
#     4  10  19  34  57  89 127 157 187 236 297 353
#     4   9  18  33  57  86 111 143 195 243 281 334
#     4   9  15  30  58  87 114 146 190 240 284 336
#     4  12  24  39  62  90 114 150 200 247 292 353
#
# _framework density 19.101289000000001
#
# number of rings (size 3 to 8) (size 9 to 14) (size 15 to 20)
#    0.000    1.500    3.333    3.250    0.000    2.667 
#    0.000    3.750    0.000    6.000    0.000    0.000 
#    0.000    0.000    0.000    0.000    0.000    0.000 
#
# Total GULP energy -297655.680575 kJ/mol
# GULP energy per Si atom -12402.320024 kJ/mol
# Density = 1.905781 g / cm^3
# Si number density = 19.101289 Si / 1000 Ang^3
#
#
#
# Elastic Constant Matrix: (Units=GPa)
#
#
# Indices 1 2 3 4 5 6 
#
# 1 35.2889 19.7546 12.4419 0.0000 0.0000 0.0000
# 2 19.7546 137.2666 48.5895 0.0000 0.0000 0.0000
# 3 12.4419 48.5895 105.2960 0.0000 0.0000 0.0000
# 4 0.0000 0.0000 0.0000 31.1872 0.0000 0.0000
# 5 0.0000 0.0000 0.0000 0.0000 30.2815 0.0000
# 6 0.0000 0.0000 0.0000 0.0000 0.0000 22.3652
#
#
#
# Elastic Compliance Matrix: (Units=1/GPa)
#
#
# Indices 1 2 3 4 5 6 
#
# 1 0.031144 -0.003800 -0.001926 0.000000 0.000000 0.000000
# 2 -0.003800 0.009171 -0.003783 0.000000 0.000000 0.000000
# 3 -0.001926 -0.003783 0.011470 0.000000 0.000000 0.000000
# 4 0.000000 0.000000 0.000000 0.032064 0.000000 0.000000
# 5 0.000000 0.000000 0.000000 0.000000 0.033023 0.000000
# 6 0.000000 0.000000 0.000000 0.000000 0.000000 0.044712
#
#
# Mechanical properties :
#
#
# Convention : Reuss Voigt Hill
#
# Bulk Modulus (GPa) = 30.51916 48.82483 39.67199
# Shear Modulus (GPa) = 26.10600 29.90450 28.00525
#
# Velocity S-wave (km/s) = 3.70092 3.96103 3.83318
# Velocity P-wave (km/s) = 5.85445 6.82174 6.35652
#
# Compressibility (1/GPa) = 0.03276630
#
# Stress axis : x y z
#
# Youngs Moduli (GPa) = 32.10892 109.03815 87.18116
#
# Poissons Ratio (x) = 0.41436 0.16795
# Poissons Ratio (y) = 0.12202 0.32981
# Poissons Ratio (z) = 0.06185 0.41250
#
# Static dielectric constant tensor:
#      x y z
#    x 3.277610 0.000000 0.000000 
#    y 0.000000 3.813340 0.000000 
#    z 0.000000 0.000000 3.415050 
# 
# 
# High freq. dielectric constant tensor:
#      x y z
#    x 1.723300 0.000000 0.000000 
#    y 0.000000 1.750680 0.000000 
#    z 0.000000 0.000000 1.738500 
# 
# From -- ./inp_files/20356.got.cif
#   From: 2010.03.12/outbox.cif.g09.slc.cpg/sg44_11_cif.got.tgz:20356.got - 2010.04.14 02:36:11.
