data_PCOD8188041
_publ_section_title
;
Structure prediction by ZEFSAII (Michael W. Deem and Ramdas Pophale) SiO2 
 PCOD8188041
Probable space group: I M M 2
;
_chemical_formula_sum "Si O2"
_cell_formula_units_Z 64
_cell_length_a 26.228498
_cell_length_b 8.584153
_cell_length_c 18.439560
_cell_angle_alpha 90.000000
_cell_angle_beta 90.000000
_cell_angle_gamma 90.000000
_cell_volume 4151.656604
_symmetry_space_group_name_H-M "I M M 2"
_symmetry_group_IT_number 44
_symmetry_cell_setting 'orthorhombic'
loop_
_space_group_symop_operation_xyz
x,y,z
-x,-y,z
-x,y,z
x,-y,z
1/2+x,1/2+y,1/2+z
1/2-x,1/2-y,1/2+z
1/2-x,1/2+y,1/2+z
1/2+x,1/2-y,1/2+z
loop_
_atom_site_type_symbol
_atom_site_label
_atom_site_fract_x
_atom_site_fract_y
_atom_site_fract_z
Si Si1 0.647536 0.181892 0.904260
Si Si2 0.746080 0.316700 0.156106
Si Si3 0.557491 0.179866 0.142446
Si Si4 0.849143 0.317786 0.738564
Si Si5 0.704590 0.682411 0.783538
Si Si6 0.758468 0.816504 0.490589
Si Si7 0.299144 0.682145 0.367023
Si Si8 0.558685 0.319586 0.990538
O O1 0.653164 0.268374 0.825861
O O2 0.591918 0.220105 0.934812
O O3 0.653155 0.000000 0.891536
O O4 0.690319 0.237140 0.960995
O O5 0.752667 0.500000 0.164453
O O6 0.691360 0.266787 0.186932
O O7 0.792809 0.231431 0.198959
O O8 0.749932 0.263674 0.072980
O O9 0.500000 0.220146 0.167392
O O10 0.594483 0.220376 0.209213
O O11 0.562590 0.000000 0.119680
O O12 0.573772 0.280746 0.073091
O O13 0.836749 0.500000 0.737691
O O14 0.846273 0.254724 0.821431
O O15 0.714776 0.500000 0.792820
O O16 0.748703 0.783313 0.821062
O O17 0.708421 0.761660 0.445684
O O18 0.765693 0.000000 0.483040
O O19 0.307891 0.500000 0.377409
O O20 0.500000 0.275105 0.976474
O O21 0.569627 0.500000 0.976819
#
# Coordination Sequence:
#
# PCOD8188041 Si02
#       8
#     8   8   8   8   8   8   8   8
#     4  11  20  30  45  62  84 113 145 177 210 250
#     4  10  19  29  42  61  85 111 140 173 207 247
#     4   9  18  31  45  62  84 111 144 180 215 250
#     4  10  18  28  43  60  82 112 143 174 209 249
#     4  10  18  29  44  60  82 109 139 173 208 248
#     4  10  19  30  44  62  86 113 142 175 210 250
#     4  10  18  28  42  59  82 109 140 175 208 247
#     4  10  20  32  45  62  85 112 143 179 215 249
#
# _framework density 15.415533999999999
#
# number of rings (size 3 to 8) (size 9 to 14) (size 15 to 20)
#    0.000    2.000    0.000    8.625    0.000    5.750 
#    0.000    0.000    0.000    0.000    0.000    0.000 
#    0.000    1.000    0.000    8.250    0.000    3.875 
#
# Total GULP energy -396727.754689 kJ/mol
# GULP energy per Si atom -12397.742334 kJ/mol
# Density = 1.538045 g / cm^3
# Si number density = 15.415534 Si / 1000 Ang^3
#
#
#
# Elastic Constant Matrix: (Units=GPa)
#
#
# Indices 1 2 3 4 5 6 
#
# 1 67.2494 21.5904 47.3633 0.0000 0.0000 0.0000
# 2 21.5904 56.6174 31.9944 0.0000 0.0000 0.0000
# 3 47.3633 31.9944 109.6177 0.0000 0.0000 0.0000
# 4 0.0000 0.0000 0.0000 26.0053 0.0000 0.0000
# 5 0.0000 0.0000 0.0000 0.0000 28.0370 0.0000
# 6 0.0000 0.0000 0.0000 0.0000 0.0000 19.0968
#
#
#
# Elastic Compliance Matrix: (Units=1/GPa)
#
#
# Indices 1 2 3 4 5 6 
#
# 1 0.021974 -0.003610 -0.008441 0.000000 0.000000 0.000000
# 2 -0.003610 0.021744 -0.004787 0.000000 0.000000 0.000000
# 3 -0.008441 -0.004787 0.014167 0.000000 0.000000 0.000000
# 4 0.000000 0.000000 0.000000 0.038454 0.000000 0.000000
# 5 0.000000 0.000000 0.000000 0.000000 0.035667 0.000000
# 6 0.000000 0.000000 0.000000 0.000000 0.000000 0.052365
#
#
# Mechanical properties :
#
#
# Convention : Reuss Voigt Hill
#
# Bulk Modulus (GPa) = 41.30513 48.37562 44.84038
# Shear Modulus (GPa) = 22.11270 23.46358 22.78814
#
# Velocity S-wave (km/s) = 3.79151 3.90561 3.84898
# Velocity P-wave (km/s) = 6.78381 7.19636 6.99313
#
# Compressibility (1/GPa) = 0.02421007
#
# Stress axis : x y z
#
# Youngs Moduli (GPa) = 45.50902 45.98995 70.58739
#
# Poissons Ratio (x) = 0.16600 0.59581
# Poissons Ratio (y) = 0.16427 0.33789
# Poissons Ratio (z) = 0.38413 0.22015
#
# Static dielectric constant tensor:
#      x y z
#    x 2.875800 0.000000 0.000000 
#    y 0.000000 3.044310 0.000000 
#    z 0.000000 0.000000 3.330850 
# 
# 
# High freq. dielectric constant tensor:
#      x y z
#    x 1.552380 0.000000 0.000000 
#    y 0.000000 1.611060 0.000000 
#    z 0.000000 0.000000 1.583540 
# 
# From -- ./inp_files/22352.got.cif
#   From: 2010.03.12/outbox.cif.g09.slc.cpg/sg44_12_cif.got.tgz:22352.got - 2010.04.14 02:36:11.
