data_PCOD8188983
_publ_section_title
;
Structure prediction by ZEFSAII (Michael W. Deem and Ramdas Pophale) SiO2 
 PCOD8188983
Probable space group: I M M 2
;
_chemical_formula_sum "Si O2"
_cell_formula_units_Z 48
_cell_length_a 9.130246
_cell_length_b 10.327935
_cell_length_c 28.038112
_cell_angle_alpha 90.000000
_cell_angle_beta 90.000000
_cell_angle_gamma 90.000000
_cell_volume 2643.898274
_symmetry_space_group_name_H-M "I M M 2"
_symmetry_group_IT_number 44
_symmetry_cell_setting 'orthorhombic'
loop_
_space_group_symop_operation_xyz
x,y,z
-x,-y,z
-x,y,z
x,-y,z
1/2+x,1/2+y,1/2+z
1/2-x,1/2-y,1/2+z
1/2-x,1/2+y,1/2+z
1/2+x,1/2-y,1/2+z
loop_
_atom_site_type_symbol
_atom_site_label
_atom_site_fract_x
_atom_site_fract_y
_atom_site_fract_z
Si Si1 0.170144 0.233610 0.474870
Si Si2 0.671606 0.849866 0.672087
Si Si3 0.832842 0.850705 0.578045
Si Si4 0.174333 0.500000 0.923591
Si Si5 0.826480 0.243311 0.763202
Si Si6 0.329749 0.000000 0.925560
Si Si7 0.327577 0.500000 0.325370
Si Si8 0.173536 0.500000 0.815583
O O1 0.203963 0.232812 0.531264
O O2 0.268055 0.128607 0.448486
O O3 0.214148 0.374620 0.456054
O O4 0.000000 0.200349 0.465674
O O5 0.500000 0.825664 0.674786
O O6 0.728885 0.802784 0.620663
O O7 0.750275 0.765075 0.712086
O O8 0.713190 0.000000 0.679779
O O9 0.000000 0.830643 0.594513
O O10 0.802463 0.000000 0.565034
O O11 0.233384 0.500000 0.869389
O O12 0.000000 0.500000 0.926103
O O13 0.769190 0.373620 0.788120
O O14 0.000000 0.242019 0.755467
O O15 0.774939 0.125420 0.796451
O O16 0.243282 0.000000 0.876729
O O17 0.500000 0.000000 0.913041
O O18 0.500000 0.500000 0.332772
O O19 0.000000 0.500000 0.816852
#
# Coordination Sequence:
#
# PCOD8188983 Si02
#       8
#     8   8   8   4   8   4   4   4
#     4  10  20  37  56  81 112 145 183 223 266 320
#     4  10  20  33  52  80 110 134 168 221 270 315
#     4   9  17  32  55  77 102 139 180 220 261 312
#     4  11  21  35  58  83 108 143 185 229 272 315
#     4  10  19  35  56  77 103 140 180 218 260 313
#     4  10  22  36  55  80 113 149 181 221 271 320
#     4  10  20  34  55  78 105 142 185 224 261 312
#     4   9  20  35  52  77 108 138 177 222 262 309
#
# _framework density 18.155009
#
# number of rings (size 3 to 8) (size 9 to 14) (size 15 to 20)
#    0.000    2.167    1.667    1.750    0.000    4.000 
#    0.000    2.917    0.000    3.000    0.000    0.000 
#    0.000    0.000    0.000    0.000    0.000    0.000 
#
# Total GULP energy -297681.852497 kJ/mol
# GULP energy per Si atom -12403.410521 kJ/mol
# Density = 1.811369 g / cm^3
# Si number density = 18.155009 Si / 1000 Ang^3
#
#
#
# Elastic Constant Matrix: (Units=GPa)
#
#
# Indices 1 2 3 4 5 6 
#
# 1 54.8830 39.9134 53.6384 0.0000 0.0000 0.0000
# 2 39.9134 129.9306 72.2633 0.0000 0.0000 0.0000
# 3 53.6384 72.2633 156.7276 0.0000 0.0000 0.0000
# 4 0.0000 0.0000 0.0000 28.4153 0.0000 0.0000
# 5 0.0000 0.0000 0.0000 0.0000 35.7776 0.0000
# 6 0.0000 0.0000 0.0000 0.0000 0.0000 10.8397
#
#
#
# Elastic Compliance Matrix: (Units=1/GPa)
#
#
# Indices 1 2 3 4 5 6 
#
# 1 0.029291 -0.004603 -0.007902 0.000000 0.000000 0.000000
# 2 -0.004603 0.011074 -0.003531 0.000000 0.000000 0.000000
# 3 -0.007902 -0.003531 0.010713 0.000000 0.000000 0.000000
# 4 0.000000 0.000000 0.000000 0.035192 0.000000 0.000000
# 5 0.000000 0.000000 0.000000 0.000000 0.027950 0.000000
# 6 0.000000 0.000000 0.000000 0.000000 0.000000 0.092253
#
#
# Mechanical properties :
#
#
# Convention : Reuss Voigt Hill
#
# Bulk Modulus (GPa) = 52.61424 74.79681 63.70552
# Shear Modulus (GPa) = 20.41805 26.72160 23.56983
#
# Velocity S-wave (km/s) = 3.35722 3.84064 3.60704
# Velocity P-wave (km/s) = 6.63863 7.80742 7.24663
#
# Compressibility (1/GPa) = 0.01900626
#
# Stress axis : x y z
#
# Youngs Moduli (GPa) = 34.14006 90.30134 93.34570
#
# Poissons Ratio (x) = 0.41565 0.73764
# Poissons Ratio (y) = 0.15714 0.32957
# Poissons Ratio (z) = 0.26978 0.31882
#
# Static dielectric constant tensor:
#      x y z
#    x 3.204670 0.000000 0.000000 
#    y 0.000000 3.380870 0.000000 
#    z 0.000000 0.000000 3.439430 
# 
# 
# High freq. dielectric constant tensor:
#      x y z
#    x 1.691340 0.000000 0.000000 
#    y 0.000000 1.691730 0.000000 
#    z 0.000000 0.000000 1.717460 
# 
# From -- ./inp_files/27020.got.cif
#   From: 2010.03.12/outbox.cif.g09.slc.cpg/sg44_14_cif.got.tgz:27020.got - 2010.04.14 02:36:11.
