data_PCOD8188941
_publ_section_title
;
Structure prediction by ZEFSAII (Michael W. Deem and Ramdas Pophale) SiO2 
 PCOD8188941
Probable space group: I M M 2
;
_chemical_formula_sum "Si O2"
_cell_formula_units_Z 64
_cell_length_a 13.666946
_cell_length_b 19.039549
_cell_length_c 13.072375
_cell_angle_alpha 90.000000
_cell_angle_beta 90.000000
_cell_angle_gamma 90.000000
_cell_volume 3401.595223
_symmetry_space_group_name_H-M "I M M 2"
_symmetry_group_IT_number 44
_symmetry_cell_setting 'orthorhombic'
loop_
_space_group_symop_operation_xyz
x,y,z
-x,-y,z
-x,y,z
x,-y,z
1/2+x,1/2+y,1/2+z
1/2-x,1/2-y,1/2+z
1/2-x,1/2+y,1/2+z
1/2+x,1/2-y,1/2+z
loop_
_atom_site_type_symbol
_atom_site_label
_atom_site_fract_x
_atom_site_fract_y
_atom_site_fract_z
Si Si1 0.248200 0.204332 0.769160
Si Si2 0.788866 0.696416 0.948164
Si Si3 0.886842 0.210242 0.585097
Si Si4 0.113293 0.581322 0.817204
Si Si5 0.114107 0.220514 0.124921
Si Si6 0.888747 0.922163 0.023789
Si Si7 0.284420 0.076512 0.891866
Si Si8 0.888816 0.623573 0.594825
O O1 0.200066 0.241722 0.866019
O O2 0.162963 0.182233 0.689564
O O3 0.327719 0.258735 0.726400
O O4 0.307041 0.134614 0.806099
O O5 0.826435 0.623363 0.902587
O O6 0.677107 0.684273 0.987915
O O7 0.857988 0.721742 0.040211
O O8 0.878400 0.293555 0.586909
O O9 0.000000 0.184909 0.576290
O O10 0.127327 0.500000 0.842805
O O11 0.154422 0.598125 0.703680
O O12 0.000000 0.604449 0.823208
O O13 0.148319 0.141027 0.097242
O O14 0.000000 0.224030 0.148488
O O15 0.000000 0.906683 0.994160
O O16 0.876774 0.000000 0.075846
O O17 0.831283 0.920709 0.916407
O O18 0.315385 0.000000 0.848690
O O19 0.334427 0.087361 0.001481
O O20 0.000000 0.598491 0.586935
#
# Coordination Sequence:
#
# PCOD8188941 Si02
#       8
#     8   8   8   8   8   8   8   8
#     4  11  21  35  55  83 110 145 194 230 269 340
#     4  11  20  36  59  82 113 147 193 227 277 335
#     4  10  21  36  57  84 116 147 186 237 279 323
#     4  10  21  36  58  89 118 145 182 232 288 341
#     4  10  21  36  54  80 112 147 184 235 279 325
#     4   9  18  33  54  80 107 136 172 219 282 338
#     4  11  21  35  55  81 116 148 178 227 284 334
#     4  10  19  34  56  86 116 144 177 225 289 345
#
# _framework density 18.814702
#
# number of rings (size 3 to 8) (size 9 to 14) (size 15 to 20)
#    0.000    1.750    3.750    1.500    0.000    2.750 
#    0.000    2.500    0.000    1.875    0.000    0.000 
#    0.000    0.000    0.000    0.000    0.000    0.000 
#
# Total GULP energy -396726.662588 kJ/mol
# GULP energy per Si atom -12397.708206 kJ/mol
# Density = 1.877188 g / cm^3
# Si number density = 18.814702 Si / 1000 Ang^3
#
#
#
# Elastic Constant Matrix: (Units=GPa)
#
#
# Indices 1 2 3 4 5 6 
#
# 1 74.8301 27.4682 30.3311 0.0000 0.0000 0.0000
# 2 27.4682 92.1622 33.1511 0.0004 0.0000 0.0000
# 3 30.3311 33.1511 73.2199 0.0004 0.0002 0.0000
# 4 0.0000 0.0004 0.0004 21.5158 0.0001 0.0000
# 5 0.0000 0.0000 0.0002 0.0001 22.9133 0.0000
# 6 0.0000 0.0000 0.0000 0.0000 0.0000 21.4820
#
#
#
# Elastic Compliance Matrix: (Units=1/GPa)
#
#
# Indices 1 2 3 4 5 6 
#
# 1 0.016717 -0.002976 -0.005577 0.000000 0.000000 0.000000
# 2 -0.002976 0.013491 -0.004875 0.000000 0.000000 0.000000
# 3 -0.005577 -0.004875 0.018175 0.000000 0.000000 0.000000
# 4 0.000000 0.000000 0.000000 0.046478 0.000000 0.000000
# 5 0.000000 0.000000 0.000000 0.000000 0.043643 0.000000
# 6 0.000000 0.000000 0.000000 0.000000 0.000000 0.046551
#
#
# Mechanical properties :
#
#
# Convention : Reuss Voigt Hill
#
# Bulk Modulus (GPa) = 46.45679 46.90145 46.67912
# Shear Modulus (GPa) = 22.82199 23.13301 22.97750
#
# Velocity S-wave (km/s) = 3.48657 3.51025 3.49843
# Velocity P-wave (km/s) = 6.39950 6.43517 6.41736
#
# Compressibility (1/GPa) = 0.02152538
#
# Stress axis : x y z
#
# Youngs Moduli (GPa) = 59.82023 74.12269 55.01967
#
# Poissons Ratio (x) = 0.22059 0.30687
# Poissons Ratio (y) = 0.17803 0.26824
# Poissons Ratio (z) = 0.33364 0.36138
#
# Static dielectric constant tensor:
#      x y z
#    x 3.633250 0.000000 0.000000 
#    y 0.000000 3.478570 0.000000 
#    z 0.000000 0.000000 3.341670 
# 
# 
# High freq. dielectric constant tensor:
#      x y z
#    x 1.734140 0.000000 0.000000 
#    y 0.000000 1.725350 0.000000 
#    z 0.000000 0.000000 1.712470 
# 
# From -- ./inp_files/13419.got.cif
#   From: 2010.03.12/outbox.cif.g09.slc.cpg/sg44_7_cif.got.tgz:13419.got - 2010.04.14 02:36:11.
