data_PCOD8188091
_publ_section_title
;
Structure prediction by ZEFSAII (Michael W. Deem and Ramdas Pophale) SiO2 
 PCOD8188091
Probable space group: I M M 2
;
_chemical_formula_sum "Si O2"
_cell_formula_units_Z 64
_cell_length_a 27.518229
_cell_length_b 9.491261
_cell_length_c 14.710770
_cell_angle_alpha 90.000000
_cell_angle_beta 90.000000
_cell_angle_gamma 90.000000
_cell_volume 3842.198535
_symmetry_space_group_name_H-M "I M M 2"
_symmetry_group_IT_number 44
_symmetry_cell_setting 'orthorhombic'
loop_
_space_group_symop_operation_xyz
x,y,z
-x,-y,z
-x,y,z
x,-y,z
1/2+x,1/2+y,1/2+z
1/2-x,1/2-y,1/2+z
1/2-x,1/2+y,1/2+z
1/2+x,1/2-y,1/2+z
loop_
_atom_site_type_symbol
_atom_site_label
_atom_site_fract_x
_atom_site_fract_y
_atom_site_fract_z
Si Si1 0.444469 0.662041 0.694840
Si Si2 0.863050 0.165573 0.055106
Si Si3 0.944758 0.664656 0.370241
Si Si4 0.673773 0.165691 0.190783
Si Si5 0.359637 0.835147 0.000566
Si Si6 0.217535 0.162468 0.392411
Si Si7 0.719247 0.666666 0.688063
Si Si8 0.831270 0.663542 0.890750
O O1 0.500000 0.694716 0.669286
O O2 0.436464 0.500000 0.722814
O O3 0.413105 0.700552 0.606654
O O4 0.427464 0.753854 0.780609
O O5 0.819144 0.228229 0.116257
O O6 0.857400 0.000000 0.036588
O O7 0.863677 0.246010 0.959606
O O8 0.940141 0.500000 0.349369
O O9 0.910091 0.710651 0.453629
O O10 0.000000 0.705560 0.396848
O O11 0.727155 0.229438 0.167810
O O12 0.654854 0.219160 0.288928
O O13 0.681419 0.000000 0.202725
O O14 0.637036 0.202674 0.108402
O O15 0.313334 0.756951 0.960133
O O16 0.349859 0.000000 0.987399
O O17 0.203215 0.207474 0.290084
O O18 0.274403 0.190336 0.409054
O O19 0.204624 0.000000 0.410176
O O20 0.719247 0.500000 0.678740
O O21 0.844524 0.500000 0.903359
#
# Coordination Sequence:
#
# PCOD8188091 Si02
#       8
#     8   8   8   8   8   8   8   8
#     4   9  18  32  49  69  92 119 150 181 219 272
#     4  10  18  28  46  68  88 114 149 186 220 258
#     4   9  18  31  46  68  96 119 142 181 231 272
#     4   8  15  28  43  59  83 116 149 177 209 255
#     4  10  18  28  46  67  86 115 152 185 220 264
#     4   9  17  29  44  64  91 119 146 179 218 261
#     4   8  14  25  41  61  86 115 143 171 211 262
#     4   9  18  31  45  62  88 121 151 180 218 262
#
# _framework density 16.657131
#
# number of rings (size 3 to 8) (size 9 to 14) (size 15 to 20)
#    0.000    3.000    0.000    3.000    0.000    3.500 
#    0.000    1.250    0.000    2.250    0.000    1.750 
#    0.000    0.000    0.000    0.000    0.000    0.000 
#
# Total GULP energy -396661.816359 kJ/mol
# GULP energy per Si atom -12395.681761 kJ/mol
# Density = 1.661922 g / cm^3
# Si number density = 16.657131 Si / 1000 Ang^3
#
#
#
# Elastic Constant Matrix: (Units=GPa)
#
#
# Indices 1 2 3 4 5 6 
#
# 1 73.2053 32.3847 69.0120 0.0000 0.0000 0.0000
# 2 32.3847 37.9214 46.3769 0.0000 0.0000 0.0000
# 3 69.0120 46.3769 147.1206 0.0000 0.0000 0.0000
# 4 0.0000 0.0000 0.0000 23.0490 0.0000 0.0000
# 5 0.0000 0.0000 0.0000 0.0000 27.1310 0.0000
# 6 0.0000 0.0000 0.0000 0.0000 0.0000 18.0036
#
#
#
# Elastic Compliance Matrix: (Units=1/GPa)
#
#
# Indices 1 2 3 4 5 6 
#
# 1 0.027790 -0.012678 -0.009040 0.000000 0.000000 0.000000
# 2 -0.012678 0.048698 -0.009404 0.000000 0.000000 0.000000
# 3 -0.009040 -0.009404 0.014002 0.000000 0.000000 0.000000
# 4 0.000000 0.000000 0.000000 0.043386 0.000000 0.000000
# 5 0.000000 0.000000 0.000000 0.000000 0.036858 0.000000
# 6 0.000000 0.000000 0.000000 0.000000 0.000000 0.055544
#
#
# Mechanical properties :
#
#
# Convention : Reuss Voigt Hill
#
# Bulk Modulus (GPa) = 35.40142 61.53272 48.46707
# Shear Modulus (GPa) = 16.78201 21.00161 18.89181
#
# Velocity S-wave (km/s) = 3.17755 3.55465 3.37138
# Velocity P-wave (km/s) = 5.89590 7.33951 6.65695
#
# Compressibility (1/GPa) = 0.02824745
#
# Stress axis : x y z
#
# Youngs Moduli (GPa) = 35.98354 20.53474 71.41806
#
# Poissons Ratio (x) = 0.26033 0.64560
# Poissons Ratio (y) = 0.45618 0.67163
# Poissons Ratio (z) = 0.32528 0.19311
#
# Static dielectric constant tensor:
#      x y z
#    x 3.088810 0.000000 0.000000 
#    y 0.000000 2.864920 0.000000 
#    z 0.000000 0.000000 3.277680 
# 
# 
# High freq. dielectric constant tensor:
#      x y z
#    x 1.623550 0.000000 0.000000 
#    y 0.000000 1.614840 0.000000 
#    z 0.000000 0.000000 1.644610 
# 
# From -- ./inp_files/17165.got.cif
#   From: 2010.03.12/outbox.cif.g09.slc.cpg/sg44_9_cif.got.tgz:17165.got - 2010.04.14 02:36:11.
