data_PCOD8188172
_publ_section_title
;
Structure prediction by ZEFSAII (Michael W. Deem and Ramdas Pophale) SiO2 
 PCOD8188172
Probable space group: I M M 2
;
_chemical_formula_sum "Si O2"
_cell_formula_units_Z 40
_cell_length_a 29.187083
_cell_length_b 7.904474
_cell_length_c 9.737378
_cell_angle_alpha 90.000000
_cell_angle_beta 90.000000
_cell_angle_gamma 90.000000
_cell_volume 2246.496249
_symmetry_space_group_name_H-M "I M M 2"
_symmetry_group_IT_number 44
_symmetry_cell_setting 'orthorhombic'
loop_
_space_group_symop_operation_xyz
x,y,z
-x,-y,z
-x,y,z
x,-y,z
1/2+x,1/2+y,1/2+z
1/2-x,1/2-y,1/2+z
1/2-x,1/2+y,1/2+z
1/2+x,1/2-y,1/2+z
loop_
_atom_site_type_symbol
_atom_site_label
_atom_site_fract_x
_atom_site_fract_y
_atom_site_fract_z
Si Si1 0.551956 0.500000 0.406301
Si Si2 0.292375 0.693735 0.074717
Si Si3 0.551904 0.500000 0.078054
Si Si4 0.390915 0.815704 0.077946
Si Si5 0.889392 0.311696 0.903840
Si Si6 0.712724 0.198219 0.377521
O O1 0.500000 0.500000 0.460188
O O2 0.553868 0.500000 0.242154
O O3 0.576754 0.331149 0.465094
O O4 0.301631 0.500000 0.038637
O O5 0.338164 0.793973 0.033782
O O6 0.279615 0.707044 0.234417
O O7 0.250407 0.765440 0.984655
O O8 0.500000 0.500000 0.024238
O O9 0.576925 0.332792 0.018120
O O10 0.393773 0.812177 0.240982
O O11 0.407666 0.000000 0.023658
O O12 0.902063 0.500000 0.960853
O O13 0.837235 0.262096 0.942057
O O14 0.716930 0.000000 0.347966
#
# Coordination Sequence:
#
# PCOD8188172 Si02
#       6
#     4   8   4   8   8   8
#     4   9  16  24  38  60  81 111 155 185 218 279
#     4  10  18  30  47  66  94 127 158 196 236 279
#     4   9  16  26  40  60  85 117 157 191 228 281
#     4   9  16  27  41  59  87 119 150 188 233 278
#     4   8  15  27  39  55  85 116 143 184 228 268
#     4   9  19  31  44  67  94 123 162 195 229 283
#
# _framework density 17.805503999999999
#
# number of rings (size 3 to 8) (size 9 to 14) (size 15 to 20)
#    0.000    3.000    1.000    1.800    4.200    2.400 
#    0.000    4.000    0.000    0.000    0.000    0.000 
#    0.000    3.200    0.000    5.200    0.000    7.400 
#
# Total GULP energy -247887.462679 kJ/mol
# GULP energy per Si atom -12394.373134 kJ/mol
# Density = 1.776498 g / cm^3
# Si number density = 17.805504 Si / 1000 Ang^3
#
#
#
# Elastic Constant Matrix: (Units=GPa)
#
#
# Indices 1 2 3 4 5 6 
#
# 1 148.0572 82.8483 27.5980 0.0000 0.0000 0.0000
# 2 82.8483 134.8100 13.5763 0.0000 0.0000 0.0000
# 3 27.5980 13.5763 18.2094 0.0000 0.0000 0.0000
# 4 0.0000 0.0000 0.0000 8.6236 0.0000 0.0000
# 5 0.0000 0.0000 0.0000 0.0000 17.3808 0.0000
# 6 0.0000 0.0000 0.0000 0.0000 0.0000 28.6427
#
#
#
# Elastic Compliance Matrix: (Units=1/GPa)
#
#
# Indices 1 2 3 4 5 6 
#
# 1 0.013310 -0.006647 -0.015217 0.000000 0.000000 0.000000
# 2 -0.006647 0.011340 0.001620 0.000000 0.000000 0.000000
# 3 -0.015217 0.001620 0.076771 0.000000 0.000000 0.000000
# 4 0.000000 0.000000 0.000000 0.115961 0.000000 0.000000
# 5 0.000000 0.000000 0.000000 0.000000 0.057535 0.000000
# 6 0.000000 0.000000 0.000000 0.000000 0.000000 0.034913
#
#
# Mechanical properties :
#
#
# Convention : Reuss Voigt Hill
#
# Bulk Modulus (GPa) = 16.41137 61.01354 38.71245
# Shear Modulus (GPa) = 13.49056 22.73301 18.11179
#
# Velocity S-wave (km/s) = 2.75555 3.57703 3.19282
# Velocity P-wave (km/s) = 4.40013 7.16946 5.94821
#
# Compressibility (1/GPa) = 0.06093336
#
# Stress axis : x y z
#
# Youngs Moduli (GPa) = 75.12964 88.18389 13.02568
#
# Poissons Ratio (x) = 0.58620 0.19821
# Poissons Ratio (y) = 0.49942 -0.02110
# Poissons Ratio (z) = 1.14324 -0.14288
#
# Static dielectric constant tensor:
#      x y z
#    x 3.482870 0.000000 0.000000 
#    y 0.000000 3.619700 0.000000 
#    z 0.000000 0.000000 2.633700 
# 
# 
# High freq. dielectric constant tensor:
#      x y z
#    x 1.691410 0.000000 0.000000 
#    y 0.000000 1.706820 0.000000 
#    z 0.000000 0.000000 1.602780 
# 
# From -- ./inp_files/9625.got.cif
#   From: 2010.03.12/outbox.cif.g09.slc.cpg/sg44_5_cif.got.tgz:9625.got - 2010.04.14 02:36:11.
