data_PCOD8188287
_publ_section_title
;
Structure prediction by ZEFSAII (Michael W. Deem and Ramdas Pophale) SiO2 
 PCOD8188287
Probable space group: I M M 2
;
_chemical_formula_sum "Si O2"
_cell_formula_units_Z 64
_cell_length_a 9.087243
_cell_length_b 18.382699
_cell_length_c 21.574896
_cell_angle_alpha 90.000000
_cell_angle_beta 90.000000
_cell_angle_gamma 90.000000
_cell_volume 3604.044366
_symmetry_space_group_name_H-M "I M M 2"
_symmetry_group_IT_number 44
_symmetry_cell_setting 'orthorhombic'
loop_
_space_group_symop_operation_xyz
x,y,z
-x,-y,z
-x,y,z
x,-y,z
1/2+x,1/2+y,1/2+z
1/2-x,1/2-y,1/2+z
1/2-x,1/2+y,1/2+z
1/2+x,1/2-y,1/2+z
loop_
_atom_site_type_symbol
_atom_site_label
_atom_site_fract_x
_atom_site_fract_y
_atom_site_fract_z
Si Si1 0.657775 0.418070 0.899360
Si Si2 0.671679 0.419277 0.372805
Si Si3 0.169753 0.167452 0.516031
Si Si4 0.670852 0.082511 0.281922
Si Si5 0.673029 0.636226 0.238171
Si Si6 0.328458 0.917377 0.619295
Si Si7 0.328643 0.276175 0.780296
Si Si8 0.170055 0.717328 0.415475
O O1 0.500000 0.377103 0.879592
O O2 0.612398 0.500000 0.899892
O O3 0.796355 0.406564 0.854672
O O4 0.700691 0.397060 0.968251
O O5 0.500000 0.412130 0.384364
O O6 0.727686 0.500000 0.391060
O O7 0.710262 0.406028 0.301210
O O8 0.746991 0.359323 0.416039
O O9 0.269448 0.146941 0.574530
O O10 0.215623 0.240906 0.478830
O O11 0.000000 0.171717 0.537525
O O12 0.500000 0.096959 0.268764
O O13 0.771103 0.146158 0.252210
O O14 0.714471 0.000000 0.260009
O O15 0.500000 0.643526 0.226550
O O16 0.745288 0.589386 0.184157
O O17 0.742714 0.716235 0.240857
O O18 0.500000 0.903272 0.629507
O O19 0.300155 0.000000 0.594442
O O20 0.500000 0.268218 0.765863
O O21 0.292445 0.266614 0.854387
O O22 0.000000 0.697932 0.415573
#
# Coordination Sequence:
#
# PCOD8188287 Si02
#       8
#     8   8   8   8   8   8   8   8
#     4   9  16  27  43  62  88 126 167 203 242 289
#     4   9  18  32  51  76 103 130 162 203 253 306
#     4  10  19  33  50  69  96 133 174 211 250 299
#     4  10  19  28  41  66  99 132 167 206 247 295
#     4  10  20  35  55  76  99 132 174 216 259 307
#     4  11  24  38  51  73 104 138 178 218 254 296
#     4  10  18  32  51  72 100 132 168 212 261 310
#     4   9  18  31  48  72  99 129 166 206 251 304
#
# _framework density 17.757828
#
# number of rings (size 3 to 8) (size 9 to 14) (size 15 to 20)
#    0.000    2.250    1.250    2.250    0.000    5.000 
#    0.000    1.250    0.000    0.000    0.000    0.875 
#    0.000    3.000    0.000    0.000    0.000    0.000 
#
# Total GULP energy -396466.321125 kJ/mol
# GULP energy per Si atom -12389.572535 kJ/mol
# Density = 1.771741 g / cm^3
# Si number density = 17.757828 Si / 1000 Ang^3
#
#
#
# Elastic Constant Matrix: (Units=GPa)
#
#
# Indices 1 2 3 4 5 6 
#
# 1 77.4463 57.1477 29.4128 0.0000 0.0000 0.0000
# 2 57.1477 112.0894 26.9008 0.0000 0.0000 0.0000
# 3 29.4128 26.9008 50.5636 0.0000 0.0000 0.0000
# 4 0.0000 0.0000 0.0000 25.6304 0.0000 0.0000
# 5 0.0000 0.0000 0.0000 0.0000 25.0489 0.0000
# 6 0.0000 0.0000 0.0000 0.0000 0.0000 31.7032
#
#
#
# Elastic Compliance Matrix: (Units=1/GPa)
#
#
# Indices 1 2 3 4 5 6 
#
# 1 0.023406 -0.009934 -0.008330 0.000000 0.000000 0.000000
# 2 -0.009934 0.014444 -0.001906 0.000000 0.000000 0.000000
# 3 -0.008330 -0.001906 0.025637 0.000000 0.000000 0.000000
# 4 0.000000 0.000000 0.000000 0.039016 0.000000 0.000000
# 5 0.000000 0.000000 0.000000 0.000000 0.039922 0.000000
# 6 0.000000 0.000000 0.000000 0.000000 0.000000 0.031543
#
#
# Mechanical properties :
#
#
# Convention : Reuss Voigt Hill
#
# Bulk Modulus (GPa) = 43.20317 51.89133 47.54725
# Shear Modulus (GPa) = 22.52018 24.91903 23.71960
#
# Velocity S-wave (km/s) = 3.56502 3.75009 3.65872
# Velocity P-wave (km/s) = 6.42866 6.93080 6.68445
#
# Compressibility (1/GPa) = 0.02314645
#
# Stress axis : x y z
#
# Youngs Moduli (GPa) = 42.72325 69.23432 39.00680
#
# Poissons Ratio (x) = 0.68780 0.32494
# Poissons Ratio (y) = 0.42443 0.07433
# Poissons Ratio (z) = 0.35590 0.13193
#
# Static dielectric constant tensor:
#      x y z
#    x 3.231350 0.000000 0.000000 
#    y 0.000000 3.585990 0.000000 
#    z 0.000000 0.000000 2.920280 
# 
# 
# High freq. dielectric constant tensor:
#      x y z
#    x 1.691600 0.000000 0.000000 
#    y 0.000000 1.699150 0.000000 
#    z 0.000000 0.000000 1.634060 
# 
# From -- ./inp_files/25233.got.cif
#   From: 2010.03.12/outbox.cif.g09.slc.cpg/sg44_13_cif.got.tgz:25233.got - 2010.04.14 02:36:11.
