data_PCOD8188842
_publ_section_title
;
Structure prediction by ZEFSAII (Michael W. Deem and Ramdas Pophale) SiO2 
 PCOD8188842
Probable space group: I M M 2
;
_chemical_formula_sum "Si O2"
_cell_formula_units_Z 56
_cell_length_a 9.528469
_cell_length_b 19.865417
_cell_length_c 15.463497
_cell_angle_alpha 90.000000
_cell_angle_beta 90.000000
_cell_angle_gamma 90.000000
_cell_volume 2927.039112
_symmetry_space_group_name_H-M "I M M 2"
_symmetry_group_IT_number 44
_symmetry_cell_setting 'orthorhombic'
loop_
_space_group_symop_operation_xyz
x,y,z
-x,-y,z
-x,y,z
x,-y,z
1/2+x,1/2+y,1/2+z
1/2-x,1/2-y,1/2+z
1/2-x,1/2+y,1/2+z
1/2+x,1/2-y,1/2+z
loop_
_atom_site_type_symbol
_atom_site_label
_atom_site_fract_x
_atom_site_fract_y
_atom_site_fract_z
Si Si1 0.833197 0.195354 0.625000
Si Si2 0.344235 0.756944 0.469927
Si Si3 0.647744 0.074321 0.881310
Si Si4 0.665351 0.422094 0.718619
Si Si5 0.834904 0.422506 0.196269
Si Si6 0.346271 0.395383 0.526267
Si Si7 0.835944 0.299126 0.776890
O O1 0.777776 0.214837 0.530333
O O2 0.762488 0.122864 0.636408
O O3 0.787060 0.249544 0.698799
O O4 0.000000 0.187933 0.622897
O O5 0.500000 0.788729 0.487416
O O6 0.351855 0.679319 0.491917
O O7 0.302937 0.764843 0.369316
O O8 0.500000 0.109172 0.911171
O O9 0.704961 0.106579 0.792544
O O10 0.751746 0.064927 0.959820
O O11 0.610678 0.000000 0.847992
O O12 0.500000 0.408338 0.730334
O O13 0.701636 0.500000 0.741588
O O14 0.716232 0.404647 0.621617
O O15 0.751570 0.369924 0.777604
O O16 0.792482 0.500000 0.179142
O O17 0.000000 0.410700 0.177482
O O18 0.500000 0.428578 0.525811
O O19 0.000000 0.315410 0.766680
#
# Coordination Sequence:
#
# PCOD8188842 Si02
#       7
#     8   8   8   8   8   8   8
#     4  11  22  37  59  88 117 145 187 243 293 342
#     4  10  21  38  59  82 111 151 194 235 287 353
#     4   9  18  31  48  75 110 145 181 221 270 333
#     4  10  21  37  58  84 115 155 201 245 295 355
#     4   9  19  36  56  79 111 152 192 229 279 345
#     4  10  19  33  54  80 111 145 185 237 293 346
#     4  10  22  39  59  86 119 154 196 242 292 351
#
# _framework density 19.131961
#
# number of rings (size 3 to 8) (size 9 to 14) (size 15 to 20)
#    0.000    2.143    1.429    2.571    0.000    5.429 
#    0.000    2.143    0.000    0.857    0.000    0.000 
#    0.000    0.000    0.000    0.000    0.000    0.000 
#
# Total GULP energy -346891.945028 kJ/mol
# GULP energy per Si atom -12388.998037 kJ/mol
# Density = 1.908842 g / cm^3
# Si number density = 19.131961 Si / 1000 Ang^3
#
#
#
# Elastic Constant Matrix: (Units=GPa)
#
#
# Indices 1 2 3 4 5 6 
#
# 1 69.5471 39.3934 35.5611 0.0000 0.0000 0.0000
# 2 39.3934 92.7569 23.8067 0.0000 0.0000 0.0000
# 3 35.5611 23.8067 79.0242 0.0001 0.0000 0.0000
# 4 0.0000 0.0000 0.0001 31.8231 0.0000 0.0000
# 5 0.0000 0.0000 0.0000 0.0000 33.1507 0.0000
# 6 0.0000 0.0000 0.0000 0.0000 0.0000 28.7162
#
#
#
# Elastic Compliance Matrix: (Units=1/GPa)
#
#
# Indices 1 2 3 4 5 6 
#
# 1 0.022762 -0.007628 -0.007945 0.000000 0.000000 0.000000
# 2 -0.007628 0.014240 -0.000858 0.000000 0.000000 0.000000
# 3 -0.007945 -0.000858 0.016488 0.000000 0.000000 0.000000
# 4 0.000000 0.000000 0.000000 0.031424 0.000000 0.000000
# 5 0.000000 0.000000 0.000000 0.000000 0.030165 0.000000
# 6 0.000000 0.000000 0.000000 0.000000 0.000000 0.034824
#
#
# Mechanical properties :
#
#
# Convention : Reuss Voigt Hill
#
# Bulk Modulus (GPa) = 48.47376 48.76118 48.61747
# Shear Modulus (GPa) = 26.36582 28.24246 27.30414
#
# Velocity S-wave (km/s) = 3.71631 3.84629 3.78186
# Velocity P-wave (km/s) = 6.61862 6.72810 6.67359
#
# Compressibility (1/GPa) = 0.02062972
#
# Stress axis : x y z
#
# Youngs Moduli (GPa) = 43.93352 70.22282 60.65037
#
# Poissons Ratio (x) = 0.53563 0.48186
# Poissons Ratio (y) = 0.33511 0.05201
# Poissons Ratio (z) = 0.34905 0.06022
#
# Static dielectric constant tensor:
#      x y z
#    x 3.638630 0.000000 0.000000 
#    y 0.000000 3.360010 0.000000 
#    z 0.000000 0.000000 3.458140 
# 
# 
# High freq. dielectric constant tensor:
#      x y z
#    x 1.742650 0.000000 0.000000 
#    y 0.000000 1.738950 0.000000 
#    z 0.000000 0.000000 1.735060 
# 
# From -- ./inp_files/16446.got.cif
#   From: 2010.03.12/outbox.cif.g09.slc.cpg/sg44_9_cif.got.tgz:16446.got - 2010.04.14 02:36:11.
