data_PCOD8188720
_publ_section_title
;
Structure prediction by ZEFSAII (Michael W. Deem and Ramdas Pophale) SiO2 
 PCOD8188720
Probable space group: I M M 2
;
_chemical_formula_sum "Si O2"
_cell_formula_units_Z 56
_cell_length_a 13.902111
_cell_length_b 9.149372
_cell_length_c 23.567021
_cell_angle_alpha 90.000000
_cell_angle_beta 90.000000
_cell_angle_gamma 90.000000
_cell_volume 2997.621026
_symmetry_space_group_name_H-M "I M M 2"
_symmetry_group_IT_number 44
_symmetry_cell_setting 'orthorhombic'
loop_
_space_group_symop_operation_xyz
x,y,z
-x,-y,z
-x,y,z
x,-y,z
1/2+x,1/2+y,1/2+z
1/2-x,1/2-y,1/2+z
1/2-x,1/2+y,1/2+z
1/2+x,1/2-y,1/2+z
loop_
_atom_site_type_symbol
_atom_site_label
_atom_site_fract_x
_atom_site_fract_y
_atom_site_fract_z
Si Si1 0.111882 0.329142 0.449790
Si Si2 0.701108 0.169784 0.731228
Si Si3 0.272056 0.827034 0.506572
Si Si4 0.608884 0.173618 0.614563
Si Si5 0.107308 0.168414 0.785668
Si Si6 0.113657 0.835091 0.336502
Si Si7 0.109248 0.329192 0.897033
O O1 0.134160 0.500000 0.445467
O O2 0.170028 0.256437 0.502096
O O3 0.148066 0.253554 0.391724
O O4 0.000000 0.298663 0.461184
O O5 0.662729 0.228579 0.671146
O O6 0.817054 0.193310 0.734393
O O7 0.649946 0.260029 0.779857
O O8 0.674094 0.000000 0.739315
O O9 0.329815 0.768846 0.561259
O O10 0.332714 0.779130 0.451866
O O11 0.254057 0.000000 0.509886
O O12 0.500000 0.236629 0.612543
O O13 0.604673 0.000000 0.612552
O O14 0.149157 0.252690 0.840358
O O15 0.000000 0.224347 0.768002
O O16 0.102519 0.000000 0.802731
O O17 0.000000 0.836591 0.333609
O O18 0.154730 0.000000 0.341281
O O19 0.117969 0.500000 0.887032
O O20 0.000000 0.279895 0.907255
#
# Coordination Sequence:
#
# PCOD8188720 Si02
#       7
#     8   8   8   8   8   8   8
#     4  10  21  36  53  74 102 135 169 207 254 308
#     4  10  19  32  52  75 101 138 178 212 250 298
#     4  10  19  32  52  76 101 131 168 211 255 297
#     4   9  18  33  53  77 104 134 170 210 251 300
#     4   9  18  31  46  68  99 130 162 204 250 294
#     4  10  20  33  51  77 107 135 165 208 260 308
#     4   9  17  29  47  72 100 129 161 199 248 304
#
# _framework density 18.681481999999999
#
# number of rings (size 3 to 8) (size 9 to 14) (size 15 to 20)
#    0.000    2.429    0.000    2.571    0.000    7.429 
#    0.000    1.429    0.000    4.714    0.000    2.000 
#    0.000    0.000    0.000    0.000    0.000    0.000 
#
# Total GULP energy -347184.483512 kJ/mol
# GULP energy per Si atom -12399.445840 kJ/mol
# Density = 1.863896 g / cm^3
# Si number density = 18.681482 Si / 1000 Ang^3
#
#
#
# Elastic Constant Matrix: (Units=GPa)
#
#
# Indices 1 2 3 4 5 6 
#
# 1 89.3661 40.3830 89.8966 0.0000 0.0000 0.0000
# 2 40.3830 56.7506 42.4781 0.0000 0.0000 0.0000
# 3 89.8966 42.4781 132.9730 0.0000 0.0000 0.0000
# 4 0.0000 0.0000 0.0000 23.5975 0.0000 0.0000
# 5 0.0000 0.0000 0.0000 0.0000 34.4975 0.0000
# 6 0.0000 0.0000 0.0000 0.0000 0.0000 25.4106
#
#
#
# Elastic Compliance Matrix: (Units=1/GPa)
#
#
# Indices 1 2 3 4 5 6 
#
# 1 0.039308 -0.010619 -0.023182 0.000000 0.000000 0.000000
# 2 -0.010619 0.026027 -0.001135 0.000000 0.000000 0.000000
# 3 -0.023182 -0.001135 0.023555 0.000000 0.000000 0.000000
# 4 0.000000 0.000000 0.000000 0.042377 0.000000 0.000000
# 5 0.000000 0.000000 0.000000 0.000000 0.028988 0.000000
# 6 0.000000 0.000000 0.000000 0.000000 0.000000 0.039354
#
#
# Mechanical properties :
#
#
# Convention : Reuss Voigt Hill
#
# Bulk Modulus (GPa) = 52.58292 69.40054 60.99173
# Shear Modulus (GPa) = 18.12762 23.78991 20.95876
#
# Velocity S-wave (km/s) = 3.11843 3.57241 3.35311
# Velocity P-wave (km/s) = 6.41672 7.36520 6.90726
#
# Compressibility (1/GPa) = 0.01901758
#
# Stress axis : x y z
#
# Youngs Moduli (GPa) = 25.43982 38.42130 42.45331
#
# Poissons Ratio (x) = 0.40801 0.98416
# Poissons Ratio (y) = 0.27016 0.04819
# Poissons Ratio (z) = 0.58975 0.04361
#
# Static dielectric constant tensor:
#      x y z
#    x 3.753400 0.000000 0.000000 
#    y 0.000000 3.273030 0.000000 
#    z 0.000000 0.000000 3.409170 
# 
# 
# High freq. dielectric constant tensor:
#      x y z
#    x 1.743170 0.000000 0.000000 
#    y 0.000000 1.705220 0.000000 
#    z 0.000000 0.000000 1.706960 
# 
# From -- ./inp_files/23008.got.cif
#   From: 2010.03.12/outbox.cif.g09.slc.cpg/sg44_12_cif.got.tgz:23008.got - 2010.04.14 02:36:11.
