data_PCOD8188388
_publ_section_title
;
Structure prediction by ZEFSAII (Michael W. Deem and Ramdas Pophale) SiO2 
 PCOD8188388
Probable space group: I M M 2
;
_chemical_formula_sum "Si O2"
_cell_formula_units_Z 48
_cell_length_a 8.863118
_cell_length_b 21.364009
_cell_length_c 12.373181
_cell_angle_alpha 90.000000
_cell_angle_beta 90.000000
_cell_angle_gamma 90.000000
_cell_volume 2342.883262
_symmetry_space_group_name_H-M "I M M 2"
_symmetry_group_IT_number 44
_symmetry_cell_setting 'orthorhombic'
loop_
_space_group_symop_operation_xyz
x,y,z
-x,-y,z
-x,y,z
x,-y,z
1/2+x,1/2+y,1/2+z
1/2-x,1/2-y,1/2+z
1/2-x,1/2+y,1/2+z
1/2+x,1/2-y,1/2+z
loop_
_atom_site_type_symbol
_atom_site_label
_atom_site_fract_x
_atom_site_fract_y
_atom_site_fract_z
Si Si1 0.824265 0.000000 0.250000
Si Si2 0.825629 0.428219 0.068265
Si Si3 0.175660 0.328448 0.241220
Si Si4 0.324606 0.136904 0.973325
Si Si5 0.320820 0.622495 0.863529
Si Si6 0.678746 0.204874 0.187832
Si Si7 0.172118 0.500000 0.529680
O O1 0.754411 0.061205 0.304377
O O2 0.790253 0.000000 0.125217
O O3 0.000000 0.000000 0.271475
O O4 0.764148 0.500000 0.071821
O O5 0.803199 0.396178 0.185058
O O6 0.000000 0.428171 0.033920
O O7 0.733748 0.383720 0.986364
O O8 0.241070 0.332726 0.363791
O O9 0.271131 0.276785 0.176036
O O10 0.000000 0.309190 0.240443
O O11 0.500000 0.151842 0.976729
O O12 0.255400 0.166628 0.083515
O O13 0.295622 0.062504 0.961848
O O14 0.500000 0.629208 0.860340
O O15 0.250114 0.680907 0.800226
O O16 0.500000 0.198747 0.194411
O O17 0.000000 0.500000 0.574151
#
# Coordination Sequence:
#
# PCOD8188388 Si02
#       7
#     4   8   8   8   8   8   4
#     4  10  20  34  53  86 122 154 191 239 298 355
#     4  10  22  39  62  91 122 157 202 253 300 356
#     4  10  23  42  61  87 121 162 200 241 296 357
#     4   9  20  37  61  88 116 150 194 241 293 350
#     4  11  22  38  60  87 122 161 201 248 303 360
#     4  11  23  40  61  90 120 156 202 248 298 357
#     4  10  18  34  61  88 114 150 193 243 290 345
#
# _framework density 20.487577000000002
#
# number of rings (size 3 to 8) (size 9 to 14) (size 15 to 20)
#    0.000    1.833    2.500    1.000    3.500    1.333 
#    0.000    1.667    0.000    0.000    0.000    0.000 
#    0.000    0.000    0.000    0.000    0.000    0.000 
#
# Total GULP energy -297552.324493 kJ/mol
# GULP energy per Si atom -12398.013521 kJ/mol
# Density = 2.044095 g / cm^3
# Si number density = 20.487577 Si / 1000 Ang^3
#
#
#
# Elastic Constant Matrix: (Units=GPa)
#
#
# Indices 1 2 3 4 5 6 
#
# 1 52.4783 27.4366 31.7302 0.0002 -0.0001 0.0000
# 2 27.4366 115.5726 49.2005 0.0000 0.0000 0.0000
# 3 31.7302 49.2005 122.9918 -0.0006 0.0003 0.0000
# 4 0.0002 0.0000 -0.0006 33.4255 0.0001 0.0000
# 5 -0.0001 0.0000 0.0003 0.0001 21.9397 0.0000
# 6 0.0000 0.0000 0.0000 0.0000 0.0000 21.7401
#
#
#
# Elastic Compliance Matrix: (Units=1/GPa)
#
#
# Indices 1 2 3 4 5 6 
#
# 1 0.023795 -0.003659 -0.004675 0.000000 0.000000 0.000000
# 2 -0.003659 0.010991 -0.003453 0.000000 0.000000 0.000000
# 3 -0.004675 -0.003453 0.010718 0.000000 0.000000 0.000000
# 4 0.000000 0.000000 0.000000 0.029917 0.000000 0.000000
# 5 0.000000 0.000000 0.000000 0.000000 0.045580 0.000000
# 6 0.000000 0.000000 0.000000 0.000000 0.000000 0.045998
#
#
# Mechanical properties :
#
#
# Convention : Reuss Voigt Hill
#
# Bulk Modulus (GPa) = 45.59815 56.41969 51.00892
# Shear Modulus (GPa) = 25.26749 27.59940 26.43345
#
# Velocity S-wave (km/s) = 3.51566 3.67431 3.59586
# Velocity P-wave (km/s) = 6.22773 6.75270 6.49552
#
# Compressibility (1/GPa) = 0.02193072
#
# Stress axis : x y z
#
# Youngs Moduli (GPa) = 42.02546 90.98326 93.30063
#
# Poissons Ratio (x) = 0.33287 0.43621
# Poissons Ratio (y) = 0.15375 0.32216
# Poissons Ratio (z) = 0.19648 0.31416
#
# Static dielectric constant tensor:
#      x y z
#    x 3.373750 0.000000 0.000000 
#    y 0.000000 3.869850 0.000000 
#    z 0.000000 0.000000 3.780540 
# 
# 
# High freq. dielectric constant tensor:
#      x y z
#    x 1.770910 0.000000 0.000000 
#    y 0.000000 1.810870 0.000000 
#    z 0.000000 0.000000 1.802100 
# 
# From -- ./inp_files/16216.got.cif
#   From: 2010.03.12/outbox.cif.g09.slc.cpg/sg44_9_cif.got.tgz:16216.got - 2010.04.14 02:36:11.
