data_PCOD8188105
_publ_section_title
;
Structure prediction by ZEFSAII (Michael W. Deem and Ramdas Pophale) SiO2 
 PCOD8188105
Probable space group: I M M 2
;
_chemical_formula_sum "Si O2"
_cell_formula_units_Z 40
_cell_length_a 26.256024
_cell_length_b 8.741145
_cell_length_c 9.227765
_cell_angle_alpha 90.000000
_cell_angle_beta 90.000000
_cell_angle_gamma 90.000000
_cell_volume 2117.843240
_symmetry_space_group_name_H-M "I M M 2"
_symmetry_group_IT_number 44
_symmetry_cell_setting 'orthorhombic'
loop_
_space_group_symop_operation_xyz
x,y,z
-x,-y,z
-x,y,z
x,-y,z
1/2+x,1/2+y,1/2+z
1/2-x,1/2-y,1/2+z
1/2-x,1/2+y,1/2+z
1/2+x,1/2-y,1/2+z
loop_
_atom_site_type_symbol
_atom_site_label
_atom_site_fract_x
_atom_site_fract_y
_atom_site_fract_z
Si Si1 0.500000 0.180315 0.432650
Si Si2 0.702706 0.820123 0.928379
Si Si3 0.295356 0.818657 0.257468
Si Si4 0.898772 0.320533 0.263555
Si Si5 0.609140 0.181763 0.432455
Si Si6 0.000000 0.820562 0.244956
O O1 0.554033 0.241110 0.367398
O O2 0.500000 0.221465 0.600218
O O3 0.500000 0.000000 0.419250
O O4 0.744839 0.734806 0.835927
O O5 0.647868 0.775245 0.865978
O O6 0.712750 0.000000 0.916875
O O7 0.705233 0.759945 0.092759
O O8 0.344927 0.747484 0.338446
O O9 0.298066 0.000000 0.261809
O O10 0.910339 0.500000 0.269455
O O11 0.948088 0.229879 0.326777
O O12 0.885298 0.266742 0.099788
O O13 0.611497 0.000000 0.423537
O O14 0.000000 0.000000 0.214579
#
# Coordination Sequence:
#
# PCOD8188105 Si02
#       6
#     4   8   8   8   8   4
#     4   8  14  28  49  70  96 134 172 200 239 294
#     4  10  21  35  52  75 101 133 172 210 253 305
#     4  10  20  34  52  76 104 132 168 213 258 302
#     4   9  17  32  51  70  97 133 169 202 243 297
#     4   8  14  27  49  72  95 127 164 202 242 289
#     4  10  18  28  47  76 102 124 160 206 249 292
#
# _framework density 18.887139999999999
#
# number of rings (size 3 to 8) (size 9 to 14) (size 15 to 20)
#    0.000    2.800    0.000    3.300    0.000    3.200 
#    0.000    7.000    0.000    4.800    0.000    5.600 
#    0.000    0.000    0.000    0.000    0.000    0.000 
#
# Total GULP energy -247834.768803 kJ/mol
# GULP energy per Si atom -12391.738440 kJ/mol
# Density = 1.884415 g / cm^3
# Si number density = 18.887140 Si / 1000 Ang^3
#
#
#
# Elastic Constant Matrix: (Units=GPa)
#
#
# Indices 1 2 3 4 5 6 
#
# 1 162.1336 11.5073 77.3621 0.0000 0.0000 0.0000
# 2 11.5073 -22.7430 17.9797 0.0000 0.0000 0.0000
# 3 77.3621 17.9797 114.9918 0.0000 0.0000 0.0000
# 4 0.0000 0.0000 0.0000 15.7778 0.0000 0.0000
# 5 0.0000 0.0000 0.0000 0.0000 32.1588 0.0000
# 6 0.0000 0.0000 0.0000 0.0000 0.0000 27.3517
#
#
#
# Elastic Compliance Matrix: (Units=1/GPa)
#
#
# Indices 1 2 3 4 5 6 
#
# 1 0.009083 -0.000209 -0.006078 0.000000 0.000000 0.000000
# 2 -0.000209 -0.039128 0.006259 0.000000 0.000000 0.000000
# 3 -0.006078 0.006259 0.011807 0.000000 0.000000 0.000000
# 4 0.000000 0.000000 0.000000 0.063380 0.000000 0.000000
# 5 0.000000 0.000000 0.000000 0.000000 0.031096 0.000000
# 6 0.000000 0.000000 0.000000 0.000000 0.000000 0.036561
#
#
# Mechanical properties :
#
#
# Convention : Reuss Voigt Hill
#
# Bulk Modulus (GPa) = -54.65930 52.00897 -1.32517
# Shear Modulus (GPa) = 46.83560 24.89321 35.86441
#
# Velocity S-wave (km/s) = 4.98512 3.63436 4.36234
# Velocity P-wave (km/s) = 2.03285 6.72369 4.96691
#
# Compressibility (1/GPa) = -0.01829515
#
# Stress axis : x y z
#
# Youngs Moduli (GPa) = 110.10086 -25.55739 84.69886
#
# Poissons Ratio (x) = -0.00535 0.51477
# Poissons Ratio (y) = 0.02304 -0.53010
# Poissons Ratio (z) = 0.66916 0.15995
#
# Static dielectric constant tensor:
#      x y z
#    x 4.138650 0.000000 0.000000 
#    y 0.000000 3.083900 0.000000 
#    z 0.000000 0.000000 3.410010 
# 
# 
# High freq. dielectric constant tensor:
#      x y z
#    x 1.764160 0.000000 0.000000 
#    y 0.000000 1.696200 0.000000 
#    z 0.000000 0.000000 1.704580 
# 
# From -- ./inp_files/4622.got.cif
#   From: 2010.03.12/outbox.cif.g09.slc.cpg/sg44_3_cif.got.tgz:4622.got - 2010.04.14 02:36:11.
