data_PCOD8188225
_publ_section_title
;
Structure prediction by ZEFSAII (Michael W. Deem and Ramdas Pophale) SiO2 
 PCOD8188225
Probable space group: I M M 2
;
_chemical_formula_sum "Si O2"
_cell_formula_units_Z 64
_cell_length_a 14.385980
_cell_length_b 10.030043
_cell_length_c 23.988630
_cell_angle_alpha 90.000000
_cell_angle_beta 90.000000
_cell_angle_gamma 90.000000
_cell_volume 3461.367352
_symmetry_space_group_name_H-M "I M M 2"
_symmetry_group_IT_number 44
_symmetry_cell_setting 'orthorhombic'
loop_
_space_group_symop_operation_xyz
x,y,z
-x,-y,z
-x,y,z
x,-y,z
1/2+x,1/2+y,1/2+z
1/2-x,1/2-y,1/2+z
1/2-x,1/2+y,1/2+z
1/2+x,1/2-y,1/2+z
loop_
_atom_site_type_symbol
_atom_site_label
_atom_site_fract_x
_atom_site_fract_y
_atom_site_fract_z
Si Si1 0.603341 0.341851 0.230930
Si Si2 0.109118 0.154791 0.510277
Si Si3 0.106500 0.147449 0.252367
Si Si4 0.399806 0.348163 0.510939
Si Si5 0.226709 0.343657 0.442687
Si Si6 0.259733 0.846117 0.812940
Si Si7 0.103541 0.250264 0.131140
Si Si8 0.799787 0.850719 0.622054
O O1 0.500000 0.280864 0.236464
O O2 0.598469 0.500000 0.225836
O O3 0.662061 0.301913 0.285523
O O4 0.653860 0.280180 0.176053
O O5 0.139355 0.251151 0.459450
O O6 0.162948 0.213540 0.564688
O O7 0.000000 0.170207 0.520060
O O8 0.134953 0.000000 0.497300
O O9 0.158687 0.259870 0.286715
O O10 0.117633 0.162422 0.186003
O O11 0.000000 0.161698 0.270074
O O12 0.143863 0.000000 0.268032
O O13 0.500000 0.280369 0.495758
O O14 0.403672 0.500000 0.491859
O O15 0.315195 0.283690 0.476605
O O16 0.384766 0.343349 0.577333
O O17 0.206396 0.500000 0.455858
O O18 0.248025 0.321336 0.378203
O O19 0.282537 0.000000 0.799013
O O20 0.187650 0.355651 0.127505
O O21 0.000000 0.318379 0.131745
O O22 0.837584 0.000000 0.620387
#
# Coordination Sequence:
#
# PCOD8188225 Si02
#       8
#     8   8   8   8   8   8   8   8
#     4   9  17  31  53  79 105 135 174 220 265 311
#     4  10  21  37  57  80 107 141 182 225 267 317
#     4  10  21  36  55  80 108 140 178 218 265 324
#     4   9  17  31  52  77 105 135 168 211 265 320
#     4  10  21  36  55  79 108 140 179 225 268 313
#     4  10  21  36  54  80 108 139 181 225 268 312
#     4  10  18  30  52  80 107 137 173 215 266 323
#     4  10  18  31  52  80 110 139 174 215 266 324
#
# _framework density 18.489802999999998
#
# number of rings (size 3 to 8) (size 9 to 14) (size 15 to 20)
#    0.000    2.250    2.500    0.750    0.000    5.250 
#    0.000    6.250    0.000    0.750    0.000    1.750 
#    0.000    0.000    0.000    0.000    0.000    0.000 
#
# Total GULP energy -396577.408629 kJ/mol
# GULP energy per Si atom -12393.044020 kJ/mol
# Density = 1.844772 g / cm^3
# Si number density = 18.489803 Si / 1000 Ang^3
#
#
#
# Elastic Constant Matrix: (Units=GPa)
#
#
# Indices 1 2 3 4 5 6 
#
# 1 124.7558 40.1042 55.5725 0.0000 0.0000 0.0000
# 2 40.1042 54.6422 39.3051 0.0000 0.0000 0.0000
# 3 55.5725 39.3051 114.7764 0.0000 0.0000 0.0000
# 4 0.0000 0.0000 0.0000 21.9257 0.0000 0.0000
# 5 0.0000 0.0000 0.0000 0.0000 21.6720 0.0000
# 6 0.0000 0.0000 0.0000 0.0000 0.0000 21.7131
#
#
#
# Elastic Compliance Matrix: (Units=1/GPa)
#
#
# Indices 1 2 3 4 5 6 
#
# 1 0.011486 -0.005877 -0.003548 0.000000 0.000000 0.000000
# 2 -0.005877 0.027290 -0.006500 0.000000 0.000000 0.000000
# 3 -0.003548 -0.006500 0.012656 0.000000 0.000000 0.000000
# 4 0.000000 0.000000 0.000000 0.045609 0.000000 0.000000
# 5 0.000000 0.000000 0.000000 0.000000 0.046142 0.000000
# 6 0.000000 0.000000 0.000000 0.000000 0.000000 0.046055
#
#
# Mechanical properties :
#
#
# Convention : Reuss Voigt Hill
#
# Bulk Modulus (GPa) = 51.06981 62.68199 56.87590
# Shear Modulus (GPa) = 21.96683 23.67502 22.82093
#
# Velocity S-wave (km/s) = 3.45055 3.58220 3.51699
# Velocity P-wave (km/s) = 6.59966 7.14731 6.87894
#
# Compressibility (1/GPa) = 0.01958104
#
# Stress axis : x y z
#
# Youngs Moduli (GPa) = 87.06522 36.64370 79.01092
#
# Poissons Ratio (x) = 0.21537 0.28036
# Poissons Ratio (y) = 0.51171 0.51355
# Poissons Ratio (z) = 0.30894 0.23817
#
# Static dielectric constant tensor:
#      x y z
#    x 3.654460 0.000000 0.000000 
#    y 0.000000 3.034290 0.000000 
#    z 0.000000 0.000000 3.441990 
# 
# 
# High freq. dielectric constant tensor:
#      x y z
#    x 1.727810 0.000000 0.000000 
#    y 0.000000 1.673150 0.000000 
#    z 0.000000 0.000000 1.720750 
# 
# From -- ./inp_files/25153.got.cif
#   From: 2010.03.12/outbox.cif.g09.slc.cpg/sg44_13_cif.got.tgz:25153.got - 2010.04.14 02:36:11.
