data_PCOD8188411
_publ_section_title
;
Structure prediction by ZEFSAII (Michael W. Deem and Ramdas Pophale) SiO2 
 PCOD8188411
Probable space group: I M M 2
;
_chemical_formula_sum "Si O2"
_cell_formula_units_Z 56
_cell_length_a 8.629360
_cell_length_b 16.867323
_cell_length_c 20.052055
_cell_angle_alpha 90.000000
_cell_angle_beta 90.000000
_cell_angle_gamma 90.000000
_cell_volume 2918.660872
_symmetry_space_group_name_H-M "I M M 2"
_symmetry_group_IT_number 44
_symmetry_cell_setting 'orthorhombic'
loop_
_space_group_symop_operation_xyz
x,y,z
-x,-y,z
-x,y,z
x,-y,z
1/2+x,1/2+y,1/2+z
1/2-x,1/2-y,1/2+z
1/2-x,1/2+y,1/2+z
1/2+x,1/2-y,1/2+z
loop_
_atom_site_type_symbol
_atom_site_label
_atom_site_fract_x
_atom_site_fract_y
_atom_site_fract_z
Si Si1 0.683356 0.332878 0.088260
Si Si2 0.684599 0.500000 0.134232
Si Si3 0.824580 0.914369 0.248363
Si Si4 0.179973 0.765940 0.451787
Si Si5 0.323746 0.911727 0.387243
Si Si6 0.181669 0.840766 0.841629
Si Si7 0.182817 0.500000 0.283723
Si Si8 0.818936 0.737688 0.714695
O O1 0.500000 0.333777 0.081306
O O2 0.743655 0.423841 0.091895
O O3 0.739280 0.296067 0.157496
O O4 0.747949 0.280049 0.026707
O O5 0.500000 0.500000 0.141923
O O6 0.745828 0.500000 0.209945
O O7 0.704387 0.912996 0.308770
O O8 0.773608 0.843445 0.200213
O O9 0.000000 0.901395 0.273868
O O10 0.811142 0.000000 0.211582
O O11 0.202078 0.851549 0.418482
O O12 0.268934 0.695331 0.413358
O O13 0.000000 0.743154 0.451771
O O14 0.500000 0.882765 0.399778
O O15 0.297133 0.000000 0.416937
O O16 0.225710 0.775401 0.785938
O O17 0.000000 0.858185 0.841604
O O18 0.266747 0.922919 0.825928
O O19 0.000000 0.500000 0.276650
O O20 0.000000 0.720907 0.709053
#
# Coordination Sequence:
#
# PCOD8188411 Si02
#       8
#     8   4   8   8   8   8   4   8
#     4   9  20  36  58  84 115 156 198 237 287 359
#     4  10  18  38  62  86 124 167 204 237 292 371
#     4  10  20  33  52  80 110 140 181 234 287 332
#     4  11  22  36  57  85 116 150 195 244 292 346
#     4  10  20  33  49  74 111 150 185 219 266 331
#     4  11  22  39  63  87 117 156 197 240 296 363
#     4  12  24  38  62  96 124 149 196 261 310 345
#     4  10  19  35  59  83 110 148 193 236 284 350
#
# _framework density 19.186882000000001
#
# number of rings (size 3 to 8) (size 9 to 14) (size 15 to 20)
#    0.000    1.714    2.857    2.357    1.000    2.286 
#    0.000    2.857    1.571    0.000    0.000    0.000 
#    0.000    0.000    0.000    0.000    0.000    0.000 
#
# Total GULP energy -347065.693837 kJ/mol
# GULP energy per Si atom -12395.203351 kJ/mol
# Density = 1.914321 g / cm^3
# Si number density = 19.186882 Si / 1000 Ang^3
#
#
#
# Elastic Constant Matrix: (Units=GPa)
#
#
# Indices 1 2 3 4 5 6 
#
# 1 55.5005 35.1342 18.2238 0.0000 0.0000 0.0000
# 2 35.1342 120.8308 42.4774 0.0000 0.0000 0.0000
# 3 18.2238 42.4774 95.5014 0.0000 0.0000 0.0000
# 4 0.0000 0.0000 0.0000 27.3583 0.0000 0.0000
# 5 0.0000 0.0000 0.0000 0.0000 22.4974 0.0000
# 6 0.0000 0.0000 0.0000 0.0000 0.0000 31.7381
#
#
#
# Elastic Compliance Matrix: (Units=1/GPa)
#
#
# Indices 1 2 3 4 5 6 
#
# 1 0.022293 -0.005911 -0.001625 0.000000 0.000000 0.000000
# 2 -0.005911 0.011377 -0.003932 0.000000 0.000000 0.000000
# 3 -0.001625 -0.003932 0.012530 0.000000 0.000000 0.000000
# 4 0.000000 0.000000 0.000000 0.036552 0.000000 0.000000
# 5 0.000000 0.000000 0.000000 0.000000 0.044450 0.000000
# 6 0.000000 0.000000 0.000000 0.000000 0.000000 0.031508
#
#
# Mechanical properties :
#
#
# Convention : Reuss Voigt Hill
#
# Bulk Modulus (GPa) = 42.98495 51.50038 47.24267
# Shear Modulus (GPa) = 26.39892 28.05192 27.22542
#
# Velocity S-wave (km/s) = 3.71331 3.82781 3.77099
# Velocity P-wave (km/s) = 6.39037 6.81439 6.60578
#
# Compressibility (1/GPa) = 0.02326396
#
# Stress axis : x y z
#
# Youngs Moduli (GPa) = 44.85640 87.89487 79.80716
#
# Poissons Ratio (x) = 0.51955 0.12968
# Poissons Ratio (y) = 0.26515 0.31384
# Poissons Ratio (z) = 0.07289 0.34564
#
# Static dielectric constant tensor:
#      x y z
#    x 3.332220 0.000000 0.000000 
#    y 0.000000 3.764700 0.000000 
#    z 0.000000 0.000000 3.455960 
# 
# 
# High freq. dielectric constant tensor:
#      x y z
#    x 1.737310 0.000000 0.000000 
#    y 0.000000 1.755480 0.000000 
#    z 0.000000 0.000000 1.719800 
# 
# From -- ./inp_files/23111.got.cif
#   From: 2010.03.12/outbox.cif.g09.slc.cpg/sg44_12_cif.got.tgz:23111.got - 2010.04.14 02:36:11.
