data_PCOD8188390
_publ_section_title
;
Structure prediction by ZEFSAII (Michael W. Deem and Ramdas Pophale) SiO2 
 PCOD8188390
Probable space group: I M M 2
;
_chemical_formula_sum "Si O2"
_cell_formula_units_Z 64
_cell_length_a 8.791672
_cell_length_b 15.312169
_cell_length_c 23.867133
_cell_angle_alpha 90.000000
_cell_angle_beta 90.000000
_cell_angle_gamma 90.000000
_cell_volume 3212.983121
_symmetry_space_group_name_H-M "I M M 2"
_symmetry_group_IT_number 44
_symmetry_cell_setting 'orthorhombic'
loop_
_space_group_symop_operation_xyz
x,y,z
-x,-y,z
-x,y,z
x,-y,z
1/2+x,1/2+y,1/2+z
1/2-x,1/2-y,1/2+z
1/2-x,1/2+y,1/2+z
1/2+x,1/2-y,1/2+z
loop_
_atom_site_type_symbol
_atom_site_label
_atom_site_fract_x
_atom_site_fract_y
_atom_site_fract_z
Si Si1 0.180397 0.903471 0.228560
Si Si2 0.174126 0.853295 0.106732
Si Si3 0.825986 0.599312 0.494424
Si Si4 0.679397 0.239073 0.796016
Si Si5 0.325874 0.146705 0.605303
Si Si6 0.819602 0.403471 0.983475
Si Si7 0.320603 0.739073 0.416019
Si Si8 0.825986 0.900688 0.717611
O O1 0.240683 0.887331 0.165744
O O2 0.245277 0.830158 0.270823
O O3 0.000000 0.894757 0.226908
O O4 0.231825 0.000000 0.249059
O O5 0.276985 0.895139 0.058904
O O6 0.186653 0.750000 0.106018
O O7 0.000000 0.883469 0.097702
O O8 0.807087 0.500000 0.473583
O O9 0.719569 0.659937 0.456901
O O10 0.000000 0.630212 0.488561
O O11 0.500000 0.243430 0.802309
O O12 0.750000 0.221261 0.856017
O O13 0.719569 0.159937 0.755134
O O14 0.500000 0.116531 0.614332
O O15 0.259317 0.112670 0.546290
O O16 0.223015 0.104861 0.653130
O O17 0.768174 0.500000 0.962976
O O18 0.754723 0.330158 0.941212
O O19 0.000000 0.394758 0.985127
O O20 0.500000 0.743429 0.409725
O O21 0.000000 0.869788 0.723473
O O22 0.807088 0.000000 0.738452
#
# Coordination Sequence:
#
# PCOD8188390 Si02
#       8
#     8   8   8   8   8   8   8   8
#     4   9  18  34  58  87 119 154 192 234 283 345
#     4  10  18  34  61  91 119 154 195 234 286 346
#     4  11  24  40  59  87 121 156 194 239 293 348
#     4  11  23  41  62  85 114 152 199 245 294 346
#     4  10  18  34  61  91 119 154 195 234 286 346
#     4   9  18  34  58  87 119 154 192 234 283 345
#     4  11  23  41  62  85 114 152 199 245 294 346
#     4  11  24  40  59  87 121 156 194 239 293 348
#
# _framework density 19.919184000000001
#
# number of rings (size 3 to 8) (size 9 to 14) (size 15 to 20)
#    0.000    1.750    2.500    2.250    0.000    4.500 
#    0.000    0.000    0.000    3.750    0.000    0.000 
#    0.000    0.000    0.000    0.000    0.000    0.000 
#
# Total GULP energy -396862.960599 kJ/mol
# GULP energy per Si atom -12401.967519 kJ/mol
# Density = 1.987385 g / cm^3
# Si number density = 19.919184 Si / 1000 Ang^3
#
#
#
# Elastic Constant Matrix: (Units=GPa)
#
#
# Indices 1 2 3 4 5 6 
#
# 1 54.6955 26.2441 22.5427 0.0000 0.0000 0.0000
# 2 26.2441 103.4286 24.3508 0.0000 0.0000 0.0000
# 3 22.5427 24.3508 88.6126 0.0000 0.0000 0.0000
# 4 0.0000 0.0000 0.0000 9.5843 0.0000 0.0000
# 5 0.0000 0.0000 0.0000 0.0000 25.6080 0.0000
# 6 0.0000 0.0000 0.0000 0.0000 0.0000 13.8547
#
#
#
# Elastic Compliance Matrix: (Units=1/GPa)
#
#
# Indices 1 2 3 4 5 6 
#
# 1 0.022319 -0.004626 -0.004407 0.000000 0.000000 0.000000
# 2 -0.004626 0.011296 -0.001927 0.000000 0.000000 0.000000
# 3 -0.004407 -0.001927 0.012936 0.000000 0.000000 0.000000
# 4 0.000000 0.000000 0.000000 0.104337 0.000000 0.000000
# 5 0.000000 0.000000 0.000000 0.000000 0.039050 0.000000
# 6 0.000000 0.000000 0.000000 0.000000 0.000000 0.072178
#
#
# Mechanical properties :
#
#
# Convention : Reuss Voigt Hill
#
# Bulk Modulus (GPa) = 40.59919 43.66797 42.13358
# Shear Modulus (GPa) = 17.10893 21.38269 19.24581
#
# Velocity S-wave (km/s) = 2.93391 3.27994 3.11174
# Velocity P-wave (km/s) = 5.64830 6.02613 5.84027
#
# Compressibility (1/GPa) = 0.02463103
#
# Stress axis : x y z
#
# Youngs Moduli (GPa) = 44.80543 88.52682 77.30505
#
# Poissons Ratio (x) = 0.40950 0.34066
# Poissons Ratio (y) = 0.20726 0.14900
# Poissons Ratio (z) = 0.19744 0.17063
#
# Static dielectric constant tensor:
#      x y z
#    x 3.366640 0.000000 0.000000 
#    y 0.000000 3.824880 0.000000 
#    z 0.000000 0.000000 3.654260 
# 
# 
# High freq. dielectric constant tensor:
#      x y z
#    x 1.749980 0.000000 0.000000 
#    y 0.000000 1.793380 0.000000 
#    z 0.000000 0.000000 1.775620 
# 
# From -- ./inp_files/25128.got.cif
#   From: 2010.03.12/outbox.cif.g09.slc.cpg/sg44_13_cif.got.tgz:25128.got - 2010.04.14 02:36:11.
