data_PCOD8188642
_publ_section_title
;
Structure prediction by ZEFSAII (Michael W. Deem and Ramdas Pophale) SiO2 
 PCOD8188642
Probable space group: I M M 2
;
_chemical_formula_sum "Si O2"
_cell_formula_units_Z 64
_cell_length_a 30.231183
_cell_length_b 8.672448
_cell_length_c 14.280624
_cell_angle_alpha 90.000000
_cell_angle_beta 90.000000
_cell_angle_gamma 90.000000
_cell_volume 3744.070616
_symmetry_space_group_name_H-M "I M M 2"
_symmetry_group_IT_number 44
_symmetry_cell_setting 'orthorhombic'
loop_
_space_group_symop_operation_xyz
x,y,z
-x,-y,z
-x,y,z
x,-y,z
1/2+x,1/2+y,1/2+z
1/2-x,1/2-y,1/2+z
1/2-x,1/2+y,1/2+z
1/2+x,1/2-y,1/2+z
loop_
_atom_site_type_symbol
_atom_site_label
_atom_site_fract_x
_atom_site_fract_y
_atom_site_fract_z
Si Si1 0.365365 0.176283 0.421360
Si Si2 0.203602 0.822071 0.408224
Si Si3 0.050149 0.819792 0.856588
Si Si4 0.215372 0.819728 0.023295
Si Si5 0.225338 0.678268 0.224154
Si Si6 0.047716 0.817798 0.645293
Si Si7 0.861702 0.822074 0.567966
Si Si8 0.314732 0.174648 0.235916
O O1 0.415979 0.234865 0.427207
O O2 0.333048 0.275289 0.486254
O O3 0.351967 0.197663 0.313431
O O4 0.362669 0.000000 0.454804
O O5 0.245903 0.767894 0.468088
O O6 0.195254 0.729427 0.312028
O O7 0.157765 0.799124 0.464562
O O8 0.212236 0.000000 0.384543
O O9 0.057047 0.757108 0.750481
O O10 0.000000 0.784538 0.889658
O O11 0.060479 0.000000 0.861460
O O12 0.215838 0.777928 0.132526
O O13 0.223464 0.000000 0.010455
O O14 0.217732 0.500000 0.200786
O O15 0.275071 0.709330 0.259704
O O16 0.086850 0.769052 0.573850
O O17 0.000000 0.752461 0.609689
O O18 0.044317 0.000000 0.651364
O O19 0.833727 0.713154 0.634859
O O20 0.856637 0.000000 0.600519
O O21 0.296667 0.000000 0.234707
#
# Coordination Sequence:
#
# PCOD8188642 Si02
#       8
#     8   8   8   8   8   8   8   8
#     4  11  22  34  50  75 107 142 178 216 257 313
#     4  11  22  35  51  76 105 135 176 216 255 311
#     4   9  17  30  50  75 104 138 177 217 258 310
#     4  12  24  37  55  76 102 136 174 218 263 310
#     4  12  24  38  54  72 100 138 176 218 263 308
#     4   8  14  26  46  73 102 133 170 209 251 302
#     4  10  19  31  51  74 102 138 175 213 255 303
#     4  11  21  31  48  72 104 138 173 215 254 300
#
# _framework density 17.093693999999999
#
# number of rings (size 3 to 8) (size 9 to 14) (size 15 to 20)
#    0.000    1.500    3.750    4.125    0.000    1.750 
#    0.000    0.000    0.000    0.375    0.000    0.875 
#    0.000    5.000    0.000    0.000    0.000    0.000 
#
# Total GULP energy -396742.469431 kJ/mol
# GULP energy per Si atom -12398.202170 kJ/mol
# Density = 1.705479 g / cm^3
# Si number density = 17.093694 Si / 1000 Ang^3
#
#
#
# Elastic Constant Matrix: (Units=GPa)
#
#
# Indices 1 2 3 4 5 6 
#
# 1 101.2526 19.4869 22.2464 0.0000 0.0000 0.0000
# 2 19.4869 63.5989 13.5929 0.0000 0.0000 0.0000
# 3 22.2464 13.5929 61.2499 0.0000 0.0000 0.0000
# 4 0.0000 0.0000 0.0000 24.5432 0.0000 0.0000
# 5 0.0000 0.0000 0.0000 0.0000 24.2594 0.0000
# 6 0.0000 0.0000 0.0000 0.0000 0.0000 21.0833
#
#
#
# Elastic Compliance Matrix: (Units=1/GPa)
#
#
# Indices 1 2 3 4 5 6 
#
# 1 0.011151 -0.002678 -0.003456 0.000000 0.000000 0.000000
# 2 -0.002678 0.017150 -0.002833 0.000000 0.000000 0.000000
# 3 -0.003456 -0.002833 0.018210 0.000000 0.000000 0.000000
# 4 0.000000 0.000000 0.000000 0.040745 0.000000 0.000000
# 5 0.000000 0.000000 0.000000 0.000000 0.041221 0.000000
# 6 0.000000 0.000000 0.000000 0.000000 0.000000 0.047431
#
#
# Mechanical properties :
#
#
# Convention : Reuss Voigt Hill
#
# Bulk Modulus (GPa) = 34.99329 37.41708 36.20518
# Shear Modulus (GPa) = 24.58601 25.36218 24.97410
#
# Velocity S-wave (km/s) = 3.79662 3.85608 3.82647
# Velocity P-wave (km/s) = 6.30357 6.46241 6.38348
#
# Compressibility (1/GPa) = 0.02857691
#
# Stress axis : x y z
#
# Youngs Moduli (GPa) = 89.67823 58.31017 54.91344
#
# Poissons Ratio (x) = 0.15616 0.18977
# Poissons Ratio (y) = 0.24017 0.15558
# Poissons Ratio (z) = 0.30991 0.16521
#
# Static dielectric constant tensor:
#      x y z
#    x 3.549270 0.000000 0.000000 
#    y 0.000000 3.153110 0.000000 
#    z 0.000000 0.000000 3.048370 
# 
# 
# High freq. dielectric constant tensor:
#      x y z
#    x 1.652570 0.000000 0.000000 
#    y 0.000000 1.659090 0.000000 
#    z 0.000000 0.000000 1.631160 
# 
# From -- ./inp_files/19706.got.cif
#   From: 2010.03.12/outbox.cif.g09.slc.cpg/sg44_10_cif.got.tgz:19706.got - 2010.04.14 02:36:11.
