data_PCOD8188951
_publ_section_title
;
Structure prediction by ZEFSAII (Michael W. Deem and Ramdas Pophale) SiO2 
 PCOD8188951
Probable space group: I M M 2
;
_chemical_formula_sum "Si O2"
_cell_formula_units_Z 64
_cell_length_a 8.985191
_cell_length_b 25.042083
_cell_length_c 15.130675
_cell_angle_alpha 90.000000
_cell_angle_beta 90.000000
_cell_angle_gamma 90.000000
_cell_volume 3404.521389
_symmetry_space_group_name_H-M "I M M 2"
_symmetry_group_IT_number 44
_symmetry_cell_setting 'orthorhombic'
loop_
_space_group_symop_operation_xyz
x,y,z
-x,-y,z
-x,y,z
x,-y,z
1/2+x,1/2+y,1/2+z
1/2-x,1/2-y,1/2+z
1/2-x,1/2+y,1/2+z
1/2+x,1/2-y,1/2+z
loop_
_atom_site_type_symbol
_atom_site_label
_atom_site_fract_x
_atom_site_fract_y
_atom_site_fract_z
Si Si1 0.670404 0.835611 0.346300
Si Si2 0.676021 0.645942 0.017981
Si Si3 0.330432 0.718630 0.296193
Si Si4 0.175840 0.739078 0.118180
Si Si5 0.824543 0.651827 0.645973
Si Si6 0.327826 0.603023 0.346879
Si Si7 0.823258 0.940121 0.659183
Si Si8 0.825308 0.559662 0.517658
O O1 0.500000 0.850799 0.365932
O O2 0.774743 0.865599 0.417043
O O3 0.694736 0.771596 0.353939
O O4 0.718053 0.855253 0.248818
O O5 0.500000 0.652599 0.024360
O O6 0.755045 0.700801 0.044627
O O7 0.733798 0.597586 0.079783
O O8 0.500000 0.717596 0.258520
O O9 0.219050 0.716803 0.214124
O O10 0.301080 0.666692 0.356122
O O11 0.239518 0.798260 0.103506
O O12 0.000000 0.740250 0.106946
O O13 0.769313 0.599351 0.594311
O O14 0.000000 0.662276 0.636673
O O15 0.500000 0.588164 0.356103
O O16 0.265302 0.582851 0.252542
O O17 0.242441 0.573083 0.423377
O O18 0.000000 0.940434 0.659352
O O19 0.760649 0.000000 0.644742
O O20 0.777600 0.500000 0.545588
O O21 0.000000 0.564729 0.506672
#
# Coordination Sequence:
#
# PCOD8188951 Si02
#       8
#     8   8   8   8   8   8   8   8
#     4   9  19  35  55  80 112 144 183 231 277 329
#     4  11  21  35  55  80 113 149 186 227 275 332
#     4   9  18  35  55  79 113 148 181 220 274 333
#     4  11  21  33  54  83 113 143 182 229 275 329
#     4   9  20  40  60  78 109 150 186 229 285 338
#     4  10  19  34  57  83 113 148 187 226 274 336
#     4   9  18  34  56  79 106 145 187 223 266 325
#     4  10  22  39  58  83 113 146 189 237 283 332
#
# _framework density 18.79853
#
# number of rings (size 3 to 8) (size 9 to 14) (size 15 to 20)
#    0.000    2.250    1.250    2.625    1.750    3.750 
#    0.000    0.625    0.000    3.000    0.000    0.000 
#    0.000    0.000    0.000    0.000    0.000    0.000 
#
# Total GULP energy -396817.911512 kJ/mol
# GULP energy per Si atom -12400.559735 kJ/mol
# Density = 1.875574 g / cm^3
# Si number density = 18.798530 Si / 1000 Ang^3
#
#
#
# Elastic Constant Matrix: (Units=GPa)
#
#
# Indices 1 2 3 4 5 6 
#
# 1 48.1739 40.3390 35.9255 -0.0001 0.0000 0.0000
# 2 40.3390 138.6736 77.4620 -0.0001 0.0000 0.0000
# 3 35.9255 77.4620 120.6840 -0.0003 0.0001 0.0000
# 4 -0.0001 -0.0001 -0.0003 29.7856 0.0000 0.0000
# 5 0.0000 0.0000 0.0001 0.0000 32.0081 0.0000
# 6 0.0000 0.0000 0.0000 0.0000 0.0000 16.6064
#
#
#
# Elastic Compliance Matrix: (Units=1/GPa)
#
#
# Indices 1 2 3 4 5 6 
#
# 1 0.029306 -0.005693 -0.005070 0.000000 0.000000 0.000000
# 2 -0.005693 0.012348 -0.006231 0.000000 0.000000 0.000000
# 3 -0.005070 -0.006231 0.013795 0.000000 0.000000 0.000000
# 4 0.000000 0.000000 0.000000 0.033573 0.000000 0.000000
# 5 0.000000 0.000000 0.000000 0.000000 0.031242 0.000000
# 6 0.000000 0.000000 0.000000 0.000000 0.000000 0.060218
#
#
# Mechanical properties :
#
#
# Convention : Reuss Voigt Hill
#
# Bulk Modulus (GPa) = 46.59575 68.33162 57.46369
# Shear Modulus (GPa) = 22.56095 25.93371 24.24733
#
# Velocity S-wave (km/s) = 3.46807 3.71827 3.59535
# Velocity P-wave (km/s) = 6.39354 7.40692 6.91881
#
# Compressibility (1/GPa) = 0.02146118
#
# Stress axis : x y z
#
# Youngs Moduli (GPa) = 34.12281 80.98705 72.49233
#
# Poissons Ratio (x) = 0.46105 0.36752
# Poissons Ratio (y) = 0.19426 0.45168
# Poissons Ratio (z) = 0.17300 0.50461
#
# Static dielectric constant tensor:
#      x y z
#    x 3.216500 0.000000 0.000000 
#    y 0.000000 3.688310 0.000000 
#    z 0.000000 0.000000 3.418130 
# 
# 
# High freq. dielectric constant tensor:
#      x y z
#    x 1.709330 0.000000 0.000000 
#    y 0.000000 1.727990 0.000000 
#    z 0.000000 0.000000 1.728710 
# 
# From -- ./inp_files/16806.got.cif
#   From: 2010.03.12/outbox.cif.g09.slc.cpg/sg44_9_cif.got.tgz:16806.got - 2010.04.14 02:36:11.
