data_PCOD8188803
_publ_section_title
;
Structure prediction by ZEFSAII (Michael W. Deem and Ramdas Pophale) SiO2 
 PCOD8188803
Probable space group: I M M 2
;
_chemical_formula_sum "Si O2"
_cell_formula_units_Z 48
_cell_length_a 8.894613
_cell_length_b 16.475360
_cell_length_c 18.620353
_cell_angle_alpha 90.000000
_cell_angle_beta 90.000000
_cell_angle_gamma 90.000000
_cell_volume 2728.662861
_symmetry_space_group_name_H-M "I M M 2"
_symmetry_group_IT_number 44
_symmetry_cell_setting 'orthorhombic'
loop_
_space_group_symop_operation_xyz
x,y,z
-x,-y,z
-x,y,z
x,-y,z
1/2+x,1/2+y,1/2+z
1/2-x,1/2-y,1/2+z
1/2-x,1/2+y,1/2+z
1/2+x,1/2-y,1/2+z
loop_
_atom_site_type_symbol
_atom_site_label
_atom_site_fract_x
_atom_site_fract_y
_atom_site_fract_z
Si Si1 0.824293 0.839596 0.807110
Si Si2 0.176475 0.910005 0.349100
Si Si3 0.327084 0.253358 0.929717
Si Si4 0.176060 0.317599 0.723313
Si Si5 0.177522 0.500000 0.332666
Si Si6 0.325941 0.150889 0.062149
Si Si7 0.322680 0.500000 0.488903
O O1 0.776951 0.808029 0.885519
O O2 0.779519 0.773100 0.747677
O O3 0.000000 0.858880 0.807835
O O4 0.734668 0.921558 0.789073
O O5 0.221091 0.846474 0.412456
O O6 0.245399 0.884181 0.273033
O O7 0.000000 0.911807 0.338070
O O8 0.235904 0.000000 0.370132
O O9 0.500000 0.239240 0.906182
O O10 0.304742 0.231994 0.013506
O O11 0.229985 0.327685 0.641771
O O12 0.000000 0.331435 0.731748
O O13 0.242284 0.500000 0.412608
O O14 0.000000 0.500000 0.337210
O O15 0.500000 0.123294 0.061678
O O16 0.224143 0.078644 0.033588
O O17 0.500000 0.500000 0.476433
#
# Coordination Sequence:
#
# PCOD8188803 Si02
#       7
#     8   8   8   8   4   8   4
#     4  10  19  33  52  76 104 133 172 216 255 299
#     4   9  18  32  50  74 101 129 170 218 255 298
#     4   9  17  31  52  72  98 136 174 209 253 302
#     4   9  20  35  52  74 104 137 170 209 256 310
#     4  12  22  34  54  78 104 135 172 213 260 315
#     4  10  20  35  53  74 105 140 172 205 253 313
#     4  12  24  34  50  80 110 135 168 213 260 305
#
# _framework density 17.591032999999999
#
# number of rings (size 3 to 8) (size 9 to 14) (size 15 to 20)
#    0.000    2.167    1.667    2.000    1.167    1.667 
#    0.000    0.000    1.833    0.000    0.000    0.000 
#    0.000    0.000    0.000    0.000    0.000    0.000 
#
# Total GULP energy -297583.565427 kJ/mol
# GULP energy per Si atom -12399.315226 kJ/mol
# Density = 1.755099 g / cm^3
# Si number density = 17.591033 Si / 1000 Ang^3
#
#
#
# Elastic Constant Matrix: (Units=GPa)
#
#
# Indices 1 2 3 4 5 6 
#
# 1 62.9781 39.7719 17.8630 0.0000 0.0000 0.0000
# 2 39.7719 145.3304 46.6820 0.0000 0.0000 0.0000
# 3 17.8630 46.6820 80.4175 0.0000 0.0000 0.0000
# 4 0.0000 0.0000 0.0000 19.3677 0.0000 0.0000
# 5 0.0000 0.0000 0.0000 0.0000 21.9393 0.0000
# 6 0.0000 0.0000 0.0000 0.0000 0.0000 26.9025
#
#
#
# Elastic Compliance Matrix: (Units=1/GPa)
#
#
# Indices 1 2 3 4 5 6 
#
# 1 0.019343 -0.004810 -0.001504 0.000000 0.000000 0.000000
# 2 -0.004810 0.009654 -0.004536 0.000000 0.000000 0.000000
# 3 -0.001504 -0.004536 0.015402 0.000000 0.000000 0.000000
# 4 0.000000 0.000000 0.000000 0.051632 0.000000 0.000000
# 5 0.000000 0.000000 0.000000 0.000000 0.045580 0.000000
# 6 0.000000 0.000000 0.000000 0.000000 0.000000 0.037171
#
#
# Mechanical properties :
#
#
# Convention : Reuss Voigt Hill
#
# Bulk Modulus (GPa) = 44.05511 55.26219 49.65865
# Shear Modulus (GPa) = 24.03265 25.93584 24.98425
#
# Velocity S-wave (km/s) = 3.70021 3.84393 3.77275
# Velocity P-wave (km/s) = 6.58436 7.15432 6.87525
#
# Compressibility (1/GPa) = 0.02269884
#
# Stress axis : x y z
#
# Youngs Moduli (GPa) = 51.69827 103.58156 64.92574
#
# Poissons Ratio (x) = 0.49826 0.09766
# Poissons Ratio (y) = 0.24869 0.29449
# Poissons Ratio (z) = 0.07777 0.46982
#
# Static dielectric constant tensor:
#      x y z
#    x 3.251990 0.000000 0.000000 
#    y 0.000000 3.664040 0.000000 
#    z 0.000000 0.000000 3.212180 
# 
# 
# High freq. dielectric constant tensor:
#      x y z
#    x 1.679500 0.000000 0.000000 
#    y 0.000000 1.687680 0.000000 
#    z 0.000000 0.000000 1.658100 
# 
# From -- ./inp_files/20334.got.cif
#   From: 2010.03.12/outbox.cif.g09.slc.cpg/sg44_11_cif.got.tgz:20334.got - 2010.04.14 02:36:11.
