data_PCOD8188488
_publ_section_title
;
Structure prediction by ZEFSAII (Michael W. Deem and Ramdas Pophale) SiO2 
 PCOD8188488
Probable space group: I M M 2
;
_chemical_formula_sum "Si O2"
_cell_formula_units_Z 64
_cell_length_a 13.585255
_cell_length_b 8.667386
_cell_length_c 34.183181
_cell_angle_alpha 90.000000
_cell_angle_beta 90.000000
_cell_angle_gamma 90.000000
_cell_volume 4025.023381
_symmetry_space_group_name_H-M "I M M 2"
_symmetry_group_IT_number 44
_symmetry_cell_setting 'orthorhombic'
loop_
_space_group_symop_operation_xyz
x,y,z
-x,-y,z
-x,y,z
x,-y,z
1/2+x,1/2+y,1/2+z
1/2-x,1/2-y,1/2+z
1/2-x,1/2+y,1/2+z
1/2+x,1/2-y,1/2+z
loop_
_atom_site_type_symbol
_atom_site_label
_atom_site_fract_x
_atom_site_fract_y
_atom_site_fract_z
Si Si1 0.114684 0.179271 0.323540
Si Si2 0.383059 0.673110 0.982338
Si Si3 0.205897 0.819597 0.637201
Si Si4 0.614684 0.179271 0.062705
Si Si5 0.887910 0.680643 0.711367
Si Si6 0.616941 0.173110 0.903907
Si Si7 0.294103 0.180403 0.749044
Si Si8 0.112090 0.180643 0.174879
O O1 0.150857 0.227337 0.366648
O O2 0.177261 0.277722 0.292998
O O3 0.000000 0.218589 0.317890
O O4 0.136027 0.000000 0.317182
O O5 0.500000 0.670466 0.979603
O O6 0.341435 0.500000 0.986236
O O7 0.338911 0.750000 0.943123
O O8 0.349143 0.772663 0.019598
O O9 0.177261 0.777722 0.593247
O O10 0.135005 0.728691 0.666870
O O11 0.319108 0.772690 0.644678
O O12 0.192643 0.000000 0.644481
O O13 0.500000 0.218589 0.068355
O O14 0.636027 0.000000 0.069064
O O15 0.867280 0.500000 0.715731
O O16 0.819108 0.772690 0.741567
O O17 0.000000 0.722420 0.721425
O O18 0.500000 0.170466 0.906643
O O19 0.658565 0.000000 0.900010
O O20 0.364995 0.271309 0.719376
O O21 0.307357 0.000000 0.741764
O O22 0.000000 0.222420 0.164820
O O23 0.132720 0.000000 0.170515
#
# Coordination Sequence:
#
# PCOD8188488 Si02
#       8
#     8   8   8   8   8   8   8   8
#     4  10  19  30  44  62  87 119 152 185 219 257
#     4   9  16  26  40  59  84 114 147 180 216 259
#     4  11  21  31  46  67  90 115 145 183 222 262
#     4  10  19  30  44  62  87 119 152 185 219 257
#     4  10  20  34  50  65  85 115 148 182 220 262
#     4   9  16  26  40  59  84 114 147 180 216 259
#     4  11  21  31  46  67  90 115 145 183 222 262
#     4  10  20  34  50  65  85 115 148 182 220 262
#
# _framework density 15.900528
#
# number of rings (size 3 to 8) (size 9 to 14) (size 15 to 20)
#    0.000    2.000    0.000    6.750    0.000    9.500 
#    0.000    0.000    0.000    0.000    0.000    0.000 
#    0.000    1.000    0.000    3.750    0.000    5.750 
#
# Total GULP energy -396869.753769 kJ/mol
# GULP energy per Si atom -12402.179805 kJ/mol
# Density = 1.586434 g / cm^3
# Si number density = 15.900528 Si / 1000 Ang^3
#
#
#
# Elastic Constant Matrix: (Units=GPa)
#
#
# Indices 1 2 3 4 5 6 
#
# 1 58.4112 26.1581 32.9004 0.0000 0.0000 0.0000
# 2 26.1581 69.6857 21.1204 0.0000 0.0000 0.0000
# 3 32.9004 21.1204 104.8071 0.0000 0.0000 0.0000
# 4 0.0000 0.0000 0.0000 32.0167 0.0000 0.0000
# 5 0.0000 0.0000 0.0000 0.0000 14.9378 0.0000
# 6 0.0000 0.0000 0.0000 0.0000 0.0000 16.1585
#
#
#
# Elastic Compliance Matrix: (Units=1/GPa)
#
#
# Indices 1 2 3 4 5 6 
#
# 1 0.023666 -0.007063 -0.006006 0.000000 0.000000 0.000000
# 2 -0.007063 0.017392 -0.001287 0.000000 0.000000 0.000000
# 3 -0.006006 -0.001287 0.011686 0.000000 0.000000 0.000000
# 4 0.000000 0.000000 0.000000 0.031234 0.000000 0.000000
# 5 0.000000 0.000000 0.000000 0.000000 0.066944 0.000000
# 6 0.000000 0.000000 0.000000 0.000000 0.000000 0.061887
#
#
# Mechanical properties :
#
#
# Convention : Reuss Voigt Hill
#
# Bulk Modulus (GPa) = 41.61332 43.69575 42.65453
# Shear Modulus (GPa) = 20.03757 22.80429 21.42093
#
# Velocity S-wave (km/s) = 3.55376 3.79117 3.67438
# Velocity P-wave (km/s) = 6.56253 6.83406 6.69967
#
# Compressibility (1/GPa) = 0.02403077
#
# Stress axis : x y z
#
# Youngs Moduli (GPa) = 42.25492 57.49865 85.57215
#
# Poissons Ratio (x) = 0.40613 0.51392
# Poissons Ratio (y) = 0.29846 0.11017
# Poissons Ratio (z) = 0.25377 0.07403
#
# Static dielectric constant tensor:
#      x y z
#    x 2.724030 0.000000 0.000000 
#    y 0.000000 3.182070 0.000000 
#    z 0.000000 0.000000 3.045480 
# 
# 
# High freq. dielectric constant tensor:
#      x y z
#    x 1.561380 0.000000 0.000000 
#    y 0.000000 1.633030 0.000000 
#    z 0.000000 0.000000 1.610140 
# 
# From -- ./inp_files/27518.got.cif
#   From: 2010.03.12/outbox.cif.g09.slc.cpg/sg44_14_cif.got.tgz:27518.got - 2010.04.14 02:36:11.
