data_PCOD8188304
_publ_section_title
;
Structure prediction by ZEFSAII (Michael W. Deem and Ramdas Pophale) SiO2 
 PCOD8188304
Probable space group: I M M 2
;
_chemical_formula_sum "Si O2"
_cell_formula_units_Z 64
_cell_length_a 23.971589
_cell_length_b 9.013480
_cell_length_c 15.527469
_cell_angle_alpha 90.000000
_cell_angle_beta 90.000000
_cell_angle_gamma 90.000000
_cell_volume 3354.980446
_symmetry_space_group_name_H-M "I M M 2"
_symmetry_group_IT_number 44
_symmetry_cell_setting 'orthorhombic'
loop_
_space_group_symop_operation_xyz
x,y,z
-x,-y,z
-x,y,z
x,-y,z
1/2+x,1/2+y,1/2+z
1/2-x,1/2-y,1/2+z
1/2-x,1/2+y,1/2+z
1/2+x,1/2-y,1/2+z
loop_
_atom_site_type_symbol
_atom_site_label
_atom_site_fract_x
_atom_site_fract_y
_atom_site_fract_z
Si Si1 0.861559 0.326272 0.493120
Si Si2 0.128112 0.823671 0.180374
Si Si3 0.864320 0.674843 0.683221
Si Si4 0.935240 0.326721 0.333350
Si Si5 0.246937 0.823794 0.244811
Si Si6 0.748328 0.674654 0.939382
Si Si7 0.562585 0.823229 0.338811
Si Si8 0.130979 0.674812 0.004488
O O1 0.851352 0.500000 0.484287
O O2 0.886740 0.287085 0.587481
O O3 0.903406 0.270012 0.419157
O O4 0.801984 0.249120 0.489515
O O5 0.085742 0.765583 0.252205
O O6 0.190526 0.764047 0.200454
O O7 0.109123 0.759069 0.088803
O O8 0.125026 0.000000 0.178598
O O9 0.861512 0.500000 0.698395
O O10 0.801460 0.738484 0.695567
O O11 0.905900 0.742623 0.754759
O O12 0.924096 0.500000 0.316668
O O13 0.000000 0.293673 0.348143
O O14 0.249388 0.764082 0.342206
O O15 0.246181 0.000000 0.244306
O O16 0.739348 0.500000 0.939577
O O17 0.805275 0.719644 0.986487
O O18 0.500000 0.759432 0.339285
O O19 0.593779 0.769480 0.424715
O O20 0.562237 0.000000 0.335267
O O21 0.124225 0.500000 0.018769
#
# Coordination Sequence:
#
# PCOD8188304 Si02
#       8
#     8   8   8   8   8   8   8   8
#     4  10  20  33  54  82 110 138 174 222 272 316
#     4  11  22  36  57  81 106 138 181 228 273 323
#     4   9  16  29  50  77 106 136 170 211 260 313
#     4  10  22  39  55  75 108 146 182 224 275 327
#     4   9  16  29  50  75 104 137 170 210 260 313
#     4  10  18  32  54  77 107 145 179 213 261 324
#     4   9  17  30  50  76 104 136 175 214 253 306
#     4  10  20  34  54  80 111 143 176 216 269 325
#
# _framework density 19.076118000000001
#
# number of rings (size 3 to 8) (size 9 to 14) (size 15 to 20)
#    0.000    2.250    2.500    1.125    0.000    2.750 
#    0.000    3.750    0.000    0.750    0.000    0.000 
#    0.000    0.000    0.000    0.000    0.000    0.000 
#
# Total GULP energy -396784.992160 kJ/mol
# GULP energy per Si atom -12399.531005 kJ/mol
# Density = 1.903270 g / cm^3
# Si number density = 19.076118 Si / 1000 Ang^3
#
#
#
# Elastic Constant Matrix: (Units=GPa)
#
#
# Indices 1 2 3 4 5 6 
#
# 1 131.2433 27.5837 68.1786 0.0000 0.0000 0.0000
# 2 27.5837 25.8234 31.7386 0.0000 0.0000 0.0000
# 3 68.1786 31.7386 162.2475 0.0000 0.0000 0.0000
# 4 0.0000 0.0000 0.0000 17.0241 0.0000 0.0000
# 5 0.0000 0.0000 0.0000 0.0000 16.0808 0.0000
# 6 0.0000 0.0000 0.0000 0.0000 0.0000 21.5684
#
#
#
# Elastic Compliance Matrix: (Units=1/GPa)
#
#
# Indices 1 2 3 4 5 6 
#
# 1 0.010841 -0.007874 -0.003015 0.000000 0.000000 0.000000
# 2 -0.007874 0.056701 -0.007783 0.000000 0.000000 0.000000
# 3 -0.003015 -0.007783 0.008953 0.000000 0.000000 0.000000
# 4 0.000000 0.000000 0.000000 0.058740 0.000000 0.000000
# 5 0.000000 0.000000 0.000000 0.000000 0.062186 0.000000
# 6 0.000000 0.000000 0.000000 0.000000 0.000000 0.046364
#
#
# Mechanical properties :
#
#
# Convention : Reuss Voigt Hill
#
# Bulk Modulus (GPa) = 25.54238 63.81289 44.67764
# Shear Modulus (GPa) = 16.99643 23.72221 20.35932
#
# Velocity S-wave (km/s) = 2.98817 3.53023 3.27045
# Velocity P-wave (km/s) = 5.03233 7.08104 6.14269
#
# Compressibility (1/GPa) = 0.03915062
#
# Stress axis : x y z
#
# Youngs Moduli (GPa) = 92.24585 17.63632 111.69536
#
# Poissons Ratio (x) = 0.13887 0.33677
# Poissons Ratio (y) = 0.72633 0.86933
# Poissons Ratio (z) = 0.27813 0.13727
#
# Static dielectric constant tensor:
#      x y z
#    x 3.601440 0.000000 0.000000 
#    y 0.000000 3.003020 0.000000 
#    z 0.000000 0.000000 3.676210 
# 
# 
# High freq. dielectric constant tensor:
#      x y z
#    x 1.742040 0.000000 0.000000 
#    y 0.000000 1.691630 0.000000 
#    z 0.000000 0.000000 1.759570 
# 
# From -- ./inp_files/16879.got.cif
#   From: 2010.03.12/outbox.cif.g09.slc.cpg/sg44_9_cif.got.tgz:16879.got - 2010.04.14 02:36:11.
