data_PCOD8188419
_publ_section_title
;
Structure prediction by ZEFSAII (Michael W. Deem and Ramdas Pophale) SiO2 
 PCOD8188419
Probable space group: I M M 2
;
_chemical_formula_sum "Si O2"
_cell_formula_units_Z 64
_cell_length_a 13.650586
_cell_length_b 9.155173
_cell_length_c 33.891828
_cell_angle_alpha 90.000000
_cell_angle_beta 90.000000
_cell_angle_gamma 90.000000
_cell_volume 4235.579566
_symmetry_space_group_name_H-M "I M M 2"
_symmetry_group_IT_number 44
_symmetry_cell_setting 'orthorhombic'
loop_
_space_group_symop_operation_xyz
x,y,z
-x,-y,z
-x,y,z
x,-y,z
1/2+x,1/2+y,1/2+z
1/2-x,1/2-y,1/2+z
1/2-x,1/2+y,1/2+z
1/2+x,1/2-y,1/2+z
loop_
_atom_site_type_symbol
_atom_site_label
_atom_site_fract_x
_atom_site_fract_y
_atom_site_fract_z
Si Si1 0.613600 0.828981 0.512880
Si Si2 0.883745 0.661596 0.924535
Si Si3 0.610509 0.832225 0.653027
Si Si4 0.111770 0.168986 0.619490
Si Si5 0.116613 0.163193 0.850663
Si Si6 0.288049 0.326612 0.583417
Si Si7 0.612703 0.171520 0.273178
Si Si8 0.294748 0.666633 0.202089
O O1 0.500000 0.792698 0.520552
O O2 0.644704 0.784785 0.468361
O O3 0.679819 0.730464 0.540866
O O4 0.633204 0.000000 0.520439
O O5 0.840677 0.500000 0.916963
O O6 0.840334 0.768415 0.891087
O O7 0.000000 0.654274 0.921372
O O8 0.500000 0.799714 0.666983
O O9 0.636020 0.731187 0.616028
O O10 0.682459 0.800859 0.689680
O O11 0.623592 0.000000 0.639108
O O12 0.178828 0.268896 0.591835
O O13 0.134630 0.199880 0.665259
O O14 0.000000 0.211058 0.610880
O O15 0.133557 0.000000 0.609816
O O16 0.152660 0.255834 0.813212
O O17 0.000000 0.163392 0.852392
O O18 0.158275 0.000000 0.846664
O O19 0.288161 0.500000 0.583892
O O20 0.500000 0.215921 0.265323
O O21 0.678439 0.225552 0.237169
O O22 0.624826 0.000000 0.277843
O O23 0.308054 0.500000 0.216428
#
# Coordination Sequence:
#
# PCOD8188419 Si02
#       8
#     8   8   8   8   8   8   8   8
#     4   9  17  29  44  60  82 115 149 177 206 245
#     4   8  14  25  40  57  78 106 139 172 206 244
#     4   9  18  33  49  61  79 111 146 177 211 253
#     4   9  18  33  50  63  79 109 145 177 211 254
#     4   9  16  25  38  56  79 108 139 170 204 242
#     4  11  21  29  41  64  90 112 138 176 216 251
#     4  10  19  28  39  57  83 114 143 170 202 243
#     4   9  17  29  45  64  82 102 135 176 212 246
#
# _framework density 15.110093000000001
#
# number of rings (size 3 to 8) (size 9 to 14) (size 15 to 20)
#    0.000    2.750    0.000    4.125    0.000    7.500 
#    0.000    1.250    0.000    0.000    0.000    0.000 
#    0.000    1.000    0.000    6.500    0.000    3.875 
#
# Total GULP energy -396757.602983 kJ/mol
# GULP energy per Si atom -12398.675093 kJ/mol
# Density = 1.507570 g / cm^3
# Si number density = 15.110093 Si / 1000 Ang^3
#
#
#
# Elastic Constant Matrix: (Units=GPa)
#
#
# Indices 1 2 3 4 5 6 
#
# 1 74.6114 40.4400 44.3606 0.0000 0.0000 0.0000
# 2 40.4400 100.6948 70.2860 0.0000 0.0000 0.0000
# 3 44.3606 70.2860 118.4564 0.0000 0.0000 0.0000
# 4 0.0000 0.0000 0.0000 29.8022 0.0000 0.0000
# 5 0.0000 0.0000 0.0000 0.0000 16.9947 0.0000
# 6 0.0000 0.0000 0.0000 0.0000 0.0000 14.6988
#
#
#
# Elastic Compliance Matrix: (Units=1/GPa)
#
#
# Indices 1 2 3 4 5 6 
#
# 1 0.018308 -0.004382 -0.004256 0.000000 0.000000 0.000000
# 2 -0.004382 0.018001 -0.009040 0.000000 0.000000 0.000000
# 3 -0.004256 -0.009040 0.015400 0.000000 0.000000 0.000000
# 4 0.000000 0.000000 0.000000 0.033555 0.000000 0.000000
# 5 0.000000 0.000000 0.000000 0.000000 0.058842 0.000000
# 6 0.000000 0.000000 0.000000 0.000000 0.000000 0.068033
#
#
# Mechanical properties :
#
#
# Convention : Reuss Voigt Hill
#
# Bulk Modulus (GPa) = 61.15153 67.10398 64.12775
# Shear Modulus (GPa) = 19.76718 21.54420 20.65569
#
# Velocity S-wave (km/s) = 3.62084 3.78009 3.70132
# Velocity P-wave (km/s) = 7.61835 7.97236 7.79736
#
# Compressibility (1/GPa) = 0.01635282
#
# Stress axis : x y z
#
# Youngs Moduli (GPa) = 54.61969 55.55372 64.93704
#
# Poissons Ratio (x) = 0.24343 0.27639
# Poissons Ratio (y) = 0.23934 0.58701
# Poissons Ratio (z) = 0.23248 0.50219
#
# Static dielectric constant tensor:
#      x y z
#    x 2.692280 0.000000 0.000000 
#    y 0.000000 2.951160 0.000000 
#    z 0.000000 0.000000 2.925180 
# 
# 
# High freq. dielectric constant tensor:
#      x y z
#    x 1.535310 0.000000 0.000000 
#    y 0.000000 1.582670 0.000000 
#    z 0.000000 0.000000 1.576250 
# 
# From -- ./inp_files/27528.got.cif
#   From: 2010.03.12/outbox.cif.g09.slc.cpg/sg44_14_cif.got.tgz:27528.got - 2010.04.14 02:36:11.
