data_PCOD8188808
_publ_section_title
;
Structure prediction by ZEFSAII (Michael W. Deem and Ramdas Pophale) SiO2 
 PCOD8188808
Probable space group: I M M 2
;
_chemical_formula_sum "Si O2"
_cell_formula_units_Z 64
_cell_length_a 9.131077
_cell_length_b 33.144337
_cell_length_c 11.581828
_cell_angle_alpha 90.000000
_cell_angle_beta 90.000000
_cell_angle_gamma 90.000000
_cell_volume 3505.164884
_symmetry_space_group_name_H-M "I M M 2"
_symmetry_group_IT_number 44
_symmetry_cell_setting 'orthorhombic'
loop_
_space_group_symop_operation_xyz
x,y,z
-x,-y,z
-x,y,z
x,-y,z
1/2+x,1/2+y,1/2+z
1/2-x,1/2-y,1/2+z
1/2-x,1/2+y,1/2+z
1/2+x,1/2-y,1/2+z
loop_
_atom_site_type_symbol
_atom_site_label
_atom_site_fract_x
_atom_site_fract_y
_atom_site_fract_z
Si Si1 0.829283 0.308688 0.125000
Si Si2 0.326766 0.148914 0.048279
Si Si3 0.827578 0.453843 0.156188
Si Si4 0.327048 0.122158 0.800329
Si Si5 0.833346 0.217466 0.169284
Si Si6 0.663128 0.452789 0.923423
Si Si7 0.172686 0.602390 0.775230
Si Si8 0.829697 0.170968 0.397982
O O1 0.773769 0.342585 0.214557
O O2 0.799262 0.264675 0.176531
O O3 0.000000 0.315103 0.093525
O O4 0.727542 0.309680 0.014258
O O5 0.500000 0.154008 0.043807
O O6 0.262674 0.193248 0.075129
O O7 0.279491 0.117476 0.148478
O O8 0.262986 0.131232 0.928105
O O9 0.786136 0.500000 0.192423
O O10 0.777065 0.422298 0.255950
O O11 0.000000 0.450254 0.133149
O O12 0.747853 0.439999 0.039561
O O13 0.500000 0.123326 0.809200
O O14 0.797835 0.202671 0.297316
O O15 0.000000 0.208969 0.133931
O O16 0.500000 0.433748 0.925971
O O17 0.652115 0.500000 0.916386
O O18 0.750765 0.439794 0.807468
O O19 0.234785 0.631303 0.874949
O O20 0.000000 0.598514 0.785671
O O21 0.000000 0.159842 0.407575
#
# Coordination Sequence:
#
# PCOD8188808 Si02
#       8
#     8   8   8   8   8   8   8   8
#     4  10  20  33  51  74 102 134 171 215 260 313
#     4   9  19  35  55  74  98 136 178 215 258 312
#     4   9  17  31  53  80 108 138 174 217 265 316
#     4   9  18  33  53  76 102 136 174 213 261 315
#     4   9  20  35  50  72 101 134 170 213 265 311
#     4  10  20  33  52  79 109 138 170 213 262 311
#     4  10  19  33  53  76 102 134 172 212 256 307
#     4  10  20  34  52  74 100 131 170 212 258 307
#
# _framework density 18.258769999999998
#
# number of rings (size 3 to 8) (size 9 to 14) (size 15 to 20)
#    0.000    2.500    0.000    1.875    1.750    3.250 
#    0.000    1.875    0.000    2.250    0.000    1.750 
#    0.000    0.000    0.000    0.000    0.000    0.000 
#
# Total GULP energy -396721.628077 kJ/mol
# GULP energy per Si atom -12397.550877 kJ/mol
# Density = 1.821721 g / cm^3
# Si number density = 18.258770 Si / 1000 Ang^3
#
#
#
# Elastic Constant Matrix: (Units=GPa)
#
#
# Indices 1 2 3 4 5 6 
#
# 1 55.1749 29.8338 40.5029 -0.0001 0.0000 0.0000
# 2 29.8338 95.1251 62.8749 -0.0001 0.0000 0.0000
# 3 40.5029 62.8749 115.5332 -0.0020 0.0000 0.0001
# 4 -0.0001 -0.0001 -0.0020 25.3908 0.0000 0.0000
# 5 0.0000 0.0000 0.0000 0.0000 18.9004 -0.0001
# 6 0.0000 0.0000 0.0001 0.0000 -0.0001 26.5734
#
#
#
# Elastic Compliance Matrix: (Units=1/GPa)
#
#
# Indices 1 2 3 4 5 6 
#
# 1 0.025013 -0.003200 -0.007028 0.000000 0.000000 0.000000
# 2 -0.003200 0.016828 -0.008036 -0.000001 0.000000 0.000000
# 3 -0.007028 -0.008036 0.015493 0.000001 0.000000 0.000000
# 4 0.000000 -0.000001 0.000001 0.039384 0.000000 0.000000
# 5 0.000000 0.000000 0.000000 0.000000 0.052909 0.000000
# 6 0.000000 0.000000 0.000000 0.000000 0.000000 0.037632
#
#
# Mechanical properties :
#
#
# Convention : Reuss Voigt Hill
#
# Bulk Modulus (GPa) = 48.06201 59.13961 53.60081
# Shear Modulus (GPa) = 21.67121 23.01435 22.34278
#
# Velocity S-wave (km/s) = 3.44887 3.55414 3.50190
# Velocity P-wave (km/s) = 6.49919 7.02158 6.76543
#
# Compressibility (1/GPa) = 0.02080645
#
# Stress axis : x y z
#
# Youngs Moduli (GPa) = 39.97890 59.42608 64.54708
#
# Poissons Ratio (x) = 0.19015 0.45361
# Poissons Ratio (y) = 0.12792 0.51871
# Poissons Ratio (z) = 0.28096 0.47755
#
# Static dielectric constant tensor:
#      x y z
#    x 3.370900 0.000000 0.000000 
#    y 0.000000 3.548550 0.000000 
#    z 0.000000 0.000000 3.450860 
# 
# 
# High freq. dielectric constant tensor:
#      x y z
#    x 1.696510 0.000000 0.000000 
#    y 0.000000 1.713060 0.000000 
#    z 0.000000 0.000000 1.701040 
# 
# From -- ./inp_files/11549.got.cif
#   From: 2010.03.12/outbox.cif.g09.slc.cpg/sg44_6_cif.got.tgz:11549.got - 2010.04.14 02:36:11.
