data_PCOD8188381
_publ_section_title
;
Structure prediction by ZEFSAII (Michael W. Deem and Ramdas Pophale) SiO2 
 PCOD8188381
Probable space group: I M M 2
;
_chemical_formula_sum "Si O2"
_cell_formula_units_Z 64
_cell_length_a 8.635097
_cell_length_b 31.051745
_cell_length_c 12.074999
_cell_angle_alpha 90.000000
_cell_angle_beta 90.000000
_cell_angle_gamma 90.000000
_cell_volume 3237.727805
_symmetry_space_group_name_H-M "I M M 2"
_symmetry_group_IT_number 44
_symmetry_cell_setting 'orthorhombic'
loop_
_space_group_symop_operation_xyz
x,y,z
-x,-y,z
-x,y,z
x,-y,z
1/2+x,1/2+y,1/2+z
1/2-x,1/2-y,1/2+z
1/2-x,1/2+y,1/2+z
1/2+x,1/2-y,1/2+z
loop_
_atom_site_type_symbol
_atom_site_label
_atom_site_fract_x
_atom_site_fract_y
_atom_site_fract_z
Si Si1 0.183248 0.047437 0.352880
Si Si2 0.682693 0.125167 0.964579
Si Si3 0.818249 0.203456 0.370613
Si Si4 0.819602 0.073315 0.588056
Si Si5 0.320223 0.835676 0.581399
Si Si6 0.318797 0.373866 0.705954
Si Si7 0.681860 0.201871 0.813400
Si Si8 0.818136 0.048645 0.826565
O O1 0.252247 0.051256 0.477798
O O2 0.249094 0.084821 0.273123
O O3 0.000000 0.053941 0.359876
O O4 0.226804 0.000000 0.305913
O O5 0.500000 0.124918 0.954945
O O6 0.752927 0.165893 0.896502
O O7 0.742090 0.080497 0.914189
O O8 0.730734 0.129459 0.091080
O O9 0.714035 0.193175 0.475841
O O10 0.783835 0.169507 0.273459
O O11 0.755790 0.250307 0.335815
O O12 0.000000 0.202912 0.400950
O O13 0.790720 0.123619 0.577130
O O14 0.746947 0.055576 0.702802
O O15 0.000000 0.063094 0.591170
O O16 0.500000 0.849583 0.585195
O O17 0.271358 0.808814 0.688595
O O18 0.500000 0.379651 0.682295
O O19 0.500000 0.201922 0.829515
O O20 0.000000 0.058041 0.825139
O O21 0.781854 0.000000 0.864832
#
# Coordination Sequence:
#
# PCOD8188381 Si02
#       8
#     8   8   8   8   8   8   8   8
#     4   9  17  32  56  84 111 141 181 230 284 334
#     4  11  23  40  58  80 115 156 191 230 289 347
#     4  10  21  40  61  83 113 150 194 238 285 339
#     4  10  18  34  59  87 115 147 184 228 281 339
#     4  11  21  36  59  87 117 148 184 234 291 342
#     4  10  21  37  58  83 111 148 192 240 287 333
#     4   9  21  39  58  81 115 153 186 233 287 339
#     4  10  21  37  60  89 116 146 191 241 281 328
#
# _framework density 19.766949
#
# number of rings (size 3 to 8) (size 9 to 14) (size 15 to 20)
#    0.000    2.000    2.500    1.125    1.750    2.750 
#    0.000    3.125    0.000    1.875    0.000    0.000 
#    0.000    0.000    0.000    0.000    0.000    0.000 
#
# Total GULP energy -396755.503862 kJ/mol
# GULP energy per Si atom -12398.609496 kJ/mol
# Density = 1.972196 g / cm^3
# Si number density = 19.766949 Si / 1000 Ang^3
#
#
#
# Elastic Constant Matrix: (Units=GPa)
#
#
# Indices 1 2 3 4 5 6 
#
# 1 22.3410 20.2798 24.4939 0.0011 -0.0003 -0.0001
# 2 20.2798 158.7245 66.5223 0.0010 0.0000 0.0002
# 3 24.4939 66.5223 137.3776 0.0038 -0.0007 -0.0003
# 4 0.0011 0.0010 0.0038 39.7468 -0.0006 0.0004
# 5 -0.0003 0.0000 -0.0007 -0.0006 25.5116 0.0004
# 6 -0.0001 0.0002 -0.0003 0.0004 0.0004 18.1196
#
#
#
# Elastic Compliance Matrix: (Units=1/GPa)
#
#
# Indices 1 2 3 4 5 6 
#
# 1 0.057427 -0.003822 -0.008388 -0.000001 0.000000 0.000000
# 2 -0.003822 0.008159 -0.003269 0.000000 0.000000 0.000000
# 3 -0.008388 -0.003269 0.010358 -0.000001 0.000000 0.000000
# 4 -0.000001 0.000000 -0.000001 0.025159 0.000001 -0.000001
# 5 0.000000 0.000000 0.000000 0.000001 0.039198 -0.000001
# 6 0.000000 0.000000 0.000000 -0.000001 -0.000001 0.055189
#
#
# Mechanical properties :
#
#
# Convention : Reuss Voigt Hill
#
# Bulk Modulus (GPa) = 22.22986 60.11501 41.17243
# Shear Modulus (GPa) = 20.70887 30.48542 25.59715
#
# Velocity S-wave (km/s) = 3.24026 3.93140 3.60244
# Velocity P-wave (km/s) = 5.02687 7.14743 6.17880
#
# Compressibility (1/GPa) = 0.04498455
#
# Stress axis : x y z
#
# Youngs Moduli (GPa) = 17.41355 122.56887 96.54450
#
# Poissons Ratio (x) = 0.46841 0.80985
# Poissons Ratio (y) = 0.06655 0.31563
# Poissons Ratio (z) = 0.14607 0.40071
#
# Static dielectric constant tensor:
#      x y z
#    x 3.209330 0.000000 0.000000 
#    y 0.000000 3.833980 0.000000 
#    z 0.000000 0.000000 3.755120 
# 
# 
# High freq. dielectric constant tensor:
#      x y z
#    x 1.731710 0.000000 0.000000 
#    y 0.000000 1.784910 0.000000 
#    z 0.000000 0.000000 1.779840 
# 
# From -- ./inp_files/11481.got.cif
#   From: 2010.03.12/outbox.cif.g09.slc.cpg/sg44_6_cif.got.tgz:11481.got - 2010.04.14 02:36:11.
