data_PCOD8188429
_publ_section_title
;
Structure prediction by ZEFSAII (Michael W. Deem and Ramdas Pophale) SiO2 
 PCOD8188429
Probable space group: I M M 2
;
_chemical_formula_sum "Si O2"
_cell_formula_units_Z 64
_cell_length_a 22.414578
_cell_length_b 9.311143
_cell_length_c 15.407471
_cell_angle_alpha 90.000000
_cell_angle_beta 90.000000
_cell_angle_gamma 90.000000
_cell_volume 3215.621490
_symmetry_space_group_name_H-M "I M M 2"
_symmetry_group_IT_number 44
_symmetry_cell_setting 'orthorhombic'
loop_
_space_group_symop_operation_xyz
x,y,z
-x,-y,z
-x,y,z
x,-y,z
1/2+x,1/2+y,1/2+z
1/2-x,1/2-y,1/2+z
1/2-x,1/2+y,1/2+z
1/2+x,1/2-y,1/2+z
loop_
_atom_site_type_symbol
_atom_site_label
_atom_site_fract_x
_atom_site_fract_y
_atom_site_fract_z
Si Si1 0.434877 0.670324 0.210310
Si Si2 0.070883 0.338569 0.366710
Si Si3 0.570041 0.343002 0.709065
Si Si4 0.810768 0.172511 0.784202
Si Si5 0.321815 0.172492 0.453951
Si Si6 0.109035 0.838296 0.529380
Si Si7 0.761162 0.160931 0.604586
Si Si8 0.931524 0.831606 0.013299
O O1 0.500000 0.721877 0.246020
O O2 0.431274 0.500000 0.206847
O O3 0.379855 0.722366 0.269223
O O4 0.427574 0.724663 0.111256
O O5 0.094398 0.500000 0.366368
O O6 0.096809 0.267087 0.278921
O O7 0.098548 0.261694 0.448428
O O8 0.000000 0.330088 0.370638
O O9 0.500000 0.357156 0.723123
O O10 0.599266 0.500000 0.723246
O O11 0.582577 0.287676 0.612330
O O12 0.789095 0.256664 0.870076
O O13 0.771247 0.227885 0.701191
O O14 0.805969 0.000000 0.795390
O O15 0.288970 0.231257 0.541777
O O16 0.389290 0.232998 0.454328
O O17 0.320263 0.000000 0.446249
O O18 0.178346 0.835851 0.550810
O O19 0.088162 0.000000 0.506415
O O20 0.740057 0.000000 0.621513
O O21 0.000000 0.797376 0.989200
O O22 0.918495 0.000000 0.996915
#
# Coordination Sequence:
#
# PCOD8188429 Si02
#       8
#     8   8   8   8   8   8   8   8
#     4   8  14  26  49  79 103 129 173 224 269 314
#     4  10  19  28  41  69 109 144 174 217 278 336
#     4   8  15  30  50  69  94 133 179 222 259 304
#     4   9  18  36  59  79 106 146 187 227 271 326
#     4  11  22  37  58  85 116 147 180 226 285 338
#     4   9  16  30  52  72  95 135 186 230 266 315
#     4   8  18  38  58  76 106 146 186 232 279 321
#     4   9  19  37  59  82 108 140 182 228 271 325
#
# _framework density 19.902839
#
# number of rings (size 3 to 8) (size 9 to 14) (size 15 to 20)
#    0.000    3.000    0.000    3.375    0.000    2.500 
#    2.250    7.500    0.000    0.750    0.000    0.000 
#    0.000    0.000    0.000    0.000    0.000    0.000 
#
# Total GULP energy -396491.937320 kJ/mol
# GULP energy per Si atom -12390.373041 kJ/mol
# Density = 1.985754 g / cm^3
# Si number density = 19.902839 Si / 1000 Ang^3
#
#
#
# Elastic Constant Matrix: (Units=GPa)
#
#
# Indices 1 2 3 4 5 6 
#
# 1 59.9010 17.6473 35.0299 0.0000 0.0000 0.0000
# 2 17.6473 74.0342 52.7101 0.0000 0.0000 0.0000
# 3 35.0299 52.7101 125.9889 0.0000 0.0000 0.0000
# 4 0.0000 0.0000 0.0000 26.6696 0.0000 0.0000
# 5 0.0000 0.0000 0.0000 0.0000 20.8582 0.0000
# 6 0.0000 0.0000 0.0000 0.0000 0.0000 16.2058
#
#
#
# Elastic Compliance Matrix: (Units=1/GPa)
#
#
# Indices 1 2 3 4 5 6 
#
# 1 0.020004 -0.001151 -0.005080 0.000000 0.000000 0.000000
# 2 -0.001151 0.019304 -0.007756 0.000000 0.000000 0.000000
# 3 -0.005080 -0.007756 0.012595 0.000000 0.000000 0.000000
# 4 0.000000 0.000000 0.000000 0.037496 0.000000 0.000000
# 5 0.000000 0.000000 0.000000 0.000000 0.047943 0.000000
# 6 0.000000 0.000000 0.000000 0.000000 0.000000 0.061706
#
#
# Mechanical properties :
#
#
# Convention : Reuss Voigt Hill
#
# Bulk Modulus (GPa) = 41.79310 52.29986 47.04648
# Shear Modulus (GPa) = 21.27672 23.04918 22.16295
#
# Velocity S-wave (km/s) = 3.27315 3.40676 3.34062
# Velocity P-wave (km/s) = 5.94380 6.46601 6.21040
#
# Compressibility (1/GPa) = 0.02392740
#
# Stress axis : x y z
#
# Youngs Moduli (GPa) = 49.98912 51.80336 79.39891
#
# Poissons Ratio (x) = 0.05964 0.40337
# Poissons Ratio (y) = 0.05755 0.61582
# Poissons Ratio (z) = 0.25396 0.40179
#
# Static dielectric constant tensor:
#      x y z
#    x 3.519250 0.000000 0.000000 
#    y 0.000000 3.426250 0.000000 
#    z 0.000000 0.000000 3.778510 
# 
# 
# High freq. dielectric constant tensor:
#      x y z
#    x 1.758010 0.000000 0.000000 
#    y 0.000000 1.737710 0.000000 
#    z 0.000000 0.000000 1.787800 
# 
# From -- ./inp_files/19456.got.cif
#   From: 2010.03.12/outbox.cif.g09.slc.cpg/sg44_10_cif.got.tgz:19456.got - 2010.04.14 02:36:11.
