data_PCOD8188396
_publ_section_title
;
Structure prediction by ZEFSAII (Michael W. Deem and Ramdas Pophale) SiO2 
 PCOD8188396
Probable space group: I M M 2
;
_chemical_formula_sum "Si O2"
_cell_formula_units_Z 48
_cell_length_a 14.543590
_cell_length_b 8.721328
_cell_length_c 20.335627
_cell_angle_alpha 90.000000
_cell_angle_beta 90.000000
_cell_angle_gamma 90.000000
_cell_volume 2579.359107
_symmetry_space_group_name_H-M "I M M 2"
_symmetry_group_IT_number 44
_symmetry_cell_setting 'orthorhombic'
loop_
_space_group_symop_operation_xyz
x,y,z
-x,-y,z
-x,y,z
x,-y,z
1/2+x,1/2+y,1/2+z
1/2-x,1/2-y,1/2+z
1/2-x,1/2+y,1/2+z
1/2+x,1/2-y,1/2+z
loop_
_atom_site_type_symbol
_atom_site_label
_atom_site_fract_x
_atom_site_fract_y
_atom_site_fract_z
Si Si1 0.305085 0.817920 0.156480
Si Si2 0.809582 0.819942 0.280359
Si Si3 0.500000 0.181695 0.114590
Si Si4 0.500000 0.678999 0.972271
Si Si5 0.820965 0.321169 0.416624
Si Si6 0.000000 0.822026 0.213136
Si Si7 0.812887 0.819964 0.034239
Si Si8 0.500000 0.820033 0.570313
O O1 0.262556 0.764088 0.225261
O O2 0.408967 0.752741 0.150386
O O3 0.244266 0.753812 0.096263
O O4 0.305466 0.000000 0.151484
O O5 0.784641 0.722902 0.344622
O O6 0.911699 0.778827 0.256134
O O7 0.800020 0.000000 0.295051
O O8 0.500000 0.000000 0.117677
O O9 0.500000 0.225932 0.038830
O O10 0.500000 0.500000 0.988063
O O11 0.411013 0.721005 0.929963
O O12 0.846114 0.500000 0.421073
O O13 0.741417 0.278436 0.468019
O O14 0.000000 0.729603 0.145917
O O15 0.000000 0.000000 0.193329
O O16 0.911449 0.740634 0.031496
O O17 0.828414 0.000000 0.041981
O O18 0.500000 0.000000 0.567008
#
# Coordination Sequence:
#
# PCOD8188396 Si02
#       8
#     8   8   4   4   8   4   8   4
#     4   9  17  33  60  85 111 151 194 232 272 334
#     4  10  20  35  56  84 116 153 190 232 288 342
#     4  10  18  35  60  89 116 147 198 237 270 336
#     4  12  23  35  56  88 123 153 182 234 297 344
#     4  11  23  39  60  85 115 154 195 237 282 339
#     4  10  19  35  58  80 113 157 194 226 275 352
#     4  10  20  39  62  81 109 155 199 232 278 346
#     4  12  24  35  56  91 120 143 184 249 296 328
#
# _framework density 18.609273000000002
#
# number of rings (size 3 to 8) (size 9 to 14) (size 15 to 20)
#    0.000    1.667    3.333    2.500    0.000    2.667 
#    0.000    1.667    0.000    1.000    0.000    0.000 
#    0.000    0.000    0.000    0.000    0.000    0.000 
#
# Total GULP energy -297677.917506 kJ/mol
# GULP energy per Si atom -12403.246563 kJ/mol
# Density = 1.856692 g / cm^3
# Si number density = 18.609273 Si / 1000 Ang^3
#
#
#
# Elastic Constant Matrix: (Units=GPa)
#
#
# Indices 1 2 3 4 5 6 
#
# 1 156.4767 35.6965 72.7894 0.0000 0.0000 0.0000
# 2 35.6965 41.9559 22.3420 0.0000 0.0000 0.0000
# 3 72.7894 22.3420 130.2529 0.0000 0.0000 0.0000
# 4 0.0000 0.0000 0.0000 30.6642 0.0000 0.0000
# 5 0.0000 0.0000 0.0000 0.0000 26.9429 0.0000
# 6 0.0000 0.0000 0.0000 0.0000 0.0000 9.0576
#
#
#
# Elastic Compliance Matrix: (Units=1/GPa)
#
#
# Indices 1 2 3 4 5 6 
#
# 1 0.009836 -0.005988 -0.004469 0.000000 0.000000 0.000000
# 2 -0.005988 0.029876 -0.001778 0.000000 0.000000 0.000000
# 3 -0.004469 -0.001778 0.010480 0.000000 0.000000 0.000000
# 4 0.000000 0.000000 0.000000 0.032611 0.000000 0.000000
# 5 0.000000 0.000000 0.000000 0.000000 0.037116 0.000000
# 6 0.000000 0.000000 0.000000 0.000000 0.000000 0.110404
#
#
# Mechanical properties :
#
#
# Convention : Reuss Voigt Hill
#
# Bulk Modulus (GPa) = 38.87966 65.59347 52.23656
# Shear Modulus (GPa) = 18.98475 26.52344 22.75409
#
# Velocity S-wave (km/s) = 3.19749 3.77938 3.50055
# Velocity P-wave (km/s) = 5.87961 7.37355 6.66855
#
# Compressibility (1/GPa) = 0.02572039
#
# Stress axis : x y z
#
# Youngs Moduli (GPa) = 101.66788 33.47117 95.41961
#
# Poissons Ratio (x) = 0.20044 0.42647
# Poissons Ratio (y) = 0.60884 0.16966
# Poissons Ratio (z) = 0.45440 0.05951
#
# Static dielectric constant tensor:
#      x y z
#    x 4.323520 0.000000 0.000000 
#    y 0.000000 3.143520 0.000000 
#    z 0.000000 0.000000 3.419150 
# 
# 
# High freq. dielectric constant tensor:
#      x y z
#    x 1.729240 0.000000 0.000000 
#    y 0.000000 1.699550 0.000000 
#    z 0.000000 0.000000 1.722310 
# 
# From -- ./inp_files/21741.got.cif
#   From: 2010.03.12/outbox.cif.g09.slc.cpg/sg44_11_cif.got.tgz:21741.got - 2010.04.14 02:36:11.
