data_PCOD8188045
_publ_section_title
;
Structure prediction by ZEFSAII (Michael W. Deem and Ramdas Pophale) SiO2 
 PCOD8188045
Probable space group: I M M 2
;
_chemical_formula_sum "Si O2"
_cell_formula_units_Z 56
_cell_length_a 13.597552
_cell_length_b 7.901897
_cell_length_c 32.011710
_cell_angle_alpha 90.000000
_cell_angle_beta 90.000000
_cell_angle_gamma 90.000000
_cell_volume 3439.544769
_symmetry_space_group_name_H-M "I M M 2"
_symmetry_group_IT_number 44
_symmetry_cell_setting 'orthorhombic'
loop_
_space_group_symop_operation_xyz
x,y,z
-x,-y,z
-x,y,z
x,-y,z
1/2+x,1/2+y,1/2+z
1/2-x,1/2-y,1/2+z
1/2-x,1/2+y,1/2+z
1/2+x,1/2-y,1/2+z
loop_
_atom_site_type_symbol
_atom_site_label
_atom_site_fract_x
_atom_site_fract_y
_atom_site_fract_z
Si Si1 0.117288 0.000000 0.815318
Si Si2 0.609188 0.691652 0.079986
Si Si3 0.116547 0.000000 0.719207
Si Si4 0.889905 0.196824 0.417296
Si Si5 0.798357 0.692683 0.867069
Si Si6 0.609938 0.696943 0.448971
Si Si7 0.206729 0.308452 0.499434
Si Si8 0.117014 0.313992 0.666934
O O1 0.163241 0.828039 0.833736
O O2 0.148034 0.000000 0.767186
O O3 0.000000 0.000000 0.822714
O O4 0.500000 0.760524 0.068629
O O5 0.602500 0.500000 0.095464
O O6 0.655016 0.793233 0.119185
O O7 0.675914 0.697920 0.038889
O O8 0.160678 0.168935 0.697273
O O9 0.000000 0.000000 0.715302
O O10 0.812819 0.244611 0.380742
O O11 0.866544 0.293231 0.460192
O O12 0.000000 0.245687 0.402338
O O13 0.880889 0.000000 0.427841
O O14 0.801633 0.500000 0.848863
O O15 0.868123 0.696045 0.907597
O O16 0.500000 0.735041 0.464638
O O17 0.625132 0.500000 0.437267
O O18 0.684106 0.750871 0.485750
O O19 0.206602 0.500000 0.515063
O O20 0.149780 0.500000 0.683250
O O21 0.000000 0.297560 0.666141
#
# Coordination Sequence:
#
# PCOD8188045 Si02
#       8
#     4   8   4   8   8   8   8   8
#     4  11  22  34  49  69  97 125 160 204 239 277
#     4  10  18  28  42  60  89 125 154 183 224 273
#     4   9  18  32  46  65  91 119 151 190 234 277
#     4   9  18  32  47  64  92 127 158 194 240 282
#     4  10  20  33  49  70  93 122 162 198 235 286
#     4   9  17  31  47  60  85 125 161 197 238 273
#     4  10  19  27  39  65  92 117 159 201 229 269
#     4   9  16  28  46  65  87 118 153 183 220 276
#
# _framework density 16.281224999999999
#
# number of rings (size 3 to 8) (size 9 to 14) (size 15 to 20)
#    0.000    2.429    1.429    1.714    1.000    5.143 
#    0.000    1.429    0.000    0.000    0.000    0.000 
#    0.000    2.286    0.000    7.857    0.000    0.143 
#
# Total GULP energy -347092.035010 kJ/mol
# GULP energy per Si atom -12396.144107 kJ/mol
# Density = 1.624417 g / cm^3
# Si number density = 16.281225 Si / 1000 Ang^3
#
#
#
# Elastic Constant Matrix: (Units=GPa)
#
#
# Indices 1 2 3 4 5 6 
#
# 1 90.3884 24.0697 40.1457 0.0000 0.0000 0.0000
# 2 24.0697 92.7116 54.2343 0.0000 0.0000 0.0000
# 3 40.1457 54.2343 101.3087 0.0000 0.0000 0.0000
# 4 0.0000 0.0000 0.0000 21.2297 0.0000 0.0000
# 5 0.0000 0.0000 0.0000 0.0000 16.0270 0.0000
# 6 0.0000 0.0000 0.0000 0.0000 0.0000 17.0015
#
#
#
# Elastic Compliance Matrix: (Units=1/GPa)
#
#
# Indices 1 2 3 4 5 6 
#
# 1 0.013445 -0.000544 -0.005037 0.000000 0.000000 0.000000
# 2 -0.000544 0.015726 -0.008203 0.000000 0.000000 0.000000
# 3 -0.005037 -0.008203 0.016258 0.000000 0.000000 0.000000
# 4 0.000000 0.000000 0.000000 0.047104 0.000000 0.000000
# 5 0.000000 0.000000 0.000000 0.000000 0.062395 0.000000
# 6 0.000000 0.000000 0.000000 0.000000 0.000000 0.058818
#
#
# Mechanical properties :
#
#
# Convention : Reuss Voigt Hill
#
# Bulk Modulus (GPa) = 55.98639 57.92315 56.95477
# Shear Modulus (GPa) = 20.22096 21.91556 21.06826
#
# Velocity S-wave (km/s) = 3.52800 3.67285 3.60115
# Velocity P-wave (km/s) = 7.14545 7.32396 7.23525
#
# Compressibility (1/GPa) = 0.01786148
#
# Stress axis : x y z
#
# Youngs Moduli (GPa) = 74.37536 63.58871 61.50798
#
# Poissons Ratio (x) = 0.03462 0.30979
# Poissons Ratio (y) = 0.04049 0.50455
# Poissons Ratio (z) = 0.37460 0.52162
#
# Static dielectric constant tensor:
#      x y z
#    x 2.952930 0.000000 0.000000 
#    y 0.000000 3.208580 0.000000 
#    z 0.000000 0.000000 2.886900 
# 
# 
# High freq. dielectric constant tensor:
#      x y z
#    x 1.589180 0.000000 0.000000 
#    y 0.000000 1.641770 0.000000 
#    z 0.000000 0.000000 1.601360 
# 
# From -- ./inp_files/27489.got.cif
#   From: 2010.03.12/outbox.cif.g09.slc.cpg/sg44_14_cif.got.tgz:27489.got - 2010.04.14 02:36:11.
