data_PCOD8188467
_publ_section_title
;
Structure prediction by ZEFSAII (Michael W. Deem and Ramdas Pophale) SiO2 
 PCOD8188467
Probable space group: I M M 2
;
_chemical_formula_sum "Si O2"
_cell_formula_units_Z 52
_cell_length_a 7.651719
_cell_length_b 12.840021
_cell_length_c 33.287050
_cell_angle_alpha 90.000000
_cell_angle_beta 90.000000
_cell_angle_gamma 90.000000
_cell_volume 3270.393833
_symmetry_space_group_name_H-M "I M M 2"
_symmetry_group_IT_number 44
_symmetry_cell_setting 'orthorhombic'
loop_
_space_group_symop_operation_xyz
x,y,z
-x,-y,z
-x,y,z
x,-y,z
1/2+x,1/2+y,1/2+z
1/2-x,1/2-y,1/2+z
1/2-x,1/2+y,1/2+z
1/2+x,1/2-y,1/2+z
loop_
_atom_site_type_symbol
_atom_site_label
_atom_site_fract_x
_atom_site_fract_y
_atom_site_fract_z
Si Si1 0.298770 0.884059 0.031520
Si Si2 0.794155 0.114828 0.116094
Si Si3 0.202154 0.260665 0.455702
Si Si4 0.801356 0.379281 0.374774
Si Si5 0.000000 0.377468 0.925010
Si Si6 0.304560 0.375774 0.702673
Si Si7 0.000000 0.376268 0.761069
Si Si8 0.500000 0.243108 0.344084
O O1 0.500000 0.896091 0.021343
O O2 0.270487 0.828219 0.075227
O O3 0.211088 0.000000 0.031000
O O4 0.221279 0.811402 0.996574
O O5 0.742093 0.168817 0.158720
O O6 0.000000 0.106688 0.115434
O O7 0.707946 0.000000 0.114563
O O8 0.224114 0.346622 0.420969
O O9 0.323661 0.161936 0.446555
O O10 0.000000 0.223690 0.459318
O O11 0.752931 0.500000 0.371141
O O12 0.672870 0.314276 0.346187
O O13 0.000000 0.357607 0.360704
O O14 0.000000 0.500000 0.927270
O O15 0.000000 0.342492 0.878867
O O16 0.500000 0.335845 0.713665
O O17 0.306058 0.500000 0.698898
O O18 0.171191 0.338989 0.736760
O O19 0.000000 0.500000 0.767946
O O20 0.000000 0.318166 0.802797
#
# Coordination Sequence:
#
# PCOD8188467 Si02
#       8
#     8   8   8   8   4   8   4   4
#     4   9  16  24  38  63  94 123 148 177 212 258
#     4   8  14  23  35  55  85 119 149 175 208 255
#     4   9  18  31  46  67  92 119 152 186 217 259
#     4   9  17  31  50  68  92 123 147 174 221 275
#     4  10  21  35  49  62  85 119 156 195 235 265
#     4   8  15  27  40  56  81 117 155 183 212 258
#     4  10  19  29  45  62  85 123 158 189 225 261
#     4  10  20  32  46  70  92 112 150 198 226 262
#
# _framework density 15.900224
#
# number of rings (size 3 to 8) (size 9 to 14) (size 15 to 20)
#    0.000    3.077    0.000    1.846    2.154    2.769 
#    0.000    0.769    0.000    2.769    0.000    0.000 
#    0.000    2.462    0.923    0.000    0.000    0.000 
#
# Total GULP energy -322164.746341 kJ/mol
# GULP energy per Si atom -12390.951782 kJ/mol
# Density = 1.586403 g / cm^3
# Si number density = 15.900224 Si / 1000 Ang^3
#
#
#
# Elastic Constant Matrix: (Units=GPa)
#
#
# Indices 1 2 3 4 5 6 
#
# 1 86.9065 40.6904 58.2131 0.0000 0.0000 0.0000
# 2 40.6904 73.7548 48.6028 0.0000 0.0000 0.0000
# 3 58.2131 48.6028 135.7450 0.0000 0.0000 0.0000
# 4 0.0000 0.0000 0.0000 18.8606 0.0000 0.0000
# 5 0.0000 0.0000 0.0000 0.0000 22.5899 0.0000
# 6 0.0000 0.0000 0.0000 0.0000 0.0000 14.2508
#
#
#
# Elastic Compliance Matrix: (Units=1/GPa)
#
#
# Indices 1 2 3 4 5 6 
#
# 1 0.018198 -0.006409 -0.005509 0.000000 0.000000 0.000000
# 2 -0.006409 0.020003 -0.004413 0.000000 0.000000 0.000000
# 3 -0.005509 -0.004413 0.011309 0.000000 0.000000 0.000000
# 4 0.000000 0.000000 0.000000 0.053021 0.000000 0.000000
# 5 0.000000 0.000000 0.000000 0.000000 0.044267 0.000000
# 6 0.000000 0.000000 0.000000 0.000000 0.000000 0.070171
#
#
# Mechanical properties :
#
#
# Convention : Reuss Voigt Hill
#
# Bulk Modulus (GPa) = 59.35960 65.71321 62.53641
# Shear Modulus (GPa) = 19.58879 21.06695 20.32787
#
# Velocity S-wave (km/s) = 3.51377 3.64393 3.57944
# Velocity P-wave (km/s) = 7.34001 7.68912 7.51659
#
# Compressibility (1/GPa) = 0.01684647
#
# Stress axis : x y z
#
# Youngs Moduli (GPa) = 54.95203 49.99335 88.42160
#
# Poissons Ratio (x) = 0.32042 0.48713
# Poissons Ratio (y) = 0.35220 0.39023
# Poissons Ratio (z) = 0.30274 0.22064
#
# Static dielectric constant tensor:
#      x y z
#    x 3.215520 0.000000 0.000000 
#    y 0.000000 2.548190 0.000000 
#    z 0.000000 0.000000 3.165550 
# 
# 
# High freq. dielectric constant tensor:
#      x y z
#    x 1.622950 0.000000 0.000000 
#    y 0.000000 1.542490 0.000000 
#    z 0.000000 0.000000 1.615180 
# 
# From -- ./inp_files/26096.got.cif
#   From: 2010.03.12/outbox.cif.g09.slc.cpg/sg44_14_cif.got.tgz:26096.got - 2010.04.14 02:36:11.
