data_PCOD8188970
_publ_section_title
;
Structure prediction by ZEFSAII (Michael W. Deem and Ramdas Pophale) SiO2 
 PCOD8188970
Probable space group: I M M 2
;
_chemical_formula_sum "Si O2"
_cell_formula_units_Z 64
_cell_length_a 8.532768
_cell_length_b 17.833922
_cell_length_c 20.622824
_cell_angle_alpha 90.000000
_cell_angle_beta 90.000000
_cell_angle_gamma 90.000000
_cell_volume 3138.231201
_symmetry_space_group_name_H-M "I M M 2"
_symmetry_group_IT_number 44
_symmetry_cell_setting 'orthorhombic'
loop_
_space_group_symop_operation_xyz
x,y,z
-x,-y,z
-x,y,z
x,-y,z
1/2+x,1/2+y,1/2+z
1/2-x,1/2-y,1/2+z
1/2-x,1/2+y,1/2+z
1/2+x,1/2-y,1/2+z
loop_
_atom_site_type_symbol
_atom_site_label
_atom_site_fract_x
_atom_site_fract_y
_atom_site_fract_z
Si Si1 0.185576 0.664187 0.035540
Si Si2 0.681439 0.412049 0.409556
Si Si3 0.183419 0.672507 0.291369
Si Si4 0.318959 0.834467 0.288982
Si Si5 0.684956 0.583765 0.667329
Si Si6 0.318673 0.586620 0.910708
Si Si7 0.686038 0.084008 0.666392
Si Si8 0.185619 0.164470 0.040421
O O1 0.242195 0.620581 0.099412
O O2 0.239515 0.749702 0.043305
O O3 0.000000 0.656587 0.024215
O O4 0.277061 0.630536 0.975395
O O5 0.500000 0.391067 0.397437
O O6 0.704887 0.500000 0.417439
O O7 0.785333 0.383657 0.350253
O O8 0.747364 0.373252 0.474562
O O9 0.274560 0.749129 0.303770
O O10 0.248684 0.633826 0.225957
O O11 0.000000 0.689913 0.285874
O O12 0.500000 0.840466 0.271715
O O13 0.222346 0.864979 0.228498
O O14 0.285064 0.883697 0.351965
O O15 0.500000 0.578959 0.660580
O O16 0.755300 0.500000 0.675931
O O17 0.757131 0.621103 0.602459
O O18 0.500000 0.599200 0.893348
O O19 0.278720 0.500000 0.921867
O O20 0.500000 0.081000 0.669239
O O21 0.755749 0.000000 0.671540
O O22 0.000000 0.158537 0.042794
#
# Coordination Sequence:
#
# PCOD8188970 Si02
#       8
#     8   8   8   8   8   8   8   8
#     4  10  19  34  59  86 114 151 194 237 280 331
#     4  10  20  35  56  84 119 157 197 240 285 336
#     4  11  22  38  60  84 113 151 196 242 287 339
#     4  12  25  40  59  84 115 149 187 234 289 347
#     4  10  20  37  62  88 114 148 191 236 282 335
#     4  11  24  41  60  84 115 150 189 233 282 339
#     4   9  18  33  55  84 116 151 192 235 280 334
#     4   9  18  34  57  85 116 153 194 232 277 336
#
# _framework density 20.393654000000002
#
# number of rings (size 3 to 8) (size 9 to 14) (size 15 to 20)
#    0.000    1.750    0.000    4.875    0.000    8.500 
#    0.000    3.750    0.000    4.500    0.000    0.000 
#    0.000    0.000    0.000    0.000    0.000    0.000 
#
# Total GULP energy -396949.818804 kJ/mol
# GULP energy per Si atom -12404.681838 kJ/mol
# Density = 2.034724 g / cm^3
# Si number density = 20.393654 Si / 1000 Ang^3
#
#
#
# Elastic Constant Matrix: (Units=GPa)
#
#
# Indices 1 2 3 4 5 6 
#
# 1 28.5363 30.1986 14.7401 0.0000 0.0000 0.0000
# 2 30.1986 103.1285 31.8948 0.0000 0.0000 0.0000
# 3 14.7401 31.8948 135.6504 0.0000 0.0000 0.0000
# 4 0.0000 0.0000 0.0000 46.4443 0.0000 0.0000
# 5 0.0000 0.0000 0.0000 0.0000 26.3622 0.0000
# 6 0.0000 0.0000 0.0000 0.0000 0.0000 21.5779
#
#
#
# Elastic Compliance Matrix: (Units=1/GPa)
#
#
# Indices 1 2 3 4 5 6 
#
# 1 0.051383 -0.014364 -0.002206 0.000000 0.000000 0.000000
# 2 -0.014364 0.014472 -0.001842 0.000000 0.000000 0.000000
# 3 -0.002206 -0.001842 0.008045 0.000000 0.000000 0.000000
# 4 0.000000 0.000000 0.000000 0.021531 0.000000 0.000000
# 5 0.000000 0.000000 0.000000 0.000000 0.037933 0.000000
# 6 0.000000 0.000000 0.000000 0.000000 0.000000 0.046344
#
#
# Mechanical properties :
#
#
# Convention : Reuss Voigt Hill
#
# Bulk Modulus (GPa) = 26.97146 46.77582 36.87364
# Shear Modulus (GPa) = 21.84441 31.57565 26.71003
#
# Velocity S-wave (km/s) = 3.27637 3.93912 3.62294
# Velocity P-wave (km/s) = 5.25043 6.60872 5.96834
#
# Compressibility (1/GPa) = 0.03707622
#
# Stress axis : x y z
#
# Youngs Moduli (GPa) = 19.46158 69.09677 124.30525
#
# Poissons Ratio (x) = 0.99251 0.27423
# Poissons Ratio (y) = 0.27955 0.22897
# Poissons Ratio (z) = 0.04293 0.12728
#
# Static dielectric constant tensor:
#      x y z
#    x 3.364070 0.000000 0.000000 
#    y 0.000000 3.962440 0.000000 
#    z 0.000000 0.000000 3.902100 
# 
# 
# High freq. dielectric constant tensor:
#      x y z
#    x 1.762460 0.000000 0.000000 
#    y 0.000000 1.816810 0.000000 
#    z 0.000000 0.000000 1.814560 
# 
# From -- ./inp_files/23316.got.cif
#   From: 2010.03.12/outbox.cif.g09.slc.cpg/sg44_12_cif.got.tgz:23316.got - 2010.04.14 02:36:11.
