data_PCOD8188038
_publ_section_title
;
Structure prediction by ZEFSAII (Michael W. Deem and Ramdas Pophale) SiO2 
 PCOD8188038
Probable space group: I M M 2
;
_chemical_formula_sum "Si O2"
_cell_formula_units_Z 64
_cell_length_a 9.203495
_cell_length_b 18.183318
_cell_length_c 26.257575
_cell_angle_alpha 90.000000
_cell_angle_beta 90.000000
_cell_angle_gamma 90.000000
_cell_volume 4394.207180
_symmetry_space_group_name_H-M "I M M 2"
_symmetry_group_IT_number 44
_symmetry_cell_setting 'orthorhombic'
loop_
_space_group_symop_operation_xyz
x,y,z
-x,-y,z
-x,y,z
x,-y,z
1/2+x,1/2+y,1/2+z
1/2-x,1/2-y,1/2+z
1/2-x,1/2+y,1/2+z
1/2+x,1/2-y,1/2+z
loop_
_atom_site_type_symbol
_atom_site_label
_atom_site_fract_x
_atom_site_fract_y
_atom_site_fract_z
Si Si1 0.329698 0.829048 0.009670
Si Si2 0.835516 0.294675 0.060755
Si Si3 0.831124 0.084584 0.613976
Si Si4 0.667860 0.585973 0.423701
Si Si5 0.830019 0.826651 0.715043
Si Si6 0.163784 0.203921 0.164306
Si Si7 0.830959 0.415782 0.611296
Si Si8 0.671255 0.418907 0.308896
O O1 0.500000 0.814345 0.004495
O O2 0.251103 0.750720 0.017818
O O3 0.293430 0.883968 0.055853
O O4 0.271542 0.865719 0.958551
O O5 0.758804 0.372972 0.070383
O O6 0.830894 0.249295 0.112536
O O7 0.000000 0.307823 0.042123
O O8 0.796390 0.116474 0.669700
O O9 0.000000 0.094121 0.600998
O O10 0.782673 0.000000 0.613316
O O11 0.500000 0.603307 0.436266
O O12 0.699709 0.500000 0.432332
O O13 0.706530 0.608644 0.365796
O O14 0.746655 0.749843 0.707663
O O15 0.767766 0.862129 0.767102
O O16 0.000000 0.808580 0.718177
O O17 0.242979 0.126227 0.155377
O O18 0.000000 0.188977 0.182397
O O19 0.781288 0.500000 0.612003
O O20 0.000000 0.406277 0.623470
O O21 0.500000 0.425699 0.301398
O O22 0.739773 0.500000 0.300007
#
# Coordination Sequence:
#
# PCOD8188038 Si02
#       8
#     8   8   8   8   8   8   8   8
#     4  10  18  28  42  58  78 105 136 168 202 238
#     4   9  17  28  40  55  77 105 135 165 198 237
#     4   9  16  25  39  60  83 106 134 167 200 234
#     4   9  17  28  41  58  81 107 135 168 202 234
#     4   9  15  25  42  59  77 106 140 168 195 229
#     4   9  17  27  38  55  79 104 130 162 199 237
#     4   9  17  28  41  57  77 102 133 166 197 233
#     4   8  14  25  41  60  80 104 137 172 199 226
#
# _framework density 14.564629999999999
#
# number of rings (size 3 to 8) (size 9 to 14) (size 15 to 20)
#    0.000    3.000    0.000    2.625    0.000    6.250 
#    0.000    0.625    0.000    1.875    0.000    0.000 
#    0.000    1.000    0.000    5.750    0.000    3.750 
#
# Total GULP energy -396743.251972 kJ/mol
# GULP energy per Si atom -12398.226624 kJ/mol
# Density = 1.453148 g / cm^3
# Si number density = 14.564630 Si / 1000 Ang^3
#
#
#
# Elastic Constant Matrix: (Units=GPa)
#
#
# Indices 1 2 3 4 5 6 
#
# 1 72.4946 51.3748 41.0645 0.0000 0.0000 0.0000
# 2 51.3748 100.3638 49.6840 0.0000 0.0000 0.0000
# 3 41.0645 49.6840 75.7083 0.0000 0.0000 0.0000
# 4 0.0000 0.0000 0.0000 24.3533 0.0000 0.0000
# 5 0.0000 0.0000 0.0000 0.0000 17.6854 0.0000
# 6 0.0000 0.0000 0.0000 0.0000 0.0000 21.3532
#
#
#
# Elastic Compliance Matrix: (Units=1/GPa)
#
#
# Indices 1 2 3 4 5 6 
#
# 1 0.024145 -0.008704 -0.007384 0.000000 0.000000 0.000000
# 2 -0.008704 0.017896 -0.007023 0.000000 0.000000 0.000000
# 3 -0.007384 -0.007023 0.021823 0.000000 0.000000 0.000000
# 4 0.000000 0.000000 0.000000 0.041062 0.000000 0.000000
# 5 0.000000 0.000000 0.000000 0.000000 0.056544 0.000000
# 6 0.000000 0.000000 0.000000 0.000000 0.000000 0.046831
#
#
# Mechanical properties :
#
#
# Convention : Reuss Voigt Hill
#
# Bulk Modulus (GPa) = 56.68660 59.20147 57.94404
# Shear Modulus (GPa) = 19.20082 19.77461 19.48772
#
# Velocity S-wave (km/s) = 3.63480 3.68872 3.66186
# Velocity P-wave (km/s) = 7.52469 7.67319 7.59930
#
# Compressibility (1/GPa) = 0.01764085
#
# Stress axis : x y z
#
# Youngs Moduli (GPa) = 41.41579 55.87839 45.82318
#
# Poissons Ratio (x) = 0.48637 0.33838
# Poissons Ratio (y) = 0.36049 0.32183
# Poissons Ratio (z) = 0.30583 0.39245
#
# Static dielectric constant tensor:
#      x y z
#    x 2.803170 0.000000 0.000000 
#    y 0.000000 2.856380 0.000000 
#    z 0.000000 0.000000 2.677170 
# 
# 
# High freq. dielectric constant tensor:
#      x y z
#    x 1.553850 0.000000 0.000000 
#    y 0.000000 1.545870 0.000000 
#    z 0.000000 0.000000 1.524030 
# 
# From -- ./inp_files/25214.got.cif
#   From: 2010.03.12/outbox.cif.g09.slc.cpg/sg44_13_cif.got.tgz:25214.got - 2010.04.14 02:36:11.
