data_PCOD8188598
_publ_section_title
;
Structure prediction by ZEFSAII (Michael W. Deem and Ramdas Pophale) SiO2 
 PCOD8188598
Probable space group: I M M 2
;
_chemical_formula_sum "Si O2"
_cell_formula_units_Z 64
_cell_length_a 9.014201
_cell_length_b 23.079786
_cell_length_c 18.949917
_cell_angle_alpha 90.000000
_cell_angle_beta 90.000000
_cell_angle_gamma 90.000000
_cell_volume 3942.451211
_symmetry_space_group_name_H-M "I M M 2"
_symmetry_group_IT_number 44
_symmetry_cell_setting 'orthorhombic'
loop_
_space_group_symop_operation_xyz
x,y,z
-x,-y,z
-x,y,z
x,-y,z
1/2+x,1/2+y,1/2+z
1/2-x,1/2-y,1/2+z
1/2-x,1/2+y,1/2+z
1/2+x,1/2-y,1/2+z
loop_
_atom_site_type_symbol
_atom_site_label
_atom_site_fract_x
_atom_site_fract_y
_atom_site_fract_z
Si Si1 0.327528 0.228586 0.694360
Si Si2 0.325890 0.248038 0.329898
Si Si3 0.675427 0.623848 0.832130
Si Si4 0.330469 0.065877 0.204403
Si Si5 0.827247 0.224727 0.986180
Si Si6 0.675151 0.564918 0.976580
Si Si7 0.829956 0.658108 0.060430
Si Si8 0.328052 0.828831 0.109105
O O1 0.500000 0.240689 0.708133
O O2 0.245800 0.213476 0.767711
O O3 0.304657 0.174191 0.642324
O O4 0.258998 0.286627 0.661666
O O5 0.500000 0.241110 0.317679
O O6 0.254985 0.185033 0.327136
O O7 0.291782 0.280678 0.403355
O O8 0.500000 0.633307 0.830884
O O9 0.721758 0.583337 0.767437
O O10 0.729556 0.592788 0.903450
O O11 0.500000 0.073143 0.230550
O O12 0.302682 0.105681 0.135630
O O13 0.296212 0.000000 0.181871
O O14 0.000000 0.215596 0.003259
O O15 0.776930 0.288337 0.011936
O O16 0.735441 0.176553 0.029491
O O17 0.500000 0.564180 0.980537
O O18 0.739300 0.500000 0.981965
O O19 0.734726 0.601742 0.042514
O O20 0.000000 0.643686 0.044384
O O21 0.500000 0.811244 0.109351
#
# Coordination Sequence:
#
# PCOD8188598 Si02
#       8
#     8   8   8   8   8   8   8   8
#     4  10  20  33  49  71  99 126 157 202 248 291
#     4  11  20  32  50  73  99 130 164 198 244 296
#     4  11  21  32  47  69  99 133 168 203 238 281
#     4  10  21  35  49  68  97 133 170 205 238 281
#     4   9  19  33  49  69  98 126 157 202 245 288
#     4  10  21  34  47  68  98 130 167 206 240 279
#     4   9  18  33  49  68  94 126 161 198 242 287
#     4  10  19  31  49  71  95 127 165 201 240 288
#
# _framework density 16.233554999999999
#
# number of rings (size 3 to 8) (size 9 to 14) (size 15 to 20)
#    0.000    2.000    2.500    2.625    0.000    5.500 
#    0.000    0.000    0.000    0.000    0.000    0.875 
#    0.000    3.000    0.000    0.000    0.000    0.000 
#
# Total GULP energy -396849.215162 kJ/mol
# GULP energy per Si atom -12401.537974 kJ/mol
# Density = 1.619661 g / cm^3
# Si number density = 16.233555 Si / 1000 Ang^3
#
#
#
# Elastic Constant Matrix: (Units=GPa)
#
#
# Indices 1 2 3 4 5 6 
#
# 1 70.1570 31.9297 52.0286 0.0000 0.0000 0.0000
# 2 31.9297 74.3133 50.1861 0.0000 0.0000 0.0000
# 3 52.0286 50.1861 118.3109 0.0000 0.0000 0.0000
# 4 0.0000 0.0000 0.0000 19.0857 0.0000 0.0000
# 5 0.0000 0.0000 0.0000 0.0000 31.0252 0.0000
# 6 0.0000 0.0000 0.0000 0.0000 0.0000 21.9691
#
#
#
# Elastic Compliance Matrix: (Units=1/GPa)
#
#
# Indices 1 2 3 4 5 6 
#
# 1 0.022005 -0.004092 -0.007941 0.000000 0.000000 0.000000
# 2 -0.004092 0.019620 -0.006523 0.000000 0.000000 0.000000
# 3 -0.007941 -0.006523 0.014712 0.000000 0.000000 0.000000
# 4 0.000000 0.000000 0.000000 0.052395 0.000000 0.000000
# 5 0.000000 0.000000 0.000000 0.000000 0.032232 0.000000
# 6 0.000000 0.000000 0.000000 0.000000 0.000000 0.045518
#
#
# Mechanical properties :
#
#
# Convention : Reuss Voigt Hill
#
# Bulk Modulus (GPa) = 52.01762 59.00780 55.51271
# Shear Modulus (GPa) = 21.73881 22.99178 22.36530
#
# Velocity S-wave (km/s) = 3.66338 3.76748 3.71579
# Velocity P-wave (km/s) = 7.07154 7.43998 7.25810
#
# Compressibility (1/GPa) = 0.01922425
#
# Stress axis : x y z
#
# Youngs Moduli (GPa) = 45.44342 50.96857 67.97318
#
# Poissons Ratio (x) = 0.20855 0.53980
# Poissons Ratio (y) = 0.18595 0.44340
# Poissons Ratio (z) = 0.36089 0.33247
#
# Static dielectric constant tensor:
#      x y z
#    x 3.130360 0.000000 0.000000 
#    y 0.000000 2.920040 0.000000 
#    z 0.000000 0.000000 3.292880 
# 
# 
# High freq. dielectric constant tensor:
#      x y z
#    x 1.634480 0.000000 0.000000 
#    y 0.000000 1.593010 0.000000 
#    z 0.000000 0.000000 1.622330 
# 
# From -- ./inp_files/20778.got.cif
#   From: 2010.03.12/outbox.cif.g09.slc.cpg/sg44_11_cif.got.tgz:20778.got - 2010.04.14 02:36:11.
