data_PCOD8188913
_publ_section_title
;
Structure prediction by ZEFSAII (Michael W. Deem and Ramdas Pophale) SiO2 
 PCOD8188913
Probable space group: I M M 2
;
_chemical_formula_sum "Si O2"
_cell_formula_units_Z 64
_cell_length_a 24.918321
_cell_length_b 8.626753
_cell_length_c 15.189408
_cell_angle_alpha 90.000000
_cell_angle_beta 90.000000
_cell_angle_gamma 90.000000
_cell_volume 3265.178946
_symmetry_space_group_name_H-M "I M M 2"
_symmetry_group_IT_number 44
_symmetry_cell_setting 'orthorhombic'
loop_
_space_group_symop_operation_xyz
x,y,z
-x,-y,z
-x,y,z
x,-y,z
1/2+x,1/2+y,1/2+z
1/2-x,1/2-y,1/2+z
1/2-x,1/2+y,1/2+z
1/2+x,1/2-y,1/2+z
loop_
_atom_site_type_symbol
_atom_site_label
_atom_site_fract_x
_atom_site_fract_y
_atom_site_fract_z
Si Si1 0.146878 0.182606 0.021020
Si Si2 0.940228 0.317514 0.537815
Si Si3 0.733783 0.818836 0.991253
Si Si4 0.137090 0.177649 0.399465
Si Si5 0.612351 0.182778 0.218111
Si Si6 0.280589 0.318854 0.177924
Si Si7 0.671501 0.319171 0.712378
Si Si8 0.561033 0.319111 0.384338
O O1 0.143153 0.241613 0.122433
O O2 0.141342 0.000000 0.021903
O O3 0.204203 0.231647 0.979519
O O4 0.099002 0.251236 0.961578
O O5 0.944358 0.500000 0.544880
O O6 0.906661 0.277079 0.450886
O O7 0.911806 0.253947 0.625880
O O8 0.000000 0.245516 0.530056
O O9 0.697912 0.722533 0.923721
O O10 0.725276 0.000000 0.973309
O O11 0.714513 0.781665 0.089506
O O12 0.131416 0.207476 0.294469
O O13 0.126963 0.000000 0.423668
O O14 0.668383 0.271003 0.237195
O O15 0.571087 0.225887 0.294906
O O16 0.621848 0.000000 0.216005
O O17 0.281697 0.500000 0.156088
O O18 0.226151 0.276325 0.229218
O O19 0.687028 0.500000 0.702933
O O20 0.500000 0.291930 0.414363
O O21 0.573000 0.500000 0.367726
#
# Coordination Sequence:
#
# PCOD8188913 Si02
#       8
#     8   8   8   8   8   8   8   8
#     4   8  17  36  58  79 109 150 191 233 284 339
#     4  10  22  40  60  80 110 156 200 233 281 350
#     4  10  19  34  55  79 113 155 191 228 283 344
#     4  11  22  35  56  87 118 149 193 242 288 338
#     4  11  22  37  57  82 114 154 191 229 286 349
#     4  11  21  34  55  85 116 148 190 234 285 339
#     4   9  20  38  57  81 117 155 192 236 288 347
#     4  10  21  37  58  85 113 146 195 247 287 332
#
# _framework density 19.600762
#
# number of rings (size 3 to 8) (size 9 to 14) (size 15 to 20)
#    0.000    2.000    1.250    3.375    1.750    2.500 
#    0.000    3.125    0.000    2.250    0.000    0.000 
#    0.000    0.000    0.000    0.000    0.000    0.000 
#
# Total GULP energy -396813.684806 kJ/mol
# GULP energy per Si atom -12400.427650 kJ/mol
# Density = 1.955615 g / cm^3
# Si number density = 19.600762 Si / 1000 Ang^3
#
#
#
# Elastic Constant Matrix: (Units=GPa)
#
#
# Indices 1 2 3 4 5 6 
#
# 1 125.2265 22.6671 60.6752 0.0000 0.0000 0.0000
# 2 22.6671 33.1106 15.9527 0.0000 0.0000 0.0000
# 3 60.6752 15.9527 102.3292 0.0000 0.0000 0.0000
# 4 0.0000 0.0000 0.0000 21.9381 0.0000 0.0000
# 5 0.0000 0.0000 0.0000 0.0000 29.3311 0.0000
# 6 0.0000 0.0000 0.0000 0.0000 0.0000 21.1868
#
#
#
# Elastic Compliance Matrix: (Units=1/GPa)
#
#
# Indices 1 2 3 4 5 6 
#
# 1 0.011968 -0.005162 -0.006292 0.000000 0.000000 0.000000
# 2 -0.005162 0.034881 -0.002377 0.000000 0.000000 0.000000
# 3 -0.006292 -0.002377 0.013874 0.000000 0.000000 0.000000
# 4 0.000000 0.000000 0.000000 0.045583 0.000000 0.000000
# 5 0.000000 0.000000 0.000000 0.000000 0.034094 0.000000
# 6 0.000000 0.000000 0.000000 0.000000 0.000000 0.047199
#
#
# Mechanical properties :
#
#
# Convention : Reuss Voigt Hill
#
# Bulk Modulus (GPa) = 30.24691 51.02847 40.63769
# Shear Modulus (GPa) = 22.09646 25.24930 23.67288
#
# Velocity S-wave (km/s) = 3.36121 3.59302 3.47904
# Velocity P-wave (km/s) = 5.52527 6.58054 6.07586
#
# Compressibility (1/GPa) = 0.03306123
#
# Stress axis : x y z
#
# Youngs Moduli (GPa) = 83.55300 28.66898 72.07913
#
# Poissons Ratio (x) = 0.14799 0.45351
# Poissons Ratio (y) = 0.43130 0.17133
# Poissons Ratio (z) = 0.52570 0.06815
#
# Static dielectric constant tensor:
#      x y z
#    x 3.667240 0.000000 0.000000 
#    y 0.000000 3.352170 0.000000 
#    z 0.000000 0.000000 3.670420 
# 
# 
# High freq. dielectric constant tensor:
#      x y z
#    x 1.756050 0.000000 0.000000 
#    y 0.000000 1.747890 0.000000 
#    z 0.000000 0.000000 1.762540 
# 
# From -- ./inp_files/19458.got.cif
#   From: 2010.03.12/outbox.cif.g09.slc.cpg/sg44_10_cif.got.tgz:19458.got - 2010.04.14 02:36:11.
