data_PCOD8188992
_publ_section_title
;
Structure prediction by ZEFSAII (Michael W. Deem and Ramdas Pophale) SiO2 
 PCOD8188992
Probable space group: I M M 2
;
_chemical_formula_sum "Si O2"
_cell_formula_units_Z 56
_cell_length_a 18.487674
_cell_length_b 9.204912
_cell_length_c 17.277706
_cell_angle_alpha 90.000000
_cell_angle_beta 90.000000
_cell_angle_gamma 90.000000
_cell_volume 2940.275297
_symmetry_space_group_name_H-M "I M M 2"
_symmetry_group_IT_number 44
_symmetry_cell_setting 'orthorhombic'
loop_
_space_group_symop_operation_xyz
x,y,z
-x,-y,z
-x,y,z
x,-y,z
1/2+x,1/2+y,1/2+z
1/2-x,1/2-y,1/2+z
1/2-x,1/2+y,1/2+z
1/2+x,1/2-y,1/2+z
loop_
_atom_site_type_symbol
_atom_site_label
_atom_site_fract_x
_atom_site_fract_y
_atom_site_fract_z
Si Si1 0.810198 0.327277 0.729230
Si Si2 0.657367 0.667475 0.791674
Si Si3 0.583254 0.665260 0.633774
Si Si4 0.081069 0.667301 0.426666
Si Si5 0.918400 0.327165 0.858160
Si Si6 0.669980 0.827777 0.507777
Si Si7 0.691501 0.832083 0.054695
O O1 0.809966 0.500000 0.728132
O O2 0.735082 0.270159 0.765263
O O3 0.876836 0.270022 0.781538
O O4 0.817781 0.268975 0.641538
O O5 0.664695 0.500000 0.815013
O O6 0.599348 0.690725 0.723792
O O7 0.631176 0.751586 0.866216
O O8 0.500000 0.697767 0.617944
O O9 0.604111 0.500000 0.610809
O O10 0.629512 0.777866 0.584916
O O11 0.079167 0.500000 0.402203
O O12 0.114886 0.686303 0.511975
O O13 0.000000 0.732465 0.428240
O O14 0.921318 0.500000 0.858509
O O15 0.875212 0.272326 0.933631
O O16 0.000000 0.263254 0.858755
O O17 0.749135 0.757416 0.506479
O O18 0.678051 0.000000 0.507679
O O19 0.716259 0.000000 0.057314
#
# Coordination Sequence:
#
# PCOD8188992 Si02
#       7
#     8   8   8   8   8   8   8
#     4   9  17  32  55  77 101 137 182 224 259 312
#     4  10  19  35  57  79 106 142 186 225 266 326
#     4  10  20  34  54  79 109 147 186 222 267 329
#     4  10  22  37  54  81 114 144 178 226 283 332
#     4   9  18  31  49  78 110 137 171 220 273 317
#     4  11  21  34  54  80 112 144 179 226 278 326
#     4  10  20  37  58  79 108 145 184 225 269 325
#
# _framework density 19.045835
#
# number of rings (size 3 to 8) (size 9 to 14) (size 15 to 20)
#    0.000    2.143    1.429    2.143    0.000    4.571 
#    0.000    2.857    0.000    0.857    0.000    0.000 
#    0.000    0.000    0.000    0.000    0.000    0.000 
#
# Total GULP energy -347229.306978 kJ/mol
# GULP energy per Si atom -12401.046678 kJ/mol
# Density = 1.900249 g / cm^3
# Si number density = 19.045835 Si / 1000 Ang^3
#
#
#
# Elastic Constant Matrix: (Units=GPa)
#
#
# Indices 1 2 3 4 5 6 
#
# 1 112.0428 28.3581 66.3818 0.0000 0.0000 0.0000
# 2 28.3581 39.5956 32.3045 0.0000 0.0000 0.0000
# 3 66.3818 32.3045 122.9841 0.0000 0.0000 0.0000
# 4 0.0000 0.0000 0.0000 22.8696 0.0000 0.0000
# 5 0.0000 0.0000 0.0000 0.0000 34.5464 0.0000
# 6 0.0000 0.0000 0.0000 0.0000 0.0000 24.2522
#
#
#
# Elastic Compliance Matrix: (Units=1/GPa)
#
#
# Indices 1 2 3 4 5 6 
#
# 1 0.013816 -0.004850 -0.006183 0.000000 0.000000 0.000000
# 2 -0.004850 0.033847 -0.006273 0.000000 0.000000 0.000000
# 3 -0.006183 -0.006273 0.013116 0.000000 0.000000 0.000000
# 4 0.000000 0.000000 0.000000 0.043726 0.000000 0.000000
# 5 0.000000 0.000000 0.000000 0.000000 0.028947 0.000000
# 6 0.000000 0.000000 0.000000 0.000000 0.000000 0.041233
#
#
# Mechanical properties :
#
#
# Convention : Reuss Voigt Hill
#
# Bulk Modulus (GPa) = 38.21663 58.74569 48.48116
# Shear Modulus (GPa) = 22.93368 26.17219 24.55293
#
# Velocity S-wave (km/s) = 3.47382 3.71100 3.59437
# Velocity P-wave (km/s) = 6.01657 7.01950 6.53730
#
# Compressibility (1/GPa) = 0.02616662
#
# Stress axis : x y z
#
# Youngs Moduli (GPa) = 72.37855 29.54509 76.24094
#
# Poissons Ratio (x) = 0.14330 0.47143
# Poissons Ratio (y) = 0.35106 0.47823
# Poissons Ratio (z) = 0.44755 0.18532
#
# Static dielectric constant tensor:
#      x y z
#    x 3.742000 0.000000 0.000000 
#    y 0.000000 3.149640 0.000000 
#    z 0.000000 0.000000 3.580320 
# 
# 
# High freq. dielectric constant tensor:
#      x y z
#    x 1.752520 0.000000 0.000000 
#    y 0.000000 1.699690 0.000000 
#    z 0.000000 0.000000 1.748890 
# 
# From -- ./inp_files/16490.got.cif
#   From: 2010.03.12/outbox.cif.g09.slc.cpg/sg44_9_cif.got.tgz:16490.got - 2010.04.14 02:36:11.
