data_PCOD8188186
_publ_section_title
;
Structure prediction by ZEFSAII (Michael W. Deem and Ramdas Pophale) SiO2 
 PCOD8188186
Probable space group: I M M 2
;
_chemical_formula_sum "Si O2"
_cell_formula_units_Z 64
_cell_length_a 30.289374
_cell_length_b 9.220949
_cell_length_c 14.275988
_cell_angle_alpha 90.000000
_cell_angle_beta 90.000000
_cell_angle_gamma 90.000000
_cell_volume 3987.237378
_symmetry_space_group_name_H-M "I M M 2"
_symmetry_group_IT_number 44
_symmetry_cell_setting 'orthorhombic'
loop_
_space_group_symop_operation_xyz
x,y,z
-x,-y,z
-x,y,z
x,-y,z
1/2+x,1/2+y,1/2+z
1/2-x,1/2-y,1/2+z
1/2-x,1/2+y,1/2+z
1/2+x,1/2-y,1/2+z
loop_
_atom_site_type_symbol
_atom_site_label
_atom_site_fract_x
_atom_site_fract_y
_atom_site_fract_z
Si Si1 0.450094 0.830634 0.058800
Si Si2 0.137839 0.667225 0.268264
Si Si3 0.630938 0.665239 0.113630
Si Si4 0.816563 0.833961 0.429454
Si Si5 0.770805 0.827713 0.937109
Si Si6 0.798960 0.667433 0.106412
Si Si7 0.785155 0.827943 0.725338
Si Si8 0.547579 0.171526 0.846884
O O1 0.500000 0.796098 0.092857
O O2 0.414933 0.751408 0.126377
O O3 0.440210 0.000000 0.064816
O O4 0.443709 0.773054 0.952464
O O5 0.142884 0.500000 0.301572
O O6 0.168111 0.766247 0.332506
O O7 0.155002 0.684835 0.162607
O O8 0.086903 0.720161 0.277119
O O9 0.622022 0.500000 0.142861
O O10 0.669738 0.732371 0.178822
O O11 0.645005 0.677717 0.005585
O O12 0.775352 0.743093 0.467471
O O13 0.802332 0.000000 0.413352
O O14 0.783834 0.775641 0.832923
O O15 0.768216 0.000000 0.943995
O O16 0.805206 0.764254 0.013117
O O17 0.790902 0.500000 0.078777
O O18 0.758264 0.726865 0.169990
O O19 0.785184 0.000000 0.719528
O O20 0.500000 0.232863 0.810959
O O21 0.544603 0.000000 0.850812
#
# Coordination Sequence:
#
# PCOD8188186 Si02
#       8
#     8   8   8   8   8   8   8   8
#     4   9  17  29  46  69  96 121 149 190 231 270
#     4  10  18  30  49  68  93 132 164 188 228 281
#     4  10  19  31  46  65  92 128 158 188 231 274
#     4  11  20  29  45  69  98 126 156 198 234 266
#     4  11  21  34  50  67  90 126 165 197 232 280
#     4  10  19  33  48  67  96 125 155 197 238 272
#     4   9  18  33  48  64  91 124 157 193 233 271
#     4   8  14  25  43  68  94 120 154 191 224 269
#
# _framework density 16.051214000000002
#
# number of rings (size 3 to 8) (size 9 to 14) (size 15 to 20)
#    0.000    2.250    3.750    1.500    0.000    1.250 
#    0.000    1.250    0.000    0.375    0.000    0.875 
#    0.000    3.000    0.000    0.000    0.000    0.000 
#
# Total GULP energy -396651.404003 kJ/mol
# GULP energy per Si atom -12395.356375 kJ/mol
# Density = 1.601468 g / cm^3
# Si number density = 16.051214 Si / 1000 Ang^3
#
#
#
# Elastic Constant Matrix: (Units=GPa)
#
#
# Indices 1 2 3 4 5 6 
#
# 1 107.2571 26.4344 29.6416 0.0000 0.0000 0.0000
# 2 26.4344 51.0205 25.3964 0.0000 0.0000 0.0000
# 3 29.6416 25.3964 71.6849 0.0000 0.0000 0.0000
# 4 0.0000 0.0000 0.0000 22.7023 0.0000 0.0000
# 5 0.0000 0.0000 0.0000 0.0000 24.1210 0.0000
# 6 0.0000 0.0000 0.0000 0.0000 0.0000 21.4399
#
#
#
# Elastic Compliance Matrix: (Units=1/GPa)
#
#
# Indices 1 2 3 4 5 6 
#
# 1 0.011241 -0.004262 -0.003138 0.000000 0.000000 0.000000
# 2 -0.004262 0.025412 -0.007241 0.000000 0.000000 0.000000
# 3 -0.003138 -0.007241 0.017813 0.000000 0.000000 0.000000
# 4 0.000000 0.000000 0.000000 0.044048 0.000000 0.000000
# 5 0.000000 0.000000 0.000000 0.000000 0.041458 0.000000
# 6 0.000000 0.000000 0.000000 0.000000 0.000000 0.046642
#
#
# Mechanical properties :
#
#
# Convention : Reuss Voigt Hill
#
# Bulk Modulus (GPa) = 39.70724 43.65638 41.68181
# Shear Modulus (GPa) = 22.29245 23.55197 22.92221
#
# Velocity S-wave (km/s) = 3.73075 3.83469 3.78308
# Velocity P-wave (km/s) = 6.58403 6.84571 6.71615
#
# Compressibility (1/GPa) = 0.02518433
#
# Stress axis : x y z
#
# Youngs Moduli (GPa) = 88.95932 39.35089 56.13937
#
# Poissons Ratio (x) = 0.16772 0.17618
# Poissons Ratio (y) = 0.37915 0.40649
# Poissons Ratio (z) = 0.27917 0.28493
#
# Static dielectric constant tensor:
#      x y z
#    x 3.400210 0.000000 0.000000 
#    y 0.000000 2.850430 0.000000 
#    z 0.000000 0.000000 2.901240 
# 
# 
# High freq. dielectric constant tensor:
#      x y z
#    x 1.612050 0.000000 0.000000 
#    y 0.000000 1.598200 0.000000 
#    z 0.000000 0.000000 1.588390 
# 
# From -- ./inp_files/17111.got.cif
#   From: 2010.03.12/outbox.cif.g09.slc.cpg/sg44_9_cif.got.tgz:17111.got - 2010.04.14 02:36:11.
