data_PCOD8188458
_publ_section_title
;
Structure prediction by ZEFSAII (Michael W. Deem and Ramdas Pophale) SiO2 
 PCOD8188458
Probable space group: I M M 2
;
_chemical_formula_sum "Si O2"
_cell_formula_units_Z 56
_cell_length_a 9.194594
_cell_length_b 18.053842
_cell_length_c 21.259421
_cell_angle_alpha 90.000000
_cell_angle_beta 90.000000
_cell_angle_gamma 90.000000
_cell_volume 3529.015996
_symmetry_space_group_name_H-M "I M M 2"
_symmetry_group_IT_number 44
_symmetry_cell_setting 'orthorhombic'
loop_
_space_group_symop_operation_xyz
x,y,z
-x,-y,z
-x,y,z
x,-y,z
1/2+x,1/2+y,1/2+z
1/2-x,1/2-y,1/2+z
1/2-x,1/2+y,1/2+z
1/2+x,1/2-y,1/2+z
loop_
_atom_site_type_symbol
_atom_site_label
_atom_site_fract_x
_atom_site_fract_y
_atom_site_fract_z
Si Si1 0.827627 0.648857 0.337380
Si Si2 0.329831 0.917011 0.457368
Si Si3 0.667368 0.414130 0.455187
Si Si4 0.836110 0.704582 0.524598
Si Si5 0.339426 0.704400 0.896487
Si Si6 0.672612 0.916935 0.705571
Si Si7 0.671301 0.168967 0.583285
O O1 0.743565 0.600045 0.388404
O O2 0.788264 0.736467 0.343603
O O3 0.774646 0.622812 0.269096
O O4 0.000000 0.636795 0.348017
O O5 0.500000 0.917606 0.446932
O O6 0.264522 0.866666 0.401386
O O7 0.289004 0.885004 0.525559
O O8 0.266021 0.000000 0.452630
O O9 0.500000 0.387797 0.451035
O O10 0.678792 0.500000 0.472079
O O11 0.747234 0.370633 0.511727
O O12 0.838869 0.751025 0.461096
O O13 0.754649 0.752902 0.577670
O O14 0.000000 0.685766 0.546922
O O15 0.500000 0.674421 0.880930
O O16 0.500000 0.920703 0.703246
O O17 0.729771 0.870566 0.646125
O O18 0.737247 0.000000 0.702980
O O19 0.500000 0.185207 0.585692
#
# Coordination Sequence:
#
# PCOD8188458 Si02
#       7
#     8   8   8   8   8   8   8
#     4   9  17  29  44  62  87 119 152 181 209 250
#     4   9  16  25  39  60  83 106 134 170 212 255
#     4  10  19  29  43  65  90 113 140 178 222 262
#     4   9  17  29  44  61  83 112 144 175 211 259
#     4   8  15  26  39  57  80 107 139 173 209 248
#     4   9  16  26  43  66  89 117 152 182 208 245
#     4   9  16  27  43  62  86 114 143 176 210 247
#
# _framework density 15.868446
#
# number of rings (size 3 to 8) (size 9 to 14) (size 15 to 20)
#    0.000    3.000    0.000    2.571    0.000    7.143 
#    0.000    0.714    0.000    2.143    0.000    1.000 
#    0.000    3.429    0.000    0.000    0.000    0.000 
#
# Total GULP energy -347099.741322 kJ/mol
# GULP energy per Si atom -12396.419333 kJ/mol
# Density = 1.583233 g / cm^3
# Si number density = 15.868446 Si / 1000 Ang^3
#
#
#
# Elastic Constant Matrix: (Units=GPa)
#
#
# Indices 1 2 3 4 5 6 
#
# 1 61.4630 50.8216 28.7438 0.0000 0.0000 0.0000
# 2 50.8216 120.1382 61.1237 0.0000 0.0000 0.0000
# 3 28.7438 61.1237 80.1366 0.0000 0.0000 0.0000
# 4 0.0000 0.0000 0.0000 27.5480 0.0000 0.0000
# 5 0.0000 0.0000 0.0000 0.0000 15.8114 0.0000
# 6 0.0000 0.0000 0.0000 0.0000 0.0000 25.0436
#
#
#
# Elastic Compliance Matrix: (Units=1/GPa)
#
#
# Indices 1 2 3 4 5 6 
#
# 1 0.025129 -0.009878 -0.001479 0.000000 0.000000 0.000000
# 2 -0.009878 0.017485 -0.009794 0.000000 0.000000 0.000000
# 3 -0.001479 -0.009794 0.020479 0.000000 0.000000 0.000000
# 4 0.000000 0.000000 0.000000 0.036300 0.000000 0.000000
# 5 0.000000 0.000000 0.000000 0.000000 0.063246 0.000000
# 6 0.000000 0.000000 0.000000 0.000000 0.000000 0.039930
#
#
# Mechanical properties :
#
#
# Convention : Reuss Voigt Hill
#
# Bulk Modulus (GPa) = 48.09465 60.34622 54.22044
# Shear Modulus (GPa) = 19.85687 21.75052 20.80369
#
# Velocity S-wave (km/s) = 3.54127 3.70628 3.62472
# Velocity P-wave (km/s) = 6.86258 7.51179 7.19451
#
# Compressibility (1/GPa) = 0.02079233
#
# Stress axis : x y z
#
# Youngs Moduli (GPa) = 39.79420 57.19176 48.82965
#
# Poissons Ratio (x) = 0.56492 0.07224
# Poissons Ratio (y) = 0.39307 0.47822
# Poissons Ratio (z) = 0.05887 0.56011
#
# Static dielectric constant tensor:
#      x y z
#    x 3.004100 0.000000 0.000000 
#    y 0.000000 3.199370 0.000000 
#    z 0.000000 0.000000 2.887470 
# 
# 
# High freq. dielectric constant tensor:
#      x y z
#    x 1.599960 0.000000 0.000000 
#    y 0.000000 1.610590 0.000000 
#    z 0.000000 0.000000 1.572070 
# 
# From -- ./inp_files/23217.got.cif
#   From: 2010.03.12/outbox.cif.g09.slc.cpg/sg44_12_cif.got.tgz:23217.got - 2010.04.14 02:36:11.
