data_PCOD8188890
_publ_section_title
;
Structure prediction by ZEFSAII (Michael W. Deem and Ramdas Pophale) SiO2 
 PCOD8188890
Probable space group: I M M 2
;
_chemical_formula_sum "Si O2"
_cell_formula_units_Z 56
_cell_length_a 8.944212
_cell_length_b 24.940616
_cell_length_c 14.305872
_cell_angle_alpha 90.000000
_cell_angle_beta 90.000000
_cell_angle_gamma 90.000000
_cell_volume 3191.270335
_symmetry_space_group_name_H-M "I M M 2"
_symmetry_group_IT_number 44
_symmetry_cell_setting 'orthorhombic'
loop_
_space_group_symop_operation_xyz
x,y,z
-x,-y,z
-x,y,z
x,-y,z
1/2+x,1/2+y,1/2+z
1/2-x,1/2-y,1/2+z
1/2-x,1/2+y,1/2+z
1/2+x,1/2-y,1/2+z
loop_
_atom_site_type_symbol
_atom_site_label
_atom_site_fract_x
_atom_site_fract_y
_atom_site_fract_z
Si Si1 0.324629 0.686499 0.690780
Si Si2 0.675977 0.204037 0.793017
Si Si3 0.822219 0.000000 0.402070
Si Si4 0.175853 0.782968 0.983952
Si Si5 0.176377 0.000000 0.618608
Si Si6 0.667228 0.833330 0.491772
Si Si7 0.669162 0.101259 0.309501
Si Si8 0.823968 0.605131 0.163190
O O1 0.500000 0.681195 0.710109
O O2 0.265459 0.741068 0.742375
O O3 0.289261 0.686639 0.580174
O O4 0.245012 0.631643 0.722903
O O5 0.500000 0.208306 0.803327
O O6 0.745883 0.191460 0.894078
O O7 0.722188 0.151677 0.734552
O O8 0.763080 0.051001 0.345150
O O9 0.764333 0.000000 0.510066
O O10 0.000000 0.000000 0.399149
O O11 0.248377 0.723785 0.994712
O O12 0.000000 0.780495 0.963092
O O13 0.236021 0.050104 0.679074
O O14 0.000000 0.000000 0.618874
O O15 0.500000 0.823890 0.531432
O O16 0.667887 0.853564 0.387567
O O17 0.739218 0.876032 0.561863
O O18 0.500000 0.083095 0.284505
O O19 0.000000 0.592563 0.165442
#
# Coordination Sequence:
#
# PCOD8188890 Si02
#       8
#     8   8   4   8   4   8   8   8
#     4  10  20  34  53  78 111 146 177 218 273 323
#     4  10  20  33  53  80 108 140 181 225 266 313
#     4  11  23  37  53  78 113 144 175 219 274 324
#     4  10  19  34  53  76 110 149 181 213 264 324
#     4  11  23  35  51  80 111 138 175 225 270 314
#     4   9  16  28  50  78 106 139 179 213 248 312
#     4  11  21  34  55  80 108 143 185 223 260 315
#     4  10  19  35  55  75 106 147 182 214 261 321
#
# _framework density 17.54787
#
# number of rings (size 3 to 8) (size 9 to 14) (size 15 to 20)
#    0.000    1.857    4.286    0.857    0.000    1.714 
#    0.000    0.714    0.000    0.857    0.000    4.000 
#    0.000    0.000    0.000    0.000    0.000    0.000 
#
# Total GULP energy -347027.307611 kJ/mol
# GULP energy per Si atom -12393.832415 kJ/mol
# Density = 1.750793 g / cm^3
# Si number density = 17.547870 Si / 1000 Ang^3
#
#
#
# Elastic Constant Matrix: (Units=GPa)
#
#
# Indices 1 2 3 4 5 6 
#
# 1 50.3269 36.3933 28.9743 -0.0002 0.0000 0.0000
# 2 36.3933 103.9520 32.7467 -0.0005 0.0000 0.0000
# 3 28.9743 32.7467 89.8523 -0.0010 0.0001 0.0000
# 4 -0.0002 -0.0005 -0.0010 26.5043 0.0000 0.0000
# 5 0.0000 0.0000 0.0001 0.0000 27.7907 -0.0001
# 6 0.0000 0.0000 0.0000 0.0000 -0.0001 26.0131
#
#
#
# Elastic Compliance Matrix: (Units=1/GPa)
#
#
# Indices 1 2 3 4 5 6 
#
# 1 0.029646 -0.008323 -0.006527 0.000000 0.000000 0.000000
# 2 -0.008323 0.013204 -0.002128 0.000000 0.000000 0.000000
# 3 -0.006527 -0.002128 0.014010 0.000000 0.000000 0.000000
# 4 0.000000 0.000000 0.000000 0.037730 0.000000 0.000000
# 5 0.000000 0.000000 0.000000 0.000000 0.035983 0.000000
# 6 0.000000 0.000000 0.000000 0.000000 0.000000 0.038442
#
#
# Mechanical properties :
#
#
# Convention : Reuss Voigt Hill
#
# Bulk Modulus (GPa) = 43.66030 48.92886 46.29458
# Shear Modulus (GPa) = 23.74098 25.79606 24.76852
#
# Velocity S-wave (km/s) = 3.68221 3.83827 3.76105
# Velocity P-wave (km/s) = 6.55842 6.89831 6.73051
#
# Compressibility (1/GPa) = 0.02290410
#
# Stress axis : x y z
#
# Youngs Moduli (GPa) = 33.73096 75.73348 71.37936
#
# Poissons Ratio (x) = 0.63034 0.46586
# Poissons Ratio (y) = 0.28075 0.15192
# Poissons Ratio (z) = 0.22015 0.16119
#
# Static dielectric constant tensor:
#      x y z
#    x 3.102830 0.000000 0.000000 
#    y 0.000000 3.219720 0.000000 
#    z 0.000000 0.000000 3.212010 
# 
# 
# High freq. dielectric constant tensor:
#      x y z
#    x 1.661980 0.000000 0.000000 
#    y 0.000000 1.674180 0.000000 
#    z 0.000000 0.000000 1.667920 
# 
# From -- ./inp_files/16583.got.cif
#   From: 2010.03.12/outbox.cif.g09.slc.cpg/sg44_9_cif.got.tgz:16583.got - 2010.04.14 02:36:11.
