data_PCOD8188964
_publ_section_title
;
Structure prediction by ZEFSAII (Michael W. Deem and Ramdas Pophale) SiO2 
 PCOD8188964
Probable space group: I M M 2
;
_chemical_formula_sum "Si O2"
_cell_formula_units_Z 64
_cell_length_a 19.306902
_cell_length_b 17.976636
_cell_length_c 9.441004
_cell_angle_alpha 90.000000
_cell_angle_beta 90.000000
_cell_angle_gamma 90.000000
_cell_volume 3276.718993
_symmetry_space_group_name_H-M "I M M 2"
_symmetry_group_IT_number 44
_symmetry_cell_setting 'orthorhombic'
loop_
_space_group_symop_operation_xyz
x,y,z
-x,-y,z
-x,y,z
x,-y,z
1/2+x,1/2+y,1/2+z
1/2-x,1/2-y,1/2+z
1/2-x,1/2+y,1/2+z
1/2+x,1/2-y,1/2+z
loop_
_atom_site_type_symbol
_atom_site_label
_atom_site_fract_x
_atom_site_fract_y
_atom_site_fract_z
Si Si1 0.785136 0.315200 0.627200
Si Si2 0.791924 0.178133 0.838734
Si Si3 0.575399 0.916049 0.722051
Si Si4 0.923153 0.316605 0.494993
Si Si5 0.790966 0.913176 0.339170
Si Si6 0.717761 0.085561 0.615524
Si Si7 0.577973 0.642158 0.965851
Si Si8 0.579740 0.413073 0.279167
O O1 0.795039 0.245992 0.730234
O O2 0.743370 0.294104 0.483972
O O3 0.862289 0.347031 0.595604
O O4 0.741395 0.379998 0.698279
O O5 0.743951 0.116723 0.764836
O O6 0.867931 0.140761 0.866583
O O7 0.500000 0.906883 0.648586
O O8 0.634775 0.901141 0.605623
O O9 0.583580 0.000000 0.783892
O O10 0.582604 0.856913 0.845978
O O11 0.908615 0.229622 0.474090
O O12 0.000000 0.329408 0.561650
O O13 0.752887 0.877882 0.477477
O O14 0.871983 0.892515 0.347337
O O15 0.779541 0.000000 0.328243
O O16 0.738318 0.000000 0.616538
O O17 0.500000 0.624735 0.917264
O O18 0.594647 0.602036 0.114054
O O19 0.500000 0.392137 0.316743
O O20 0.593918 0.500000 0.312049
#
# Coordination Sequence:
#
# PCOD8188964 Si02
#       8
#     8   8   8   8   8   8   8   8
#     4  12  25  39  60  87 118 160 202 250 302 358
#     4  12  22  38  60  87 120 156 198 246 301 359
#     4   9  18  32  54  86 119 155 200 245 292 351
#     4  10  19  35  59  86 119 157 202 253 300 358
#     4  11  24  40  57  88 125 157 201 251 301 362
#     4  10  19  34  58  84 116 152 190 239 294 349
#     4  10  19  36  61  88 120 158 203 250 299 361
#     4  10  20  35  61  94 123 158 203 248 299 365
#
# _framework density 19.531732999999999
#
# number of rings (size 3 to 8) (size 9 to 14) (size 15 to 20)
#    0.000    1.500    3.750    2.250    0.000    2.250 
#    0.000    1.250    0.000    3.750    0.000    0.000 
#    0.000    0.000    0.000    0.000    0.000    0.000 
#
# Total GULP energy -396701.475073 kJ/mol
# GULP energy per Si atom -12396.921096 kJ/mol
# Density = 1.948728 g / cm^3
# Si number density = 19.531733 Si / 1000 Ang^3
#
#
#
# Elastic Constant Matrix: (Units=GPa)
#
#
# Indices 1 2 3 4 5 6 
#
# 1 150.4084 34.0554 45.9265 0.0000 0.0000 0.0000
# 2 34.0554 60.4570 20.4362 0.0000 0.0000 0.0000
# 3 45.9265 20.4362 67.0054 0.0000 0.0000 0.0000
# 4 0.0000 0.0000 0.0000 23.1548 0.0000 0.0000
# 5 0.0000 0.0000 0.0000 0.0000 29.5158 0.0000
# 6 0.0000 0.0000 0.0000 0.0000 0.0000 26.9627
#
#
#
# Elastic Compliance Matrix: (Units=1/GPa)
#
#
# Indices 1 2 3 4 5 6 
#
# 1 0.008967 -0.003315 -0.005135 0.000000 0.000000 0.000000
# 2 -0.003315 0.019668 -0.003726 0.000000 0.000000 0.000000
# 3 -0.005135 -0.003726 0.019580 0.000000 0.000000 0.000000
# 4 0.000000 0.000000 0.000000 0.043188 0.000000 0.000000
# 5 0.000000 0.000000 0.000000 0.000000 0.033880 0.000000
# 6 0.000000 0.000000 0.000000 0.000000 0.000000 0.037088
#
#
# Mechanical properties :
#
#
# Convention : Reuss Voigt Hill
#
# Bulk Modulus (GPa) = 41.90755 53.18967 47.54861
# Shear Modulus (GPa) = 25.68338 27.75685 26.72012
#
# Velocity S-wave (km/s) = 3.63017 3.77386 3.70271
# Velocity P-wave (km/s) = 6.25088 6.80301 6.53278
#
# Compressibility (1/GPa) = 0.02386205
#
# Stress axis : x y z
#
# Youngs Moduli (GPa) = 111.51734 50.84457 51.07187
#
# Poissons Ratio (x) = 0.16857 0.26226
# Poissons Ratio (y) = 0.36973 0.19030
# Poissons Ratio (z) = 0.57265 0.18945
#
# Static dielectric constant tensor:
#      x y z
#    x 4.095440 0.000000 0.000000 
#    y 0.000000 3.563320 0.000000 
#    z 0.000000 0.000000 3.356370 
# 
# 
# High freq. dielectric constant tensor:
#      x y z
#    x 1.786140 0.000000 0.000000 
#    y 0.000000 1.765700 0.000000 
#    z 0.000000 0.000000 1.716870 
# 
# From -- ./inp_files/8451.got.cif
#   From: 2010.03.12/outbox.cif.g09.slc.cpg/sg44_5_cif.got.tgz:8451.got - 2010.04.14 02:36:11.
