data_PCOD8188766
_publ_section_title
;
Structure prediction by ZEFSAII (Michael W. Deem and Ramdas Pophale) SiO2 
 PCOD8188766
Probable space group: I M M 2
;
_chemical_formula_sum "Si O2"
_cell_formula_units_Z 64
_cell_length_a 9.276834
_cell_length_b 15.802719
_cell_length_c 22.660932
_cell_angle_alpha 90.000000
_cell_angle_beta 90.000000
_cell_angle_gamma 90.000000
_cell_volume 3322.074523
_symmetry_space_group_name_H-M "I M M 2"
_symmetry_group_IT_number 44
_symmetry_cell_setting 'orthorhombic'
loop_
_space_group_symop_operation_xyz
x,y,z
-x,-y,z
-x,y,z
x,-y,z
1/2+x,1/2+y,1/2+z
1/2-x,1/2-y,1/2+z
1/2-x,1/2+y,1/2+z
1/2+x,1/2-y,1/2+z
loop_
_atom_site_type_symbol
_atom_site_label
_atom_site_fract_x
_atom_site_fract_y
_atom_site_fract_z
Si Si1 0.168171 0.194471 0.510010
Si Si2 0.161688 0.094663 0.090317
Si Si3 0.666129 0.095446 0.848069
Si Si4 0.166327 0.097079 0.316100
Si Si5 0.157993 0.597444 0.928739
Si Si6 0.333086 0.767292 0.751470
Si Si7 0.332888 0.756243 0.138125
Si Si8 0.168339 0.851288 0.961298
O O1 0.242140 0.108854 0.486903
O O2 0.197201 0.201554 0.579510
O O3 0.250987 0.262880 0.470121
O O4 0.000000 0.198681 0.495459
O O5 0.273070 0.149888 0.127308
O O6 0.000000 0.129470 0.101915
O O7 0.177489 0.000000 0.114384
O O8 0.193952 0.094342 0.020487
O O9 0.500000 0.112793 0.865043
O O10 0.719193 0.166458 0.801437
O O11 0.762174 0.100115 0.906615
O O12 0.684126 0.000000 0.822008
O O13 0.259698 0.130437 0.370848
O O14 0.195935 0.167976 0.266219
O O15 0.000000 0.100085 0.335539
O O16 0.205394 0.000000 0.295604
O O17 0.132828 0.500000 0.920203
O O18 0.000000 0.641593 0.934507
O O19 0.500000 0.783080 0.738270
O O20 0.245216 0.789276 0.692418
O O21 0.500000 0.763768 0.152786
O O22 0.000000 0.836813 0.948792
#
# Coordination Sequence:
#
# PCOD8188766 Si02
#       8
#     8   8   8   8   8   8   8   8
#     4  10  20  35  54  76 105 141 177 213 262 323
#     4   9  18  33  53  78 109 142 172 204 250 313
#     4  10  21  36  54  78 108 143 182 221 265 321
#     4   9  18  33  54  80 109 142 178 214 259 320
#     4  10  20  33  52  81 111 136 169 216 267 317
#     4  10  21  37  55  74 102 142 183 222 265 314
#     4  10  22  37  53  75 101 133 177 224 266 310
#     4  10  19  32  54  83 111 138 171 214 264 315
#
# _framework density 19.265070000000001
#
# number of rings (size 3 to 8) (size 9 to 14) (size 15 to 20)
#    0.000    2.250    0.000    2.625    0.000    6.250 
#    0.000    1.875    0.000    2.250    0.000    0.000 
#    0.000    0.000    0.000    0.000    0.000    0.000 
#
# Total GULP energy -396695.845068 kJ/mol
# GULP energy per Si atom -12396.745158 kJ/mol
# Density = 1.922122 g / cm^3
# Si number density = 19.265070 Si / 1000 Ang^3
#
#
#
# Elastic Constant Matrix: (Units=GPa)
#
#
# Indices 1 2 3 4 5 6 
#
# 1 101.0222 22.3359 56.0435 0.0000 0.0000 0.0000
# 2 22.3359 53.2167 29.6882 0.0000 0.0000 0.0000
# 3 56.0435 29.6882 90.6873 0.0000 0.0000 0.0000
# 4 0.0000 0.0000 0.0000 16.1442 0.0000 0.0000
# 5 0.0000 0.0000 0.0000 0.0000 36.6025 0.0000
# 6 0.0000 0.0000 0.0000 0.0000 0.0000 23.4405
#
#
#
# Elastic Compliance Matrix: (Units=1/GPa)
#
#
# Indices 1 2 3 4 5 6 
#
# 1 0.015146 -0.001389 -0.008906 0.000000 0.000000 0.000000
# 2 -0.001389 0.023117 -0.006709 0.000000 0.000000 0.000000
# 3 -0.008906 -0.006709 0.018727 0.000000 0.000000 0.000000
# 4 0.000000 0.000000 0.000000 0.061942 0.000000 0.000000
# 5 0.000000 0.000000 0.000000 0.000000 0.027321 0.000000
# 6 0.000000 0.000000 0.000000 0.000000 0.000000 0.042661
#
#
# Mechanical properties :
#
#
# Convention : Reuss Voigt Hill
#
# Bulk Modulus (GPa) = 43.51157 51.22903 47.37030
# Shear Modulus (GPa) = 21.68421 24.36135 23.02278
#
# Velocity S-wave (km/s) = 3.35859 3.55989 3.46070
# Velocity P-wave (km/s) = 6.13799 6.59897 6.37265
#
# Compressibility (1/GPa) = 0.02298239
#
# Stress axis : x y z
#
# Youngs Moduli (GPa) = 66.02232 43.25803 53.39927
#
# Poissons Ratio (x) = 0.06009 0.47555
# Poissons Ratio (y) = 0.09171 0.35828
# Poissons Ratio (z) = 0.58796 0.29024
#
# Static dielectric constant tensor:
#      x y z
#    x 3.798390 0.000000 0.000000 
#    y 0.000000 3.538730 0.000000 
#    z 0.000000 0.000000 3.368580 
# 
# 
# High freq. dielectric constant tensor:
#      x y z
#    x 1.755540 0.000000 0.000000 
#    y 0.000000 1.740440 0.000000 
#    z 0.000000 0.000000 1.738110 
# 
# From -- ./inp_files/23309.got.cif
#   From: 2010.03.12/outbox.cif.g09.slc.cpg/sg44_12_cif.got.tgz:23309.got - 2010.04.14 02:36:11.
