data_PCOD8188794
_publ_section_title
;
Structure prediction by ZEFSAII (Michael W. Deem and Ramdas Pophale) SiO2 
 PCOD8188794
Probable space group: I M M 2
;
_chemical_formula_sum "Si O2"
_cell_formula_units_Z 64
_cell_length_a 30.273325
_cell_length_b 8.714586
_cell_length_c 14.613357
_cell_angle_alpha 90.000000
_cell_angle_beta 90.000000
_cell_angle_gamma 90.000000
_cell_volume 3855.288453
_symmetry_space_group_name_H-M "I M M 2"
_symmetry_group_IT_number 44
_symmetry_cell_setting 'orthorhombic'
loop_
_space_group_symop_operation_xyz
x,y,z
-x,-y,z
-x,y,z
x,-y,z
1/2+x,1/2+y,1/2+z
1/2-x,1/2-y,1/2+z
1/2-x,1/2+y,1/2+z
1/2+x,1/2-y,1/2+z
loop_
_atom_site_type_symbol
_atom_site_label
_atom_site_fract_x
_atom_site_fract_y
_atom_site_fract_z
Si Si1 0.714162 0.318978 0.990750
Si Si2 0.294960 0.317494 0.606867
Si Si3 0.223043 0.324446 0.294015
Si Si4 0.951115 0.181318 0.873931
Si Si5 0.324864 0.675067 0.282667
Si Si6 0.869179 0.818618 0.603354
Si Si7 0.864593 0.181664 0.964639
Si Si8 0.549958 0.819667 0.178763
O O1 0.721518 0.500000 0.001709
O O2 0.715270 0.271466 0.885386
O O3 0.751780 0.237933 0.051441
O O4 0.664848 0.270848 0.023515
O O5 0.291816 0.500000 0.613814
O O6 0.302060 0.247946 0.707594
O O7 0.339642 0.259180 0.555083
O O8 0.208168 0.500000 0.309939
O O9 0.273445 0.312642 0.265327
O O10 0.916276 0.230127 0.953915
O O11 0.936070 0.249590 0.776800
O O12 0.000000 0.241195 0.901979
O O13 0.951047 0.000000 0.861814
O O14 0.340652 0.500000 0.287149
O O15 0.348623 0.751617 0.196476
O O16 0.338692 0.754536 0.377735
O O17 0.917829 0.741957 0.597623
O O18 0.875100 0.000000 0.604521
O O19 0.859637 0.000000 0.964245
O O20 0.500000 0.769313 0.153917
O O21 0.553982 0.000000 0.186114
#
# Coordination Sequence:
#
# PCOD8188794 Si02
#       8
#     8   8   8   8   8   8   8   8
#     4  11  22  35  51  74 100 129 168 211 250 295
#     4  11  21  33  50  72  99 134 169 204 251 302
#     4  11  21  36  51  68  99 135 169 211 250 291
#     4   9  16  28  48  70  93 128 169 201 238 292
#     4   9  15  27  46  68  96 128 159 197 242 282
#     4  10  19  33  51  69  95 131 168 203 241 291
#     4   9  16  28  46  69  97 128 162 200 242 285
#     4  10  20  31  44  69 103 130 157 200 247 291
#
# _framework density 16.600573000000001
#
# number of rings (size 3 to 8) (size 9 to 14) (size 15 to 20)
#    0.000    2.000    3.750    1.500    0.000    1.750 
#    0.000    2.500    0.000    0.000    0.000    0.875 
#    0.000    5.000    0.000    0.000    0.000    0.000 
#
# Total GULP energy -396528.447202 kJ/mol
# GULP energy per Si atom -12391.513975 kJ/mol
# Density = 1.656279 g / cm^3
# Si number density = 16.600573 Si / 1000 Ang^3
#
#
#
# Elastic Constant Matrix: (Units=GPa)
#
#
# Indices 1 2 3 4 5 6 
#
# 1 86.4197 23.6138 28.4596 0.0000 0.0000 0.0000
# 2 23.6138 39.0227 13.0113 0.0000 0.0000 0.0000
# 3 28.4596 13.0113 76.3683 0.0000 0.0000 0.0000
# 4 0.0000 0.0000 0.0000 20.5530 0.0000 0.0000
# 5 0.0000 0.0000 0.0000 0.0000 26.1624 0.0000
# 6 0.0000 0.0000 0.0000 0.0000 0.0000 19.6715
#
#
#
# Elastic Compliance Matrix: (Units=1/GPa)
#
#
# Indices 1 2 3 4 5 6 
#
# 1 0.015095 -0.007696 -0.004314 0.000000 0.000000 0.000000
# 2 -0.007696 0.031093 -0.002430 0.000000 0.000000 0.000000
# 3 -0.004314 -0.002430 0.015116 0.000000 0.000000 0.000000
# 4 0.000000 0.000000 0.000000 0.048655 0.000000 0.000000
# 5 0.000000 0.000000 0.000000 0.000000 0.038223 0.000000
# 6 0.000000 0.000000 0.000000 0.000000 0.000000 0.050835
#
#
# Mechanical properties :
#
#
# Convention : Reuss Voigt Hill
#
# Bulk Modulus (GPa) = 30.84033 36.88667 33.86350
# Shear Modulus (GPa) = 20.94641 22.39247 21.66944
#
# Velocity S-wave (km/s) = 3.55602 3.67672 3.61687
# Velocity P-wave (km/s) = 5.95639 6.34765 6.15513
#
# Compressibility (1/GPa) = 0.03242507
#
# Stress axis : x y z
#
# Youngs Moduli (GPa) = 66.24688 32.16127 66.15467
#
# Poissons Ratio (x) = 0.24751 0.28540
# Poissons Ratio (y) = 0.50984 0.16073
# Poissons Ratio (z) = 0.28580 0.07814
#
# Static dielectric constant tensor:
#      x y z
#    x 3.408360 0.000000 0.000000 
#    y 0.000000 2.976340 0.000000 
#    z 0.000000 0.000000 3.095370 
# 
# 
# High freq. dielectric constant tensor:
#      x y z
#    x 1.638230 0.000000 0.000000 
#    y 0.000000 1.625570 0.000000 
#    z 0.000000 0.000000 1.615000 
# 
# From -- ./inp_files/19684.got.cif
#   From: 2010.03.12/outbox.cif.g09.slc.cpg/sg44_10_cif.got.tgz:19684.got - 2010.04.14 02:36:11.
