data_PCOD8188892
_publ_section_title
;
Structure prediction by ZEFSAII (Michael W. Deem and Ramdas Pophale) SiO2 
 PCOD8188892
Probable space group: I M M 2
;
_chemical_formula_sum "Si O2"
_cell_formula_units_Z 56
_cell_length_a 22.076985
_cell_length_b 13.308791
_cell_length_c 10.517329
_cell_angle_alpha 90.000000
_cell_angle_beta 90.000000
_cell_angle_gamma 90.000000
_cell_volume 3090.180354
_symmetry_space_group_name_H-M "I M M 2"
_symmetry_group_IT_number 44
_symmetry_cell_setting 'orthorhombic'
loop_
_space_group_symop_operation_xyz
x,y,z
-x,-y,z
-x,y,z
x,-y,z
1/2+x,1/2+y,1/2+z
1/2-x,1/2-y,1/2+z
1/2-x,1/2+y,1/2+z
1/2+x,1/2-y,1/2+z
loop_
_atom_site_type_symbol
_atom_site_label
_atom_site_fract_x
_atom_site_fract_y
_atom_site_fract_z
Si Si1 0.333638 0.248955 0.820950
Si Si2 0.705668 0.198524 0.566688
Si Si3 0.362423 0.612426 0.479909
Si Si4 0.214783 0.614597 0.809985
Si Si5 0.836373 0.742201 0.598450
Si Si6 0.432513 0.613200 0.733078
Si Si7 0.570904 0.382930 0.218254
O O1 0.332509 0.175613 0.696617
O O2 0.275641 0.320856 0.803782
O O3 0.392356 0.318187 0.822849
O O4 0.336246 0.191880 0.956392
O O5 0.692025 0.311273 0.512761
O O6 0.687501 0.121923 0.453644
O O7 0.776386 0.187894 0.602541
O O8 0.334471 0.500000 0.472255
O O9 0.413519 0.618830 0.586604
O O10 0.396058 0.641631 0.350517
O O11 0.229425 0.500000 0.776607
O O12 0.166743 0.656152 0.706272
O O13 0.895165 0.812995 0.615297
O O14 0.500000 0.655110 0.743161
O O15 0.428027 0.500000 0.784748
O O16 0.500000 0.353635 0.225030
O O17 0.578033 0.500000 0.181638
#
# Coordination Sequence:
#
# PCOD8188892 Si02
#       7
#     8   8   8   8   8   8   8
#     4   9  19  32  49  71 106 134 170 214 268 316
#     4   9  18  33  53  74 101 136 179 224 265 311
#     4   9  16  30  52  78 106 137 177 222 264 308
#     4  10  19  34  54  73  98 136 179 222 268 312
#     4  10  20  33  50  75 108 141 175 217 266 325
#     4   9  16  26  44  72 104 136 168 200 245 313
#     4  10  20  33  52  80 114 148 178 214 267 330
#
# _framework density 18.121919999999999
#
# number of rings (size 3 to 8) (size 9 to 14) (size 15 to 20)
#    0.000    2.571    1.429    0.857    0.000    8.571 
#    0.000    2.143    0.000    0.429    0.000    0.000 
#    0.000    1.429    0.000    0.000    0.000    0.000 
#
# Total GULP energy -346965.536586 kJ/mol
# GULP energy per Si atom -12391.626307 kJ/mol
# Density = 1.808067 g / cm^3
# Si number density = 18.121920 Si / 1000 Ang^3
#
#
#
# Elastic Constant Matrix: (Units=GPa)
#
#
# Indices 1 2 3 4 5 6 
#
# 1 80.6999 18.5544 17.4029 0.0000 0.0000 0.0000
# 2 18.5544 39.4703 22.7287 0.0000 0.0000 0.0000
# 3 17.4029 22.7287 126.4895 0.0000 0.0000 0.0000
# 4 0.0000 0.0000 0.0000 13.5125 0.0000 0.0000
# 5 0.0000 0.0000 0.0000 0.0000 19.2003 0.0000
# 6 0.0000 0.0000 0.0000 0.0000 0.0000 24.7412
#
#
#
# Elastic Compliance Matrix: (Units=1/GPa)
#
#
# Indices 1 2 3 4 5 6 
#
# 1 0.013970 -0.006091 -0.000828 0.000000 0.000000 0.000000
# 2 -0.006091 0.030915 -0.004717 0.000000 0.000000 0.000000
# 3 -0.000828 -0.004717 0.008867 0.000000 0.000000 0.000000
# 4 0.000000 0.000000 0.000000 0.074006 0.000000 0.000000
# 5 0.000000 0.000000 0.000000 0.000000 0.052082 0.000000
# 6 0.000000 0.000000 0.000000 0.000000 0.000000 0.040418
#
#
# Mechanical properties :
#
#
# Convention : Reuss Voigt Hill
#
# Bulk Modulus (GPa) = 32.80651 40.44798 36.62725
# Shear Modulus (GPa) = 19.70906 24.02239 21.86572
#
# Velocity S-wave (km/s) = 3.30143 3.64483 3.47737
# Velocity P-wave (km/s) = 5.71621 6.33099 6.03144
#
# Compressibility (1/GPa) = 0.03048176
#
# Stress axis : x y z
#
# Youngs Moduli (GPa) = 71.57970 32.34684 112.77420
#
# Poissons Ratio (x) = 0.19701 0.09334
# Poissons Ratio (y) = 0.43597 0.53197
# Poissons Ratio (z) = 0.05925 0.15258
#
# Static dielectric constant tensor:
#      x y z
#    x 3.236470 0.000000 0.000000 
#    y 0.000000 2.997900 0.000000 
#    z 0.000000 0.000000 3.810870 
# 
# 
# High freq. dielectric constant tensor:
#      x y z
#    x 1.684000 0.000000 0.000000 
#    y 0.000000 1.650840 0.000000 
#    z 0.000000 0.000000 1.726060 
# 
# From -- ./inp_files/14328.got.cif
#   From: 2010.03.12/outbox.cif.g09.slc.cpg/sg44_8_cif.got.tgz:14328.got - 2010.04.14 02:36:11.
