data_PCOD8188243
_publ_section_title
;
Structure prediction by ZEFSAII (Michael W. Deem and Ramdas Pophale) SiO2 
 PCOD8188243
Probable space group: I M M 2
;
_chemical_formula_sum "Si O2"
_cell_formula_units_Z 48
_cell_length_a 8.647875
_cell_length_b 23.428995
_cell_length_c 13.873188
_cell_angle_alpha 90.000000
_cell_angle_beta 90.000000
_cell_angle_gamma 90.000000
_cell_volume 2810.860773
_symmetry_space_group_name_H-M "I M M 2"
_symmetry_group_IT_number 44
_symmetry_cell_setting 'orthorhombic'
loop_
_space_group_symop_operation_xyz
x,y,z
-x,-y,z
-x,y,z
x,-y,z
1/2+x,1/2+y,1/2+z
1/2-x,1/2-y,1/2+z
1/2-x,1/2+y,1/2+z
1/2+x,1/2-y,1/2+z
loop_
_atom_site_type_symbol
_atom_site_label
_atom_site_fract_x
_atom_site_fract_y
_atom_site_fract_z
Si Si1 0.179450 0.065447 0.776920
Si Si2 0.182844 0.224911 0.069186
Si Si3 0.819050 0.832548 0.470584
Si Si4 0.182936 0.338728 0.397031
Si Si5 0.681112 0.729418 0.783431
Si Si6 0.819036 0.434620 0.074380
O O1 0.236866 0.102343 0.867093
O O2 0.272524 0.084337 0.681827
O O3 0.000000 0.075963 0.756458
O O4 0.214117 0.000000 0.803304
O O5 0.248675 0.216309 0.177824
O O6 0.000000 0.215891 0.062236
O O7 0.224364 0.288883 0.036914
O O8 0.267220 0.177105 0.005320
O O9 0.778382 0.821531 0.357991
O O10 0.770875 0.896783 0.496097
O O11 0.000000 0.822272 0.489090
O O12 0.245781 0.288962 0.326126
O O13 0.000000 0.345796 0.392933
O O14 0.500000 0.737234 0.772524
O O15 0.769752 0.500000 0.056154
O O16 0.000000 0.425327 0.061111
#
# Coordination Sequence:
#
# PCOD8188243 Si02
#       6
#     8   8   8   8   8   8
#     4  10  20  33  50  73  98 126 162 200 238 285
#     4  10  18  31  50  71  97 129 164 199 239 285
#     4  10  19  32  49  71  98 127 162 201 242 287
#     4  10  19  32  49  72 101 129 159 196 241 289
#     4   8  17  31  47  68  95 126 158 195 235 280
#     4  10  20  33  49  71  99 129 159 195 243 294
#
# _framework density 17.076619000000001
#
# number of rings (size 3 to 8) (size 9 to 14) (size 15 to 20)
#    0.000    2.333    0.000    4.500    0.000    3.333 
#    0.000    9.167    0.000    1.000    0.000    2.333 
#    0.000    0.000    0.000    0.000    0.000    0.000 
#
# Total GULP energy -297615.641301 kJ/mol
# GULP energy per Si atom -12400.651721 kJ/mol
# Density = 1.703775 g / cm^3
# Si number density = 17.076619 Si / 1000 Ang^3
#
#
#
# Elastic Constant Matrix: (Units=GPa)
#
#
# Indices 1 2 3 4 5 6 
#
# 1 42.0305 23.5869 20.5992 0.0001 0.0000 0.0000
# 2 23.5869 89.0564 56.8874 0.0000 0.0000 0.0000
# 3 20.5992 56.8874 131.0500 -0.0001 0.0000 0.0000
# 4 0.0001 0.0000 -0.0001 29.4619 0.0000 0.0000
# 5 0.0000 0.0000 0.0000 0.0000 25.8691 0.0000
# 6 0.0000 0.0000 0.0000 0.0000 0.0000 28.9061
#
#
#
# Elastic Compliance Matrix: (Units=1/GPa)
#
#
# Indices 1 2 3 4 5 6 
#
# 1 0.028201 -0.006417 -0.001647 0.000000 0.000000 0.000000
# 2 -0.006417 0.016997 -0.006370 0.000000 0.000000 0.000000
# 3 -0.001647 -0.006370 0.010655 0.000000 0.000000 0.000000
# 4 0.000000 0.000000 0.000000 0.033942 0.000000 0.000000
# 5 0.000000 0.000000 0.000000 0.000000 0.038656 0.000000
# 6 0.000000 0.000000 0.000000 0.000000 0.000000 0.034595
#
#
# Mechanical properties :
#
#
# Convention : Reuss Voigt Hill
#
# Bulk Modulus (GPa) = 37.05774 51.58710 44.32242
# Shear Modulus (GPa) = 24.88703 27.58497 26.23600
#
# Velocity S-wave (km/s) = 3.82170 4.02352 3.92391
# Velocity P-wave (km/s) = 6.42042 7.20137 6.82208
#
# Compressibility (1/GPa) = 0.02698491
#
# Stress axis : x y z
#
# Youngs Moduli (GPa) = 35.46025 58.83342 93.85618
#
# Poissons Ratio (x) = 0.37752 0.15461
# Poissons Ratio (y) = 0.22754 0.59783
# Poissons Ratio (z) = 0.05841 0.37475
#
# Static dielectric constant tensor:
#      x y z
#    x 3.129020 0.000000 0.000000 
#    y 0.000000 3.128890 0.000000 
#    z 0.000000 0.000000 3.346280 
# 
# 
# High freq. dielectric constant tensor:
#      x y z
#    x 1.662370 0.000000 0.000000 
#    y 0.000000 1.645650 0.000000 
#    z 0.000000 0.000000 1.651520 
# 
# From -- ./inp_files/11159.got.cif
#   From: 2010.03.12/outbox.cif.g09.slc.cpg/sg44_6_cif.got.tgz:11159.got - 2010.04.14 02:36:11.
