data_PCOD8188772
_publ_section_title
;
Structure prediction by ZEFSAII (Michael W. Deem and Ramdas Pophale) SiO2 
 PCOD8188772
Probable space group: I M M 2
;
_chemical_formula_sum "Si O2"
_cell_formula_units_Z 64
_cell_length_a 8.629819
_cell_length_b 28.408595
_cell_length_c 12.831274
_cell_angle_alpha 90.000000
_cell_angle_beta 90.000000
_cell_angle_gamma 90.000000
_cell_volume 3145.728387
_symmetry_space_group_name_H-M "I M M 2"
_symmetry_group_IT_number 44
_symmetry_cell_setting 'orthorhombic'
loop_
_space_group_symop_operation_xyz
x,y,z
-x,-y,z
-x,y,z
x,-y,z
1/2+x,1/2+y,1/2+z
1/2-x,1/2-y,1/2+z
1/2-x,1/2+y,1/2+z
1/2+x,1/2-y,1/2+z
loop_
_atom_site_type_symbol
_atom_site_label
_atom_site_fract_x
_atom_site_fract_y
_atom_site_fract_z
Si Si1 0.171376 0.316486 0.104200
Si Si2 0.178346 0.889416 0.927963
Si Si3 0.314059 0.105671 0.321781
Si Si4 0.682749 0.946533 0.115586
Si Si5 0.180359 0.795397 0.818260
Si Si6 0.668788 0.077032 0.536422
Si Si7 0.319175 0.702037 0.893259
Si Si8 0.178844 0.448021 0.252357
O O1 0.281039 0.315080 0.204333
O O2 0.153466 0.369438 0.069386
O O3 0.000000 0.295210 0.127403
O O4 0.247906 0.289229 0.007539
O O5 0.218844 0.834537 0.907490
O O6 0.212571 0.915263 0.819958
O O7 0.000000 0.895929 0.957691
O O8 0.278085 0.912911 0.018922
O O9 0.500000 0.107930 0.325409
O O10 0.251821 0.078745 0.219544
O O11 0.248665 0.076135 0.422787
O O12 0.252662 0.158987 0.326848
O O13 0.500000 0.950186 0.123040
O O14 0.750865 0.000000 0.104390
O O15 0.286071 0.749807 0.831701
O O16 0.000000 0.781917 0.823396
O O17 0.500000 0.053704 0.522265
O O18 0.749236 0.050529 0.633859
O O19 0.500000 0.692604 0.903686
O O20 0.184253 0.500000 0.300895
O O21 0.000000 0.429253 0.251420
#
# Coordination Sequence:
#
# PCOD8188772 Si02
#       8
#     8   8   8   8   8   8   8   8
#     4  10  19  36  60  83 113 151 189 240 300 358
#     4  11  24  39  57  82 116 156 200 251 305 362
#     4   9  19  38  61  86 119 157 200 253 304 355
#     4  10  22  40  63  89 120 163 212 259 306 364
#     4  11  23  39  59  85 116 156 206 256 308 367
#     4   8  15  30  54  82 110 143 181 229 289 346
#     4  11  23  38  59  89 122 160 201 247 304 368
#     4  10  19  32  54  84 115 147 187 233 285 352
#
# _framework density 20.345048999999999
#
# number of rings (size 3 to 8) (size 9 to 14) (size 15 to 20)
#    0.000    2.000    1.250    3.375    0.000    5.500 
#    0.000    5.000    0.000    0.000    0.000    1.750 
#    0.000    0.000    0.000    0.000    0.000    0.000 
#
# Total GULP energy -396562.467712 kJ/mol
# GULP energy per Si atom -12392.577116 kJ/mol
# Density = 2.029874 g / cm^3
# Si number density = 20.345049 Si / 1000 Ang^3
#
#
#
# Elastic Constant Matrix: (Units=GPa)
#
#
# Indices 1 2 3 4 5 6 
#
# 1 48.7166 22.1248 13.9360 0.0005 -0.0001 -0.0001
# 2 22.1248 81.9003 47.4849 0.0004 0.0001 -0.0001
# 3 13.9360 47.4849 122.9475 0.0049 0.0006 -0.0001
# 4 0.0005 0.0004 0.0049 23.5339 0.0004 -0.0002
# 5 -0.0001 0.0001 0.0006 0.0004 17.6663 0.0003
# 6 -0.0001 -0.0001 -0.0001 -0.0002 0.0003 20.7727
#
#
#
# Elastic Compliance Matrix: (Units=1/GPa)
#
#
# Indices 1 2 3 4 5 6 
#
# 1 0.023404 -0.006165 -0.000272 0.000000 0.000000 0.000000
# 2 -0.006165 0.017357 -0.006005 0.000001 0.000000 0.000000
# 3 -0.000272 -0.006005 0.010484 -0.000002 0.000000 0.000000
# 4 0.000000 0.000001 -0.000002 0.042492 -0.000001 0.000000
# 5 0.000000 0.000000 0.000000 -0.000001 0.056605 -0.000001
# 6 0.000000 0.000000 0.000000 0.000000 -0.000001 0.048140
#
#
# Mechanical properties :
#
#
# Convention : Reuss Voigt Hill
#
# Bulk Modulus (GPa) = 37.93376 46.73954 42.33665
# Shear Modulus (GPa) = 21.53759 23.72917 22.63338
#
# Velocity S-wave (km/s) = 3.25717 3.41887 3.33900
# Velocity P-wave (km/s) = 5.72985 6.21355 5.97660
#
# Compressibility (1/GPa) = 0.02636174
#
# Stress axis : x y z
#
# Youngs Moduli (GPa) = 42.72684 57.61398 95.38761
#
# Poissons Ratio (x) = 0.35519 0.02593
# Poissons Ratio (y) = 0.26341 0.57278
# Poissons Ratio (z) = 0.01162 0.34596
#
# Static dielectric constant tensor:
#      x y z
#    x 3.465490 0.000000 0.000000 
#    y 0.000000 3.716750 0.000000 
#    z 0.000000 0.000000 4.026310 
# 
# 
# High freq. dielectric constant tensor:
#      x y z
#    x 1.769350 0.000000 0.000000 
#    y 0.000000 1.791950 0.000000 
#    z 0.000000 0.000000 1.804350 
# 
# From -- ./inp_files/11416.got.cif
#   From: 2010.03.12/outbox.cif.g09.slc.cpg/sg44_6_cif.got.tgz:11416.got - 2010.04.14 02:36:11.
