data_PCOD8188043
_publ_section_title
;
Structure prediction by ZEFSAII (Michael W. Deem and Ramdas Pophale) SiO2 
 PCOD8188043
Probable space group: I M M 2
;
_chemical_formula_sum "Si O2"
_cell_formula_units_Z 64
_cell_length_a 8.551259
_cell_length_b 18.424476
_cell_length_c 26.313049
_cell_angle_alpha 90.000000
_cell_angle_beta 90.000000
_cell_angle_gamma 90.000000
_cell_volume 4145.685764
_symmetry_space_group_name_H-M "I M M 2"
_symmetry_group_IT_number 44
_symmetry_cell_setting 'orthorhombic'
loop_
_space_group_symop_operation_xyz
x,y,z
-x,-y,z
-x,y,z
x,-y,z
1/2+x,1/2+y,1/2+z
1/2-x,1/2-y,1/2+z
1/2-x,1/2+y,1/2+z
1/2+x,1/2-y,1/2+z
loop_
_atom_site_type_symbol
_atom_site_label
_atom_site_fract_x
_atom_site_fract_y
_atom_site_fract_z
Si Si1 0.318613 0.416476 0.376990
Si Si2 0.182747 0.287712 0.729543
Si Si3 0.682463 0.208221 0.633862
Si Si4 0.316175 0.161037 0.085124
Si Si5 0.815835 0.917577 0.182375
Si Si6 0.683529 0.583196 0.189727
Si Si7 0.817691 0.665511 0.284879
Si Si8 0.318948 0.083261 0.983092
O O1 0.500000 0.404976 0.365079
O O2 0.268625 0.500000 0.368932
O O3 0.217990 0.366867 0.339831
O O4 0.282348 0.392839 0.434597
O O5 0.286043 0.249997 0.686141
O O6 0.232059 0.372352 0.728150
O O7 0.229241 0.243900 0.780527
O O8 0.000000 0.279435 0.717972
O O9 0.500000 0.202378 0.622250
O O10 0.765440 0.254287 0.589006
O O11 0.754716 0.127728 0.640519
O O12 0.500000 0.152596 0.093909
O O13 0.229792 0.113131 0.127349
O O14 0.264902 0.132763 0.030014
O O15 0.000000 0.911887 0.189359
O O16 0.756959 0.000000 0.186936
O O17 0.500000 0.595110 0.195769
O O18 0.728181 0.500000 0.180351
O O19 0.762180 0.609400 0.241831
O O20 0.000000 0.679203 0.279002
O O21 0.500000 0.095374 0.969848
O O22 0.285930 0.000000 0.997986
#
# Coordination Sequence:
#
# PCOD8188043 Si02
#       8
#     8   8   8   8   8   8   8   8
#     4  10  20  32  45  62  85 112 143 179 215 250
#     4  10  18  29  44  60  82 110 142 177 211 250
#     4  10  18  28  42  60  84 111 141 175 211 252
#     4  10  18  29  45  62  84 114 147 179 212 252
#     4  10  19  29  42  62  88 115 144 177 212 252
#     4  10  19  30  44  62  85 112 143 177 212 252
#     4  11  20  30  45  62  84 113 144 176 212 254
#     4   9  18  31  45  62  84 111 144 180 215 249
#
# _framework density 15.437735999999999
#
# number of rings (size 3 to 8) (size 9 to 14) (size 15 to 20)
#    0.000    2.000    0.000    8.625    0.000    5.750 
#    0.000    1.250    0.000    0.000    0.000    0.000 
#    0.000    1.000    0.000    8.750    0.000    4.875 
#
# Total GULP energy -396741.915240 kJ/mol
# GULP energy per Si atom -12398.184851 kJ/mol
# Density = 1.540260 g / cm^3
# Si number density = 15.437736 Si / 1000 Ang^3
#
#
#
# Elastic Constant Matrix: (Units=GPa)
#
#
# Indices 1 2 3 4 5 6 
#
# 1 58.6237 31.8569 20.4829 0.0000 0.0000 0.0000
# 2 31.8569 112.3227 49.3099 0.0000 0.0000 0.0000
# 3 20.4829 49.3099 71.1578 0.0000 0.0000 0.0000
# 4 0.0000 0.0000 0.0000 27.7301 0.0000 0.0000
# 5 0.0000 0.0000 0.0000 0.0000 22.7277 0.0000
# 6 0.0000 0.0000 0.0000 0.0000 0.0000 24.7064
#
#
#
# Elastic Compliance Matrix: (Units=1/GPa)
#
#
# Indices 1 2 3 4 5 6 
#
# 1 0.020519 -0.004637 -0.002693 0.000000 0.000000 0.000000
# 2 -0.004637 0.013844 -0.008258 0.000000 0.000000 0.000000
# 3 -0.002693 -0.008258 0.020551 0.000000 0.000000 0.000000
# 4 0.000000 0.000000 0.000000 0.036062 0.000000 0.000000
# 5 0.000000 0.000000 0.000000 0.000000 0.043999 0.000000
# 6 0.000000 0.000000 0.000000 0.000000 0.000000 0.040475
#
#
# Mechanical properties :
#
#
# Convention : Reuss Voigt Hill
#
# Bulk Modulus (GPa) = 42.12909 49.48931 45.80920
# Shear Modulus (GPa) = 23.30580 24.39648 23.85114
#
# Velocity S-wave (km/s) = 3.88965 3.97963 3.93490
# Velocity P-wave (km/s) = 6.89358 7.29682 7.09806
#
# Compressibility (1/GPa) = 0.02373657
#
# Stress axis : x y z
#
# Youngs Moduli (GPa) = 48.73570 72.23579 48.65927
#
# Poissons Ratio (x) = 0.33499 0.13103
# Poissons Ratio (y) = 0.22601 0.40184
# Poissons Ratio (z) = 0.13124 0.59654
#
# Static dielectric constant tensor:
#      x y z
#    x 3.027930 0.000000 0.000000 
#    y 0.000000 3.354220 0.000000 
#    z 0.000000 0.000000 2.808230 
# 
# 
# High freq. dielectric constant tensor:
#      x y z
#    x 1.610700 0.000000 0.000000 
#    y 0.000000 1.585470 0.000000 
#    z 0.000000 0.000000 1.553000 
# 
# From -- ./inp_files/26302.got.cif
#   From: 2010.03.12/outbox.cif.g09.slc.cpg/sg44_14_cif.got.tgz:26302.got - 2010.04.14 02:36:11.
