data_PCOD8188111
_publ_section_title
;
Structure prediction by ZEFSAII (Michael W. Deem and Ramdas Pophale) SiO2 
 PCOD8188111
Probable space group: I M M 2
;
_chemical_formula_sum "Si O2"
_cell_formula_units_Z 64
_cell_length_a 9.156078
_cell_length_b 23.468182
_cell_length_c 19.100809
_cell_angle_alpha 90.000000
_cell_angle_beta 90.000000
_cell_angle_gamma 90.000000
_cell_volume 4104.315079
_symmetry_space_group_name_H-M "I M M 2"
_symmetry_group_IT_number 44
_symmetry_cell_setting 'orthorhombic'
loop_
_space_group_symop_operation_xyz
x,y,z
-x,-y,z
-x,y,z
x,-y,z
1/2+x,1/2+y,1/2+z
1/2-x,1/2-y,1/2+z
1/2-x,1/2+y,1/2+z
1/2+x,1/2-y,1/2+z
loop_
_atom_site_type_symbol
_atom_site_label
_atom_site_fract_x
_atom_site_fract_y
_atom_site_fract_z
Si Si1 0.328546 0.625210 0.704340
Si Si2 0.172911 0.062801 0.344943
Si Si3 0.327056 0.245145 0.211670
Si Si4 0.827812 0.064863 0.061109
Si Si5 0.330569 0.776345 0.843382
Si Si6 0.827266 0.234426 0.557657
Si Si7 0.673221 0.666709 0.930592
Si Si8 0.329478 0.844808 0.977819
O O1 0.500000 0.639966 0.704651
O O2 0.286788 0.582799 0.767056
O O3 0.239590 0.682610 0.715347
O O4 0.279029 0.594487 0.633280
O O5 0.238984 0.106946 0.402526
O O6 0.000000 0.060121 0.352899
O O7 0.240606 0.000000 0.357920
O O8 0.500000 0.240643 0.218568
O O9 0.263548 0.285102 0.273027
O O10 0.280686 0.274413 0.137938
O O11 0.000000 0.067318 0.051888
O O12 0.771683 0.000000 0.061281
O O13 0.755244 0.097307 0.995686
O O14 0.500000 0.774304 0.822742
O O15 0.280565 0.716910 0.877898
O O16 0.299339 0.828025 0.896994
O O17 0.768037 0.182398 0.508773
O O18 0.767842 0.294711 0.528336
O O19 0.000000 0.236793 0.548618
O O20 0.500000 0.662468 0.931198
O O21 0.500000 0.854898 0.990753
#
# Coordination Sequence:
#
# PCOD8188111 Si02
#       8
#     8   8   8   8   8   8   8   8
#     4  10  18  29  42  60  91 124 152 177 210 258
#     4   9  15  23  40  64  85 110 147 181 207 244
#     4  11  19  27  43  66  90 116 148 183 221 266
#     4  10  20  31  44  65  94 125 154 187 227 267
#     4   9  17  30  47  64  85 116 149 183 227 270
#     4   8  15  26  40  59  85 113 141 177 223 265
#     4   8  13  24  41  60  82 110 142 176 215 253
#     4   9  17  31  48  64  85 116 154 191 223 265
#
# _framework density 15.593344
#
# number of rings (size 3 to 8) (size 9 to 14) (size 15 to 20)
#    0.000    2.750    2.500    2.250    0.000    2.250 
#    0.000    0.000    0.000    1.125    0.000    0.875 
#    0.000    3.000    0.000    0.000    0.000    0.000 
#
# Total GULP energy -396612.609230 kJ/mol
# GULP energy per Si atom -12394.144038 kJ/mol
# Density = 1.555785 g / cm^3
# Si number density = 15.593344 Si / 1000 Ang^3
#
#
#
# Elastic Constant Matrix: (Units=GPa)
#
#
# Indices 1 2 3 4 5 6 
#
# 1 25.9127 17.9690 32.0690 0.0000 0.0000 0.0000
# 2 17.9690 80.1619 55.4403 0.0000 0.0000 0.0000
# 3 32.0690 55.4403 119.8953 0.0000 0.0000 0.0000
# 4 0.0000 0.0000 0.0000 24.0320 0.0000 0.0000
# 5 0.0000 0.0000 0.0000 0.0000 21.6713 0.0000
# 6 0.0000 0.0000 0.0000 0.0000 0.0000 17.7589
#
#
#
# Elastic Compliance Matrix: (Units=1/GPa)
#
#
# Indices 1 2 3 4 5 6 
#
# 1 0.058295 -0.003357 -0.014040 0.000000 0.000000 0.000000
# 2 -0.003357 0.018533 -0.007672 0.000000 0.000000 0.000000
# 3 -0.014040 -0.007672 0.015644 0.000000 0.000000 0.000000
# 4 0.000000 0.000000 0.000000 0.041611 0.000000 0.000000
# 5 0.000000 0.000000 0.000000 0.000000 0.046144 0.000000
# 6 0.000000 0.000000 0.000000 0.000000 0.000000 0.056310
#
#
# Mechanical properties :
#
#
# Convention : Reuss Voigt Hill
#
# Bulk Modulus (GPa) = 23.62201 48.54740 36.08470
# Shear Modulus (GPa) = 16.62312 20.72522 18.67417
#
# Velocity S-wave (km/s) = 3.26857 3.64965 3.46435
# Velocity P-wave (km/s) = 5.42461 6.99721 6.26048
#
# Compressibility (1/GPa) = 0.04233340
#
# Stress axis : x y z
#
# Youngs Moduli (GPa) = 17.15417 53.95717 63.92417
#
# Poissons Ratio (x) = 0.18114 0.89750
# Poissons Ratio (y) = 0.05759 0.49042
# Poissons Ratio (z) = 0.24085 0.41396
#
# Static dielectric constant tensor:
#      x y z
#    x 2.641690 0.000000 0.000000 
#    y 0.000000 3.065200 0.000000 
#    z 0.000000 0.000000 3.235980 
# 
# 
# High freq. dielectric constant tensor:
#      x y z
#    x 1.564360 0.000000 0.000000 
#    y 0.000000 1.575520 0.000000 
#    z 0.000000 0.000000 1.600120 
# 
# From -- ./inp_files/20838.got.cif
#   From: 2010.03.12/outbox.cif.g09.slc.cpg/sg44_11_cif.got.tgz:20838.got - 2010.04.14 02:36:11.
