data_PCOD8188489
_publ_section_title
;
Structure prediction by ZEFSAII (Michael W. Deem and Ramdas Pophale) SiO2 
 PCOD8188489
Probable space group: I M M 2
;
_chemical_formula_sum "Si O2"
_cell_formula_units_Z 56
_cell_length_a 7.837658
_cell_length_b 32.574397
_cell_length_c 13.612088
_cell_angle_alpha 90.000000
_cell_angle_beta 90.000000
_cell_angle_gamma 90.000000
_cell_volume 3475.261123
_symmetry_space_group_name_H-M "I M M 2"
_symmetry_group_IT_number 44
_symmetry_cell_setting 'orthorhombic'
loop_
_space_group_symop_operation_xyz
x,y,z
-x,-y,z
-x,y,z
x,-y,z
1/2+x,1/2+y,1/2+z
1/2-x,1/2-y,1/2+z
1/2-x,1/2+y,1/2+z
1/2+x,1/2-y,1/2+z
loop_
_atom_site_type_symbol
_atom_site_label
_atom_site_fract_x
_atom_site_fract_y
_atom_site_fract_z
Si Si1 0.798577 0.687232 0.206870
Si Si2 0.196807 0.396714 0.115972
Si Si3 0.500000 0.454024 0.882602
Si Si4 0.306228 0.732719 0.601988
Si Si5 0.306424 0.188865 0.287755
Si Si6 0.805980 0.266734 0.391583
Si Si7 0.303843 0.104283 0.384542
Si Si8 0.500000 0.545533 0.115390
O O1 0.729840 0.643488 0.171309
O O2 0.725398 0.724334 0.139787
O O3 0.741765 0.696595 0.319441
O O4 0.000000 0.686526 0.194651
O O5 0.324950 0.432601 0.150412
O O6 0.000000 0.407552 0.144773
O O7 0.210897 0.388529 0.000527
O O8 0.500000 0.500000 0.837311
O O9 0.326581 0.431004 0.848112
O O10 0.500000 0.456633 0.998920
O O11 0.500000 0.738682 0.570429
O O12 0.296014 0.698973 0.688188
O O13 0.209240 0.718536 0.503715
O O14 0.500000 0.184226 0.255280
O O15 0.292518 0.224349 0.370266
O O16 0.241942 0.146142 0.333048
O O17 0.000000 0.257292 0.363510
O O18 0.500000 0.092418 0.357174
O O19 0.500000 0.500000 0.161305
#
# Coordination Sequence:
#
# PCOD8188489 Si02
#       8
#     8   8   4   8   8   8   8   4
#     4   8  16  30  44  59  85 118 154 186 221 263
#     4   9  16  30  46  63  89 122 150 183 224 267
#     4   9  18  30  46  66  93 121 151 189 230 274
#     4  10  19  31  44  62  90 121 153 193 228 265
#     4  10  19  31  45  64  88 119 157 193 226 269
#     4  10  19  30  44  63  89 121 152 192 231 264
#     4   9  18  29  46  67  91 121 154 187 224 272
#     4   9  18  30  42  68  93 113 151 189 222 274
#
# _framework density 16.113896
#
# number of rings (size 3 to 8) (size 9 to 14) (size 15 to 20)
#    0.000    2.714    0.000    3.000    2.000    2.857 
#   10.286    2.857    0.000    0.000    0.000    0.000 
#    0.000    2.286    0.000    7.429    0.000    0.286 
#
# Total GULP energy -347039.735169 kJ/mol
# GULP energy per Si atom -12394.276256 kJ/mol
# Density = 1.607722 g / cm^3
# Si number density = 16.113896 Si / 1000 Ang^3
#
#
#
# Elastic Constant Matrix: (Units=GPa)
#
#
# Indices 1 2 3 4 5 6 
#
# 1 71.7798 51.6202 18.9836 0.0000 0.0000 0.0000
# 2 51.6202 130.2228 37.8111 -0.0002 0.0000 0.0000
# 3 18.9836 37.8111 74.6720 -0.0007 -0.0001 0.0000
# 4 0.0000 -0.0002 -0.0007 17.7034 0.0000 0.0000
# 5 0.0000 0.0000 -0.0001 0.0000 16.0328 -0.0001
# 6 0.0000 0.0000 0.0000 0.0000 -0.0001 24.5750
#
#
#
# Elastic Compliance Matrix: (Units=1/GPa)
#
#
# Indices 1 2 3 4 5 6 
#
# 1 0.019582 -0.007406 -0.001228 0.000000 0.000000 0.000000
# 2 -0.007406 0.011804 -0.004094 0.000000 0.000000 0.000000
# 3 -0.001228 -0.004094 0.015777 0.000001 0.000000 0.000000
# 4 0.000000 0.000000 0.000001 0.056486 0.000000 0.000000
# 5 0.000000 0.000000 0.000000 0.000000 0.062372 0.000000
# 6 0.000000 0.000000 0.000000 0.000000 0.000000 0.040692
#
#
# Mechanical properties :
#
#
# Convention : Reuss Voigt Hill
#
# Bulk Modulus (GPa) = 46.06890 54.83385 50.45138
# Shear Modulus (GPa) = 20.88512 22.87956 21.88234
#
# Velocity S-wave (km/s) = 3.60404 3.77220 3.68908
# Velocity P-wave (km/s) = 6.78015 7.28529 7.03725
#
# Compressibility (1/GPa) = 0.02170662
#
# Stress axis : x y z
#
# Youngs Moduli (GPa) = 51.06699 84.72046 63.38226
#
# Poissons Ratio (x) = 0.62741 0.07785
# Poissons Ratio (y) = 0.37819 0.25950
# Poissons Ratio (z) = 0.06273 0.34686
#
# Static dielectric constant tensor:
#      x y z
#    x 3.108850 0.000000 0.000000 
#    y 0.000000 3.119480 0.000000 
#    z 0.000000 0.000000 2.852120 
# 
# 
# High freq. dielectric constant tensor:
#      x y z
#    x 1.628610 0.000000 0.000000 
#    y 0.000000 1.595540 0.000000 
#    z 0.000000 0.000000 1.587990 
# 
# From -- ./inp_files/17068.got.cif
#   From: 2010.03.12/outbox.cif.g09.slc.cpg/sg44_9_cif.got.tgz:17068.got - 2010.04.14 02:36:11.
