data_PCOD8188415
_publ_section_title
;
Structure prediction by ZEFSAII (Michael W. Deem and Ramdas Pophale) SiO2 
 PCOD8188415
Probable space group: I M M 2
;
_chemical_formula_sum "Si O2"
_cell_formula_units_Z 64
_cell_length_a 9.166891
_cell_length_b 17.982339
_cell_length_c 26.850476
_cell_angle_alpha 90.000000
_cell_angle_beta 90.000000
_cell_angle_gamma 90.000000
_cell_volume 4426.089965
_symmetry_space_group_name_H-M "I M M 2"
_symmetry_group_IT_number 44
_symmetry_cell_setting 'orthorhombic'
loop_
_space_group_symop_operation_xyz
x,y,z
-x,-y,z
-x,y,z
x,-y,z
1/2+x,1/2+y,1/2+z
1/2-x,1/2-y,1/2+z
1/2-x,1/2+y,1/2+z
1/2+x,1/2-y,1/2+z
loop_
_atom_site_type_symbol
_atom_site_label
_atom_site_fract_x
_atom_site_fract_y
_atom_site_fract_z
Si Si1 0.832786 0.086194 0.296850
Si Si2 0.672898 0.417846 0.088724
Si Si3 0.672635 0.157900 0.387966
Si Si4 0.168974 0.912787 0.477805
Si Si5 0.660820 0.197129 0.238536
Si Si6 0.172884 0.161012 0.686360
Si Si7 0.839243 0.199493 0.834591
Si Si8 0.331265 0.086279 0.776978
O O1 0.744564 0.105229 0.346534
O O2 0.772752 0.130172 0.248385
O O3 0.000000 0.108750 0.305620
O O4 0.815318 0.000000 0.284619
O O5 0.500000 0.423067 0.089453
O O6 0.737510 0.500000 0.099599
O O7 0.728840 0.361665 0.131352
O O8 0.720281 0.391043 0.033713
O O9 0.500000 0.145434 0.384960
O O10 0.731577 0.135864 0.441756
O O11 0.712158 0.245200 0.378986
O O12 0.000000 0.892814 0.468777
O O13 0.194679 0.000000 0.468104
O O14 0.500000 0.163829 0.227290
O O15 0.713352 0.251627 0.193761
O O16 0.652783 0.249335 0.286288
O O17 0.248968 0.108133 0.726568
O O18 0.000000 0.149234 0.692756
O O19 0.728491 0.131744 0.825002
O O20 0.000000 0.166502 0.846035
O O21 0.500000 0.105873 0.770122
O O22 0.305471 0.000000 0.788191
#
# Coordination Sequence:
#
# PCOD8188415 Si02
#       8
#     8   8   8   8   8   8   8   8
#     4  10  19  28  39  56  77 103 134 162 190 231
#     4   8  14  25  41  59  78 102 133 165 190 217
#     4  10  19  29  41  57  77 102 132 164 197 230
#     4   9  17  28  41  58  79 103 133 164 192 227
#     4   8  15  26  39  57  78  99 127 162 195 227
#     4   9  16  27  43  59  76 104 138 163 188 226
#     4   8  16  29  41  54  73 100 133 161 187 228
#     4  10  19  27  37  58  84 105 128 160 195 229
#
# _framework density 14.459714
#
# number of rings (size 3 to 8) (size 9 to 14) (size 15 to 20)
#    0.000    3.000    0.000    4.125    0.000    9.250 
#    0.000    0.625    0.000    0.750    0.000    0.000 
#    0.000    1.000    0.000    5.000    0.000    3.500 
#
# Total GULP energy -396590.961890 kJ/mol
# GULP energy per Si atom -12393.467559 kJ/mol
# Density = 1.442680 g / cm^3
# Si number density = 14.459714 Si / 1000 Ang^3
#
#
#
# Elastic Constant Matrix: (Units=GPa)
#
#
# Indices 1 2 3 4 5 6 
#
# 1 72.1552 49.9869 38.6886 0.0000 0.0000 0.0000
# 2 49.9869 82.1146 56.4694 0.0000 0.0000 0.0000
# 3 38.6886 56.4694 94.1063 0.0000 0.0000 0.0000
# 4 0.0000 0.0000 0.0000 26.1178 0.0000 0.0000
# 5 0.0000 0.0000 0.0000 0.0000 17.3627 0.0000
# 6 0.0000 0.0000 0.0000 0.0000 0.0000 22.8914
#
#
#
# Elastic Compliance Matrix: (Units=1/GPa)
#
#
# Indices 1 2 3 4 5 6 
#
# 1 0.024161 -0.013411 -0.001885 0.000000 0.000000 0.000000
# 2 -0.013411 0.028179 -0.011395 0.000000 0.000000 0.000000
# 3 -0.001885 -0.011395 0.018239 0.000000 0.000000 0.000000
# 4 0.000000 0.000000 0.000000 0.038288 0.000000 0.000000
# 5 0.000000 0.000000 0.000000 0.000000 0.057595 0.000000
# 6 0.000000 0.000000 0.000000 0.000000 0.000000 0.043685
#
#
# Mechanical properties :
#
#
# Convention : Reuss Voigt Hill
#
# Bulk Modulus (GPa) = 58.15679 59.85177 59.00428
# Shear Modulus (GPa) = 18.56931 20.15645 19.36288
#
# Velocity S-wave (km/s) = 3.58748 3.73764 3.66333
# Velocity P-wave (km/s) = 7.58071 7.75297 7.66733
#
# Compressibility (1/GPa) = 0.01719490
#
# Stress axis : x y z
#
# Youngs Moduli (GPa) = 41.38926 35.48792 54.82694
#
# Poissons Ratio (x) = 0.47594 0.10337
# Poissons Ratio (y) = 0.55508 0.62477
# Poissons Ratio (z) = 0.07803 0.40439
#
# Static dielectric constant tensor:
#      x y z
#    x 2.808550 0.000000 0.000000 
#    y 0.000000 2.957050 0.000000 
#    z 0.000000 0.000000 2.939020 
# 
# 
# High freq. dielectric constant tensor:
#      x y z
#    x 1.550390 0.000000 0.000000 
#    y 0.000000 1.537880 0.000000 
#    z 0.000000 0.000000 1.524620 
# 
# From -- ./inp_files/26284.got.cif
#   From: 2010.03.12/outbox.cif.g09.slc.cpg/sg44_14_cif.got.tgz:26284.got - 2010.04.14 02:36:11.
