data_PCOD8188697
_publ_section_title
;
Structure prediction by ZEFSAII (Michael W. Deem and Ramdas Pophale) SiO2 
 PCOD8188697
Probable space group: I M M 2
;
_chemical_formula_sum "Si O2"
_cell_formula_units_Z 64
_cell_length_a 15.660412
_cell_length_b 9.301175
_cell_length_c 23.523500
_cell_angle_alpha 90.000000
_cell_angle_beta 90.000000
_cell_angle_gamma 90.000000
_cell_volume 3426.438481
_symmetry_space_group_name_H-M "I M M 2"
_symmetry_group_IT_number 44
_symmetry_cell_setting 'orthorhombic'
loop_
_space_group_symop_operation_xyz
x,y,z
-x,-y,z
-x,y,z
x,-y,z
1/2+x,1/2+y,1/2+z
1/2-x,1/2-y,1/2+z
1/2-x,1/2+y,1/2+z
1/2+x,1/2-y,1/2+z
loop_
_atom_site_type_symbol
_atom_site_label
_atom_site_fract_x
_atom_site_fract_y
_atom_site_fract_z
Si Si1 0.327346 0.166341 0.986700
Si Si2 0.402442 0.342031 0.080494
Si Si3 0.854943 0.164707 0.041846
Si Si4 0.092250 0.337972 0.939155
Si Si5 0.736699 0.669807 0.881986
Si Si6 0.597022 0.328837 0.666277
Si Si7 0.263416 0.329944 0.754558
Si Si8 0.901816 0.331490 0.688777
O O1 0.242979 0.185866 0.024556
O O2 0.321816 0.239514 0.924870
O O3 0.352660 0.000000 0.978921
O O4 0.397648 0.253061 0.021936
O O5 0.500000 0.368566 0.093913
O O6 0.357199 0.500000 0.076035
O O7 0.366618 0.249500 0.132995
O O8 0.912391 0.245804 0.996284
O O9 0.883148 0.000000 0.039861
O O10 0.872470 0.228035 0.104577
O O11 0.110959 0.500000 0.958680
O O12 0.164729 0.289696 0.895006
O O13 0.000000 0.324037 0.908424
O O14 0.718448 0.500000 0.889166
O O15 0.718000 0.724942 0.818357
O O16 0.500000 0.276250 0.679105
O O17 0.601024 0.500000 0.667186
O O18 0.663193 0.265470 0.713114
O O19 0.269861 0.500000 0.753645
O O20 0.166272 0.286325 0.737345
O O21 0.896072 0.500000 0.675040
O O22 0.000000 0.291136 0.706222
#
# Coordination Sequence:
#
# PCOD8188697 Si02
#       8
#     8   8   8   8   8   8   8   8
#     4  10  19  32  51  72  95 124 159 200 244 292
#     4  10  20  33  50  74 102 128 156 195 247 306
#     4   9  17  29  47  70  94 120 151 189 235 288
#     4   9  17  28  43  66  95 123 151 187 234 286
#     4   9  18  32  48  66  93 128 164 203 243 285
#     4   9  16  26  43  68  94 119 151 193 237 278
#     4   9  17  30  47  67  94 129 168 206 241 283
#     4   9  17  30  50  75 101 130 165 205 249 297
#
# _framework density 18.678286
#
# number of rings (size 3 to 8) (size 9 to 14) (size 15 to 20)
#    0.000    2.750    0.000    1.875    0.000    4.500 
#    0.000    3.750    0.000    3.000    0.000    1.750 
#    0.000    0.000    0.000    0.000    0.000    0.000 
#
# Total GULP energy -396585.988628 kJ/mol
# GULP energy per Si atom -12393.312145 kJ/mol
# Density = 1.863577 g / cm^3
# Si number density = 18.678286 Si / 1000 Ang^3
#
#
#
# Elastic Constant Matrix: (Units=GPa)
#
#
# Indices 1 2 3 4 5 6 
#
# 1 58.4855 11.8528 39.1414 0.0000 0.0000 0.0000
# 2 11.8528 58.6268 34.0206 0.0000 0.0000 0.0000
# 3 39.1414 34.0206 137.0185 0.0000 0.0000 0.0000
# 4 0.0000 0.0000 0.0000 25.0327 0.0000 0.0000
# 5 0.0000 0.0000 0.0000 0.0000 22.1428 0.0000
# 6 0.0000 0.0000 0.0000 0.0000 0.0000 14.5253
#
#
#
# Elastic Compliance Matrix: (Units=1/GPa)
#
#
# Indices 1 2 3 4 5 6 
#
# 1 0.021180 -0.000901 -0.005827 0.000000 0.000000 0.000000
# 2 -0.000901 0.019967 -0.004700 0.000000 0.000000 0.000000
# 3 -0.005827 -0.004700 0.010130 0.000000 0.000000 0.000000
# 4 0.000000 0.000000 0.000000 0.039948 0.000000 0.000000
# 5 0.000000 0.000000 0.000000 0.000000 0.045161 0.000000
# 6 0.000000 0.000000 0.000000 0.000000 0.000000 0.068845
#
#
# Mechanical properties :
#
#
# Convention : Reuss Voigt Hill
#
# Bulk Modulus (GPa) = 35.18513 47.12893 41.15703
# Shear Modulus (GPa) = 21.04722 23.61456 22.33089
#
# Velocity S-wave (km/s) = 3.36047 3.55953 3.46143
# Velocity P-wave (km/s) = 5.82540 6.49464 6.16910
#
# Compressibility (1/GPa) = 0.02842110
#
# Stress axis : x y z
#
# Youngs Moduli (GPa) = 47.21342 50.08343 98.71827
#
# Poissons Ratio (x) = 0.04512 0.57521
# Poissons Ratio (y) = 0.04253 0.46400
# Poissons Ratio (z) = 0.27510 0.23540
#
# Static dielectric constant tensor:
#      x y z
#    x 3.441450 0.000000 0.000000 
#    y 0.000000 3.341980 0.000000 
#    z 0.000000 0.000000 3.467470 
# 
# 
# High freq. dielectric constant tensor:
#      x y z
#    x 1.719360 0.000000 0.000000 
#    y 0.000000 1.695060 0.000000 
#    z 0.000000 0.000000 1.717470 
# 
# From -- ./inp_files/23248.got.cif
#   From: 2010.03.12/outbox.cif.g09.slc.cpg/sg44_12_cif.got.tgz:23248.got - 2010.04.14 02:36:11.
