data_PCOD8188530
_publ_section_title
;
Structure prediction by ZEFSAII (Michael W. Deem and Ramdas Pophale) SiO2 
 PCOD8188530
Probable space group: I M M 2
;
_chemical_formula_sum "Si O2"
_cell_formula_units_Z 40
_cell_length_a 7.896993
_cell_length_b 9.476096
_cell_length_c 29.145988
_cell_angle_alpha 90.000000
_cell_angle_beta 90.000000
_cell_angle_gamma 90.000000
_cell_volume 2181.071921
_symmetry_space_group_name_H-M "I M M 2"
_symmetry_group_IT_number 44
_symmetry_cell_setting 'orthorhombic'
loop_
_space_group_symop_operation_xyz
x,y,z
-x,-y,z
-x,y,z
x,-y,z
1/2+x,1/2+y,1/2+z
1/2-x,1/2-y,1/2+z
1/2-x,1/2+y,1/2+z
1/2+x,1/2-y,1/2+z
loop_
_atom_site_type_symbol
_atom_site_label
_atom_site_fract_x
_atom_site_fract_y
_atom_site_fract_z
Si Si1 0.500000 0.331355 0.920060
Si Si2 0.809594 0.167650 0.576210
Si Si3 0.500000 0.332465 0.817077
Si Si4 0.193909 0.662015 0.174114
Si Si5 0.813141 0.332101 0.979446
Si Si6 0.810946 0.662795 0.756193
O O1 0.500000 0.500000 0.920237
O O2 0.500000 0.270407 0.868477
O O3 0.668200 0.272984 0.945522
O O4 0.717527 0.220259 0.622421
O O5 0.715707 0.226671 0.531019
O O6 0.000000 0.225786 0.576175
O O7 0.806943 0.000000 0.574575
O O8 0.500000 0.500000 0.819499
O O9 0.329816 0.278258 0.791607
O O10 0.254644 0.500000 0.177164
O O11 0.305912 0.752742 0.208697
O O12 0.000000 0.678209 0.188647
O O13 0.802021 0.500000 0.979990
O O14 0.000000 0.282895 0.962716
O O15 0.772403 0.500000 0.745035
O O16 0.000000 0.680707 0.777379
#
# Coordination Sequence:
#
# PCOD8188530 Si02
#       6
#     4   8   4   8   8   8
#     4   9  16  26  40  59  83 117 157 193 234 281
#     4   9  15  24  38  59  91 125 154 188 234 283
#     4   9  18  32  47  63  89 123 163 207 242 281
#     4  10  19  30  47  72  99 128 163 201 240 285
#     4   9  15  23  36  56  85 118 151 187 228 281
#     4  10  20  34  51  69  94 130 165 199 244 291
#
# _framework density 18.339606
#
# number of rings (size 3 to 8) (size 9 to 14) (size 15 to 20)
#    0.000    2.600    2.000    1.200    0.000    4.400 
#    0.000    4.000    0.000    0.000    0.000    0.000 
#    0.000    3.200    0.000    4.600    0.000    4.200 
#
# Total GULP energy -247912.573984 kJ/mol
# GULP energy per Si atom -12395.628699 kJ/mol
# Density = 1.829786 g / cm^3
# Si number density = 18.339606 Si / 1000 Ang^3
#
#
#
# Elastic Constant Matrix: (Units=GPa)
#
#
# Indices 1 2 3 4 5 6 
#
# 1 148.8566 18.0643 72.4282 0.0000 0.0000 0.0000
# 2 18.0643 16.9987 21.3836 0.0000 0.0000 0.0000
# 3 72.4282 21.3836 149.3943 0.0000 0.0000 0.0000
# 4 0.0000 0.0000 0.0000 14.5201 0.0000 0.0000
# 5 0.0000 0.0000 0.0000 0.0000 30.4318 0.0000
# 6 0.0000 0.0000 0.0000 0.0000 0.0000 11.8079
#
#
#
# Elastic Compliance Matrix: (Units=1/GPa)
#
#
# Indices 1 2 3 4 5 6 
#
# 1 0.009133 -0.005044 -0.003706 0.000000 0.000000 0.000000
# 2 -0.005044 0.074532 -0.008223 0.000000 0.000000 0.000000
# 3 -0.003706 -0.008223 0.009667 0.000000 0.000000 0.000000
# 4 0.000000 0.000000 0.000000 0.068870 0.000000 0.000000
# 5 0.000000 0.000000 0.000000 0.000000 0.032860 0.000000
# 6 0.000000 0.000000 0.000000 0.000000 0.000000 0.084689
#
#
# Mechanical properties :
#
#
# Convention : Reuss Voigt Hill
#
# Bulk Modulus (GPa) = 16.83864 59.88908 38.36386
# Shear Modulus (GPa) = 14.99286 24.91021 19.95153
#
# Velocity S-wave (km/s) = 2.86232 3.68948 3.30190
# Velocity P-wave (km/s) = 4.48613 7.13275 5.95825
#
# Compressibility (1/GPa) = 0.05938723
#
# Stress axis : x y z
#
# Youngs Moduli (GPa) = 109.49175 13.41709 103.44107
#
# Poissons Ratio (x) = 0.06767 0.38334
# Poissons Ratio (y) = 0.55225 0.85058
# Poissons Ratio (z) = 0.40577 0.11033
#
# Static dielectric constant tensor:
#      x y z
#    x 3.618820 0.000000 0.000000 
#    y 0.000000 2.662790 0.000000 
#    z 0.000000 0.000000 3.532560 
# 
# 
# High freq. dielectric constant tensor:
#      x y z
#    x 1.730900 0.000000 0.000000 
#    y 0.000000 1.624880 0.000000 
#    z 0.000000 0.000000 1.712560 
# 
# From -- ./inp_files/25928.got.cif
#   From: 2010.03.12/outbox.cif.g09.slc.cpg/sg44_13_cif.got.tgz:25928.got - 2010.04.14 02:36:11.
