data_PCOD8188631
_publ_section_title
;
Structure prediction by ZEFSAII (Michael W. Deem and Ramdas Pophale) SiO2 
 PCOD8188631
Probable space group: I M M 2
;
_chemical_formula_sum "Si O2"
_cell_formula_units_Z 64
_cell_length_a 9.591255
_cell_length_b 22.288259
_cell_length_c 15.157600
_cell_angle_alpha 90.000000
_cell_angle_beta 90.000000
_cell_angle_gamma 90.000000
_cell_volume 3240.276160
_symmetry_space_group_name_H-M "I M M 2"
_symmetry_group_IT_number 44
_symmetry_cell_setting 'orthorhombic'
loop_
_space_group_symop_operation_xyz
x,y,z
-x,-y,z
-x,y,z
x,-y,z
1/2+x,1/2+y,1/2+z
1/2-x,1/2-y,1/2+z
1/2-x,1/2+y,1/2+z
1/2+x,1/2-y,1/2+z
loop_
_atom_site_type_symbol
_atom_site_label
_atom_site_fract_x
_atom_site_fract_y
_atom_site_fract_z
Si Si1 0.652298 0.069977 0.541850
Si Si2 0.841888 0.184847 0.101335
Si Si3 0.843376 0.429450 0.849393
Si Si4 0.663925 0.180060 0.938938
Si Si5 0.341126 0.385116 0.191458
Si Si6 0.840534 0.067380 0.192940
Si Si7 0.840943 0.277321 0.249328
Si Si8 0.659271 0.431825 0.381293
O O1 0.500000 0.095096 0.573502
O O2 0.690576 0.098208 0.446001
O O3 0.775378 0.081493 0.608928
O O4 0.635746 0.000000 0.527235
O O5 0.819119 0.112966 0.111393
O O6 0.814352 0.215122 0.197428
O O7 0.000000 0.198822 0.070911
O O8 0.737229 0.208955 0.025455
O O9 0.819901 0.500000 0.851109
O O10 0.741477 0.403683 0.775189
O O11 0.000000 0.412564 0.821721
O O12 0.500000 0.171416 0.956769
O O13 0.691171 0.224227 0.854966
O O14 0.733244 0.114766 0.924033
O O15 0.500000 0.369866 0.169197
O O16 0.261169 0.323509 0.203604
O O17 0.327934 0.428136 0.275657
O O18 0.000000 0.065719 0.222547
O O19 0.790268 0.000000 0.165429
O O20 0.000000 0.299080 0.237172
O O21 0.500000 0.416075 0.410155
O O22 0.696784 0.500000 0.409693
#
# Coordination Sequence:
#
# PCOD8188631 Si02
#       8
#     8   8   8   8   8   8   8   8
#     4   9  17  29  46  70 105 148 188 225 272 333
#     4  10  21  39  61  82 109 148 186 224 277 341
#     4   8  15  29  47  68 100 140 177 216 262 313
#     4  10  21  37  58  84 113 144 184 237 282 323
#     4  10  19  31  50  77 107 140 184 239 283 322
#     4   9  18  33  54  80 108 138 175 219 271 332
#     4   9  20  40  59  75 106 149 186 227 279 334
#     4   9  18  33  53  78 111 149 185 223 274 336
#
# _framework density 19.751401999999999
#
# number of rings (size 3 to 8) (size 9 to 14) (size 15 to 20)
#    0.000    2.750    0.000    1.875    0.000    4.000 
#    2.250    2.500    0.000    0.000    0.000    0.000 
#    0.000    0.000    0.000    0.000    0.000    0.000 
#
# Total GULP energy -396555.900600 kJ/mol
# GULP energy per Si atom -12392.371894 kJ/mol
# Density = 1.970645 g / cm^3
# Si number density = 19.751402 Si / 1000 Ang^3
#
#
#
# Elastic Constant Matrix: (Units=GPa)
#
#
# Indices 1 2 3 4 5 6 
#
# 1 101.1795 26.8009 59.3390 0.0000 0.0000 0.0000
# 2 26.8009 56.8129 27.2054 0.0000 0.0000 0.0000
# 3 59.3390 27.2054 107.0934 -0.0002 0.0000 0.0000
# 4 0.0000 0.0000 -0.0002 21.9640 0.0000 0.0000
# 5 0.0000 0.0000 0.0000 0.0000 29.5248 0.0000
# 6 0.0000 0.0000 0.0000 0.0000 0.0000 23.4438
#
#
#
# Elastic Compliance Matrix: (Units=1/GPa)
#
#
# Indices 1 2 3 4 5 6 
#
# 1 0.015257 -0.003585 -0.007543 0.000000 0.000000 0.000000
# 2 -0.003585 0.020882 -0.003318 0.000000 0.000000 0.000000
# 3 -0.007543 -0.003318 0.014360 0.000000 0.000000 0.000000
# 4 0.000000 0.000000 0.000000 0.045529 0.000000 0.000000
# 5 0.000000 0.000000 0.000000 0.000000 0.033870 0.000000
# 6 0.000000 0.000000 0.000000 0.000000 0.000000 0.042655
#
#
# Mechanical properties :
#
#
# Convention : Reuss Voigt Hill
#
# Bulk Modulus (GPa) = 46.28317 54.64183 50.46250
# Shear Modulus (GPa) = 23.96392 25.10256 24.53324
#
# Velocity S-wave (km/s) = 3.48699 3.56887 3.52817
# Velocity P-wave (km/s) = 6.30047 6.68635 6.49627
#
# Compressibility (1/GPa) = 0.02160612
#
# Stress axis : x y z
#
# Youngs Moduli (GPa) = 65.54485 47.88837 69.63828
#
# Poissons Ratio (x) = 0.17169 0.52527
# Poissons Ratio (y) = 0.23500 0.23107
# Poissons Ratio (z) = 0.49439 0.15890
#
# Static dielectric constant tensor:
#      x y z
#    x 3.700520 0.000000 0.000000 
#    y 0.000000 3.362690 0.000000 
#    z 0.000000 0.000000 3.869390 
# 
# 
# High freq. dielectric constant tensor:
#      x y z
#    x 1.769630 0.000000 0.000000 
#    y 0.000000 1.741390 0.000000 
#    z 0.000000 0.000000 1.772320 
# 
# From -- ./inp_files/16838.got.cif
#   From: 2010.03.12/outbox.cif.g09.slc.cpg/sg44_9_cif.got.tgz:16838.got - 2010.04.14 02:36:11.
