data_PCOD8188090
_publ_section_title
;
Structure prediction by ZEFSAII (Michael W. Deem and Ramdas Pophale) SiO2 
 PCOD8188090
Probable space group: I M M 2
;
_chemical_formula_sum "Si O2"
_cell_formula_units_Z 56
_cell_length_a 8.692380
_cell_length_b 13.715165
_cell_length_c 29.442678
_cell_angle_alpha 90.000000
_cell_angle_beta 90.000000
_cell_angle_gamma 90.000000
_cell_volume 3510.080284
_symmetry_space_group_name_H-M "I M M 2"
_symmetry_group_IT_number 44
_symmetry_cell_setting 'orthorhombic'
loop_
_space_group_symop_operation_xyz
x,y,z
-x,-y,z
-x,y,z
x,-y,z
1/2+x,1/2+y,1/2+z
1/2-x,1/2-y,1/2+z
1/2-x,1/2+y,1/2+z
1/2+x,1/2-y,1/2+z
loop_
_atom_site_type_symbol
_atom_site_label
_atom_site_fract_x
_atom_site_fract_y
_atom_site_fract_z
Si Si1 0.817871 0.718867 0.130930
Si Si2 0.820322 0.388543 0.681872
Si Si3 0.328940 0.616078 0.951706
Si Si4 0.317785 0.719510 0.765058
Si Si5 0.819021 0.390710 0.042628
Si Si6 0.679417 0.388576 0.214093
Si Si7 0.183407 0.891167 0.353123
O O1 0.735381 0.822226 0.139808
O O2 0.756599 0.678195 0.082784
O O3 0.773679 0.640881 0.169401
O O4 0.000000 0.734322 0.131268
O O5 0.783395 0.500000 0.669639
O O6 0.727649 0.358777 0.726834
O O7 0.000000 0.371342 0.690830
O O8 0.500000 0.657980 0.958895
O O9 0.331786 0.500000 0.950617
O O10 0.261428 0.649731 0.902544
O O11 0.227178 0.654375 0.993760
O O12 0.500000 0.734156 0.764228
O O13 0.235186 0.822764 0.756270
O O14 0.258073 0.680540 0.813635
O O15 0.749537 0.500000 0.048410
O O16 0.000000 0.396473 0.045672
O O17 0.500000 0.370662 0.204775
O O18 0.715091 0.500000 0.226445
O O19 0.000000 0.896628 0.353408
O O20 0.249476 0.000000 0.344150
#
# Coordination Sequence:
#
# PCOD8188090 Si02
#       7
#     8   8   8   8   8   8   8
#     4  10  19  30  46  65  85 112 145 178 211 250
#     4  10  20  32  44  61  88 116 142 176 213 250
#     4   8  14  25  41  60  83 112 142 169 201 246
#     4  10  18  28  46  67  86 112 145 178 211 249
#     4   9  17  28  41  61  89 114 137 170 210 249
#     4  10  20  32  44  60  86 116 144 177 214 252
#     4   8  14  25  41  63  89 113 139 171 205 244
#
# _framework density 15.954051
#
# number of rings (size 3 to 8) (size 9 to 14) (size 15 to 20)
#    0.000    2.714    0.000    5.143    0.000    4.571 
#    0.000    2.857    0.000    3.429    0.000    1.000 
#    0.000    1.143    0.000    0.000    0.000    0.000 
#
# Total GULP energy -347069.485803 kJ/mol
# GULP energy per Si atom -12395.338779 kJ/mol
# Density = 1.591774 g / cm^3
# Si number density = 15.954051 Si / 1000 Ang^3
#
#
#
# Elastic Constant Matrix: (Units=GPa)
#
#
# Indices 1 2 3 4 5 6 
#
# 1 28.2936 19.3374 11.0128 0.0000 0.0000 0.0000
# 2 19.3374 100.0647 55.6824 0.0000 0.0000 0.0000
# 3 11.0128 55.6824 136.0176 0.0000 0.0000 0.0000
# 4 0.0000 0.0000 0.0000 24.9427 0.0000 0.0000
# 5 0.0000 0.0000 0.0000 0.0000 22.9013 0.0000
# 6 0.0000 0.0000 0.0000 0.0000 0.0000 21.6174
#
#
#
# Elastic Compliance Matrix: (Units=1/GPa)
#
#
# Indices 1 2 3 4 5 6 
#
# 1 0.040723 -0.007815 -0.000098 0.000000 0.000000 0.000000
# 2 -0.007815 0.014442 -0.005279 0.000000 0.000000 0.000000
# 3 -0.000098 -0.005279 0.009521 0.000000 0.000000 0.000000
# 4 0.000000 0.000000 0.000000 0.040092 0.000000 0.000000
# 5 0.000000 0.000000 0.000000 0.000000 0.043666 0.000000
# 6 0.000000 0.000000 0.000000 0.000000 0.000000 0.046259
#
#
# Mechanical properties :
#
#
# Convention : Reuss Voigt Hill
#
# Bulk Modulus (GPa) = 26.10889 48.49347 37.30118
# Shear Modulus (GPa) = 21.38085 25.78183 23.58134
#
# Velocity S-wave (km/s) = 3.66478 4.02432 3.84875
# Velocity P-wave (km/s) = 5.85731 7.21493 6.57127
#
# Compressibility (1/GPa) = 0.03830112
#
# Stress axis : x y z
#
# Youngs Moduli (GPa) = 24.55606 69.24467 105.02972
#
# Poissons Ratio (x) = 0.54117 0.01027
# Poissons Ratio (y) = 0.19191 0.55448
# Poissons Ratio (z) = 0.00240 0.36556
#
# Static dielectric constant tensor:
#      x y z
#    x 2.973790 0.000000 0.000000 
#    y 0.000000 2.958790 0.000000 
#    z 0.000000 0.000000 3.300200 
# 
# 
# High freq. dielectric constant tensor:
#      x y z
#    x 1.609560 0.000000 0.000000 
#    y 0.000000 1.582770 0.000000 
#    z 0.000000 0.000000 1.611280 
# 
# From -- ./inp_files/27228.got.cif
#   From: 2010.03.12/outbox.cif.g09.slc.cpg/sg44_14_cif.got.tgz:27228.got - 2010.04.14 02:36:11.
