data_PCOD8188332
_publ_section_title
;
Structure prediction by ZEFSAII (Michael W. Deem and Ramdas Pophale) SiO2 
 PCOD8188332
Probable space group: I M M 2
;
_chemical_formula_sum "Si O2"
_cell_formula_units_Z 48
_cell_length_a 8.956454
_cell_length_b 16.498481
_cell_length_c 18.317228
_cell_angle_alpha 90.000000
_cell_angle_beta 90.000000
_cell_angle_gamma 90.000000
_cell_volume 2706.698062
_symmetry_space_group_name_H-M "I M M 2"
_symmetry_group_IT_number 44
_symmetry_cell_setting 'orthorhombic'
loop_
_space_group_symop_operation_xyz
x,y,z
-x,-y,z
-x,y,z
x,-y,z
1/2+x,1/2+y,1/2+z
1/2-x,1/2-y,1/2+z
1/2-x,1/2+y,1/2+z
1/2+x,1/2-y,1/2+z
loop_
_atom_site_type_symbol
_atom_site_label
_atom_site_fract_x
_atom_site_fract_y
_atom_site_fract_z
Si Si1 0.329277 0.761494 0.886360
Si Si2 0.330044 0.674495 0.035369
Si Si3 0.824052 0.185568 0.112348
Si Si4 0.671191 0.500000 0.995654
Si Si5 0.176022 0.500000 0.843169
Si Si6 0.676679 0.836751 0.267462
Si Si7 0.826003 0.407689 0.484509
O O1 0.500000 0.759800 0.859584
O O2 0.225192 0.738631 0.818311
O O3 0.284739 0.851169 0.915358
O O4 0.302520 0.697158 0.951021
O O5 0.500000 0.696245 0.057344
O O6 0.219513 0.723924 0.087196
O O7 0.296449 0.579084 0.045039
O O8 0.751597 0.168834 0.189548
O O9 0.000000 0.178677 0.118718
O O10 0.766266 0.118754 0.055315
O O11 0.500000 0.500000 0.968301
O O12 0.776198 0.500000 0.926376
O O13 0.236735 0.420073 0.802820
O O14 0.000000 0.500000 0.841065
O O15 0.500000 0.835026 0.258320
O O16 0.786473 0.500000 0.464107
O O17 0.000000 0.396550 0.503919
#
# Coordination Sequence:
#
# PCOD8188332 Si02
#       7
#     8   8   8   4   4   8   8
#     4   9  17  32  55  80 105 136 176 216 261 314
#     4   9  18  34  55  80 108 141 176 214 262 315
#     4  11  23  36  53  78 109 143 179 221 264 314
#     4  10  18  32  58  84 108 137 174 217 258 310
#     4  10  22  34  50  80 112 141 172 211 262 316
#     4  11  22  36  53  76 109 146 179 215 262 317
#     4   9  19  37  59  80 106 140 176 217 266 319
#
# _framework density 17.733785000000001
#
# number of rings (size 3 to 8) (size 9 to 14) (size 15 to 20)
#    0.000    2.167    1.667    3.000    1.167    4.333 
#    0.000    0.000    1.833    0.000    0.000    0.000 
#    0.000    0.000    0.000    0.000    0.000    0.000 
#
# Total GULP energy -297626.529522 kJ/mol
# GULP energy per Si atom -12401.105397 kJ/mol
# Density = 1.769342 g / cm^3
# Si number density = 17.733785 Si / 1000 Ang^3
#
#
#
# Elastic Constant Matrix: (Units=GPa)
#
#
# Indices 1 2 3 4 5 6 
#
# 1 74.7020 34.2561 40.7605 0.0000 0.0000 0.0000
# 2 34.2561 140.9249 40.2898 0.0000 0.0000 0.0000
# 3 40.7605 40.2898 76.3764 0.0000 0.0000 0.0000
# 4 0.0000 0.0000 0.0000 15.4519 0.0000 0.0000
# 5 0.0000 0.0000 0.0000 0.0000 32.7484 0.0000
# 6 0.0000 0.0000 0.0000 0.0000 0.0000 24.4456
#
#
#
# Elastic Compliance Matrix: (Units=1/GPa)
#
#
# Indices 1 2 3 4 5 6 
#
# 1 0.019384 -0.002066 -0.009255 0.000000 0.000000 0.000000
# 2 -0.002066 0.008576 -0.003422 0.000000 0.000000 0.000000
# 3 -0.009255 -0.003422 0.019837 0.000000 0.000000 0.000000
# 4 0.000000 0.000000 0.000000 0.064717 0.000000 0.000000
# 5 0.000000 0.000000 0.000000 0.000000 0.030536 0.000000
# 6 0.000000 0.000000 0.000000 0.000000 0.000000 0.040907
#
#
# Mechanical properties :
#
#
# Convention : Reuss Voigt Hill
#
# Bulk Modulus (GPa) = 54.60780 58.06845 56.33813
# Shear Modulus (GPa) = 22.77423 26.30897 24.54160
#
# Velocity S-wave (km/s) = 3.58750 3.85587 3.72410
# Velocity P-wave (km/s) = 6.92966 7.25529 7.09434
#
# Compressibility (1/GPa) = 0.01831240
#
# Stress axis : x y z
#
# Youngs Moduli (GPa) = 51.58964 116.59904 50.41030
#
# Poissons Ratio (x) = 0.24088 0.46654
# Poissons Ratio (y) = 0.10658 0.17249
# Poissons Ratio (z) = 0.47746 0.39897
#
# Static dielectric constant tensor:
#      x y z
#    x 3.223200 0.000000 0.000000 
#    y 0.000000 3.675500 0.000000 
#    z 0.000000 0.000000 3.054740 
# 
# 
# High freq. dielectric constant tensor:
#      x y z
#    x 1.683100 0.000000 0.000000 
#    y 0.000000 1.694120 0.000000 
#    z 0.000000 0.000000 1.664620 
# 
# From -- ./inp_files/16129.got.cif
#   From: 2010.03.12/outbox.cif.g09.slc.cpg/sg44_9_cif.got.tgz:16129.got - 2010.04.14 02:36:11.
