data_PCOD8188414
_publ_section_title
;
Structure prediction by ZEFSAII (Michael W. Deem and Ramdas Pophale) SiO2 
 PCOD8188414
Probable space group: I M M 2
;
_chemical_formula_sum "Si O2"
_cell_formula_units_Z 64
_cell_length_a 9.123919
_cell_length_b 13.609886
_cell_length_c 34.052090
_cell_angle_alpha 90.000000
_cell_angle_beta 90.000000
_cell_angle_gamma 90.000000
_cell_volume 4228.435215
_symmetry_space_group_name_H-M "I M M 2"
_symmetry_group_IT_number 44
_symmetry_cell_setting 'orthorhombic'
loop_
_space_group_symop_operation_xyz
x,y,z
-x,-y,z
-x,y,z
x,-y,z
1/2+x,1/2+y,1/2+z
1/2-x,1/2-y,1/2+z
1/2-x,1/2+y,1/2+z
1/2+x,1/2-y,1/2+z
loop_
_atom_site_type_symbol
_atom_site_label
_atom_site_fract_x
_atom_site_fract_y
_atom_site_fract_z
Si Si1 0.827759 0.387513 0.803540
Si Si2 0.674101 0.709940 0.114008
Si Si3 0.832036 0.610595 0.184009
Si Si4 0.665327 0.616434 0.879258
Si Si5 0.832672 0.796301 0.232083
Si Si6 0.169420 0.384087 0.041489
Si Si7 0.170302 0.112121 0.149769
Si Si8 0.835719 0.116633 0.465413
O O1 0.775093 0.500000 0.797527
O O2 0.767283 0.342496 0.844417
O O3 0.771618 0.322146 0.767836
O O4 0.000000 0.380055 0.805040
O O5 0.500000 0.710619 0.113301
O O6 0.728589 0.635812 0.147577
O O7 0.733511 0.673519 0.072597
O O8 0.732554 0.819870 0.121650
O O9 0.799842 0.500000 0.198214
O O10 0.802354 0.682941 0.220475
O O11 0.000000 0.623218 0.169553
O O12 0.500000 0.651035 0.870771
O O13 0.676124 0.500000 0.879502
O O14 0.715524 0.655840 0.922332
O O15 0.793880 0.865377 0.195163
O O16 0.000000 0.812651 0.245266
O O17 0.194825 0.500000 0.047000
O O18 0.000000 0.356037 0.046535
O O19 0.222565 0.347604 0.998586
O O20 0.000000 0.134454 0.141482
O O21 0.211275 0.000000 0.140599
O O22 0.000000 0.155335 0.474804
O O23 0.839009 0.000000 0.464239
#
# Coordination Sequence:
#
# PCOD8188414 Si02
#       8
#     8   8   8   8   8   8   8   8
#     4  10  19  27  37  57  85 114 142 173 205 238
#     4  11  21  30  43  64  88 112 140 175 212 251
#     4   9  18  33  49  62  80 108 142 179 216 254
#     4   8  14  25  40  56  77 108 141 170 203 245
#     4   9  17  29  45  63  81 105 138 172 208 250
#     4  10  19  29  42  60  84 115 147 177 208 245
#     4   9  18  33  50  64  81 109 143 177 213 253
#     4   8  14  25  40  58  80 106 137 172 209 247
#
# _framework density 15.135622
#
# number of rings (size 3 to 8) (size 9 to 14) (size 15 to 20)
#    0.000    2.750    0.000    4.125    0.000    6.500 
#    0.000    2.500    0.000    0.000    0.000    0.000 
#    0.000    1.000    0.000    8.250    0.000    4.375 
#
# Total GULP energy -396701.668356 kJ/mol
# GULP energy per Si atom -12396.927136 kJ/mol
# Density = 1.510117 g / cm^3
# Si number density = 15.135622 Si / 1000 Ang^3
#
#
#
# Elastic Constant Matrix: (Units=GPa)
#
#
# Indices 1 2 3 4 5 6 
#
# 1 92.3392 38.7681 64.0113 0.0000 0.0000 0.0000
# 2 38.7681 72.2124 41.4673 0.0000 0.0000 0.0000
# 3 64.0113 41.4673 116.9178 0.0000 0.0000 0.0000
# 4 0.0000 0.0000 0.0000 15.8608 0.0000 0.0000
# 5 0.0000 0.0000 0.0000 0.0000 29.2497 0.0000
# 6 0.0000 0.0000 0.0000 0.0000 0.0000 15.5896
#
#
#
# Elastic Compliance Matrix: (Units=1/GPa)
#
#
# Indices 1 2 3 4 5 6 
#
# 1 0.018937 -0.005291 -0.008492 0.000000 0.000000 0.000000
# 2 -0.005291 0.018868 -0.003795 0.000000 0.000000 0.000000
# 3 -0.008492 -0.003795 0.014548 0.000000 0.000000 0.000000
# 4 0.000000 0.000000 0.000000 0.063049 0.000000 0.000000
# 5 0.000000 0.000000 0.000000 0.000000 0.034188 0.000000
# 6 0.000000 0.000000 0.000000 0.000000 0.000000 0.064145
#
#
# Mechanical properties :
#
#
# Convention : Reuss Voigt Hill
#
# Bulk Modulus (GPa) = 58.14511 63.32922 60.73716
# Shear Modulus (GPa) = 19.63685 21.28820 20.46253
#
# Velocity S-wave (km/s) = 3.60584 3.75440 3.68087
# Velocity P-wave (km/s) = 7.47232 7.79269 7.63419
#
# Compressibility (1/GPa) = 0.01719835
#
# Stress axis : x y z
#
# Youngs Moduli (GPa) = 52.80556 53.00048 68.73713
#
# Poissons Ratio (x) = 0.28040 0.58369
# Poissons Ratio (y) = 0.27937 0.26088
# Poissons Ratio (z) = 0.44840 0.20115
#
# Static dielectric constant tensor:
#      x y z
#    x 2.931220 0.000000 0.000000 
#    y 0.000000 2.718420 0.000000 
#    z 0.000000 0.000000 3.104030 
# 
# 
# High freq. dielectric constant tensor:
#      x y z
#    x 1.583610 0.000000 0.000000 
#    y 0.000000 1.536070 0.000000 
#    z 0.000000 0.000000 1.579080 
# 
# From -- ./inp_files/27287.got.cif
#   From: 2010.03.12/outbox.cif.g09.slc.cpg/sg44_14_cif.got.tgz:27287.got - 2010.04.14 02:36:11.
