data_PCOD8188486
_publ_section_title
;
Structure prediction by ZEFSAII (Michael W. Deem and Ramdas Pophale) SiO2 
 PCOD8188486
Probable space group: I M M 2
;
_chemical_formula_sum "Si O2"
_cell_formula_units_Z 64
_cell_length_a 26.164427
_cell_length_b 8.575365
_cell_length_c 18.335128
_cell_angle_alpha 90.000000
_cell_angle_beta 90.000000
_cell_angle_gamma 90.000000
_cell_volume 4113.843713
_symmetry_space_group_name_H-M "I M M 2"
_symmetry_group_IT_number 44
_symmetry_cell_setting 'orthorhombic'
loop_
_space_group_symop_operation_xyz
x,y,z
-x,-y,z
-x,y,z
x,-y,z
1/2+x,1/2+y,1/2+z
1/2-x,1/2-y,1/2+z
1/2-x,1/2+y,1/2+z
1/2+x,1/2-y,1/2+z
loop_
_atom_site_type_symbol
_atom_site_label
_atom_site_fract_x
_atom_site_fract_y
_atom_site_fract_z
Si Si1 0.854698 0.316671 0.872730
Si Si2 0.940921 0.817939 0.778120
Si Si3 0.441430 0.182647 0.123628
Si Si4 0.851850 0.182133 0.540830
Si Si5 0.707598 0.680035 0.488461
Si Si6 0.738064 0.320895 0.284319
Si Si7 0.260457 0.178037 0.130642
Si Si8 0.202764 0.177957 0.402076
O O1 0.858596 0.500000 0.883543
O O2 0.908354 0.252337 0.843844
O O3 0.845889 0.233699 0.952030
O O4 0.809325 0.277771 0.815710
O O5 0.923426 0.734595 0.703725
O O6 0.000000 0.783287 0.795482
O O7 0.929881 0.000000 0.769232
O O8 0.500000 0.230903 0.110936
O O9 0.409173 0.272743 0.062497
O O10 0.432678 0.000000 0.115292
O O11 0.813005 0.280768 0.590078
O O12 0.845247 0.222481 0.454235
O O13 0.841170 0.000000 0.554136
O O14 0.719412 0.500000 0.467855
O O15 0.711885 0.701592 0.575912
O O16 0.748039 0.796900 0.452685
O O17 0.723624 0.500000 0.293443
O O18 0.748440 0.285745 0.200151
O O19 0.790345 0.282432 0.329353
O O20 0.264162 0.000000 0.156777
O O21 0.199603 0.000000 0.376232
#
# Coordination Sequence:
#
# PCOD8188486 Si02
#       8
#     8   8   8   8   8   8   8   8
#     4  11  20  30  45  62  85 114 143 176 212 252
#     4  10  20  33  47  62  83 111 144 181 215 248
#     4  10  20  32  45  62  85 112 143 179 215 250
#     4  10  19  30  45  63  84 112 144 177 212 252
#     4   9  17  29  44  61  82 109 141 174 208 248
#     4  11  20  29  43  62  86 114 145 177 208 249
#     4  10  19  30  44  62  86 114 143 176 211 249
#     4   9  17  29  43  60  83 109 139 174 211 249
#
# _framework density 15.557226
#
# number of rings (size 3 to 8) (size 9 to 14) (size 15 to 20)
#    0.000    2.000    0.000    6.750    0.000    4.500 
#    0.000    0.000    0.000    0.000    0.000    0.000 
#    0.000    1.000    0.000    5.500    0.000    4.125 
#
# Total GULP energy -396685.320958 kJ/mol
# GULP energy per Si atom -12396.416280 kJ/mol
# Density = 1.552182 g / cm^3
# Si number density = 15.557226 Si / 1000 Ang^3
#
#
#
# Elastic Constant Matrix: (Units=GPa)
#
#
# Indices 1 2 3 4 5 6 
#
# 1 61.2990 19.6365 35.7139 0.0000 0.0000 0.0000
# 2 19.6365 51.6431 20.5349 0.0000 0.0000 0.0000
# 3 35.7139 20.5349 80.8536 0.0000 0.0000 0.0000
# 4 0.0000 0.0000 0.0000 25.2915 0.0000 0.0000
# 5 0.0000 0.0000 0.0000 0.0000 29.3975 0.0000
# 6 0.0000 0.0000 0.0000 0.0000 0.0000 20.7673
#
#
#
# Elastic Compliance Matrix: (Units=1/GPa)
#
#
# Indices 1 2 3 4 5 6 
#
# 1 0.023192 -0.005278 -0.008903 0.000000 0.000000 0.000000
# 2 -0.005278 0.022740 -0.003444 0.000000 0.000000 0.000000
# 3 -0.008903 -0.003444 0.017176 0.000000 0.000000 0.000000
# 4 0.000000 0.000000 0.000000 0.039539 0.000000 0.000000
# 5 0.000000 0.000000 0.000000 0.000000 0.034016 0.000000
# 6 0.000000 0.000000 0.000000 0.000000 0.000000 0.048153
#
#
# Mechanical properties :
#
#
# Convention : Reuss Voigt Hill
#
# Bulk Modulus (GPa) = 35.89888 38.39627 37.14757
# Shear Modulus (GPa) = 21.80059 22.95196 22.37627
#
# Velocity S-wave (km/s) = 3.74748 3.84516 3.79663
# Velocity P-wave (km/s) = 6.46918 6.66693 6.56880
#
# Compressibility (1/GPa) = 0.02785603
#
# Stress axis : x y z
#
# Youngs Moduli (GPa) = 43.11915 43.97534 58.22238
#
# Poissons Ratio (x) = 0.23210 0.51838
# Poissons Ratio (y) = 0.22758 0.20052
# Poissons Ratio (z) = 0.38391 0.15146
#
# Static dielectric constant tensor:
#      x y z
#    x 2.875340 0.000000 0.000000 
#    y 0.000000 3.069640 0.000000 
#    z 0.000000 0.000000 3.170630 
# 
# 
# High freq. dielectric constant tensor:
#      x y z
#    x 1.557030 0.000000 0.000000 
#    y 0.000000 1.618090 0.000000 
#    z 0.000000 0.000000 1.586560 
# 
# From -- ./inp_files/20921.got.cif
#   From: 2010.03.12/outbox.cif.g09.slc.cpg/sg44_11_cif.got.tgz:20921.got - 2010.04.14 02:36:11.
