data_PCOD8188421
_publ_section_title
;
Structure prediction by ZEFSAII (Michael W. Deem and Ramdas Pophale) SiO2 
 PCOD8188421
Probable space group: I M M 2
;
_chemical_formula_sum "Si O2"
_cell_formula_units_Z 56
_cell_length_a 13.860020
_cell_length_b 9.280687
_cell_length_c 28.942930
_cell_angle_alpha 90.000000
_cell_angle_beta 90.000000
_cell_angle_gamma 90.000000
_cell_volume 3722.943773
_symmetry_space_group_name_H-M "I M M 2"
_symmetry_group_IT_number 44
_symmetry_cell_setting 'orthorhombic'
loop_
_space_group_symop_operation_xyz
x,y,z
-x,-y,z
-x,y,z
x,-y,z
1/2+x,1/2+y,1/2+z
1/2-x,1/2-y,1/2+z
1/2-x,1/2+y,1/2+z
1/2+x,1/2-y,1/2+z
loop_
_atom_site_type_symbol
_atom_site_label
_atom_site_fract_x
_atom_site_fract_y
_atom_site_fract_z
Si Si1 0.393989 0.670726 0.702860
Si Si2 0.112368 0.331305 0.378963
Si Si3 0.291486 0.829362 0.151116
Si Si4 0.110056 0.169570 0.569653
Si Si5 0.106348 0.670712 0.743297
Si Si6 0.792362 0.829614 0.295586
Si Si7 0.614246 0.658968 0.967049
O O1 0.500000 0.735904 0.691994
O O2 0.397346 0.500000 0.703646
O O3 0.317885 0.719146 0.663777
O O4 0.360641 0.721403 0.753609
O O5 0.131726 0.500000 0.377492
O O6 0.176934 0.254907 0.340821
O O7 0.148124 0.272984 0.428661
O O8 0.000000 0.294117 0.370639
O O9 0.320091 0.752027 0.104235
O O10 0.360363 0.775588 0.192745
O O11 0.299120 0.000000 0.144120
O O12 0.148060 0.208052 0.518101
O O13 0.000000 0.222487 0.576829
O O14 0.117124 0.000000 0.578467
O O15 0.103633 0.500000 0.741422
O O16 0.182513 0.716403 0.782813
O O17 0.000000 0.734364 0.754594
O O18 0.801155 0.000000 0.304605
O O19 0.500000 0.648345 0.968621
O O20 0.656105 0.500000 0.955024
#
# Coordination Sequence:
#
# PCOD8188421 Si02
#       7
#     8   8   8   8   8   8   8
#     4   8  14  25  40  59  83 109 139 171 196 227
#     4  10  19  28  39  59  86 109 129 162 206 242
#     4   9  16  25  41  63  82 106 139 169 199 233
#     4   9  17  28  41  59  84 110 133 161 199 240
#     4   8  14  25  40  60  85 108 134 169 200 229
#     4   9  16  26  43  62  78 106 143 168 193 234
#     4   8  15  28  43  57  76 105 137 163 192 239
#
# _framework density 15.04186
#
# number of rings (size 3 to 8) (size 9 to 14) (size 15 to 20)
#    0.000    3.286    0.000    3.857    0.000    2.857 
#    0.000    4.286    0.000    2.571    0.000    1.000 
#    0.000    1.143    0.000    0.000    0.000    0.000 
#
# Total GULP energy -347002.102632 kJ/mol
# GULP energy per Si atom -12392.932237 kJ/mol
# Density = 1.500762 g / cm^3
# Si number density = 15.041860 Si / 1000 Ang^3
#
#
#
# Elastic Constant Matrix: (Units=GPa)
#
#
# Indices 1 2 3 4 5 6 
#
# 1 107.6394 31.1767 61.0106 0.0000 0.0000 0.0000
# 2 31.1767 45.7430 50.4259 0.0000 0.0000 0.0000
# 3 61.0106 50.4259 129.7308 0.0000 0.0000 0.0000
# 4 0.0000 0.0000 0.0000 26.7759 0.0000 0.0000
# 5 0.0000 0.0000 0.0000 0.0000 23.4141 0.0000
# 6 0.0000 0.0000 0.0000 0.0000 0.0000 13.8799
#
#
#
# Elastic Compliance Matrix: (Units=1/GPa)
#
#
# Indices 1 2 3 4 5 6 
#
# 1 0.013018 -0.003716 -0.004678 0.000000 0.000000 0.000000
# 2 -0.003716 0.039312 -0.013533 0.000000 0.000000 0.000000
# 3 -0.004678 -0.013533 0.015168 0.000000 0.000000 0.000000
# 4 0.000000 0.000000 0.000000 0.037347 0.000000 0.000000
# 5 0.000000 0.000000 0.000000 0.000000 0.042709 0.000000
# 6 0.000000 0.000000 0.000000 0.000000 0.000000 0.072047
#
#
# Mechanical properties :
#
#
# Convention : Reuss Voigt Hill
#
# Bulk Modulus (GPa) = 42.29171 63.14884 52.72027
# Shear Modulus (GPa) = 18.42727 22.18065 20.30396
#
# Velocity S-wave (km/s) = 3.50389 3.84421 3.67799
# Velocity P-wave (km/s) = 6.67433 7.85984 7.29122
#
# Compressibility (1/GPa) = 0.02364530
#
# Stress axis : x y z
#
# Youngs Moduli (GPa) = 76.81700 25.43730 65.92641
#
# Poissons Ratio (x) = 0.09452 0.30839
# Poissons Ratio (y) = 0.28544 0.89219
# Poissons Ratio (z) = 0.35934 0.34424
#
# Static dielectric constant tensor:
#      x y z
#    x 3.116850 0.000000 0.000000 
#    y 0.000000 2.640740 0.000000 
#    z 0.000000 0.000000 2.931380 
# 
# 
# High freq. dielectric constant tensor:
#      x y z
#    x 1.553470 0.000000 0.000000 
#    y 0.000000 1.551190 0.000000 
#    z 0.000000 0.000000 1.572760 
# 
# From -- ./inp_files/27213.got.cif
#   From: 2010.03.12/outbox.cif.g09.slc.cpg/sg44_14_cif.got.tgz:27213.got - 2010.04.14 02:36:11.
