data_PCOD8188131
_publ_section_title
;
Structure prediction by ZEFSAII (Michael W. Deem and Ramdas Pophale) SiO2 
 PCOD8188131
Probable space group: I M M 2
;
_chemical_formula_sum "Si O2"
_cell_formula_units_Z 64
_cell_length_a 9.206742
_cell_length_b 19.837553
_cell_length_c 20.896905
_cell_angle_alpha 90.000000
_cell_angle_beta 90.000000
_cell_angle_gamma 90.000000
_cell_volume 3816.594688
_symmetry_space_group_name_H-M "I M M 2"
_symmetry_group_IT_number 44
_symmetry_cell_setting 'orthorhombic'
loop_
_space_group_symop_operation_xyz
x,y,z
-x,-y,z
-x,y,z
x,-y,z
1/2+x,1/2+y,1/2+z
1/2-x,1/2-y,1/2+z
1/2-x,1/2+y,1/2+z
1/2+x,1/2-y,1/2+z
loop_
_atom_site_type_symbol
_atom_site_label
_atom_site_fract_x
_atom_site_fract_y
_atom_site_fract_z
Si Si1 0.172258 0.210560 0.437580
Si Si2 0.327102 0.572973 0.989590
Si Si3 0.671908 0.202522 0.056317
Si Si4 0.327970 0.427164 0.742908
Si Si5 0.828067 0.785922 0.681999
Si Si6 0.330850 0.576250 0.597990
Si Si7 0.672219 0.426721 0.133551
Si Si8 0.671942 0.287605 0.795426
O O1 0.234996 0.134792 0.447841
O O2 0.231691 0.259897 0.492784
O O3 0.218337 0.235377 0.366834
O O4 0.000000 0.207518 0.442668
O O5 0.500000 0.575623 0.990320
O O6 0.276257 0.500000 0.961697
O O7 0.267635 0.581133 0.061683
O O8 0.500000 0.195039 0.054015
O O9 0.720481 0.243939 0.119351
O O10 0.741743 0.128442 0.054781
O O11 0.500000 0.430774 0.742069
O O12 0.268230 0.500000 0.768199
O O13 0.273808 0.415507 0.670520
O O14 0.275143 0.365234 0.786552
O O15 0.773174 0.863398 0.675206
O O16 0.751166 0.759598 0.745242
O O17 0.000000 0.781013 0.691286
O O18 0.500000 0.594122 0.592977
O O19 0.301680 0.500000 0.573727
O O20 0.500000 0.423842 0.130675
O O21 0.722429 0.500000 0.161878
O O22 0.500000 0.281784 0.784472
#
# Coordination Sequence:
#
# PCOD8188131 Si02
#       8
#     8   8   8   8   8   8   8   8
#     4   9  17  28  41  64  96 125 151 185 229 271
#     4   8  12  20  37  63  93 119 145 179 219 263
#     4  10  18  29  47  70  95 121 152 191 233 274
#     4   8  14  25  41  63  91 120 149 181 217 261
#     4  10  18  29  47  69  93 120 152 192 229 266
#     4   9  17  30  48  69  93 119 152 194 232 269
#     4   8  13  23  42  67  92 116 143 181 228 267
#     4  10  19  30  46  66  93 126 156 185 223 275
#
# _framework density 16.768875000000001
#
# number of rings (size 3 to 8) (size 9 to 14) (size 15 to 20)
#    0.000    3.000    2.500    1.500    0.000    0.750 
#    0.000    3.125    0.000    1.500    0.000    3.500 
#    0.000    1.500    0.000    0.000    0.000    0.000 
#
# Total GULP energy -396477.830610 kJ/mol
# GULP energy per Si atom -12389.932207 kJ/mol
# Density = 1.673071 g / cm^3
# Si number density = 16.768875 Si / 1000 Ang^3
#
#
#
# Elastic Constant Matrix: (Units=GPa)
#
#
# Indices 1 2 3 4 5 6 
#
# 1 16.6020 27.1060 22.5086 0.0000 0.0000 0.0000
# 2 27.1060 133.2095 69.4858 0.0000 0.0000 0.0000
# 3 22.5086 69.4858 112.8161 0.0000 0.0000 0.0000
# 4 0.0000 0.0000 0.0000 24.5081 0.0000 0.0000
# 5 0.0000 0.0000 0.0000 0.0000 17.4149 0.0000
# 6 0.0000 0.0000 0.0000 0.0000 0.0000 18.4225
#
#
#
# Elastic Compliance Matrix: (Units=1/GPa)
#
#
# Indices 1 2 3 4 5 6 
#
# 1 0.098313 -0.014400 -0.010746 0.000000 0.000000 0.000000
# 2 -0.014400 0.013170 -0.005238 0.000000 0.000000 0.000000
# 3 -0.010746 -0.005238 0.014234 0.000000 0.000000 0.000000
# 4 0.000000 0.000000 0.000000 0.040803 0.000000 0.000000
# 5 0.000000 0.000000 0.000000 0.000000 0.057422 0.000000
# 6 0.000000 0.000000 0.000000 0.000000 0.000000 0.054281
#
#
# Mechanical properties :
#
#
# Convention : Reuss Voigt Hill
#
# Bulk Modulus (GPa) = 15.39675 55.64758 35.52216
# Shear Modulus (GPa) = 13.86421 21.63760 17.75090
#
# Velocity S-wave (km/s) = 2.87850 3.59603 3.25709
# Velocity P-wave (km/s) = 4.49993 7.10627 5.94762
#
# Compressibility (1/GPa) = 0.06494878
#
# Stress axis : x y z
#
# Youngs Moduli (GPa) = 10.17161 75.93230 70.25219
#
# Poissons Ratio (x) = 1.09341 0.75492
# Poissons Ratio (y) = 0.14647 0.36801
# Poissons Ratio (z) = 0.10930 0.39777
#
# Static dielectric constant tensor:
#      x y z
#    x 2.604700 0.000000 0.000000 
#    y 0.000000 3.591930 0.000000 
#    z 0.000000 0.000000 3.076020 
# 
# 
# High freq. dielectric constant tensor:
#      x y z
#    x 1.588020 0.000000 0.000000 
#    y 0.000000 1.659650 0.000000 
#    z 0.000000 0.000000 1.624210 
# 
# From -- ./inp_files/20796.got.cif
#   From: 2010.03.12/outbox.cif.g09.slc.cpg/sg44_11_cif.got.tgz:20796.got - 2010.04.14 02:36:11.
