data_PCOD8188088
_publ_section_title
;
Structure prediction by ZEFSAII (Michael W. Deem and Ramdas Pophale) SiO2 
 PCOD8188088
Probable space group: I M M 2
;
_chemical_formula_sum "Si O2"
_cell_formula_units_Z 64
_cell_length_a 9.188724
_cell_length_b 20.854264
_cell_length_c 19.881814
_cell_angle_alpha 90.000000
_cell_angle_beta 90.000000
_cell_angle_gamma 90.000000
_cell_volume 3809.834239
_symmetry_space_group_name_H-M "I M M 2"
_symmetry_group_IT_number 44
_symmetry_cell_setting 'orthorhombic'
loop_
_space_group_symop_operation_xyz
x,y,z
-x,-y,z
-x,y,z
x,-y,z
1/2+x,1/2+y,1/2+z
1/2-x,1/2-y,1/2+z
1/2-x,1/2+y,1/2+z
1/2+x,1/2-y,1/2+z
loop_
_atom_site_type_symbol
_atom_site_label
_atom_site_fract_x
_atom_site_fract_y
_atom_site_fract_z
Si Si1 0.328171 0.375953 0.530100
Si Si2 0.673722 0.377360 0.384639
Si Si3 0.171928 0.734110 0.883731
Si Si4 0.172483 0.190140 0.660692
Si Si5 0.827831 0.684074 0.743700
Si Si6 0.170982 0.271243 0.032093
Si Si7 0.673070 0.570437 0.246619
Si Si8 0.328901 0.427528 0.668670
O O1 0.500000 0.380047 0.528652
O O2 0.270361 0.402787 0.457877
O O3 0.280590 0.302465 0.540126
O O4 0.268564 0.417314 0.592563
O O5 0.500000 0.376527 0.384111
O O6 0.735366 0.305518 0.374913
O O7 0.732270 0.420149 0.323009
O O8 0.225357 0.691231 0.821167
O O9 0.000000 0.740484 0.880704
O O10 0.215810 0.704936 0.956730
O O11 0.222204 0.253638 0.701198
O O12 0.241980 0.187679 0.586742
O O13 0.232572 0.126835 0.698780
O O14 0.000000 0.188192 0.653751
O O15 0.751843 0.620001 0.718547
O O16 0.000000 0.675331 0.738346
O O17 0.000000 0.280081 0.044805
O O18 0.500000 0.574274 0.247415
O O19 0.725280 0.500000 0.221536
O O20 0.500000 0.412896 0.671870
O O21 0.293803 0.500000 0.690756
#
# Coordination Sequence:
#
# PCOD8188088 Si02
#       8
#     8   8   8   8   8   8   8   8
#     4   8  14  24  40  63  91 120 148 180 217 262
#     4   8  12  21  38  62  91 119 148 180 217 261
#     4   8  14  26  45  68  90 114 148 193 232 261
#     4  10  18  28  45  70  96 120 150 190 230 267
#     4  10  18  30  49  69  91 120 156 195 232 271
#     4   9  16  28  48  69  90 118 153 188 226 272
#     4   9  16  25  39  63  95 125 150 181 225 272
#     4  10  20  32  45  66  97 126 153 188 230 276
#
# _framework density 16.798631
#
# number of rings (size 3 to 8) (size 9 to 14) (size 15 to 20)
#    0.000    3.000    2.500    1.500    0.000    0.750 
#    0.000    3.125    0.000    1.125    0.000    4.375 
#    0.000    0.000    0.000    0.000    0.000    0.000 
#
# Total GULP energy -396478.015601 kJ/mol
# GULP energy per Si atom -12389.937988 kJ/mol
# Density = 1.676040 g / cm^3
# Si number density = 16.798631 Si / 1000 Ang^3
#
#
#
# Elastic Constant Matrix: (Units=GPa)
#
#
# Indices 1 2 3 4 5 6 
#
# 1 16.0839 22.3782 25.9239 0.0000 0.0000 0.0000
# 2 22.3782 104.3886 69.5143 0.0000 0.0000 0.0000
# 3 25.9239 69.5143 140.9886 0.0000 0.0000 0.0000
# 4 0.0000 0.0000 0.0000 25.1222 0.0000 0.0000
# 5 0.0000 0.0000 0.0000 0.0000 22.3432 0.0000
# 6 0.0000 0.0000 0.0000 0.0000 0.0000 15.3596
#
#
#
# Elastic Compliance Matrix: (Units=1/GPa)
#
#
# Indices 1 2 3 4 5 6 
#
# 1 0.099963 -0.013682 -0.011635 0.000000 0.000000 0.000000
# 2 -0.013682 0.016135 -0.005440 0.000000 0.000000 0.000000
# 3 -0.011635 -0.005440 0.011914 0.000000 0.000000 0.000000
# 4 0.000000 0.000000 0.000000 0.039805 0.000000 0.000000
# 5 0.000000 0.000000 0.000000 0.000000 0.044756 0.000000
# 6 0.000000 0.000000 0.000000 0.000000 0.000000 0.065106
#
#
# Mechanical properties :
#
#
# Convention : Reuss Voigt Hill
#
# Bulk Modulus (GPa) = 15.03764 55.23266 35.13515
# Shear Modulus (GPa) = 13.83671 22.14133 17.98902
#
# Velocity S-wave (km/s) = 2.87310 3.63443 3.27595
# Velocity P-wave (km/s) = 4.46961 7.11075 5.93886
#
# Compressibility (1/GPa) = 0.06649981
#
# Stress axis : x y z
#
# Youngs Moduli (GPa) = 10.00374 61.97730 83.93446
#
# Poissons Ratio (x) = 0.84795 0.97654
# Poissons Ratio (y) = 0.13687 0.45657
# Poissons Ratio (z) = 0.11639 0.33713
#
# Static dielectric constant tensor:
#      x y z
#    x 2.603110 0.000000 0.000000 
#    y 0.000000 3.074540 0.000000 
#    z 0.000000 0.000000 3.679100 
# 
# 
# High freq. dielectric constant tensor:
#      x y z
#    x 1.588860 0.000000 0.000000 
#    y 0.000000 1.625080 0.000000 
#    z 0.000000 0.000000 1.661410 
# 
# From -- ./inp_files/21494.got.cif
#   From: 2010.03.12/outbox.cif.g09.slc.cpg/sg44_11_cif.got.tgz:21494.got - 2010.04.14 02:36:11.
