data_PCOD8188785
_publ_section_title
;
Structure prediction by ZEFSAII (Michael W. Deem and Ramdas Pophale) SiO2 
 PCOD8188785
Probable space group: I M M 2
;
_chemical_formula_sum "Si O2"
_cell_formula_units_Z 64
_cell_length_a 19.053672
_cell_length_b 20.947414
_cell_length_c 9.059158
_cell_angle_alpha 90.000000
_cell_angle_beta 90.000000
_cell_angle_gamma 90.000000
_cell_volume 3615.737846
_symmetry_space_group_name_H-M "I M M 2"
_symmetry_group_IT_number 44
_symmetry_cell_setting 'orthorhombic'
loop_
_space_group_symop_operation_xyz
x,y,z
-x,-y,z
-x,y,z
x,-y,z
1/2+x,1/2+y,1/2+z
1/2-x,1/2-y,1/2+z
1/2-x,1/2+y,1/2+z
1/2+x,1/2-y,1/2+z
loop_
_atom_site_type_symbol
_atom_site_label
_atom_site_fract_x
_atom_site_fract_y
_atom_site_fract_z
Si Si1 0.221710 0.304218 0.698900
Si Si2 0.578454 0.744007 0.498845
Si Si3 0.424128 0.236619 0.159090
Si Si4 0.174536 0.122287 0.017702
Si Si5 0.076906 0.930533 0.228052
Si Si6 0.080267 0.871235 0.526330
Si Si7 0.211248 0.316095 0.044712
Si Si8 0.706848 0.574906 0.194127
O O1 0.139792 0.313042 0.652012
O O2 0.257445 0.362381 0.614852
O O3 0.248145 0.235148 0.645083
O O4 0.234408 0.308525 0.874194
O O5 0.500000 0.747998 0.571517
O O6 0.569682 0.739448 0.325074
O O7 0.620273 0.680436 0.538327
O O8 0.626636 0.804128 0.553105
O O9 0.500000 0.206575 0.111385
O O10 0.405830 0.297216 0.057757
O O11 0.132572 0.065108 0.094740
O O12 0.200707 0.103943 0.857152
O O13 0.097769 0.879688 0.353533
O O14 0.000000 0.913951 0.162983
O O15 0.075944 0.000000 0.304374
O O16 0.131084 0.916484 0.620194
O O17 0.000000 0.890945 0.562655
O O18 0.232557 0.386231 0.105059
O O19 0.727274 0.500000 0.197194
#
# Coordination Sequence:
#
# PCOD8188785 Si02
#       8
#     8   8   8   8   8   8   8   8
#     4  10  19  32  56  77 106 137 170 224 280 324
#     4   9  17  31  54  79 104 129 165 221 277 326
#     4   9  16  30  52  77 102 128 162 206 264 323
#     4  11  21  33  51  75 105 142 180 222 269 317
#     4  10  21  35  48  70 107 145 181 219 259 310
#     4  10  19  33  51  72 104 138 176 218 261 319
#     4  10  19  35  53  80 105 137 178 221 278 329
#     4  12  23  36  52  73 107 150 193 224 260 324
#
# _framework density 17.700398
#
# number of rings (size 3 to 8) (size 9 to 14) (size 15 to 20)
#    0.000    1.875    2.500    3.375    0.000    1.250 
#    0.000    0.625    0.000    0.375    0.000    0.000 
#    0.000    3.500    0.000    0.000    0.000    0.000 
#
# Total GULP energy -396515.771497 kJ/mol
# GULP energy per Si atom -12391.117859 kJ/mol
# Density = 1.766011 g / cm^3
# Si number density = 17.700398 Si / 1000 Ang^3
#
#
#
# Elastic Constant Matrix: (Units=GPa)
#
#
# Indices 1 2 3 4 5 6 
#
# 1 117.7441 47.6751 51.5957 0.0000 0.0000 0.0000
# 2 47.6751 73.0834 40.7094 0.0000 0.0000 0.0000
# 3 51.5957 40.7094 99.0145 0.0000 0.0000 0.0000
# 4 0.0000 0.0000 0.0000 16.2248 0.0000 0.0000
# 5 0.0000 0.0000 0.0000 0.0000 22.9850 0.0000
# 6 0.0000 0.0000 0.0000 0.0000 0.0000 22.5097
#
#
#
# Elastic Compliance Matrix: (Units=1/GPa)
#
#
# Indices 1 2 3 4 5 6 
#
# 1 0.012750 -0.005988 -0.004182 0.000000 0.000000 0.000000
# 2 -0.005988 0.020560 -0.005333 0.000000 0.000000 0.000000
# 3 -0.004182 -0.005333 0.014471 0.000000 0.000000 0.000000
# 4 0.000000 0.000000 0.000000 0.061634 0.000000 0.000000
# 5 0.000000 0.000000 0.000000 0.000000 0.043507 0.000000
# 6 0.000000 0.000000 0.000000 0.000000 0.000000 0.044425
#
#
# Mechanical properties :
#
#
# Convention : Reuss Voigt Hill
#
# Bulk Modulus (GPa) = 59.61039 63.31138 61.46089
# Shear Modulus (GPa) = 21.37259 22.33468 21.85364
#
# Velocity S-wave (km/s) = 3.47863 3.55606 3.51756
# Velocity P-wave (km/s) = 7.06293 7.25994 7.16211
#
# Compressibility (1/GPa) = 0.01677560
#
# Stress axis : x y z
#
# Youngs Moduli (GPa) = 78.43076 48.63910 69.10208
#
# Poissons Ratio (x) = 0.29124 0.28899
# Poissons Ratio (y) = 0.46963 0.36851
# Poissons Ratio (z) = 0.32801 0.25938
#
# Static dielectric constant tensor:
#      x y z
#    x 3.709370 0.000000 0.000000 
#    y 0.000000 3.045870 0.000000 
#    z 0.000000 0.000000 3.269650 
# 
# 
# High freq. dielectric constant tensor:
#      x y z
#    x 1.690530 0.000000 0.000000 
#    y 0.000000 1.644920 0.000000 
#    z 0.000000 0.000000 1.689070 
# 
# From -- ./inp_files/9108.got.cif
#   From: 2010.03.12/outbox.cif.g09.slc.cpg/sg44_5_cif.got.tgz:9108.got - 2010.04.14 02:36:11.
