data_PCOD8188666
_publ_section_title
;
Structure prediction by ZEFSAII (Michael W. Deem and Ramdas Pophale) SiO2 
 PCOD8188666
Probable space group: I M M 2
;
_chemical_formula_sum "Si O2"
_cell_formula_units_Z 40
_cell_length_a 7.839885
_cell_length_b 9.016135
_cell_length_c 28.856124
_cell_angle_alpha 90.000000
_cell_angle_beta 90.000000
_cell_angle_gamma 90.000000
_cell_volume 2039.708443
_symmetry_space_group_name_H-M "I M M 2"
_symmetry_group_IT_number 44
_symmetry_cell_setting 'orthorhombic'
loop_
_space_group_symop_operation_xyz
x,y,z
-x,-y,z
-x,y,z
x,-y,z
1/2+x,1/2+y,1/2+z
1/2-x,1/2-y,1/2+z
1/2-x,1/2+y,1/2+z
1/2+x,1/2-y,1/2+z
loop_
_atom_site_type_symbol
_atom_site_label
_atom_site_fract_x
_atom_site_fract_y
_atom_site_fract_z
Si Si1 0.000000 0.823638 0.161240
Si Si2 0.690698 0.824445 0.813037
Si Si3 0.000000 0.323987 0.062379
Si Si4 0.689198 0.669764 0.998969
Si Si5 0.692393 0.326359 0.214416
Si Si6 0.193657 0.826944 0.911337
O O1 0.000000 0.766294 0.109283
O O2 0.828136 0.766109 0.185344
O O3 0.000000 0.000000 0.162365
O O4 0.500000 0.763425 0.806276
O O5 0.799555 0.776311 0.768269
O O6 0.767804 0.757980 0.860548
O O7 0.692611 0.000000 0.817193
O O8 0.168714 0.271651 0.034667
O O9 0.000000 0.500000 0.072369
O O10 0.500000 0.689727 0.020971
O O11 0.729683 0.500000 0.987660
O O12 0.689416 0.754620 0.950307
O O13 0.500000 0.294749 0.196475
O O14 0.738218 0.500000 0.209352
O O15 0.000000 0.792332 0.924503
O O16 0.234455 0.000000 0.910954
#
# Coordination Sequence:
#
# PCOD8188666 Si02
#       6
#     4   8   4   8   8   8
#     4  12  26  42  62  90 126 158 194 252 321 372
#     4   9  16  29  53  85 119 153 195 245 289 336
#     4  10  22  42  64  84 112 152 204 252 295 354
#     4  10  21  38  60  85 114 150 193 242 292 346
#     4  10  20  38  65  91 118 158 208 254 295 353
#     4  10  19  31  52  85 122 157 194 236 288 346
#
# _framework density 19.610645999999999
#
# number of rings (size 3 to 8) (size 9 to 14) (size 15 to 20)
#    0.000    2.000    2.000    2.100    0.000    5.600 
#    0.000    3.000    0.000    2.400    0.000    0.000 
#    0.000    0.000    0.000    0.000    0.000    0.000 
#
# Total GULP energy -247967.131347 kJ/mol
# GULP energy per Si atom -12398.356567 kJ/mol
# Density = 1.956601 g / cm^3
# Si number density = 19.610646 Si / 1000 Ang^3
#
#
#
# Elastic Constant Matrix: (Units=GPa)
#
#
# Indices 1 2 3 4 5 6 
#
# 1 136.0073 49.2660 74.5371 0.0000 0.0000 0.0000
# 2 49.2660 56.2444 47.4523 0.0000 0.0000 0.0000
# 3 74.5371 47.4523 141.0309 0.0000 0.0000 0.0000
# 4 0.0000 0.0000 0.0000 24.5792 0.0000 0.0000
# 5 0.0000 0.0000 0.0000 0.0000 28.9765 0.0000
# 6 0.0000 0.0000 0.0000 0.0000 0.0000 20.7431
#
#
#
# Elastic Compliance Matrix: (Units=1/GPa)
#
#
# Indices 1 2 3 4 5 6 
#
# 1 0.012182 -0.007315 -0.003977 0.000000 0.000000 0.000000
# 2 -0.007315 0.029220 -0.005965 0.000000 0.000000 0.000000
# 3 -0.003977 -0.005965 0.011200 0.000000 0.000000 0.000000
# 4 0.000000 0.000000 0.000000 0.040685 0.000000 0.000000
# 5 0.000000 0.000000 0.000000 0.000000 0.034511 0.000000
# 6 0.000000 0.000000 0.000000 0.000000 0.000000 0.048209
#
#
# Mechanical properties :
#
#
# Convention : Reuss Voigt Hill
#
# Bulk Modulus (GPa) = 55.28988 75.08814 65.18901
# Shear Modulus (GPa) = 23.08937 25.66156 24.37546
#
# Velocity S-wave (km/s) = 3.43503 3.62132 3.52940
# Velocity P-wave (km/s) = 6.63232 7.47381 7.06560
#
# Compressibility (1/GPa) = 0.01808649
#
# Stress axis : x y z
#
# Youngs Moduli (GPa) = 82.08933 34.22315 89.28786
#
# Poissons Ratio (x) = 0.25035 0.35510
# Poissons Ratio (y) = 0.60049 0.53264
# Poissons Ratio (z) = 0.32647 0.20416
#
# Static dielectric constant tensor:
#      x y z
#    x 3.818890 0.000000 0.000000 
#    y 0.000000 3.198290 0.000000 
#    z 0.000000 0.000000 3.635410 
# 
# 
# High freq. dielectric constant tensor:
#      x y z
#    x 1.781520 0.000000 0.000000 
#    y 0.000000 1.721770 0.000000 
#    z 0.000000 0.000000 1.766200 
# 
# From -- ./inp_files/25944.got.cif
#   From: 2010.03.12/outbox.cif.g09.slc.cpg/sg44_13_cif.got.tgz:25944.got - 2010.04.14 02:36:11.
