data_PCOD8188802
_publ_section_title
;
Structure prediction by ZEFSAII (Michael W. Deem and Ramdas Pophale) SiO2 
 PCOD8188802
Probable space group: I M M 2
;
_chemical_formula_sum "Si O2"
_cell_formula_units_Z 48
_cell_length_a 16.534634
_cell_length_b 9.109385
_cell_length_c 18.630595
_cell_angle_alpha 90.000000
_cell_angle_beta 90.000000
_cell_angle_gamma 90.000000
_cell_volume 2806.146683
_symmetry_space_group_name_H-M "I M M 2"
_symmetry_group_IT_number 44
_symmetry_cell_setting 'orthorhombic'
loop_
_space_group_symop_operation_xyz
x,y,z
-x,-y,z
-x,y,z
x,-y,z
1/2+x,1/2+y,1/2+z
1/2-x,1/2-y,1/2+z
1/2-x,1/2+y,1/2+z
1/2+x,1/2-y,1/2+z
loop_
_atom_site_type_symbol
_atom_site_label
_atom_site_fract_x
_atom_site_fract_y
_atom_site_fract_z
Si Si1 0.910883 0.672418 0.925610
Si Si2 0.741657 0.829642 0.509219
Si Si3 0.500000 0.672563 0.071806
Si Si4 0.000000 0.665492 0.424360
Si Si5 0.163199 0.829465 0.648010
Si Si6 0.301518 0.173851 0.294672
Si Si7 0.174516 0.669772 0.383290
O O1 0.922294 0.500000 0.921870
O O2 0.870100 0.726281 0.851272
O O3 0.000000 0.746058 0.935126
O O4 0.851948 0.713770 0.992463
O O5 0.763001 0.802237 0.592331
O O6 0.800339 0.732012 0.460791
O O7 0.756606 0.000000 0.488449
O O8 0.500000 0.500000 0.065543
O O9 0.420380 0.726218 0.113425
O O10 0.500000 0.728727 0.991582
O O11 0.078367 0.692169 0.374758
O O12 0.000000 0.500000 0.454857
O O13 0.176741 0.730500 0.716703
O O14 0.158707 0.000000 0.670163
O O15 0.216235 0.242276 0.318706
O O16 0.293054 0.000000 0.293263
O O17 0.199830 0.500000 0.378552
#
# Coordination Sequence:
#
# PCOD8188802 Si02
#       7
#     8   8   4   4   8   8   8
#     4   8  15  29  49  73  96 120 160 210 250 289
#     4   9  17  31  52  74  99 133 172 206 248 302
#     4  10  20  32  50  76 108 139 164 203 260 312
#     4  10  20  32  52  80 104 129 166 213 260 306
#     4  10  20  33  49  73 105 138 167 205 254 307
#     4  10  21  34  51  73 100 137 172 208 256 307
#     4  10  19  33  52  75 103 132 167 212 256 303
#
# _framework density 17.105308000000001
#
# number of rings (size 3 to 8) (size 9 to 14) (size 15 to 20)
#    0.000    2.500    1.667    2.000    1.167    2.000 
#    0.000    0.000    1.833    4.500    0.000    0.000 
#    0.000    0.000    0.000    0.000    0.000    0.000 
#
# Total GULP energy -297530.775756 kJ/mol
# GULP energy per Si atom -12397.115657 kJ/mol
# Density = 1.706638 g / cm^3
# Si number density = 17.105308 Si / 1000 Ang^3
#
#
#
# Elastic Constant Matrix: (Units=GPa)
#
#
# Indices 1 2 3 4 5 6 
#
# 1 149.3954 37.4945 62.0493 0.0000 0.0000 0.0000
# 2 37.4945 53.9188 32.4227 0.0000 0.0000 0.0000
# 3 62.0493 32.4227 92.9952 0.0000 0.0000 0.0000
# 4 0.0000 0.0000 0.0000 31.3017 0.0000 0.0000
# 5 0.0000 0.0000 0.0000 0.0000 19.9167 0.0000
# 6 0.0000 0.0000 0.0000 0.0000 0.0000 18.0469
#
#
#
# Elastic Compliance Matrix: (Units=1/GPa)
#
#
# Indices 1 2 3 4 5 6 
#
# 1 0.009795 -0.003646 -0.005265 0.000000 0.000000 0.000000
# 2 -0.003646 0.024823 -0.006222 0.000000 0.000000 0.000000
# 3 -0.005265 -0.006222 0.016435 0.000000 0.000000 0.000000
# 4 0.000000 0.000000 0.000000 0.031947 0.000000 0.000000
# 5 0.000000 0.000000 0.000000 0.000000 0.050209 0.000000
# 6 0.000000 0.000000 0.000000 0.000000 0.000000 0.055411
#
#
# Mechanical properties :
#
#
# Convention : Reuss Voigt Hill
#
# Bulk Modulus (GPa) = 48.10268 62.24915 55.17592
# Shear Modulus (GPa) = 22.14201 24.80925 23.47563
#
# Velocity S-wave (km/s) = 3.60175 3.81252 3.70863
# Velocity P-wave (km/s) = 6.74384 7.47336 7.11795
#
# Compressibility (1/GPa) = 0.02078886
#
# Stress axis : x y z
#
# Youngs Moduli (GPa) = 102.09069 40.28519 60.84491
#
# Poissons Ratio (x) = 0.14687 0.32032
# Poissons Ratio (y) = 0.37220 0.37857
# Poissons Ratio (z) = 0.53747 0.25065
#
# Static dielectric constant tensor:
#      x y z
#    x 3.711450 0.000000 0.000000 
#    y 0.000000 3.088340 0.000000 
#    z 0.000000 0.000000 3.023820 
# 
# 
# High freq. dielectric constant tensor:
#      x y z
#    x 1.667370 0.000000 0.000000 
#    y 0.000000 1.649900 0.000000 
#    z 0.000000 0.000000 1.640750 
# 
# From -- ./inp_files/18841.got.cif
#   From: 2010.03.12/outbox.cif.g09.slc.cpg/sg44_10_cif.got.tgz:18841.got - 2010.04.14 02:36:11.
