data_PCOD8188706
_publ_section_title
;
Structure prediction by ZEFSAII (Michael W. Deem and Ramdas Pophale) SiO2 
 PCOD8188706
Probable space group: I M M 2
;
_chemical_formula_sum "Si O2"
_cell_formula_units_Z 56
_cell_length_a 22.757581
_cell_length_b 15.981681
_cell_length_c 8.489201
_cell_angle_alpha 90.000000
_cell_angle_beta 90.000000
_cell_angle_gamma 90.000000
_cell_volume 3087.559755
_symmetry_space_group_name_H-M "I M M 2"
_symmetry_group_IT_number 44
_symmetry_cell_setting 'orthorhombic'
loop_
_space_group_symop_operation_xyz
x,y,z
-x,-y,z
-x,y,z
x,-y,z
1/2+x,1/2+y,1/2+z
1/2-x,1/2-y,1/2+z
1/2-x,1/2+y,1/2+z
1/2+x,1/2-y,1/2+z
loop_
_atom_site_type_symbol
_atom_site_label
_atom_site_fract_x
_atom_site_fract_y
_atom_site_fract_z
Si Si1 0.432613 0.276094 0.305070
Si Si2 0.668918 0.688264 0.880300
Si Si3 0.066841 0.405238 0.316009
Si Si4 0.788884 0.596826 0.874026
Si Si5 0.567399 0.596541 0.041283
Si Si6 0.867337 0.711923 0.089230
Si Si7 0.641090 0.164322 0.092363
O O1 0.500000 0.262106 0.346374
O O2 0.421679 0.363014 0.213175
O O3 0.396518 0.276583 0.467051
O O4 0.411893 0.198658 0.198627
O O5 0.721029 0.622045 0.884665
O O6 0.668621 0.731518 0.710525
O O7 0.607503 0.640104 0.909251
O O8 0.677323 0.759492 0.013362
O O9 0.072906 0.500000 0.254409
O O10 0.082685 0.342584 0.174977
O O11 0.111406 0.393930 0.461186
O O12 0.000000 0.386257 0.369494
O O13 0.794795 0.500000 0.917621
O O14 0.813635 0.611837 0.698222
O O15 0.823094 0.649515 0.003845
O O16 0.500000 0.609999 0.988021
O O17 0.584081 0.500000 0.056714
#
# Coordination Sequence:
#
# PCOD8188706 Si02
#       7
#     8   8   8   8   8   8   8
#     4   9  17  31  52  75 101 134 166 202 250 303
#     4  10  20  35  55  75 101 136 173 209 253 307
#     4  10  19  32  51  76 106 137 170 211 257 302
#     4  11  21  35  53  73 101 134 171 214 259 302
#     4   9  18  34  55  79 105 133 169 210 252 301
#     4  10  21  34  51  76 103 131 169 213 256 304
#     4   9  19  33  51  74 101 136 176 209 244 302
#
# _framework density 18.137301000000001
#
# number of rings (size 3 to 8) (size 9 to 14) (size 15 to 20)
#    0.000    2.286    0.000    3.000    0.000    4.000 
#    0.000    1.429    0.000    8.571    0.000    0.000 
#    0.000    0.000    0.000    0.000    0.000    0.000 
#
# Total GULP energy -347235.353630 kJ/mol
# GULP energy per Si atom -12401.262630 kJ/mol
# Density = 1.809602 g / cm^3
# Si number density = 18.137301 Si / 1000 Ang^3
#
#
#
# Elastic Constant Matrix: (Units=GPa)
#
#
# Indices 1 2 3 4 5 6 
#
# 1 101.0481 45.8129 45.1677 0.0000 0.0000 0.0000
# 2 45.8129 100.9584 41.1069 0.0000 0.0000 0.0000
# 3 45.1677 41.1069 101.4725 0.0000 0.0000 0.0000
# 4 0.0000 0.0000 0.0000 19.2549 0.0000 0.0000
# 5 0.0000 0.0000 0.0000 0.0000 22.1698 0.0000
# 6 0.0000 0.0000 0.0000 0.0000 0.0000 31.0847
#
#
#
# Elastic Compliance Matrix: (Units=1/GPa)
#
#
# Indices 1 2 3 4 5 6 
#
# 1 0.013896 -0.004535 -0.004348 0.000000 0.000000 0.000000
# 2 -0.004535 0.013342 -0.003386 0.000000 0.000000 0.000000
# 3 -0.004348 -0.003386 0.013162 0.000000 0.000000 0.000000
# 4 0.000000 0.000000 0.000000 0.051935 0.000000 0.000000
# 5 0.000000 0.000000 0.000000 0.000000 0.045106 0.000000
# 6 0.000000 0.000000 0.000000 0.000000 0.000000 0.032170
#
#
# Mechanical properties :
#
#
# Convention : Reuss Voigt Hill
#
# Bulk Modulus (GPa) = 63.04837 63.07269 63.06053
# Shear Modulus (GPa) = 25.07053 25.92798 25.49925
#
# Velocity S-wave (km/s) = 3.72191 3.78503 3.75360
# Velocity P-wave (km/s) = 7.30119 7.34524 7.32325
#
# Compressibility (1/GPa) = 0.01586084
#
# Stress axis : x y z
#
# Youngs Moduli (GPa) = 71.96255 74.95239 75.97591
#
# Poissons Ratio (x) = 0.33993 0.33036
# Poissons Ratio (y) = 0.32637 0.25726
# Poissons Ratio (z) = 0.31291 0.25379
#
# Static dielectric constant tensor:
#      x y z
#    x 3.301860 0.000000 0.000000 
#    y 0.000000 3.298820 0.000000 
#    z 0.000000 0.000000 3.376710 
# 
# 
# High freq. dielectric constant tensor:
#      x y z
#    x 1.705040 0.000000 0.000000 
#    y 0.000000 1.701130 0.000000 
#    z 0.000000 0.000000 1.700490 
# 
# From -- ./inp_files/8929.got.cif
#   From: 2010.03.12/outbox.cif.g09.slc.cpg/sg44_5_cif.got.tgz:8929.got - 2010.04.14 02:36:11.
