data_PCOD8188210
_publ_section_title
;
Structure prediction by ZEFSAII (Michael W. Deem and Ramdas Pophale) SiO2 
 PCOD8188210
Probable space group: I M M 2
;
_chemical_formula_sum "Si O2"
_cell_formula_units_Z 52
_cell_length_a 9.182250
_cell_length_b 12.043681
_cell_length_c 24.968482
_cell_angle_alpha 90.000000
_cell_angle_beta 90.000000
_cell_angle_gamma 90.000000
_cell_volume 2761.216731
_symmetry_space_group_name_H-M "I M M 2"
_symmetry_group_IT_number 44
_symmetry_cell_setting 'orthorhombic'
loop_
_space_group_symop_operation_xyz
x,y,z
-x,-y,z
-x,y,z
x,-y,z
1/2+x,1/2+y,1/2+z
1/2-x,1/2-y,1/2+z
1/2-x,1/2+y,1/2+z
1/2+x,1/2-y,1/2+z
loop_
_atom_site_type_symbol
_atom_site_label
_atom_site_fract_x
_atom_site_fract_y
_atom_site_fract_z
Si Si1 0.671804 0.779471 0.141140
Si Si2 0.828157 0.695502 0.343687
Si Si3 0.161710 0.000000 0.899359
Si Si4 0.255237 0.500000 0.514816
Si Si5 0.172399 0.123565 0.425918
Si Si6 0.337327 0.758712 0.024300
Si Si7 0.163839 0.000000 0.134608
Si Si8 0.830611 0.129064 0.740192
O O1 0.500000 0.805986 0.137708
O O2 0.732757 0.738342 0.083121
O O3 0.753099 0.892492 0.157623
O O4 0.707192 0.682746 0.183092
O O5 0.750952 0.605816 0.380702
O O6 0.791237 0.814249 0.370339
O O7 0.764177 0.693304 0.284118
O O8 0.000000 0.671458 0.342089
O O9 0.139815 0.000000 0.963343
O O10 0.000000 0.000000 0.873181
O O11 0.157025 0.610081 0.511619
O O12 0.345064 0.500000 0.569971
O O13 0.242747 0.189318 0.477022
O O14 0.000000 0.119230 0.432908
O O15 0.239563 0.000000 0.423409
O O16 0.500000 0.713073 0.026649
O O17 0.000000 0.000000 0.157218
O O18 0.000000 0.143908 0.754059
O O19 0.786252 0.000000 0.738759
#
# Coordination Sequence:
#
# PCOD8188210 Si02
#       8
#     8   8   4   4   8   8   4   8
#     4   9  19  35  56  81 110 145 183 225 274 325
#     4  11  22  36  56  82 110 143 181 224 272 327
#     4  12  22  33  54  83 112 143 177 224 280 328
#     4  10  18  30  50  80 109 146 179 222 277 328
#     4   9  18  32  51  79 113 142 175 221 269 320
#     4   9  16  28  51  81 110 140 179 225 269 319
#     4  10  20  35  54  81 114 147 185 226 270 324
#     4  10  21  38  58  81 110 141 178 227 277 328
#
# _framework density 18.832277999999999
#
# number of rings (size 3 to 8) (size 9 to 14) (size 15 to 20)
#    0.000    2.154    2.308    1.385    0.000    3.692 
#    1.385    3.077    0.000    1.385    0.000    0.000 
#    0.000    0.000    0.000    0.000    0.000    0.000 
#
# Total GULP energy -322265.677842 kJ/mol
# GULP energy per Si atom -12394.833763 kJ/mol
# Density = 1.878941 g / cm^3
# Si number density = 18.832278 Si / 1000 Ang^3
#
#
#
# Elastic Constant Matrix: (Units=GPa)
#
#
# Indices 1 2 3 4 5 6 
#
# 1 63.7741 33.3555 35.7888 0.0000 0.0000 0.0000
# 2 33.3555 141.9171 75.2141 0.0000 0.0000 0.0000
# 3 35.7888 75.2141 132.3709 0.0000 0.0000 0.0000
# 4 0.0000 0.0000 0.0000 33.1508 0.0000 0.0000
# 5 0.0000 0.0000 0.0000 0.0000 22.4898 0.0000
# 6 0.0000 0.0000 0.0000 0.0000 0.0000 14.8279
#
#
#
# Elastic Compliance Matrix: (Units=1/GPa)
#
#
# Indices 1 2 3 4 5 6 
#
# 1 0.019088 -0.002506 -0.003737 0.000000 0.000000 0.000000
# 2 -0.002506 0.010412 -0.005238 0.000000 0.000000 0.000000
# 3 -0.003737 -0.005238 0.011541 0.000000 0.000000 0.000000
# 4 0.000000 0.000000 0.000000 0.030165 0.000000 0.000000
# 5 0.000000 0.000000 0.000000 0.000000 0.044465 0.000000
# 6 0.000000 0.000000 0.000000 0.000000 0.000000 0.067440
#
#
# Mechanical properties :
#
#
# Convention : Reuss Voigt Hill
#
# Bulk Modulus (GPa) = 55.31400 69.64210 62.47805
# Shear Modulus (GPa) = 23.57378 27.00728 25.29053
#
# Velocity S-wave (km/s) = 3.54188 3.79105 3.66858
# Velocity P-wave (km/s) = 6.79428 7.49822 7.15491
#
# Compressibility (1/GPa) = 0.01807860
#
# Stress axis : x y z
#
# Youngs Moduli (GPa) = 52.38873 96.04630 86.64435
#
# Poissons Ratio (x) = 0.24067 0.32379
# Poissons Ratio (y) = 0.13128 0.45388
# Poissons Ratio (z) = 0.19578 0.50314
#
# Static dielectric constant tensor:
#      x y z
#    x 3.126040 0.000000 0.000000 
#    y 0.000000 3.694570 0.000000 
#    z 0.000000 0.000000 3.608030 
# 
# 
# High freq. dielectric constant tensor:
#      x y z
#    x 1.697040 0.000000 0.000000 
#    y 0.000000 1.726950 0.000000 
#    z 0.000000 0.000000 1.738500 
# 
# From -- ./inp_files/26108.got.cif
#   From: 2010.03.12/outbox.cif.g09.slc.cpg/sg44_14_cif.got.tgz:26108.got - 2010.04.14 02:36:11.
