data_PCOD8188271
_publ_section_title
;
Structure prediction by ZEFSAII (Michael W. Deem and Ramdas Pophale) SiO2 
 PCOD8188271
Probable space group: I M M 2
;
_chemical_formula_sum "Si O2"
_cell_formula_units_Z 56
_cell_length_a 8.923162
_cell_length_b 14.217651
_cell_length_c 23.040840
_cell_angle_alpha 90.000000
_cell_angle_beta 90.000000
_cell_angle_gamma 90.000000
_cell_volume 2923.108496
_symmetry_space_group_name_H-M "I M M 2"
_symmetry_group_IT_number 44
_symmetry_cell_setting 'orthorhombic'
loop_
_space_group_symop_operation_xyz
x,y,z
-x,-y,z
-x,y,z
x,-y,z
1/2+x,1/2+y,1/2+z
1/2-x,1/2-y,1/2+z
1/2-x,1/2+y,1/2+z
1/2+x,1/2-y,1/2+z
loop_
_atom_site_type_symbol
_atom_site_label
_atom_site_fract_x
_atom_site_fract_y
_atom_site_fract_z
Si Si1 0.822978 0.103414 0.807370
Si Si2 0.174578 0.107405 0.251079
Si Si3 0.824143 0.107431 0.938178
Si Si4 0.678122 0.274807 0.200837
Si Si5 0.177415 0.785049 0.477558
Si Si6 0.328155 0.890572 0.372584
Si Si7 0.178117 0.106254 0.590867
O O1 0.780594 0.136547 0.872203
O O2 0.761584 0.174627 0.759224
O O3 0.000000 0.096065 0.801394
O O4 0.754051 0.000000 0.795716
O O5 0.242866 0.172699 0.200156
O O6 0.259418 0.132428 0.310323
O O7 0.000000 0.127141 0.259988
O O8 0.204392 0.000000 0.232549
O O9 0.736263 0.177633 0.980933
O O10 0.000000 0.118948 0.948612
O O11 0.774999 0.000000 0.950882
O O12 0.500000 0.261918 0.199518
O O13 0.735268 0.335425 0.146356
O O14 0.238378 0.834538 0.420576
O O15 0.237688 0.841540 0.533423
O O16 0.000000 0.784587 0.475984
O O17 0.500000 0.856409 0.372090
O O18 0.314190 0.000000 0.387390
O O19 0.000000 0.102082 0.590994
O O20 0.243150 0.000000 0.592969
#
# Coordination Sequence:
#
# PCOD8188271 Si02
#       7
#     8   8   8   8   8   8   8
#     4   8  14  26  48  77 102 124 156 202 256 309
#     4  10  21  36  53  76 108 141 171 211 267 323
#     4   9  18  33  52  75 104 136 172 217 268 323
#     4  10  18  31  55  80 101 132 174 217 257 305
#     4  11  21  33  52  77 108 145 181 222 271 318
#     4  10  20  34  54  80 108 139 178 222 266 318
#     4   9  19  35  54  78 107 139 177 218 261 313
#
# _framework density 19.157688
#
# number of rings (size 3 to 8) (size 9 to 14) (size 15 to 20)
#    0.000    2.429    0.000    3.857    0.000    5.429 
#    0.000    2.143    0.000    8.571    0.000    0.000 
#    0.000    0.000    0.000    0.000    0.000    0.000 
#
# Total GULP energy -347183.943706 kJ/mol
# GULP energy per Si atom -12399.426561 kJ/mol
# Density = 1.911408 g / cm^3
# Si number density = 19.157688 Si / 1000 Ang^3
#
#
#
# Elastic Constant Matrix: (Units=GPa)
#
#
# Indices 1 2 3 4 5 6 
#
# 1 52.6939 44.4096 29.5629 0.0000 0.0000 0.0000
# 2 44.4096 142.3745 86.1735 0.0000 0.0000 0.0000
# 3 29.5629 86.1735 85.4714 0.0000 0.0000 0.0000
# 4 0.0000 0.0000 0.0000 33.6099 0.0000 0.0000
# 5 0.0000 0.0000 0.0000 0.0000 19.5926 0.0000
# 6 0.0000 0.0000 0.0000 0.0000 0.0000 30.8974
#
#
#
# Elastic Compliance Matrix: (Units=1/GPa)
#
#
# Indices 1 2 3 4 5 6 
#
# 1 0.025890 -0.006813 -0.002086 0.000000 0.000000 0.000000
# 2 -0.006813 0.019813 -0.017619 0.000000 0.000000 0.000000
# 3 -0.002086 -0.017619 0.030185 0.000000 0.000000 0.000000
# 4 0.000000 0.000000 0.000000 0.029753 0.000000 0.000000
# 5 0.000000 0.000000 0.000000 0.000000 0.051040 0.000000
# 6 0.000000 0.000000 0.000000 0.000000 0.000000 0.032365
#
#
# Mechanical properties :
#
#
# Convention : Reuss Voigt Hill
#
# Bulk Modulus (GPa) = 43.76013 66.75907 55.25960
# Shear Modulus (GPa) = 20.02403 24.84623 22.43513
#
# Velocity S-wave (km/s) = 3.23650 3.60520 3.42581
# Velocity P-wave (km/s) = 6.07110 7.22861 6.67499
#
# Compressibility (1/GPa) = 0.02285185
#
# Stress axis : x y z
#
# Youngs Moduli (GPa) = 38.62545 50.47125 33.12866
#
# Poissons Ratio (x) = 0.34387 0.06909
# Poissons Ratio (y) = 0.26317 0.58371
# Poissons Ratio (z) = 0.08055 0.88928
#
# Static dielectric constant tensor:
#      x y z
#    x 3.168530 0.000000 0.000000 
#    y 0.000000 3.861490 0.000000 
#    z 0.000000 0.000000 3.472370 
# 
# 
# High freq. dielectric constant tensor:
#      x y z
#    x 1.713900 0.000000 0.000000 
#    y 0.000000 1.765640 0.000000 
#    z 0.000000 0.000000 1.727610 
# 
# From -- ./inp_files/23031.got.cif
#   From: 2010.03.12/outbox.cif.g09.slc.cpg/sg44_12_cif.got.tgz:23031.got - 2010.04.14 02:36:11.
