data_PCOD8188018
_publ_section_title
;
Structure prediction by ZEFSAII (Michael W. Deem and Ramdas Pophale) SiO2 
 PCOD8188018
Probable space group: I M M 2
;
_chemical_formula_sum "Si O2"
_cell_formula_units_Z 64
_cell_length_a 9.486264
_cell_length_b 14.628566
_cell_length_c 28.571346
_cell_angle_alpha 90.000000
_cell_angle_beta 90.000000
_cell_angle_gamma 90.000000
_cell_volume 3964.858228
_symmetry_space_group_name_H-M "I M M 2"
_symmetry_group_IT_number 44
_symmetry_cell_setting 'orthorhombic'
loop_
_space_group_symop_operation_xyz
x,y,z
-x,-y,z
-x,y,z
x,-y,z
1/2+x,1/2+y,1/2+z
1/2-x,1/2-y,1/2+z
1/2-x,1/2+y,1/2+z
1/2+x,1/2-y,1/2+z
loop_
_atom_site_type_symbol
_atom_site_label
_atom_site_fract_x
_atom_site_fract_y
_atom_site_fract_z
Si Si1 0.662573 0.897855 0.408460
Si Si2 0.661748 0.894160 0.940719
Si Si3 0.832003 0.216743 0.587993
Si Si4 0.161159 0.894129 0.499088
Si Si5 0.667438 0.099570 0.046656
Si Si6 0.332254 0.396993 0.174030
Si Si7 0.332601 0.602624 0.277578
Si Si8 0.164495 0.213600 0.865085
O O1 0.500000 0.896707 0.423545
O O2 0.750907 0.867741 0.453489
O O3 0.690661 0.823356 0.367523
O O4 0.706128 0.000000 0.390931
O O5 0.500000 0.863347 0.934505
O O6 0.758783 0.834133 0.907839
O O7 0.679438 0.000000 0.927365
O O8 0.713950 0.876769 0.993776
O O9 0.777207 0.160185 0.543362
O O10 0.779130 0.321707 0.582243
O O11 0.768853 0.173276 0.635658
O O12 0.000000 0.211600 0.589488
O O13 0.000000 0.866316 0.488873
O O14 0.175224 0.000000 0.511542
O O15 0.500000 0.094650 0.047077
O O16 0.728383 0.000000 0.062003
O O17 0.500000 0.393144 0.173011
O O18 0.282574 0.500000 0.161887
O O19 0.276820 0.369279 0.225855
O O20 0.500000 0.603921 0.276655
O O21 0.280230 0.500000 0.290197
O O22 0.274914 0.674646 0.315929
O O23 0.000000 0.190065 0.869516
#
# Coordination Sequence:
#
# PCOD8188018 Si02
#       8
#     8   8   8   8   8   8   8   8
#     4   9  18  30  40  53  78 110 138 163 195 234
#     4   9  17  28  41  59  84 110 132 157 195 240
#     4   9  14  20  34  54  75  98 123 154 190 226
#     4   9  16  25  39  60  81  99 125 162 197 228
#     4   8  14  23  33  47  71 103 132 153 179 221
#     4   8  13  21  33  51  75  97 116 147 195 240
#     4   8  14  24  37  54  75  95 118 155 200 237
#     4  10  18  27  42  60  77 103 138 169 195 229
#
# _framework density 16.141812999999999
#
# number of rings (size 3 to 8) (size 9 to 14) (size 15 to 20)
#    0.000    3.250    0.000    3.000    0.000    3.750 
#    0.000    0.000    0.000    0.750    0.000    6.125 
#    0.000    3.000    0.000    0.000    0.000    1.750 
#
# Total GULP energy -396531.538377 kJ/mol
# GULP energy per Si atom -12391.610574 kJ/mol
# Density = 1.610507 g / cm^3
# Si number density = 16.141813 Si / 1000 Ang^3
#
#
#
# Elastic Constant Matrix: (Units=GPa)
#
#
# Indices 1 2 3 4 5 6 
#
# 1 17.2413 18.9387 16.9040 0.0000 0.0000 0.0000
# 2 18.9387 123.9550 93.1138 0.0000 0.0000 0.0000
# 3 16.9040 93.1138 118.4028 0.0000 0.0000 0.0000
# 4 0.0000 0.0000 0.0000 30.6600 0.0000 0.0000
# 5 0.0000 0.0000 0.0000 0.0000 12.2886 0.0000
# 6 0.0000 0.0000 0.0000 0.0000 0.0000 12.3603
#
#
#
# Elastic Compliance Matrix: (Units=1/GPa)
#
#
# Indices 1 2 3 4 5 6 
#
# 1 0.070424 -0.007837 -0.003891 0.000000 0.000000 0.000000
# 2 -0.007837 0.020585 -0.015069 0.000000 0.000000 0.000000
# 3 -0.003891 -0.015069 0.020852 0.000000 0.000000 0.000000
# 4 0.000000 0.000000 0.000000 0.032616 0.000000 0.000000
# 5 0.000000 0.000000 0.000000 0.000000 0.081376 0.000000
# 6 0.000000 0.000000 0.000000 0.000000 0.000000 0.080904
#
#
# Mechanical properties :
#
#
# Convention : Reuss Voigt Hill
#
# Bulk Modulus (GPa) = 17.16270 57.50132 37.33201
# Shear Modulus (GPa) = 13.16574 19.77128 16.46851
#
# Velocity S-wave (km/s) = 2.85902 3.50358 3.19758
# Velocity P-wave (km/s) = 4.64265 7.21573 6.06716
#
# Compressibility (1/GPa) = 0.05826588
#
# Stress axis : x y z
#
# Youngs Moduli (GPa) = 14.19976 48.57977 47.95696
#
# Poissons Ratio (x) = 0.38071 0.18661
# Poissons Ratio (y) = 0.11128 0.72268
# Poissons Ratio (z) = 0.05526 0.73206
#
# Static dielectric constant tensor:
#      x y z
#    x 2.596510 0.000000 0.000000 
#    y 0.000000 3.413620 0.000000 
#    z 0.000000 0.000000 3.214690 
# 
# 
# High freq. dielectric constant tensor:
#      x y z
#    x 1.564500 0.000000 0.000000 
#    y 0.000000 1.629620 0.000000 
#    z 0.000000 0.000000 1.605570 
# 
# From -- ./inp_files/27270.got.cif
#   From: 2010.03.12/outbox.cif.g09.slc.cpg/sg44_14_cif.got.tgz:27270.got - 2010.04.14 02:36:11.
