data_PCOD8188858
_publ_section_title
;
Structure prediction by ZEFSAII (Michael W. Deem and Ramdas Pophale) SiO2 
 PCOD8188858
Probable space group: I M M 2
;
_chemical_formula_sum "Si O2"
_cell_formula_units_Z 48
_cell_length_a 8.886217
_cell_length_b 16.326037
_cell_length_c 18.307055
_cell_angle_alpha 90.000000
_cell_angle_beta 90.000000
_cell_angle_gamma 90.000000
_cell_volume 2655.927264
_symmetry_space_group_name_H-M "I M M 2"
_symmetry_group_IT_number 44
_symmetry_cell_setting 'orthorhombic'
loop_
_space_group_symop_operation_xyz
x,y,z
-x,-y,z
-x,y,z
x,-y,z
1/2+x,1/2+y,1/2+z
1/2-x,1/2-y,1/2+z
1/2-x,1/2+y,1/2+z
1/2+x,1/2-y,1/2+z
loop_
_atom_site_type_symbol
_atom_site_label
_atom_site_fract_x
_atom_site_fract_y
_atom_site_fract_z
Si Si1 0.677302 0.500000 0.687741
Si Si2 0.324634 0.166217 0.425804
Si Si3 0.675483 0.753644 0.801337
Si Si4 0.826961 0.407508 0.209944
Si Si5 0.674308 0.678603 0.079746
Si Si6 0.674380 0.000000 0.343631
Si Si7 0.325070 0.163053 0.170364
O O1 0.500000 0.500000 0.680281
O O2 0.723996 0.500000 0.772171
O O3 0.743319 0.579552 0.646633
O O4 0.500000 0.185672 0.422617
O O5 0.238042 0.238520 0.382584
O O6 0.272701 0.164548 0.508818
O O7 0.284582 0.078643 0.391710
O O8 0.500000 0.733258 0.798398
O O9 0.708691 0.847502 0.777948
O O10 0.760066 0.691702 0.747721
O O11 0.792364 0.500000 0.235604
O O12 0.723287 0.386238 0.141095
O O13 0.000000 0.397109 0.185346
O O14 0.500000 0.664484 0.061756
O O15 0.705366 0.770348 0.107983
O O16 0.500000 0.000000 0.320051
O O17 0.500000 0.146049 0.182290
#
# Coordination Sequence:
#
# PCOD8188858 Si02
#       7
#     4   8   8   8   8   4   8
#     4  12  22  32  56  86 110 137 178 229 264 310
#     4  11  22  36  55  78 111 148 179 216 269 326
#     4  10  19  33  55  81 107 138 183 226 264 317
#     4   9  19  36  57  80 108 142 179 219 268 322
#     4  10  22  37  55  80 110 143 180 222 268 319
#     4  10  22  36  52  78 112 147 176 211 266 328
#     4  10  20  36  55  77 109 145 179 218 272 325
#
# _framework density 18.072783999999999
#
# number of rings (size 3 to 8) (size 9 to 14) (size 15 to 20)
#    0.000    1.833    1.667    2.750    1.167    3.667 
#    0.000    0.000    1.833    0.000    0.000    0.000 
#    0.000    0.000    0.000    0.000    0.000    0.000 
#
# Total GULP energy -297689.259290 kJ/mol
# GULP energy per Si atom -12403.719137 kJ/mol
# Density = 1.803165 g / cm^3
# Si number density = 18.072784 Si / 1000 Ang^3
#
#
#
# Elastic Constant Matrix: (Units=GPa)
#
#
# Indices 1 2 3 4 5 6 
#
# 1 97.6455 49.1468 29.7581 0.0000 0.0000 0.0000
# 2 49.1468 126.7883 31.8433 0.0000 0.0000 0.0000
# 3 29.7581 31.8433 67.7200 0.0000 0.0000 0.0000
# 4 0.0000 0.0000 0.0000 19.1269 0.0000 0.0000
# 5 0.0000 0.0000 0.0000 0.0000 32.7035 0.0000
# 6 0.0000 0.0000 0.0000 0.0000 0.0000 28.5706
#
#
#
# Elastic Compliance Matrix: (Units=1/GPa)
#
#
# Indices 1 2 3 4 5 6 
#
# 1 0.013602 -0.004276 -0.003966 0.000000 0.000000 0.000000
# 2 -0.004276 0.010288 -0.002958 0.000000 0.000000 0.000000
# 3 -0.003966 -0.002958 0.017901 0.000000 0.000000 0.000000
# 4 0.000000 0.000000 0.000000 0.052282 0.000000 0.000000
# 5 0.000000 0.000000 0.000000 0.000000 0.030578 0.000000
# 6 0.000000 0.000000 0.000000 0.000000 0.000000 0.035001
#
#
# Mechanical properties :
#
#
# Convention : Reuss Voigt Hill
#
# Bulk Modulus (GPa) = 51.57700 57.07225 54.32463
# Shear Modulus (GPa) = 26.52275 28.17390 27.34832
#
# Velocity S-wave (km/s) = 3.83502 3.95259 3.89425
# Velocity P-wave (km/s) = 6.94336 7.24419 7.09537
#
# Compressibility (1/GPa) = 0.01938849
#
# Stress axis : x y z
#
# Youngs Moduli (GPa) = 73.51678 97.20198 55.86376
#
# Poissons Ratio (x) = 0.41568 0.22158
# Poissons Ratio (y) = 0.31439 0.16526
# Poissons Ratio (z) = 0.29159 0.28756
#
# Static dielectric constant tensor:
#      x y z
#    x 3.422480 0.000000 0.000000 
#    y 0.000000 3.623240 0.000000 
#    z 0.000000 0.000000 3.129230 
# 
# 
# High freq. dielectric constant tensor:
#      x y z
#    x 1.713480 0.000000 0.000000 
#    y 0.000000 1.706150 0.000000 
#    z 0.000000 0.000000 1.677050 
# 
# From -- ./inp_files/16203.got.cif
#   From: 2010.03.12/outbox.cif.g09.slc.cpg/sg44_9_cif.got.tgz:16203.got - 2010.04.14 02:36:11.
