data_PCOD8188854
_publ_section_title
;
Structure prediction by ZEFSAII (Michael W. Deem and Ramdas Pophale) SiO2 
 PCOD8188854
Probable space group: I M M 2
;
_chemical_formula_sum "Si O2"
_cell_formula_units_Z 56
_cell_length_a 14.144249
_cell_length_b 9.050598
_cell_length_c 23.149479
_cell_angle_alpha 90.000000
_cell_angle_beta 90.000000
_cell_angle_gamma 90.000000
_cell_volume 2963.455361
_symmetry_space_group_name_H-M "I M M 2"
_symmetry_group_IT_number 44
_symmetry_cell_setting 'orthorhombic'
loop_
_space_group_symop_operation_xyz
x,y,z
-x,-y,z
-x,y,z
x,-y,z
1/2+x,1/2+y,1/2+z
1/2-x,1/2-y,1/2+z
1/2-x,1/2+y,1/2+z
1/2+x,1/2-y,1/2+z
loop_
_atom_site_type_symbol
_atom_site_label
_atom_site_fract_x
_atom_site_fract_y
_atom_site_fract_z
Si Si1 0.110386 0.168118 0.479330
Si Si2 0.792539 0.174784 0.595261
Si Si3 0.394597 0.828823 0.864334
Si Si4 0.891115 0.674982 0.702648
Si Si5 0.397045 0.174583 0.542086
Si Si6 0.705268 0.328287 0.309556
Si Si7 0.888956 0.332407 0.912788
O O1 0.159099 0.231707 0.536559
O O2 0.144032 0.251920 0.422220
O O3 0.000000 0.187013 0.488855
O O4 0.141673 0.000000 0.470577
O O5 0.837935 0.260630 0.647759
O O6 0.681464 0.218252 0.589673
O O7 0.807346 0.000000 0.604654
O O8 0.500000 0.770359 0.846581
O O9 0.319009 0.799679 0.813159
O O10 0.400044 0.000000 0.879132
O O11 0.884958 0.500000 0.701031
O O12 0.838345 0.730889 0.759245
O O13 0.000000 0.728357 0.703100
O O14 0.500000 0.242214 0.559334
O O15 0.366332 0.224826 0.477686
O O16 0.406605 0.000000 0.538875
O O17 0.683714 0.500000 0.297559
O O18 0.660291 0.281849 0.370060
O O19 0.851321 0.500000 0.902916
O O20 0.000000 0.328748 0.900974
#
# Coordination Sequence:
#
# PCOD8188854 Si02
#       7
#     8   8   8   8   8   8   8
#     4   9  17  29  49  79 109 136 170 212 257 303
#     4  10  19  33  55  79 104 137 175 215 255 295
#     4   9  19  35  53  76 107 139 171 208 252 304
#     4  11  25  42  57  74  99 133 171 211 258 312
#     4   8  15  29  51  80 110 139 172 207 247 301
#     4  11  22  35  54  78 103 135 174 216 259 300
#     4   9  17  31  53  80 110 142 172 205 250 305
#
# _framework density 18.896861000000001
#
# number of rings (size 3 to 8) (size 9 to 14) (size 15 to 20)
#    0.000    2.429    0.000    3.429    0.000    6.571 
#    0.000    2.857    0.000    5.571    0.000    0.000 
#    0.000    0.000    0.000    0.000    0.000    0.000 
#
# Total GULP energy -347101.377012 kJ/mol
# GULP energy per Si atom -12396.477750 kJ/mol
# Density = 1.885385 g / cm^3
# Si number density = 18.896861 Si / 1000 Ang^3
#
#
#
# Elastic Constant Matrix: (Units=GPa)
#
#
# Indices 1 2 3 4 5 6 
#
# 1 104.7821 38.3009 85.1717 0.0000 0.0000 0.0000
# 2 38.3009 45.7403 36.4885 0.0000 0.0000 0.0000
# 3 85.1717 36.4885 103.1197 0.0000 0.0000 0.0000
# 4 0.0000 0.0000 0.0000 -43.8397 0.0000 0.0000
# 5 0.0000 0.0000 0.0000 0.0000 29.7781 0.0000
# 6 0.0000 0.0000 0.0000 0.0000 0.0000 21.3701
#
#
#
# Elastic Compliance Matrix: (Units=1/GPa)
#
#
# Indices 1 2 3 4 5 6 
#
# 1 0.030860 -0.007674 -0.022773 0.000000 0.000000 0.000000
# 2 -0.007674 0.032369 -0.005116 0.000000 0.000000 0.000000
# 3 -0.022773 -0.005116 0.030317 0.000000 0.000000 0.000000
# 4 0.000000 0.000000 0.000000 -0.022810 0.000000 0.000000
# 5 0.000000 0.000000 0.000000 0.000000 0.033582 0.000000
# 6 0.000000 0.000000 0.000000 0.000000 0.000000 0.046794
#
#
# Mechanical properties :
#
#
# Convention : Reuss Voigt Hill
#
# Bulk Modulus (GPa) = 44.60134 63.72937 54.16536
# Shear Modulus (GPa) = 21.76656 7.70710 14.73683
#
# Velocity S-wave (km/s) = 3.39759 2.02172 2.79562
# Velocity P-wave (km/s) = 6.24862 6.26481 6.25672
#
# Compressibility (1/GPa) = 0.02242085
#
# Stress axis : x y z
#
# Youngs Moduli (GPa) = 32.40474 30.89378 32.98457
#
# Poissons Ratio (x) = 0.23707 0.75117
# Poissons Ratio (y) = 0.24866 0.16874
# Poissons Ratio (z) = 0.73796 0.15804
#
# Static dielectric constant tensor:
#      x y z
#    x 4.024810 0.000000 0.000000 
#    y 0.000000 3.300980 0.000000 
#    z 0.000000 0.000000 3.411970 
# 
# 
# High freq. dielectric constant tensor:
#      x y z
#    x 1.755410 0.000000 0.000000 
#    y 0.000000 1.711410 0.000000 
#    z 0.000000 0.000000 1.717350 
# 
# From -- ./inp_files/23041.got.cif
#   From: 2010.03.12/outbox.cif.g09.slc.cpg/sg44_12_cif.got.tgz:23041.got - 2010.04.14 02:36:11.
