data_PCOD8188813
_publ_section_title
;
Structure prediction by ZEFSAII (Michael W. Deem and Ramdas Pophale) SiO2 
 PCOD8188813
Probable space group: I M M 2
;
_chemical_formula_sum "Si O2"
_cell_formula_units_Z 64
_cell_length_a 33.804468
_cell_length_b 9.040126
_cell_length_c 11.675312
_cell_angle_alpha 90.000000
_cell_angle_beta 90.000000
_cell_angle_gamma 90.000000
_cell_volume 3567.936236
_symmetry_space_group_name_H-M "I M M 2"
_symmetry_group_IT_number 44
_symmetry_cell_setting 'orthorhombic'
loop_
_space_group_symop_operation_xyz
x,y,z
-x,-y,z
-x,y,z
x,-y,z
1/2+x,1/2+y,1/2+z
1/2-x,1/2-y,1/2+z
1/2-x,1/2+y,1/2+z
1/2+x,1/2-y,1/2+z
loop_
_atom_site_type_symbol
_atom_site_label
_atom_site_fract_x
_atom_site_fract_y
_atom_site_fract_z
Si Si1 0.375836 0.827104 0.764950
Si Si2 0.457145 0.675605 0.064928
Si Si3 0.329900 0.332546 0.970232
Si Si4 0.175498 0.672546 0.829444
Si Si5 0.044843 0.824911 0.305525
Si Si6 0.190554 0.671917 0.083754
Si Si7 0.884199 0.834645 0.691640
Si Si8 0.230478 0.674479 0.619862
O O1 0.352851 0.750295 0.869346
O O2 0.419521 0.758551 0.739667
O O3 0.350272 0.800533 0.650577
O O4 0.380271 0.000000 0.793070
O O5 0.500000 0.724067 0.110633
O O6 0.452448 0.500000 0.060924
O O7 0.450960 0.731887 0.935865
O O8 0.425366 0.741907 0.153139
O O9 0.319591 0.500000 0.930756
O O10 0.357243 0.335035 0.080224
O O11 0.289487 0.249233 0.007449
O O12 0.168977 0.500000 0.833429
O O13 0.186661 0.731883 0.954363
O O14 0.133516 0.741196 0.794842
O O15 0.208316 0.719345 0.736965
O O16 0.000000 0.785436 0.261122
O O17 0.051570 0.000000 0.294694
O O18 0.202614 0.500000 0.087126
O O19 0.225424 0.766738 0.140324
O O20 0.890590 0.000000 0.737931
O O21 0.230122 0.500000 0.599924
#
# Coordination Sequence:
#
# PCOD8188813 Si02
#       8
#     8   8   8   8   8   8   8   8
#     4  11  22  34  52  80 112 143 182 226 266 314
#     4   8  13  24  45  74 105 133 162 199 250 312
#     4  10  19  33  53  76 106 141 174 209 262 321
#     4   9  20  38  54  70  98 135 173 210 259 311
#     4   9  17  32  54  78 108 145 180 217 270 332
#     4  10  23  40  54  73 104 143 178 217 266 318
#     4   9  16  29  51  76  99 131 169 207 252 304
#     4  10  21  36  56  81 102 129 173 224 269 314
#
# _framework density 17.937539999999998
#
# number of rings (size 3 to 8) (size 9 to 14) (size 15 to 20)
#    0.000    2.500    1.250    1.875    1.750    2.750 
#    0.000    0.000    0.000    1.125    0.000    3.500 
#    0.000    0.000    0.000    0.000    0.000    0.000 
#
# Total GULP energy -396652.104656 kJ/mol
# GULP energy per Si atom -12395.378271 kJ/mol
# Density = 1.789671 g / cm^3
# Si number density = 17.937540 Si / 1000 Ang^3
#
#
#
# Elastic Constant Matrix: (Units=GPa)
#
#
# Indices 1 2 3 4 5 6 
#
# 1 141.2274 50.8302 42.5208 0.0000 0.0000 0.0000
# 2 50.8302 65.5157 37.9235 0.0000 0.0000 0.0000
# 3 42.5208 37.9235 69.2358 0.0000 0.0000 0.0000
# 4 0.0000 0.0000 0.0000 20.7060 0.0000 0.0000
# 5 0.0000 0.0000 0.0000 0.0000 23.3002 0.0000
# 6 0.0000 0.0000 0.0000 0.0000 0.0000 29.5278
#
#
#
# Elastic Compliance Matrix: (Units=1/GPa)
#
#
# Indices 1 2 3 4 5 6 
#
# 1 0.010187 -0.006270 -0.002822 0.000000 0.000000 0.000000
# 2 -0.006270 0.026209 -0.010505 0.000000 0.000000 0.000000
# 3 -0.002822 -0.010505 0.021930 0.000000 0.000000 0.000000
# 4 0.000000 0.000000 0.000000 0.048295 0.000000 0.000000
# 5 0.000000 0.000000 0.000000 0.000000 0.042918 0.000000
# 6 0.000000 0.000000 0.000000 0.000000 0.000000 0.033866
#
#
# Mechanical properties :
#
#
# Convention : Reuss Voigt Hill
#
# Bulk Modulus (GPa) = 52.26733 59.83642 56.05187
# Shear Modulus (GPa) = 21.83615 24.35377 23.09496
#
# Velocity S-wave (km/s) = 3.49283 3.68869 3.59210
# Velocity P-wave (km/s) = 6.74302 7.18140 6.96566
#
# Compressibility (1/GPa) = 0.01913241
#
# Stress axis : x y z
#
# Youngs Moduli (GPa) = 98.16270 38.15478 45.59864
#
# Poissons Ratio (x) = 0.23924 0.12868
# Poissons Ratio (y) = 0.61550 0.47901
# Poissons Ratio (z) = 0.27701 0.40082
#
# Static dielectric constant tensor:
#      x y z
#    x 3.606310 0.000000 0.000000 
#    y 0.000000 3.259770 0.000000 
#    z 0.000000 0.000000 3.253520 
# 
# 
# High freq. dielectric constant tensor:
#      x y z
#    x 1.702800 0.000000 0.000000 
#    y 0.000000 1.683350 0.000000 
#    z 0.000000 0.000000 1.665580 
# 
# From -- ./inp_files/15116.got.cif
#   From: 2010.03.12/outbox.cif.g09.slc.cpg/sg44_8_cif.got.tgz:15116.got - 2010.04.14 02:36:11.
