data_PCOD8188303
_publ_section_title
;
Structure prediction by ZEFSAII (Michael W. Deem and Ramdas Pophale) SiO2 
 PCOD8188303
Probable space group: I M M 2
;
_chemical_formula_sum "Si O2"
_cell_formula_units_Z 64
_cell_length_a 8.983142
_cell_length_b 19.718847
_cell_length_c 20.767062
_cell_angle_alpha 90.000000
_cell_angle_beta 90.000000
_cell_angle_gamma 90.000000
_cell_volume 3678.619271
_symmetry_space_group_name_H-M "I M M 2"
_symmetry_group_IT_number 44
_symmetry_cell_setting 'orthorhombic'
loop_
_space_group_symop_operation_xyz
x,y,z
-x,-y,z
-x,y,z
x,-y,z
1/2+x,1/2+y,1/2+z
1/2-x,1/2-y,1/2+z
1/2-x,1/2+y,1/2+z
1/2+x,1/2-y,1/2+z
loop_
_atom_site_type_symbol
_atom_site_label
_atom_site_fract_x
_atom_site_fract_y
_atom_site_fract_z
Si Si1 0.170559 0.924813 0.193150
Si Si2 0.324714 0.925429 0.060740
Si Si3 0.176643 0.073877 0.815878
Si Si4 0.173605 0.213595 0.250908
Si Si5 0.824207 0.783643 0.629566
Si Si6 0.323924 0.426841 0.171241
Si Si7 0.174716 0.710106 0.498850
Si Si8 0.176644 0.214066 0.868895
O O1 0.264689 0.906130 0.130569
O O2 0.199915 0.867802 0.247168
O O3 0.000000 0.923243 0.170981
O O4 0.213180 0.000000 0.219915
O O5 0.500000 0.924594 0.067929
O O6 0.267143 0.000000 0.038344
O O7 0.275596 0.868223 0.009861
O O8 0.238123 0.084254 0.743513
O O9 0.234822 0.136582 0.858594
O O10 0.000000 0.075424 0.814880
O O11 0.231569 0.000000 0.842523
O O12 0.236296 0.247389 0.186480
O O13 0.260187 0.238035 0.313546
O O14 0.000000 0.231604 0.257376
O O15 0.775740 0.863132 0.627524
O O16 0.777519 0.753225 0.561075
O O17 0.000000 0.774693 0.642659
O O18 0.500000 0.429911 0.174976
O O19 0.264804 0.500000 0.144185
O O20 0.262521 0.739090 0.437601
O O21 0.000000 0.716856 0.485614
O O22 0.000000 0.219298 0.867452
#
# Coordination Sequence:
#
# PCOD8188303 Si02
#       8
#     8   8   8   8   8   8   8   8
#     4   9  18  32  51  76 103 130 164 208 254 301
#     4   9  17  30  49  73 103 138 170 202 247 304
#     4   8  14  26  46  72  98 125 163 208 244 283
#     4  11  21  33  53  78 104 131 165 213 260 299
#     4  10  18  32  54  77 101 133 169 206 250 302
#     4   8  13  24  47  76 100 122 158 207 249 289
#     4  10  21  34  48  71 105 138 170 210 254 296
#     4  11  22  35  52  72 100 138 178 211 250 304
#
# _framework density 17.397832000000001
#
# number of rings (size 3 to 8) (size 9 to 14) (size 15 to 20)
#    0.000    2.500    2.500    1.500    0.000    2.000 
#    0.000    0.000    0.000    3.000    0.000    3.500 
#    0.000    0.000    0.000    0.000    0.000    0.000 
#
# Total GULP energy -396565.156260 kJ/mol
# GULP energy per Si atom -12392.661133 kJ/mol
# Density = 1.735823 g / cm^3
# Si number density = 17.397832 Si / 1000 Ang^3
#
#
#
# Elastic Constant Matrix: (Units=GPa)
#
#
# Indices 1 2 3 4 5 6 
#
# 1 36.0404 32.7065 37.1694 0.0000 0.0000 0.0000
# 2 32.7065 113.9359 63.8095 0.0000 0.0000 0.0000
# 3 37.1694 63.8095 115.8483 0.0000 0.0000 0.0000
# 4 0.0000 0.0000 0.0000 20.7630 0.0000 0.0000
# 5 0.0000 0.0000 0.0000 0.0000 24.6878 0.0000
# 6 0.0000 0.0000 0.0000 0.0000 0.0000 17.2380
#
#
#
# Elastic Compliance Matrix: (Units=1/GPa)
#
#
# Indices 1 2 3 4 5 6 
#
# 1 0.045014 -0.006989 -0.010593 0.000000 0.000000 0.000000
# 2 -0.006989 0.013777 -0.005346 0.000000 0.000000 0.000000
# 3 -0.010593 -0.005346 0.014975 0.000000 0.000000 0.000000
# 4 0.000000 0.000000 0.000000 0.048163 0.000000 0.000000
# 5 0.000000 0.000000 0.000000 0.000000 0.040506 0.000000
# 6 0.000000 0.000000 0.000000 0.000000 0.000000 0.058011
#
#
# Mechanical properties :
#
#
# Convention : Reuss Voigt Hill
#
# Bulk Modulus (GPa) = 35.82923 59.24394 47.53658
# Shear Modulus (GPa) = 18.14185 21.34706 19.74446
#
# Velocity S-wave (km/s) = 3.23269 3.50665 3.37245
# Velocity P-wave (km/s) = 5.87984 7.10787 6.52282
#
# Compressibility (1/GPa) = 0.02791018
#
# Stress axis : x y z
#
# Youngs Moduli (GPa) = 22.21535 72.58343 66.77682
#
# Poissons Ratio (x) = 0.50730 0.70735
# Poissons Ratio (y) = 0.15527 0.35699
# Poissons Ratio (z) = 0.23532 0.38804
#
# Static dielectric constant tensor:
#      x y z
#    x 3.006050 0.000000 0.000000 
#    y 0.000000 3.888960 0.000000 
#    z 0.000000 0.000000 3.012400 
# 
# 
# High freq. dielectric constant tensor:
#      x y z
#    x 1.649650 0.000000 0.000000 
#    y 0.000000 1.685310 0.000000 
#    z 0.000000 0.000000 1.643010 
# 
# From -- ./inp_files/23419.got.cif
#   From: 2010.03.12/outbox.cif.g09.slc.cpg/sg44_12_cif.got.tgz:23419.got - 2010.04.14 02:36:11.
