data_PCOD8188442
_publ_section_title
;
Structure prediction by ZEFSAII (Michael W. Deem and Ramdas Pophale) SiO2 
 PCOD8188442
Probable space group: I M M 2
;
_chemical_formula_sum "Si O2"
_cell_formula_units_Z 56
_cell_length_a 7.711242
_cell_length_b 13.819841
_cell_length_c 32.616127
_cell_angle_alpha 90.000000
_cell_angle_beta 90.000000
_cell_angle_gamma 90.000000
_cell_volume 3475.839935
_symmetry_space_group_name_H-M "I M M 2"
_symmetry_group_IT_number 44
_symmetry_cell_setting 'orthorhombic'
loop_
_space_group_symop_operation_xyz
x,y,z
-x,-y,z
-x,y,z
x,-y,z
1/2+x,1/2+y,1/2+z
1/2-x,1/2-y,1/2+z
1/2-x,1/2+y,1/2+z
1/2+x,1/2-y,1/2+z
loop_
_atom_site_type_symbol
_atom_site_label
_atom_site_fract_x
_atom_site_fract_y
_atom_site_fract_z
Si Si1 0.500000 0.614634 0.089888
Si Si2 0.706249 0.205380 0.733868
Si Si3 0.500000 0.614508 0.998695
Si Si4 0.794294 0.392492 0.315878
Si Si5 0.697680 0.798442 0.354000
Si Si6 0.199005 0.613534 0.939076
Si Si7 0.800774 0.613942 0.149559
Si Si8 0.302723 0.394821 0.773042
O O1 0.500000 0.500000 0.087316
O O2 0.675445 0.648647 0.112929
O O3 0.500000 0.660354 0.044336
O O4 0.500000 0.207029 0.734478
O O5 0.772025 0.135341 0.770253
O O6 0.770825 0.167070 0.690200
O O7 0.781466 0.313717 0.742954
O O8 0.500000 0.500000 0.002268
O O9 0.325116 0.648435 0.975590
O O10 0.725644 0.500000 0.326425
O O11 0.719745 0.317204 0.349094
O O12 0.000000 0.388496 0.317608
O O13 0.500000 0.829934 0.348824
O O14 0.762569 0.829392 0.398825
O O15 0.803103 0.856278 0.319620
O O16 0.220561 0.500000 0.930360
O O17 0.000000 0.638578 0.950965
O O18 0.786109 0.500000 0.157544
O O19 0.000000 0.642348 0.139063
O O20 0.500000 0.408603 0.759949
O O21 0.208357 0.500000 0.769102
#
# Coordination Sequence:
#
# PCOD8188442 Si02
#       8
#     4   8   4   8   8   8   8   8
#     4   9  18  30  42  66  91 109 145 183 218 270
#     4   8  14  26  42  60  83 113 148 180 214 257
#     4   9  18  30  46  64  87 117 143 179 226 268
#     4   9  17  29  44  61  84 115 151 187 217 252
#     4  10  19  29  41  60  87 116 147 183 219 259
#     4   9  18  30  44  64  88 116 149 181 216 264
#     4   9  16  27  44  62  85 117 145 177 219 262
#     4   9  17  28  43  61  83 115 152 187 219 255
#
# _framework density 16.111211999999998
#
# number of rings (size 3 to 8) (size 9 to 14) (size 15 to 20)
#    0.000    3.000    0.000    2.143    2.000    3.429 
#    5.143    2.857    0.000    0.000    0.000    0.000 
#    0.000    2.286    0.000    7.143    0.000    0.286 
#
# Total GULP energy -347011.303447 kJ/mol
# GULP energy per Si atom -12393.260837 kJ/mol
# Density = 1.607454 g / cm^3
# Si number density = 16.111212 Si / 1000 Ang^3
#
#
#
# Elastic Constant Matrix: (Units=GPa)
#
#
# Indices 1 2 3 4 5 6 
#
# 1 59.9843 16.7018 45.2596 0.0000 0.0000 0.0000
# 2 16.7018 82.0008 43.3482 -0.0001 0.0000 0.0000
# 3 45.2596 43.3482 131.7945 0.0000 0.0000 0.0000
# 4 0.0000 -0.0001 0.0000 18.0688 0.0000 0.0000
# 5 0.0000 0.0000 0.0000 0.0000 15.9486 0.0000
# 6 0.0000 0.0000 0.0000 0.0000 0.0000 11.1200
#
#
#
# Elastic Compliance Matrix: (Units=1/GPa)
#
#
# Indices 1 2 3 4 5 6 
#
# 1 0.022526 -0.000604 -0.007537 0.000000 0.000000 0.000000
# 2 -0.000604 0.014778 -0.004653 0.000000 0.000000 0.000000
# 3 -0.007537 -0.004653 0.011706 0.000000 0.000000 0.000000
# 4 0.000000 0.000000 0.000000 0.055344 0.000000 0.000000
# 5 0.000000 0.000000 0.000000 0.000000 0.062701 0.000000
# 6 0.000000 0.000000 0.000000 0.000000 0.000000 0.089928
#
#
# Mechanical properties :
#
#
# Convention : Reuss Voigt Hill
#
# Bulk Modulus (GPa) = 42.69465 53.82209 48.25837
# Shear Modulus (GPa) = 17.21888 20.25882 18.73885
#
# Velocity S-wave (km/s) = 3.27272 3.54988 3.41412
# Velocity P-wave (km/s) = 6.39050 7.09093 6.74981
#
# Compressibility (1/GPa) = 0.02342214
#
# Stress axis : x y z
#
# Youngs Moduli (GPa) = 44.39305 67.66905 85.42360
#
# Poissons Ratio (x) = 0.04085 0.64385
# Poissons Ratio (y) = 0.02680 0.39749
# Poissons Ratio (z) = 0.33459 0.31488
#
# Static dielectric constant tensor:
#      x y z
#    x 3.029540 0.000000 0.000000 
#    y 0.000000 3.150730 0.000000 
#    z 0.000000 0.000000 3.084430 
# 
# 
# High freq. dielectric constant tensor:
#      x y z
#    x 1.620300 0.000000 0.000000 
#    y 0.000000 1.592280 0.000000 
#    z 0.000000 0.000000 1.593850 
# 
# From -- ./inp_files/27248.got.cif
#   From: 2010.03.12/outbox.cif.g09.slc.cpg/sg44_14_cif.got.tgz:27248.got - 2010.04.14 02:36:11.
