data_PCOD8188181
_publ_section_title
;
Structure prediction by ZEFSAII (Michael W. Deem and Ramdas Pophale) SiO2 
 PCOD8188181
Probable space group: I M M 2
;
_chemical_formula_sum "Si O2"
_cell_formula_units_Z 48
_cell_length_a 12.497569
_cell_length_b 9.364689
_cell_length_c 22.338508
_cell_angle_alpha 90.000000
_cell_angle_beta 90.000000
_cell_angle_gamma 90.000000
_cell_volume 2614.406203
_symmetry_space_group_name_H-M "I M M 2"
_symmetry_group_IT_number 44
_symmetry_cell_setting 'orthorhombic'
loop_
_space_group_symop_operation_xyz
x,y,z
-x,-y,z
-x,y,z
x,-y,z
1/2+x,1/2+y,1/2+z
1/2-x,1/2-y,1/2+z
1/2-x,1/2+y,1/2+z
1/2+x,1/2-y,1/2+z
loop_
_atom_site_type_symbol
_atom_site_label
_atom_site_fract_x
_atom_site_fract_y
_atom_site_fract_z
Si Si1 0.227470 0.829871 0.204330
Si Si2 0.335560 0.331257 0.424907
Si Si3 0.500000 0.332231 0.524410
Si Si4 0.381716 0.168797 0.104296
Si Si5 0.618984 0.836172 0.308159
Si Si6 0.000000 0.170197 0.160240
Si Si7 0.115852 0.669568 0.471558
O O1 0.292930 0.765374 0.148201
O O2 0.287763 0.775331 0.264335
O O3 0.104679 0.776492 0.197339
O O4 0.232926 0.000000 0.203690
O O5 0.347669 0.500000 0.415077
O O6 0.395647 0.285460 0.486258
O O7 0.385654 0.253841 0.368551
O O8 0.212009 0.280114 0.429116
O O9 0.500000 0.500000 0.533132
O O10 0.500000 0.266518 0.591950
O O11 0.500000 0.207744 0.128325
O O12 0.366889 0.000000 0.101878
O O13 0.365874 0.232926 0.037962
O O14 0.500000 0.824148 0.278485
O O15 0.643991 0.000000 0.324298
O O16 0.000000 0.000000 0.156907
O O17 0.116662 0.500000 0.476466
O O18 0.000000 0.721459 0.446248
#
# Coordination Sequence:
#
# PCOD8188181 Si02
#       7
#     8   8   4   8   8   4   8
#     4   9  16  26  40  61  90 122 152 185 231 280
#     4  10  18  30  48  70  95 122 155 194 233 276
#     4   9  16  26  45  73  99 119 148 197 248 284
#     4   8  12  20  37  61  87 113 143 183 230 273
#     4  10  20  33  47  65  92 124 160 196 229 273
#     4   9  16  26  42  67  97 123 148 191 248 290
#     4   8  14  24  40  65  94 119 146 184 231 278
#
# _framework density 18.359808999999998
#
# number of rings (size 3 to 8) (size 9 to 14) (size 15 to 20)
#    0.000    3.000    0.833    2.500    0.000    6.000 
#    1.500    0.000    0.000    0.000    0.000    5.833 
#    0.000    1.333    0.000    0.000    0.000    0.000 
#
# Total GULP energy -297321.365961 kJ/mol
# GULP energy per Si atom -12388.390248 kJ/mol
# Density = 1.831802 g / cm^3
# Si number density = 18.359809 Si / 1000 Ang^3
#
#
#
# Elastic Constant Matrix: (Units=GPa)
#
#
# Indices 1 2 3 4 5 6 
#
# 1 156.1984 15.7327 55.0546 0.0000 0.0000 0.0000
# 2 15.7327 14.2484 15.7052 0.0000 0.0000 0.0000
# 3 55.0546 15.7052 87.3576 0.0000 0.0000 0.0000
# 4 0.0000 0.0000 0.0000 13.9706 0.0000 0.0000
# 5 0.0000 0.0000 0.0000 0.0000 30.5614 0.0000
# 6 0.0000 0.0000 0.0000 0.0000 0.0000 9.1297
#
#
#
# Elastic Compliance Matrix: (Units=1/GPa)
#
#
# Indices 1 2 3 4 5 6 
#
# 1 0.008437 -0.004309 -0.004543 0.000000 0.000000 0.000000
# 2 -0.004309 0.089728 -0.013416 0.000000 0.000000 0.000000
# 3 -0.004543 -0.013416 0.016722 0.000000 0.000000 0.000000
# 4 0.000000 0.000000 0.000000 0.071579 0.000000 0.000000
# 5 0.000000 0.000000 0.000000 0.000000 0.032721 0.000000
# 6 0.000000 0.000000 0.000000 0.000000 0.000000 0.109533
#
#
# Mechanical properties :
#
#
# Convention : Reuss Voigt Hill
#
# Bulk Modulus (GPa) = 14.21410 47.86551 31.03981
# Shear Modulus (GPa) = 12.60378 22.15313 17.37846
#
# Velocity S-wave (km/s) = 2.62293 3.47740 3.07994
# Velocity P-wave (km/s) = 4.11483 6.50004 5.43977
#
# Compressibility (1/GPa) = 0.07035269
#
# Stress axis : x y z
#
# Youngs Moduli (GPa) = 118.52175 11.14473 59.80153
#
# Poissons Ratio (x) = 0.04802 0.27166
# Poissons Ratio (y) = 0.51072 0.80228
# Poissons Ratio (z) = 0.53840 0.14952
#
# Static dielectric constant tensor:
#      x y z
#    x 3.905510 0.000000 0.000000 
#    y 0.000000 2.590110 0.000000 
#    z 0.000000 0.000000 3.389130 
# 
# 
# High freq. dielectric constant tensor:
#      x y z
#    x 1.735360 0.000000 0.000000 
#    y 0.000000 1.620510 0.000000 
#    z 0.000000 0.000000 1.704170 
# 
# From -- ./inp_files/23727.got.cif
#   From: 2010.03.12/outbox.cif.g09.slc.cpg/sg44_12_cif.got.tgz:23727.got - 2010.04.14 02:36:11.
