data_PCOD8188011
_publ_section_title
;
Structure prediction by ZEFSAII (Michael W. Deem and Ramdas Pophale) SiO2 
 PCOD8188011
Probable space group: I M M 2
;
_chemical_formula_sum "Si O2"
_cell_formula_units_Z 64
_cell_length_a 8.845402
_cell_length_b 26.217680
_cell_length_c 18.505929
_cell_angle_alpha 90.000000
_cell_angle_beta 90.000000
_cell_angle_gamma 90.000000
_cell_volume 4291.634474
_symmetry_space_group_name_H-M "I M M 2"
_symmetry_group_IT_number 44
_symmetry_cell_setting 'orthorhombic'
loop_
_space_group_symop_operation_xyz
x,y,z
-x,-y,z
-x,y,z
x,-y,z
1/2+x,1/2+y,1/2+z
1/2-x,1/2-y,1/2+z
1/2-x,1/2+y,1/2+z
1/2+x,1/2-y,1/2+z
loop_
_atom_site_type_symbol
_atom_site_label
_atom_site_fract_x
_atom_site_fract_y
_atom_site_fract_z
Si Si1 0.835008 0.303931 0.763970
Si Si2 0.824982 0.941485 0.646642
Si Si3 0.832513 0.199359 0.850056
Si Si4 0.179847 0.352125 0.902094
Si Si5 0.320605 0.258040 0.137145
Si Si6 0.177585 0.755629 0.472258
Si Si7 0.826285 0.058419 0.480644
Si Si8 0.178005 0.349467 0.219626
O O1 0.846864 0.252334 0.809344
O O2 0.756378 0.344258 0.819069
O O3 0.754426 0.288365 0.688200
O O4 0.000000 0.325662 0.744473
O O5 0.778897 0.932688 0.563398
O O6 0.720923 0.906727 0.697018
O O7 0.000000 0.927039 0.657916
O O8 0.795914 0.000000 0.668493
O O9 0.746077 0.209324 0.925490
O O10 0.741681 0.159757 0.800131
O O11 0.000000 0.177339 0.866220
O O12 0.252951 0.310668 0.954857
O O13 0.221941 0.408213 0.928415
O O14 0.000000 0.344264 0.902519
O O15 0.500000 0.263937 0.150450
O O16 0.245666 0.311258 0.159800
O O17 0.282413 0.243886 0.055360
O O18 0.000000 0.758370 0.458355
O O19 0.000000 0.074196 0.469475
O O20 0.800281 0.000000 0.458510
O O21 0.000000 0.342523 0.221545
#
# Coordination Sequence:
#
# PCOD8188011 Si02
#       8
#     8   8   8   8   8   8   8   8
#     4   7  13  26  40  54  74 104 137 163 193 237
#     4   9  18  32  46  58  77 109 144 173 207 252
#     4   9  17  30  44  57  80 111 139 169 207 249
#     4  10  18  27  41  59  81 111 142 171 206 247
#     4   9  17  29  43  58  82 115 143 168 204 249
#     4  10  18  27  42  63  84 108 141 175 206 245
#     4   9  18  31  44  58  79 108 141 177 214 249
#     4  11  20  28  42  63  85 109 141 177 209 244
#
# _framework density 14.912734
#
# number of rings (size 3 to 8) (size 9 to 14) (size 15 to 20)
#    0.000    2.750    0.000    5.250    0.000    5.000 
#    0.000    1.875    0.000    0.000    0.000    0.000 
#    0.000    1.000    0.000    9.250    0.000    3.125 
#
# Total GULP energy -396553.212526 kJ/mol
# GULP energy per Si atom -12392.287891 kJ/mol
# Density = 1.487879 g / cm^3
# Si number density = 14.912734 Si / 1000 Ang^3
#
#
#
# Elastic Constant Matrix: (Units=GPa)
#
#
# Indices 1 2 3 4 5 6 
#
# 1 72.8187 30.4018 45.1234 0.0000 0.0000 0.0000
# 2 30.4018 64.6048 50.0561 0.0000 0.0000 0.0000
# 3 45.1234 50.0561 112.0982 0.0001 0.0000 0.0000
# 4 0.0000 0.0000 0.0001 26.4348 0.0000 0.0000
# 5 0.0000 0.0000 0.0000 0.0000 22.1319 0.0000
# 6 0.0000 0.0000 0.0000 0.0000 0.0000 21.9404
#
#
#
# Elastic Compliance Matrix: (Units=1/GPa)
#
#
# Indices 1 2 3 4 5 6 
#
# 1 0.019169 -0.004651 -0.005639 0.000000 0.000000 0.000000
# 2 -0.004651 0.024796 -0.009200 0.000000 0.000000 0.000000
# 3 -0.005639 -0.009200 0.015299 0.000000 0.000000 0.000000
# 4 0.000000 0.000000 0.000000 0.037829 0.000000 0.000000
# 5 0.000000 0.000000 0.000000 0.000000 0.045184 0.000000
# 6 0.000000 0.000000 0.000000 0.000000 0.000000 0.045578
#
#
# Mechanical properties :
#
#
# Convention : Reuss Voigt Hill
#
# Bulk Modulus (GPa) = 49.30304 55.63161 52.46732
# Shear Modulus (GPa) = 21.40446 22.36411 21.88428
#
# Velocity S-wave (km/s) = 3.79266 3.87675 3.83494
# Velocity P-wave (km/s) = 7.23270 7.57791 7.40731
#
# Compressibility (1/GPa) = 0.02028273
#
# Stress axis : x y z
#
# Youngs Moduli (GPa) = 52.16717 40.32957 65.36437
#
# Poissons Ratio (x) = 0.18759 0.36861
# Poissons Ratio (y) = 0.24265 0.60135
# Poissons Ratio (z) = 0.29418 0.37103
#
# Static dielectric constant tensor:
#      x y z
#    x 2.860400 0.000000 0.000000 
#    y 0.000000 2.701120 0.000000 
#    z 0.000000 0.000000 3.096130 
# 
# 
# High freq. dielectric constant tensor:
#      x y z
#    x 1.568980 0.000000 0.000000 
#    y 0.000000 1.535940 0.000000 
#    z 0.000000 0.000000 1.565190 
# 
# From -- ./inp_files/20911.got.cif
#   From: 2010.03.12/outbox.cif.g09.slc.cpg/sg44_11_cif.got.tgz:20911.got - 2010.04.14 02:36:11.
