data_PCOD8188922
_publ_section_title
;
Structure prediction by ZEFSAII (Michael W. Deem and Ramdas Pophale) SiO2 
 PCOD8188922
Probable space group: I M M 2
;
_chemical_formula_sum "Si O2"
_cell_formula_units_Z 64
_cell_length_a 33.081225
_cell_length_b 8.541687
_cell_length_c 11.755573
_cell_angle_alpha 90.000000
_cell_angle_beta 90.000000
_cell_angle_gamma 90.000000
_cell_volume 3321.766027
_symmetry_space_group_name_H-M "I M M 2"
_symmetry_group_IT_number 44
_symmetry_cell_setting 'orthorhombic'
loop_
_space_group_symop_operation_xyz
x,y,z
-x,-y,z
-x,y,z
x,-y,z
1/2+x,1/2+y,1/2+z
1/2-x,1/2-y,1/2+z
1/2-x,1/2+y,1/2+z
1/2+x,1/2-y,1/2+z
loop_
_atom_site_type_symbol
_atom_site_label
_atom_site_fract_x
_atom_site_fract_y
_atom_site_fract_z
Si Si1 0.547258 0.676372 0.990030
Si Si2 0.222002 0.683396 0.253231
Si Si3 0.853201 0.681043 0.108918
Si Si4 0.319459 0.679804 0.958876
Si Si5 0.107615 0.320447 0.335686
Si Si6 0.623155 0.186202 0.365101
Si Si7 0.954250 0.685558 0.731611
Si Si8 0.693345 0.818370 0.195462
O O1 0.500000 0.682522 0.975257
O O2 0.563863 0.500000 0.984079
O O3 0.563820 0.778286 0.884412
O O4 0.560220 0.748392 0.110537
O O5 0.214552 0.500000 0.272198
O O6 0.189138 0.747246 0.160463
O O7 0.216365 0.770533 0.373475
O O8 0.266853 0.715287 0.211986
O O9 0.846406 0.500000 0.082671
O O10 0.889418 0.708233 0.199831
O O11 0.866301 0.760140 0.989194
O O12 0.313453 0.500000 0.995133
O O13 0.361880 0.703318 0.897183
O O14 0.320567 0.791985 0.067313
O O15 0.119058 0.500000 0.362481
O O16 0.578683 0.245680 0.324133
O O17 0.658002 0.242268 0.278728
O O18 0.621740 0.000000 0.369095
O O19 0.953761 0.500000 0.722316
O O20 0.000000 0.743710 0.763126
O O21 0.703079 0.000000 0.217094
#
# Coordination Sequence:
#
# PCOD8188922 Si02
#       8
#     8   8   8   8   8   8   8   8
#     4  10  20  33  52  79 111 144 179 223 275 333
#     4  10  21  37  56  78 107 142 185 234 281 333
#     4   8  17  34  54  75 104 142 178 218 273 333
#     4  11  22  37  56  77 106 143 183 225 276 332
#     4  10  19  34  56  79 106 139 179 226 274 328
#     4   9  18  33  53  79 109 142 180 223 275 335
#     4   9  17  31  54  82 110 141 180 227 276 329
#     4  11  22  34  54  82 111 143 183 231 280 335
#
# _framework density 19.266857999999999
#
# number of rings (size 3 to 8) (size 9 to 14) (size 15 to 20)
#    0.000    2.250    0.000    4.125    1.750    1.750 
#    0.000    1.250    0.000    9.000    0.000    1.750 
#    0.000    0.000    0.000    0.000    0.000    0.000 
#
# Total GULP energy -396711.961502 kJ/mol
# GULP energy per Si atom -12397.248797 kJ/mol
# Density = 1.922301 g / cm^3
# Si number density = 19.266858 Si / 1000 Ang^3
#
#
#
# Elastic Constant Matrix: (Units=GPa)
#
#
# Indices 1 2 3 4 5 6 
#
# 1 102.7317 21.7845 70.3687 0.0000 0.0000 0.0000
# 2 21.7845 44.7053 18.6783 0.0000 0.0000 0.0000
# 3 70.3687 18.6783 148.2162 0.0000 0.0000 0.0000
# 4 0.0000 0.0000 0.0000 15.3427 0.0000 0.0000
# 5 0.0000 0.0000 0.0000 0.0000 24.1754 0.0000
# 6 0.0000 0.0000 0.0000 0.0000 0.0000 25.2007
#
#
#
# Elastic Compliance Matrix: (Units=1/GPa)
#
#
# Indices 1 2 3 4 5 6 
#
# 1 0.015294 -0.004665 -0.006674 0.000000 0.000000 0.000000
# 2 -0.004665 0.025035 -0.000940 0.000000 0.000000 0.000000
# 3 -0.006674 -0.000940 0.010034 0.000000 0.000000 0.000000
# 4 0.000000 0.000000 0.000000 0.065178 0.000000 0.000000
# 5 0.000000 0.000000 0.000000 0.000000 0.041364 0.000000
# 6 0.000000 0.000000 0.000000 0.000000 0.000000 0.039681
#
#
# Mechanical properties :
#
#
# Convention : Reuss Voigt Hill
#
# Bulk Modulus (GPa) = 38.75059 57.47958 48.11509
# Shear Modulus (GPa) = 21.76327 25.26521 23.51424
#
# Velocity S-wave (km/s) = 3.36455 3.62516 3.49728
# Velocity P-wave (km/s) = 5.93716 6.88626 6.42925
#
# Compressibility (1/GPa) = 0.02580606
#
# Stress axis : x y z
#
# Youngs Moduli (GPa) = 65.38327 39.94475 99.66326
#
# Poissons Ratio (x) = 0.18633 0.66510
# Poissons Ratio (y) = 0.30499 0.09371
# Poissons Ratio (z) = 0.43634 0.03756
#
# Static dielectric constant tensor:
#      x y z
#    x 3.594770 0.000000 0.000000 
#    y 0.000000 3.302840 0.000000 
#    z 0.000000 0.000000 3.763140 
# 
# 
# High freq. dielectric constant tensor:
#      x y z
#    x 1.748410 0.000000 0.000000 
#    y 0.000000 1.729430 0.000000 
#    z 0.000000 0.000000 1.748900 
# 
# From -- ./inp_files/15080.got.cif
#   From: 2010.03.12/outbox.cif.g09.slc.cpg/sg44_8_cif.got.tgz:15080.got - 2010.04.14 02:36:11.
