data_PCOD8188907
_publ_section_title
;
Structure prediction by ZEFSAII (Michael W. Deem and Ramdas Pophale) SiO2 
 PCOD8188907
Probable space group: I M M 2
;
_chemical_formula_sum "Si O2"
_cell_formula_units_Z 56
_cell_length_a 19.918115
_cell_length_b 9.718711
_cell_length_c 15.355792
_cell_angle_alpha 90.000000
_cell_angle_beta 90.000000
_cell_angle_gamma 90.000000
_cell_volume 2972.549698
_symmetry_space_group_name_H-M "I M M 2"
_symmetry_group_IT_number 44
_symmetry_cell_setting 'orthorhombic'
loop_
_space_group_symop_operation_xyz
x,y,z
-x,-y,z
-x,y,z
x,-y,z
1/2+x,1/2+y,1/2+z
1/2-x,1/2-y,1/2+z
1/2-x,1/2+y,1/2+z
1/2+x,1/2-y,1/2+z
loop_
_atom_site_type_symbol
_atom_site_label
_atom_site_fract_x
_atom_site_fract_y
_atom_site_fract_z
Si Si1 0.577466 0.340715 0.940990
Si Si2 0.301882 0.837970 0.886234
Si Si3 0.297799 0.656715 0.541559
Si Si4 0.574748 0.149221 0.284500
Si Si5 0.258878 0.846197 0.693759
Si Si6 0.076888 0.154473 0.931088
Si Si7 0.605617 0.347308 0.140619
O O1 0.500000 0.302538 0.919958
O O2 0.591424 0.500000 0.917771
O O3 0.627708 0.244039 0.886845
O O4 0.593440 0.311259 0.041100
O O5 0.266758 0.801143 0.794284
O O6 0.316768 0.000000 0.893384
O O7 0.252636 0.790583 0.965130
O O8 0.278944 0.500000 0.564206
O O9 0.296933 0.744237 0.629315
O O10 0.375405 0.669574 0.513845
O O11 0.500000 0.121181 0.317078
O O12 0.608283 0.245627 0.357501
O O13 0.568692 0.228544 0.193538
O O14 0.611847 0.000000 0.275560
O O15 0.182306 0.839629 0.666820
O O16 0.287669 0.000000 0.680421
O O17 0.000000 0.188043 0.957961
O O18 0.081958 0.000000 0.892613
O O19 0.576516 0.500000 0.161006
#
# Coordination Sequence:
#
# PCOD8188907 Si02
#       7
#     8   8   8   8   8   8   8
#     4  10  21  37  58  83 111 149 197 243 287 339
#     4  10  21  37  57  83 117 153 189 232 288 346
#     4  10  20  36  58  84 112 144 186 235 282 334
#     4  10  20  31  46  75 111 142 176 219 269 327
#     4  10  21  37  58  83 110 145 188 232 282 343
#     4   9  18  34  55  77 106 147 187 223 273 334
#     4  10  19  34  55  78 107 142 183 231 284 340
#
# _framework density 18.839044999999999
#
# number of rings (size 3 to 8) (size 9 to 14) (size 15 to 20)
#    0.000    2.143    1.429    1.714    0.000    6.286 
#    0.000    2.143    0.000    2.571    0.000    0.000 
#    0.000    0.000    0.000    0.000    0.000    0.000 
#
# Total GULP energy -347038.796388 kJ/mol
# GULP energy per Si atom -12394.242728 kJ/mol
# Density = 1.879617 g / cm^3
# Si number density = 18.839045 Si / 1000 Ang^3
#
#
#
# Elastic Constant Matrix: (Units=GPa)
#
#
# Indices 1 2 3 4 5 6 
#
# 1 79.3847 27.1045 15.6946 0.0000 0.0000 0.0000
# 2 27.1045 91.0454 42.1627 0.0000 0.0000 0.0000
# 3 15.6946 42.1627 70.2439 0.0000 0.0000 0.0000
# 4 0.0000 0.0000 0.0000 34.7540 0.0000 0.0000
# 5 0.0000 0.0000 0.0000 0.0000 28.3849 0.0000
# 6 0.0000 0.0000 0.0000 0.0000 0.0000 23.8443
#
#
#
# Elastic Compliance Matrix: (Units=1/GPa)
#
#
# Indices 1 2 3 4 5 6 
#
# 1 0.014061 -0.003782 -0.000871 0.000000 0.000000 0.000000
# 2 -0.003782 0.016229 -0.008896 0.000000 0.000000 0.000000
# 3 -0.000871 -0.008896 0.019771 0.000000 0.000000 0.000000
# 4 0.000000 0.000000 0.000000 0.028774 0.000000 0.000000
# 5 0.000000 0.000000 0.000000 0.000000 0.035230 0.000000
# 6 0.000000 0.000000 0.000000 0.000000 0.000000 0.041939
#
#
# Mechanical properties :
#
#
# Convention : Reuss Voigt Hill
#
# Bulk Modulus (GPa) = 43.55267 45.62195 44.58731
# Shear Modulus (GPa) = 26.21145 27.77747 26.99446
#
# Velocity S-wave (km/s) = 3.73411 3.84404 3.78947
# Velocity P-wave (km/s) = 6.46219 6.63110 6.54719
#
# Compressibility (1/GPa) = 0.02296070
#
# Stress axis : x y z
#
# Youngs Moduli (GPa) = 71.12087 61.61657 50.58011
#
# Poissons Ratio (x) = 0.23306 0.04407
# Poissons Ratio (y) = 0.26901 0.44998
# Poissons Ratio (z) = 0.06196 0.54816
#
# Static dielectric constant tensor:
#      x y z
#    x 3.416270 0.000000 0.000000 
#    y 0.000000 3.762770 0.000000 
#    z 0.000000 0.000000 3.295870 
# 
# 
# High freq. dielectric constant tensor:
#      x y z
#    x 1.725120 0.000000 0.000000 
#    y 0.000000 1.735360 0.000000 
#    z 0.000000 0.000000 1.714690 
# 
# From -- ./inp_files/16418.got.cif
#   From: 2010.03.12/outbox.cif.g09.slc.cpg/sg44_9_cif.got.tgz:16418.got - 2010.04.14 02:36:11.
