data_PCOD8188156
_publ_section_title
;
Structure prediction by ZEFSAII (Michael W. Deem and Ramdas Pophale) SiO2 
 PCOD8188156
Probable space group: I M M 2
;
_chemical_formula_sum "Si O2"
_cell_formula_units_Z 56
_cell_length_a 9.323456
_cell_length_b 24.377360
_cell_length_c 14.371213
_cell_angle_alpha 90.000000
_cell_angle_beta 90.000000
_cell_angle_gamma 90.000000
_cell_volume 3266.307159
_symmetry_space_group_name_H-M "I M M 2"
_symmetry_group_IT_number 44
_symmetry_cell_setting 'orthorhombic'
loop_
_space_group_symop_operation_xyz
x,y,z
-x,-y,z
-x,y,z
x,-y,z
1/2+x,1/2+y,1/2+z
1/2-x,1/2-y,1/2+z
1/2-x,1/2+y,1/2+z
1/2+x,1/2-y,1/2+z
loop_
_atom_site_type_symbol
_atom_site_label
_atom_site_fract_x
_atom_site_fract_y
_atom_site_fract_z
Si Si1 0.662378 0.099437 0.051940
Si Si2 0.656985 0.171980 0.224155
Si Si3 0.332716 0.188718 0.913747
Si Si4 0.670642 0.210897 0.510455
Si Si5 0.170021 0.000000 0.136243
Si Si6 0.836649 0.603736 0.898813
Si Si7 0.666139 0.775289 0.717365
Si Si8 0.329971 0.500000 0.853189
O O1 0.500000 0.075511 0.051145
O O2 0.675407 0.151000 0.120237
O O3 0.772126 0.052526 0.080787
O O4 0.704195 0.128001 0.953786
O O5 0.500000 0.198772 0.238867
O O6 0.674781 0.120148 0.291103
O O7 0.773621 0.216815 0.248203
O O8 0.500000 0.202542 0.930926
O O9 0.241442 0.236957 0.961028
O O10 0.298944 0.183793 0.802913
O O11 0.500000 0.218379 0.502716
O O12 0.717992 0.154257 0.461754
O O13 0.726947 0.205390 0.617350
O O14 0.218834 0.000000 0.244364
O O15 0.000000 0.000000 0.129218
O O16 0.732408 0.551948 0.909252
O O17 0.000000 0.587305 0.925118
O O18 0.500000 0.766362 0.704308
O O19 0.500000 0.500000 0.861410
#
# Coordination Sequence:
#
# PCOD8188156 Si02
#       8
#     8   8   8   8   4   8   8   4
#     4  10  20  34  51  72 102 138 172 204 246 305
#     4  10  18  29  49  76 104 135 172 207 243 301
#     4  10  20  33  51  76 105 138 172 209 253 301
#     4  10  20  33  51  76 105 138 172 209 253 301
#     4  11  23  35  51  76 103 130 164 211 263 306
#     4  10  20  34  51  72 102 138 172 204 246 305
#     4  10  20  32  49  76 109 138 168 211 256 295
#     4  11  23  35  51  76 103 130 164 211 263 306
#
# _framework density 17.144743999999999
#
# number of rings (size 3 to 8) (size 9 to 14) (size 15 to 20)
#    0.000    1.857    4.286    0.429    0.000    2.857 
#    0.000    0.000    0.000    0.857    0.000    6.000 
#    0.000    0.000    0.000    0.000    0.000    0.000 
#
# Total GULP energy -347071.523639 kJ/mol
# GULP energy per Si atom -12395.411559 kJ/mol
# Density = 1.710572 g / cm^3
# Si number density = 17.144744 Si / 1000 Ang^3
#
#
#
# Elastic Constant Matrix: (Units=GPa)
#
#
# Indices 1 2 3 4 5 6 
#
# 1 43.7915 38.4711 30.7421 -0.0001 0.0000 0.0000
# 2 38.4711 89.4989 33.4689 -0.0001 0.0000 0.0000
# 3 30.7421 33.4689 88.2089 -0.0001 -0.0001 0.0000
# 4 -0.0001 -0.0001 -0.0001 19.4729 0.0000 0.0000
# 5 0.0000 0.0000 -0.0001 0.0000 18.7165 0.0000
# 6 0.0000 0.0000 0.0000 0.0000 0.0000 30.8536
#
#
#
# Elastic Compliance Matrix: (Units=1/GPa)
#
#
# Indices 1 2 3 4 5 6 
#
# 1 0.042157 -0.014715 -0.009109 0.000000 0.000000 0.000000
# 2 -0.014715 0.018157 -0.001761 0.000000 0.000000 0.000000
# 3 -0.009109 -0.001761 0.015180 0.000000 0.000000 0.000000
# 4 0.000000 0.000000 0.000000 0.051353 0.000000 0.000000
# 5 0.000000 0.000000 0.000000 0.000000 0.053429 0.000000
# 6 0.000000 0.000000 0.000000 0.000000 0.000000 0.032411
#
#
# Mechanical properties :
#
#
# Convention : Reuss Voigt Hill
#
# Bulk Modulus (GPa) = 41.11184 47.42929 44.27056
# Shear Modulus (GPa) = 18.38467 21.72973 20.05720
#
# Velocity S-wave (km/s) = 3.27818 3.56396 3.42405
# Velocity P-wave (km/s) = 6.19354 6.68280 6.44282
#
# Compressibility (1/GPa) = 0.02432389
#
# Stress axis : x y z
#
# Youngs Moduli (GPa) = 23.72059 55.07506 65.87799
#
# Poissons Ratio (x) = 0.81043 0.60010
# Poissons Ratio (y) = 0.34905 0.11600
# Poissons Ratio (z) = 0.21608 0.09698
#
# Static dielectric constant tensor:
#      x y z
#    x 3.169130 0.000000 0.000000 
#    y 0.000000 2.993010 0.000000 
#    z 0.000000 0.000000 3.517580 
# 
# 
# High freq. dielectric constant tensor:
#      x y z
#    x 1.658210 0.000000 0.000000 
#    y 0.000000 1.641860 0.000000 
#    z 0.000000 0.000000 1.660150 
# 
# From -- ./inp_files/16529.got.cif
#   From: 2010.03.12/outbox.cif.g09.slc.cpg/sg44_9_cif.got.tgz:16529.got - 2010.04.14 02:36:11.
