data_PCOD8188713
_publ_section_title
;
Structure prediction by ZEFSAII (Michael W. Deem and Ramdas Pophale) SiO2 
 PCOD8188713
Probable space group: I M M 2
;
_chemical_formula_sum "Si O2"
_cell_formula_units_Z 64
_cell_length_a 18.300625
_cell_length_b 19.133805
_cell_length_c 9.378579
_cell_angle_alpha 90.000000
_cell_angle_beta 90.000000
_cell_angle_gamma 90.000000
_cell_volume 3284.008757
_symmetry_space_group_name_H-M "I M M 2"
_symmetry_group_IT_number 44
_symmetry_cell_setting 'orthorhombic'
loop_
_space_group_symop_operation_xyz
x,y,z
-x,-y,z
-x,y,z
x,-y,z
1/2+x,1/2+y,1/2+z
1/2-x,1/2-y,1/2+z
1/2-x,1/2+y,1/2+z
1/2+x,1/2-y,1/2+z
loop_
_atom_site_type_symbol
_atom_site_label
_atom_site_fract_x
_atom_site_fract_y
_atom_site_fract_z
Si Si1 0.688570 0.199384 0.257420
Si Si2 0.331648 0.623336 0.045292
Si Si3 0.690970 0.774807 0.939526
Si Si4 0.582995 0.315919 0.276256
Si Si5 0.325477 0.917855 0.490979
Si Si6 0.087565 0.666413 0.209678
Si Si7 0.417162 0.424772 0.800357
Si Si8 0.083850 0.188235 0.096271
O O1 0.739819 0.256662 0.338427
O O2 0.609785 0.236556 0.249612
O O3 0.677792 0.126258 0.342150
O O4 0.715096 0.188514 0.091386
O O5 0.371249 0.624434 0.196600
O O6 0.249274 0.599334 0.072924
O O7 0.344413 0.700002 0.975968
O O8 0.370758 0.568078 0.943854
O O9 0.632576 0.826285 0.858962
O O10 0.500000 0.318045 0.225296
O O11 0.593886 0.338001 0.438166
O O12 0.388648 0.897006 0.604945
O O13 0.334345 0.000000 0.453803
O O14 0.113981 0.734175 0.120110
O O15 0.000000 0.660828 0.238722
O O16 0.500000 0.404098 0.839174
O O17 0.414847 0.500000 0.723074
O O18 0.377395 0.368005 0.699125
O O19 0.000000 0.189616 0.141049
#
# Coordination Sequence:
#
# PCOD8188713 Si02
#       8
#     8   8   8   8   8   8   8   8
#     4  10  21  36  58  89 123 156 200 251 309 368
#     4  10  20  35  56  83 118 150 192 239 294 357
#     4  10  20  35  59  89 117 152 193 256 312 363
#     4  10  19  32  56  87 116 146 189 245 298 350
#     4  11  24  42  60  84 122 168 211 254 309 369
#     4  11  21  38  62  89 117 156 208 261 310 363
#     4  10  19  32  51  78 115 157 196 236 290 359
#     4   9  18  32  52  82 117 148 191 243 294 351
#
# _framework density 19.488377
#
# number of rings (size 3 to 8) (size 9 to 14) (size 15 to 20)
#    0.000    1.875    2.500    3.000    0.000    2.250 
#    0.000    1.875    0.000    3.000    0.000    0.000 
#    0.000    0.000    0.000    0.000    0.000    0.000 
#
# Total GULP energy -396477.306161 kJ/mol
# GULP energy per Si atom -12389.915818 kJ/mol
# Density = 1.944402 g / cm^3
# Si number density = 19.488377 Si / 1000 Ang^3
#
#
#
# Elastic Constant Matrix: (Units=GPa)
#
#
# Indices 1 2 3 4 5 6 
#
# 1 82.9891 24.8388 48.5983 0.0000 0.0000 0.0000
# 2 24.8388 94.3898 51.0032 0.0000 0.0000 0.0000
# 3 48.5983 51.0032 101.6916 0.0000 0.0000 0.0000
# 4 0.0000 0.0000 0.0000 24.7304 0.0000 0.0000
# 5 0.0000 0.0000 0.0000 0.0000 32.3044 0.0000
# 6 0.0000 0.0000 0.0000 0.0000 0.0000 17.9560
#
#
#
# Elastic Compliance Matrix: (Units=1/GPa)
#
#
# Indices 1 2 3 4 5 6 
#
# 1 0.016733 -0.000113 -0.007940 0.000000 0.000000 0.000000
# 2 -0.000113 0.014534 -0.007235 0.000000 0.000000 0.000000
# 3 -0.007940 -0.007235 0.017257 0.000000 0.000000 0.000000
# 4 0.000000 0.000000 0.000000 0.040436 0.000000 0.000000
# 5 0.000000 0.000000 0.000000 0.000000 0.030956 0.000000
# 6 0.000000 0.000000 0.000000 0.000000 0.000000 0.055692
#
#
# Mechanical properties :
#
#
# Convention : Reuss Voigt Hill
#
# Bulk Modulus (GPa) = 55.71908 58.66124 57.19016
# Shear Modulus (GPa) = 23.56636 25.30684 24.43660
#
# Velocity S-wave (km/s) = 3.48120 3.60746 3.54490
# Velocity P-wave (km/s) = 6.69413 6.89331 6.79445
#
# Compressibility (1/GPa) = 0.01794717
#
# Stress axis : x y z
#
# Youngs Moduli (GPa) = 59.76086 68.80562 57.94696
#
# Poissons Ratio (x) = 0.00777 0.46011
# Poissons Ratio (y) = 0.00675 0.41927
# Poissons Ratio (z) = 0.47451 0.49783
#
# Static dielectric constant tensor:
#      x y z
#    x 3.609170 0.000000 0.000000 
#    y 0.000000 3.330020 0.000000 
#    z 0.000000 0.000000 3.755040 
# 
# 
# High freq. dielectric constant tensor:
#      x y z
#    x 1.759340 0.000000 0.000000 
#    y 0.000000 1.725140 0.000000 
#    z 0.000000 0.000000 1.762680 
# 
# From -- ./inp_files/8453.got.cif
#   From: 2010.03.12/outbox.cif.g09.slc.cpg/sg44_5_cif.got.tgz:8453.got - 2010.04.14 02:36:11.
