data_PCOD8188824
_publ_section_title
;
Structure prediction by ZEFSAII (Michael W. Deem and Ramdas Pophale) SiO2 
 PCOD8188824
Probable space group: I M M 2
;
_chemical_formula_sum "Si O2"
_cell_formula_units_Z 64
_cell_length_a 24.267536
_cell_length_b 14.873799
_cell_length_c 8.819178
_cell_angle_alpha 90.000000
_cell_angle_beta 90.000000
_cell_angle_gamma 90.000000
_cell_volume 3183.286291
_symmetry_space_group_name_H-M "I M M 2"
_symmetry_group_IT_number 44
_symmetry_cell_setting 'orthorhombic'
loop_
_space_group_symop_operation_xyz
x,y,z
-x,-y,z
-x,y,z
x,-y,z
1/2+x,1/2+y,1/2+z
1/2-x,1/2-y,1/2+z
1/2-x,1/2+y,1/2+z
1/2+x,1/2-y,1/2+z
loop_
_atom_site_type_symbol
_atom_site_label
_atom_site_fract_x
_atom_site_fract_y
_atom_site_fract_z
Si Si1 0.224117 0.096118 0.788910
Si Si2 0.896819 0.893965 0.787977
Si Si3 0.374949 0.745776 0.831007
Si Si4 0.563793 0.395765 0.629575
Si Si5 0.278762 0.792063 0.027206
Si Si6 0.188227 0.655703 0.086019
Si Si7 0.651342 0.894922 0.261910
Si Si8 0.937714 0.726381 0.620206
O O1 0.165766 0.146818 0.768763
O O2 0.261331 0.091045 0.637636
O O3 0.203421 0.000000 0.843677
O O4 0.267041 0.130111 0.910084
O O5 0.931196 0.830187 0.675931
O O6 0.903769 0.000000 0.742033
O O7 0.916948 0.877122 0.958523
O O8 0.396667 0.657408 0.744998
O O9 0.359382 0.823603 0.709716
O O10 0.322785 0.725234 0.944307
O O11 0.422180 0.782607 0.942749
O O12 0.500000 0.365429 0.646487
O O13 0.570441 0.500000 0.670678
O O14 0.219604 0.749571 0.059644
O O15 0.300213 0.839159 0.179709
O O16 0.159821 0.612191 0.941493
O O17 0.594381 0.846900 0.220489
O O18 0.650702 0.000000 0.214179
O O19 0.000000 0.697159 0.638410
#
# Coordination Sequence:
#
# PCOD8188824 Si02
#       8
#     8   8   8   8   8   8   8   8
#     4  10  19  33  53  79 114 148 178 218 273 336
#     4  10  21  36  58  89 121 156 199 244 294 355
#     4  10  21  36  56  81 111 150 194 237 291 353
#     4  10  20  35  55  81 116 155 195 241 291 346
#     4  10  20  35  56  83 116 153 187 228 280 339
#     4  11  21  37  58  83 116 149 185 233 286 345
#     4  11  23  39  61  89 118 154 201 245 290 347
#     4  11  23  40  61  83 113 153 198 253 307 353
#
# _framework density 20.10501
#
# number of rings (size 3 to 8) (size 9 to 14) (size 15 to 20)
#    0.000    1.625    0.000    6.750    0.000    1.500 
#    0.000    5.625    0.000    0.000    0.000    0.000 
#    0.000    0.000    0.000    0.000    0.000    0.000 
#
# Total GULP energy -396520.208844 kJ/mol
# GULP energy per Si atom -12391.256526 kJ/mol
# Density = 2.005925 g / cm^3
# Si number density = 20.105010 Si / 1000 Ang^3
#
#
#
# Elastic Constant Matrix: (Units=GPa)
#
#
# Indices 1 2 3 4 5 6 
#
# 1 109.1677 33.1633 43.1786 0.0000 0.0000 0.0000
# 2 33.1633 81.5086 35.5481 0.0000 0.0000 0.0000
# 3 43.1786 35.5481 101.2575 0.0000 0.0000 0.0000
# 4 0.0000 0.0000 0.0000 18.8494 0.0000 0.0000
# 5 0.0000 0.0000 0.0000 0.0000 27.4772 0.0000
# 6 0.0000 0.0000 0.0000 0.0000 0.0000 25.2074
#
#
#
# Elastic Compliance Matrix: (Units=1/GPa)
#
#
# Indices 1 2 3 4 5 6 
#
# 1 0.011620 -0.003031 -0.003891 0.000000 0.000000 0.000000
# 2 -0.003031 0.015277 -0.004071 0.000000 0.000000 0.000000
# 3 -0.003891 -0.004071 0.012964 0.000000 0.000000 0.000000
# 4 0.000000 0.000000 0.000000 0.053052 0.000000 0.000000
# 5 0.000000 0.000000 0.000000 0.000000 0.036394 0.000000
# 6 0.000000 0.000000 0.000000 0.000000 0.000000 0.039671
#
#
# Mechanical properties :
#
#
# Convention : Reuss Voigt Hill
#
# Bulk Modulus (GPa) = 55.94127 57.30155 56.62141
# Shear Modulus (GPa) = 25.39076 26.30973 25.85024
#
# Velocity S-wave (km/s) = 3.55760 3.62140 3.58964
# Velocity P-wave (km/s) = 6.69031 6.78595 6.73830
#
# Compressibility (1/GPa) = 0.01787589
#
# Stress axis : x y z
#
# Youngs Moduli (GPa) = 86.05915 65.45689 77.13559
#
# Poissons Ratio (x) = 0.19839 0.30013
# Poissons Ratio (y) = 0.26083 0.31401
# Poissons Ratio (z) = 0.33486 0.26647
#
# Static dielectric constant tensor:
#      x y z
#    x 3.925970 0.000000 0.000000 
#    y 0.000000 3.581450 0.000000 
#    z 0.000000 0.000000 3.781990 
# 
# 
# High freq. dielectric constant tensor:
#      x y z
#    x 1.787400 0.000000 0.000000 
#    y 0.000000 1.767970 0.000000 
#    z 0.000000 0.000000 1.793420 
# 
# From -- ./inp_files/9482.got.cif
#   From: 2010.03.12/outbox.cif.g09.slc.cpg/sg44_5_cif.got.tgz:9482.got - 2010.04.14 02:36:11.
