data_PCOD8188584
_publ_section_title
;
Structure prediction by ZEFSAII (Michael W. Deem and Ramdas Pophale) SiO2 
 PCOD8188584
Probable space group: I M M 2
;
_chemical_formula_sum "Si O2"
_cell_formula_units_Z 64
_cell_length_a 8.840552
_cell_length_b 23.304586
_cell_length_c 19.099437
_cell_angle_alpha 90.000000
_cell_angle_beta 90.000000
_cell_angle_gamma 90.000000
_cell_volume 3934.969231
_symmetry_space_group_name_H-M "I M M 2"
_symmetry_group_IT_number 44
_symmetry_cell_setting 'orthorhombic'
loop_
_space_group_symop_operation_xyz
x,y,z
-x,-y,z
-x,y,z
x,-y,z
1/2+x,1/2+y,1/2+z
1/2-x,1/2-y,1/2+z
1/2-x,1/2+y,1/2+z
1/2+x,1/2-y,1/2+z
loop_
_atom_site_type_symbol
_atom_site_label
_atom_site_fract_x
_atom_site_fract_y
_atom_site_fract_z
Si Si1 0.673034 0.565287 0.603020
Si Si2 0.825734 0.832236 0.199114
Si Si3 0.178902 0.231776 0.613761
Si Si4 0.822525 0.064980 0.837545
Si Si5 0.322148 0.881040 0.970646
Si Si6 0.323298 0.221238 0.322266
Si Si7 0.321682 0.666012 0.244647
Si Si8 0.822824 0.756501 0.973356
O O1 0.500000 0.570476 0.576533
O O2 0.715050 0.500000 0.621901
O O3 0.696701 0.602573 0.673344
O O4 0.781938 0.587968 0.542719
O O5 0.730874 0.791602 0.147433
O O6 0.765681 0.827778 0.279072
O O7 0.000000 0.813328 0.195854
O O8 0.229439 0.179126 0.664730
O O9 0.256219 0.221828 0.538980
O O10 0.000000 0.234410 0.603557
O O11 0.735363 0.078793 0.908414
O O12 0.760322 0.105570 0.774487
O O13 0.000000 0.075106 0.851249
O O14 0.788344 0.000000 0.814806
O O15 0.500000 0.873371 0.965363
O O16 0.248479 0.818829 0.966015
O O17 0.500000 0.213277 0.306879
O O18 0.264499 0.282941 0.294864
O O19 0.287312 0.218087 0.404787
O O20 0.500000 0.664776 0.247112
O O21 0.000000 0.765598 0.983436
#
# Coordination Sequence:
#
# PCOD8188584 Si02
#       8
#     8   8   8   8   8   8   8   8
#     4  10  21  36  51  67  93 132 168 197 233 281
#     4  10  19  31  49  71  95 124 161 199 235 285
#     4  10  19  31  48  70  98 126 156 199 245 286
#     4  10  19  33  52  69  91 130 172 201 230 277
#     4  12  23  32  45  69 100 131 164 201 238 278
#     4   9  18  32  50  67  94 125 154 197 246 290
#     4   8  15  30  47  67  93 123 155 192 239 281
#     4  11  20  33  51  71  96 129 164 197 241 293
#
# _framework density 16.264420999999999
#
# number of rings (size 3 to 8) (size 9 to 14) (size 15 to 20)
#    0.000    2.000    2.500    3.375    0.000    3.500 
#    0.000    0.625    0.000    0.000    0.000    0.875 
#    0.000    5.000    0.000    0.000    0.000    0.000 
#
# Total GULP energy -396734.790733 kJ/mol
# GULP energy per Si atom -12397.962210 kJ/mol
# Density = 1.622740 g / cm^3
# Si number density = 16.264421 Si / 1000 Ang^3
#
#
#
# Elastic Constant Matrix: (Units=GPa)
#
#
# Indices 1 2 3 4 5 6 
#
# 1 76.9417 35.2933 51.3165 0.0000 0.0000 0.0000
# 2 35.2933 82.1883 58.4143 0.0000 0.0000 0.0000
# 3 51.3165 58.4143 123.5299 0.0000 0.0000 0.0000
# 4 0.0000 0.0000 0.0000 19.8624 0.0000 0.0000
# 5 0.0000 0.0000 0.0000 0.0000 27.6369 0.0000
# 6 0.0000 0.0000 0.0000 0.0000 0.0000 16.6222
#
#
#
# Elastic Compliance Matrix: (Units=1/GPa)
#
#
# Indices 1 2 3 4 5 6 
#
# 1 0.018728 -0.003785 -0.005990 0.000000 0.000000 0.000000
# 2 -0.003785 0.019091 -0.007456 0.000000 0.000000 0.000000
# 3 -0.005990 -0.007456 0.014109 0.000000 0.000000 0.000000
# 4 0.000000 0.000000 0.000000 0.050346 0.000000 0.000000
# 5 0.000000 0.000000 0.000000 0.000000 0.036183 0.000000
# 6 0.000000 0.000000 0.000000 0.000000 0.000000 0.060161
#
#
# Mechanical properties :
#
#
# Convention : Reuss Voigt Hill
#
# Bulk Modulus (GPa) = 57.24903 63.63424 60.44164
# Shear Modulus (GPa) = 20.92898 22.00001 21.46450
#
# Velocity S-wave (km/s) = 3.59108 3.68182 3.63674
# Velocity P-wave (km/s) = 7.24361 7.56863 7.40790
#
# Compressibility (1/GPa) = 0.01746754
#
# Stress axis : x y z
#
# Youngs Moduli (GPa) = 53.39548 52.37959 70.87537
#
# Poissons Ratio (x) = 0.19824 0.42457
# Poissons Ratio (y) = 0.20209 0.52842
# Poissons Ratio (z) = 0.31986 0.39052
#
# Static dielectric constant tensor:
#      x y z
#    x 3.064750 0.000000 0.000000 
#    y 0.000000 3.051770 0.000000 
#    z 0.000000 0.000000 3.319590 
# 
# 
# High freq. dielectric constant tensor:
#      x y z
#    x 1.624370 0.000000 0.000000 
#    y 0.000000 1.596730 0.000000 
#    z 0.000000 0.000000 1.623770 
# 
# From -- ./inp_files/20872.got.cif
#   From: 2010.03.12/outbox.cif.g09.slc.cpg/sg44_11_cif.got.tgz:20872.got - 2010.04.14 02:36:11.
