data_PCOD8188593
_publ_section_title
;
Structure prediction by ZEFSAII (Michael W. Deem and Ramdas Pophale) SiO2 
 PCOD8188593
Probable space group: I M M 2
;
_chemical_formula_sum "Si O2"
_cell_formula_units_Z 64
_cell_length_a 9.177350
_cell_length_b 14.658676
_cell_length_c 27.836383
_cell_angle_alpha 90.000000
_cell_angle_beta 90.000000
_cell_angle_gamma 90.000000
_cell_volume 3744.767370
_symmetry_space_group_name_H-M "I M M 2"
_symmetry_group_IT_number 44
_symmetry_cell_setting 'orthorhombic'
loop_
_space_group_symop_operation_xyz
x,y,z
-x,-y,z
-x,y,z
x,-y,z
1/2+x,1/2+y,1/2+z
1/2-x,1/2-y,1/2+z
1/2-x,1/2+y,1/2+z
1/2+x,1/2-y,1/2+z
loop_
_atom_site_type_symbol
_atom_site_label
_atom_site_fract_x
_atom_site_fract_y
_atom_site_fract_z
Si Si1 0.339454 0.653498 0.275640
Si Si2 0.326730 0.598144 0.377085
Si Si3 0.328809 0.394892 0.102950
Si Si4 0.159358 0.644421 0.813424
Si Si5 0.826094 0.287985 0.912706
Si Si6 0.167435 0.098818 0.225199
Si Si7 0.668333 0.105008 0.505210
Si Si8 0.827266 0.708950 0.186616
O O1 0.500000 0.616120 0.259769
O O2 0.274352 0.599124 0.321337
O O3 0.358676 0.755828 0.292414
O O4 0.227749 0.647302 0.231190
O O5 0.500000 0.606582 0.376247
O O6 0.277416 0.500000 0.399368
O O7 0.264844 0.683594 0.407970
O O8 0.500000 0.375283 0.103701
O O9 0.294284 0.500000 0.116334
O O10 0.267357 0.371587 0.050584
O O11 0.248947 0.327047 0.139005
O O12 0.227956 0.651610 0.867139
O O13 0.260349 0.588383 0.777516
O O14 0.000000 0.597368 0.815598
O O15 0.000000 0.287368 0.911520
O O16 0.770240 0.332770 0.961864
O O17 0.223157 0.184705 0.193527
O O18 0.000000 0.117424 0.235766
O O19 0.191931 0.000000 0.198861
O O20 0.500000 0.127647 0.517213
O O21 0.684881 0.000000 0.489736
O O22 0.000000 0.698519 0.181545
#
# Coordination Sequence:
#
# PCOD8188593 Si02
#       8
#     8   8   8   8   8   8   8   8
#     4   8  14  25  40  61  91 123 154 186 217 252
#     4   8  13  22  39  64  93 123 152 181 214 255
#     4  10  21  36  52  69  89 113 144 186 235 283
#     4   8  14  25  41  62  89 121 156 189 216 248
#     4   8  14  25  42  65  91 117 148 186 223 260
#     4   9  18  31  45  65  96 129 156 184 221 264
#     4   9  17  30  48  68  89 113 143 182 228 273
#     4  10  19  31  49  70  92 120 153 189 228 271
#
# _framework density 17.090513999999999
#
# number of rings (size 3 to 8) (size 9 to 14) (size 15 to 20)
#    0.000    3.250    0.000    2.250    0.000    2.500 
#    0.000    3.125    0.000    3.000    0.000    3.500 
#    0.000    0.000    0.000    0.000    0.000    0.000 
#
# Total GULP energy -396436.630655 kJ/mol
# GULP energy per Si atom -12388.644708 kJ/mol
# Density = 1.705162 g / cm^3
# Si number density = 17.090514 Si / 1000 Ang^3
#
#
#
# Elastic Constant Matrix: (Units=GPa)
#
#
# Indices 1 2 3 4 5 6 
#
# 1 54.1986 31.9001 43.5712 0.0000 0.0000 0.0000
# 2 31.9001 101.5535 64.1115 0.0000 0.0000 0.0000
# 3 43.5712 64.1115 116.6322 0.0000 0.0000 0.0000
# 4 0.0000 0.0000 0.0000 23.8247 0.0000 0.0000
# 5 0.0000 0.0000 0.0000 0.0000 22.5199 0.0000
# 6 0.0000 0.0000 0.0000 0.0000 0.0000 14.1326
#
#
#
# Elastic Compliance Matrix: (Units=1/GPa)
#
#
# Indices 1 2 3 4 5 6 
#
# 1 0.027050 -0.003243 -0.008323 0.000000 0.000000 0.000000
# 2 -0.003243 0.015469 -0.007292 0.000000 0.000000 0.000000
# 3 -0.008323 -0.007292 0.015691 0.000000 0.000000 0.000000
# 4 0.000000 0.000000 0.000000 0.041973 0.000000 0.000000
# 5 0.000000 0.000000 0.000000 0.000000 0.044405 0.000000
# 6 0.000000 0.000000 0.000000 0.000000 0.000000 0.070759
#
#
# Mechanical properties :
#
#
# Convention : Reuss Voigt Hill
#
# Bulk Modulus (GPa) = 48.79030 61.28334 55.03682
# Shear Modulus (GPa) = 19.23863 20.94888 20.09375
#
# Velocity S-wave (km/s) = 3.35877 3.50488 3.43261
# Velocity P-wave (km/s) = 6.60696 7.23290 6.92701
#
# Compressibility (1/GPa) = 0.02049588
#
# Stress axis : x y z
#
# Youngs Moduli (GPa) = 36.96842 64.64561 63.72942
#
# Poissons Ratio (x) = 0.20963 0.53041
# Poissons Ratio (y) = 0.11988 0.46470
# Poissons Ratio (z) = 0.30768 0.47138
#
# Static dielectric constant tensor:
#      x y z
#    x 3.094160 0.000000 0.000000 
#    y 0.000000 3.416430 0.000000 
#    z 0.000000 0.000000 3.196160 
# 
# 
# High freq. dielectric constant tensor:
#      x y z
#    x 1.631140 0.000000 0.000000 
#    y 0.000000 1.659340 0.000000 
#    z 0.000000 0.000000 1.638560 
# 
# From -- ./inp_files/27333.got.cif
#   From: 2010.03.12/outbox.cif.g09.slc.cpg/sg44_14_cif.got.tgz:27333.got - 2010.04.14 02:36:11.
