data_PCOD8188055
_publ_section_title
;
Structure prediction by ZEFSAII (Michael W. Deem and Ramdas Pophale) SiO2 
 PCOD8188055
Probable space group: I M M 2
;
_chemical_formula_sum "Si O2"
_cell_formula_units_Z 56
_cell_length_a 9.279065
_cell_length_b 21.896283
_cell_length_c 17.585083
_cell_angle_alpha 90.000000
_cell_angle_beta 90.000000
_cell_angle_gamma 90.000000
_cell_volume 3572.884993
_symmetry_space_group_name_H-M "I M M 2"
_symmetry_group_IT_number 44
_symmetry_cell_setting 'orthorhombic'
loop_
_space_group_symop_operation_xyz
x,y,z
-x,-y,z
-x,y,z
x,-y,z
1/2+x,1/2+y,1/2+z
1/2-x,1/2-y,1/2+z
1/2-x,1/2+y,1/2+z
1/2+x,1/2-y,1/2+z
loop_
_atom_site_type_symbol
_atom_site_label
_atom_site_fract_x
_atom_site_fract_y
_atom_site_fract_z
Si Si1 0.335173 0.713744 0.735980
Si Si2 0.332416 0.147551 0.773562
Si Si3 0.834343 0.929531 0.652787
Si Si4 0.340243 0.677116 0.412235
Si Si5 0.831547 0.158816 0.517366
Si Si6 0.662426 0.819312 0.373514
Si Si7 0.333130 0.276544 0.566980
O O1 0.500000 0.703133 0.760394
O O2 0.296763 0.785413 0.741672
O O3 0.236294 0.672713 0.790959
O O4 0.306061 0.693013 0.649252
O O5 0.500000 0.133759 0.777364
O O6 0.261605 0.097910 0.719507
O O7 0.270450 0.140450 0.859295
O O8 0.801940 0.898238 0.572101
O O9 0.000000 0.919620 0.676048
O O10 0.794281 0.000000 0.643352
O O11 0.500000 0.651052 0.396477
O O12 0.334507 0.748672 0.394769
O O13 0.300022 0.672288 0.502091
O O14 0.751695 0.144400 0.437734
O O15 0.769792 0.218625 0.558318
O O16 0.000000 0.169095 0.501167
O O17 0.500000 0.844982 0.369663
O O18 0.500000 0.254354 0.559848
#
# Coordination Sequence:
#
# PCOD8188055 Si02
#       7
#     8   8   8   8   8   8   8
#     4   9  16  26  41  62  88 113 141 173 207 249
#     4  10  18  28  43  60  82 110 142 180 216 248
#     4  10  21  34  46  61  82 111 148 185 219 257
#     4   8  15  26  40  57  81 112 141 167 204 253
#     4  10  18  28  43  59  79 109 144 179 216 253
#     4   9  17  27  40  58  82 111 142 172 208 254
#     4   9  16  27  42  62  87 114 141 172 208 249
#
# _framework density 15.673608
#
# number of rings (size 3 to 8) (size 9 to 14) (size 15 to 20)
#    0.000    2.714    1.429    2.143    0.000    5.429 
#    0.000    0.000    0.000    0.000    0.000    0.000 
#    0.000    1.143    0.000    9.143    0.000    4.143 
#
# Total GULP energy -347115.725919 kJ/mol
# GULP energy per Si atom -12396.990211 kJ/mol
# Density = 1.563793 g / cm^3
# Si number density = 15.673608 Si / 1000 Ang^3
#
#
#
# Elastic Constant Matrix: (Units=GPa)
#
#
# Indices 1 2 3 4 5 6 
#
# 1 105.3512 38.8902 75.3541 0.0000 0.0000 0.0000
# 2 38.8902 40.3467 38.0680 0.0000 0.0000 0.0000
# 3 75.3541 38.0680 151.9151 0.0000 0.0000 0.0000
# 4 0.0000 0.0000 0.0000 15.1384 0.0000 0.0000
# 5 0.0000 0.0000 0.0000 0.0000 28.6342 0.0000
# 6 0.0000 0.0000 0.0000 0.0000 0.0000 13.6944
#
#
#
# Elastic Compliance Matrix: (Units=1/GPa)
#
#
# Indices 1 2 3 4 5 6 
#
# 1 0.018188 -0.011812 -0.006062 0.000000 0.000000 0.000000
# 2 -0.011812 0.040131 -0.004197 0.000000 0.000000 0.000000
# 3 -0.006062 -0.004197 0.010641 0.000000 0.000000 0.000000
# 4 0.000000 0.000000 0.000000 0.066057 0.000000 0.000000
# 5 0.000000 0.000000 0.000000 0.000000 0.034923 0.000000
# 6 0.000000 0.000000 0.000000 0.000000 0.000000 0.073023
#
#
# Mechanical properties :
#
#
# Convention : Reuss Voigt Hill
#
# Bulk Modulus (GPa) = 40.29317 66.91528 53.60422
# Shear Modulus (GPa) = 16.92738 21.18012 19.05375
#
# Velocity S-wave (km/s) = 3.28989 3.68002 3.49041
# Velocity P-wave (km/s) = 6.33992 7.80015 7.10764
#
# Compressibility (1/GPa) = 0.02481810
#
# Stress axis : x y z
#
# Youngs Moduli (GPa) = 54.97993 24.91832 93.97363
#
# Poissons Ratio (x) = 0.29434 0.56967
# Poissons Ratio (y) = 0.64944 0.39442
# Poissons Ratio (z) = 0.33329 0.10459
#
# Static dielectric constant tensor:
#      x y z
#    x 3.125330 0.000000 0.000000 
#    y 0.000000 2.433080 0.000000 
#    z 0.000000 0.000000 3.350010 
# 
# 
# High freq. dielectric constant tensor:
#      x y z
#    x 1.612950 0.000000 0.000000 
#    y 0.000000 1.524030 0.000000 
#    z 0.000000 0.000000 1.618740 
# 
# From -- ./inp_files/20635.got.cif
#   From: 2010.03.12/outbox.cif.g09.slc.cpg/sg44_11_cif.got.tgz:20635.got - 2010.04.14 02:36:11.
