data_PCOD8188261
_publ_section_title
;
Structure prediction by ZEFSAII (Michael W. Deem and Ramdas Pophale) SiO2 
 PCOD8188261
Probable space group: I M M 2
;
_chemical_formula_sum "Si O2"
_cell_formula_units_Z 36
_cell_length_a 7.522408
_cell_length_b 12.943001
_cell_length_c 22.354241
_cell_angle_alpha 90.000000
_cell_angle_beta 90.000000
_cell_angle_gamma 90.000000
_cell_volume 2176.465555
_symmetry_space_group_name_H-M "I M M 2"
_symmetry_group_IT_number 44
_symmetry_cell_setting 'orthorhombic'
loop_
_space_group_symop_operation_xyz
x,y,z
-x,-y,z
-x,y,z
x,-y,z
1/2+x,1/2+y,1/2+z
1/2-x,1/2-y,1/2+z
1/2-x,1/2+y,1/2+z
1/2+x,1/2-y,1/2+z
loop_
_atom_site_type_symbol
_atom_site_label
_atom_site_fract_x
_atom_site_fract_y
_atom_site_fract_z
Si Si1 0.296682 0.617842 0.047740
Si Si2 0.296142 0.881077 0.784293
Si Si3 0.500000 0.878197 0.212293
Si Si4 0.797144 0.261622 0.165935
Si Si5 0.500000 0.880372 0.454007
Si Si6 0.000000 0.742679 0.832376
O O1 0.500000 0.632900 0.027904
O O2 0.257411 0.500000 0.067351
O O3 0.250351 0.691335 0.102354
O O4 0.175297 0.648000 0.991630
O O5 0.500000 0.861901 0.802646
O O6 0.261030 0.849077 0.715685
O O7 0.175108 0.813532 0.828159
O O8 0.242082 0.000000 0.790829
O O9 0.325004 0.837149 0.178619
O O10 0.500000 0.844208 0.281274
O O11 0.500000 0.000000 0.208529
O O12 0.000000 0.223415 0.167170
O O13 0.500000 0.811214 0.395745
O O14 0.500000 0.000000 0.435133
#
# Coordination Sequence:
#
# PCOD8188261 Si02
#       6
#     8   8   4   8   4   4
#     4  10  19  31  51  80 107 131 161 206 263 314
#     4   9  18  31  51  80 108 131 161 209 261 306
#     4  10  21  35  51  74 105 138 175 215 249 294
#     4  10  18  31  53  80 106 133 163 205 265 315
#     4  10  21  35  51  74 105 138 173 211 249 298
#     4  10  20  34  52  74 100 144 178 204 244 302
#
# _framework density 16.540579999999999
#
# number of rings (size 3 to 8) (size 9 to 14) (size 15 to 20)
#    0.000    2.222    2.222    1.333    0.000    2.222 
#    0.000    0.000    0.000    6.667    0.000    0.000 
#    0.000    0.000    0.000    0.000    0.000    0.000 
#
# Total GULP energy -223238.926862 kJ/mol
# GULP energy per Si atom -12402.162603 kJ/mol
# Density = 1.650293 g / cm^3
# Si number density = 16.540580 Si / 1000 Ang^3
#
#
#
# Elastic Constant Matrix: (Units=GPa)
#
#
# Indices 1 2 3 4 5 6 
#
# 1 138.1799 70.8356 65.2370 0.0000 0.0000 0.0000
# 2 70.8356 129.3533 74.4149 0.0000 0.0000 0.0000
# 3 65.2370 74.4149 120.3651 0.0000 0.0000 0.0000
# 4 0.0000 0.0000 0.0000 24.6239 0.0000 0.0000
# 5 0.0000 0.0000 0.0000 0.0000 21.4209 0.0000
# 6 0.0000 0.0000 0.0000 0.0000 0.0000 20.0173
#
#
#
# Elastic Compliance Matrix: (Units=1/GPa)
#
#
# Indices 1 2 3 4 5 6 
#
# 1 0.010910 -0.003993 -0.003445 0.000000 0.000000 0.000000
# 2 -0.003993 0.013459 -0.006157 0.000000 0.000000 0.000000
# 3 -0.003445 -0.006157 0.013982 0.000000 0.000000 0.000000
# 4 0.000000 0.000000 0.000000 0.040611 0.000000 0.000000
# 5 0.000000 0.000000 0.000000 0.000000 0.046683 0.000000
# 6 0.000000 0.000000 0.000000 0.000000 0.000000 0.049957
#
#
# Mechanical properties :
#
#
# Convention : Reuss Voigt Hill
#
# Bulk Modulus (GPa) = 89.59022 89.87479 89.73250
# Shear Modulus (GPa) = 24.21168 25.03981 24.62575
#
# Velocity S-wave (km/s) = 3.83008 3.89503 3.86269
# Velocity P-wave (km/s) = 8.59307 8.64189 8.61751
#
# Compressibility (1/GPa) = 0.01116193
#
# Stress axis : x y z
#
# Youngs Moduli (GPa) = 91.65835 74.29770 71.52278
#
# Poissons Ratio (x) = 0.29666 0.24637
# Poissons Ratio (y) = 0.36598 0.44037
# Poissons Ratio (z) = 0.31573 0.45745
#
# Static dielectric constant tensor:
#      x y z
#    x 3.571970 0.000000 0.000000 
#    y 0.000000 2.913280 0.000000 
#    z 0.000000 0.000000 2.877330 
# 
# 
# High freq. dielectric constant tensor:
#      x y z
#    x 1.659790 0.000000 0.000000 
#    y 0.000000 1.620120 0.000000 
#    z 0.000000 0.000000 1.619090 
# 
# From -- ./inp_files/22702.got.cif
#   From: 2010.03.12/outbox.cif.g09.slc.cpg/sg44_12_cif.got.tgz:22702.got - 2010.04.14 02:36:11.
