data_PCOD8188550
_publ_section_title
;
Structure prediction by ZEFSAII (Michael W. Deem and Ramdas Pophale) SiO2 
 PCOD8188550
Probable space group: I M M 2
;
_chemical_formula_sum "Si O2"
_cell_formula_units_Z 56
_cell_length_a 8.617375
_cell_length_b 18.968187
_cell_length_c 17.967928
_cell_angle_alpha 90.000000
_cell_angle_beta 90.000000
_cell_angle_gamma 90.000000
_cell_volume 2936.965288
_symmetry_space_group_name_H-M "I M M 2"
_symmetry_group_IT_number 44
_symmetry_cell_setting 'orthorhombic'
loop_
_space_group_symop_operation_xyz
x,y,z
-x,-y,z
-x,y,z
x,-y,z
1/2+x,1/2+y,1/2+z
1/2-x,1/2-y,1/2+z
1/2-x,1/2+y,1/2+z
1/2+x,1/2-y,1/2+z
loop_
_atom_site_type_symbol
_atom_site_label
_atom_site_fract_x
_atom_site_fract_y
_atom_site_fract_z
Si Si1 0.179565 0.694903 0.920760
Si Si2 0.823369 0.829761 0.575324
Si Si3 0.183127 0.919166 0.712818
Si Si4 0.826623 0.216422 0.163984
Si Si5 0.323645 0.795710 0.810598
Si Si6 0.826330 0.922487 0.327159
Si Si7 0.177751 0.422570 0.673883
O O1 0.231785 0.770162 0.884731
O O2 0.284219 0.632391 0.890095
O O3 0.000000 0.683661 0.903035
O O4 0.206718 0.688138 0.008711
O O5 0.772673 0.896023 0.627809
O O6 0.808773 0.762510 0.628496
O O7 0.000000 0.837934 0.547013
O O8 0.259205 0.868122 0.774703
O O9 0.000000 0.912708 0.723214
O O10 0.239581 0.000000 0.724694
O O11 0.814135 0.229865 0.252894
O O12 0.791363 0.136109 0.139924
O O13 0.000000 0.236351 0.136238
O O14 0.500000 0.811079 0.833861
O O15 0.699703 0.920506 0.262303
O O16 0.000000 0.906238 0.295727
O O17 0.824053 0.000000 0.364503
O O18 0.223075 0.500000 0.642374
O O19 0.000000 0.404957 0.655301
#
# Coordination Sequence:
#
# PCOD8188550 Si02
#       7
#     8   8   8   8   8   8   8
#     4  12  23  35  53  78 111 147 186 228 275 330
#     4  10  21  36  55  78 109 145 183 225 275 332
#     4   9  19  37  60  85 112 145 186 231 281 336
#     4  10  19  33  53  76 104 137 179 225 268 319
#     4  10  20  34  55  81 108 142 184 229 276 325
#     4  10  20  33  49  72 104 140 176 214 258 309
#     4  10  19  30  48  75 104 135 172 213 258 308
#
# _framework density 19.067299999999999
#
# number of rings (size 3 to 8) (size 9 to 14) (size 15 to 20)
#    0.000    1.857    1.429    3.429    0.000    4.286 
#    0.000    1.429    0.000    0.857    0.000    0.000 
#    0.000    0.000    0.000    0.000    0.000    0.000 
#
# Total GULP energy -347004.365003 kJ/mol
# GULP energy per Si atom -12393.013036 kJ/mol
# Density = 1.902390 g / cm^3
# Si number density = 19.067300 Si / 1000 Ang^3
#
#
#
# Elastic Constant Matrix: (Units=GPa)
#
#
# Indices 1 2 3 4 5 6 
#
# 1 75.8394 35.5899 15.9257 0.0000 0.0000 0.0000
# 2 35.5899 122.9365 20.7661 0.0000 0.0000 0.0000
# 3 15.9257 20.7661 49.3121 0.0000 0.0000 0.0000
# 4 0.0000 0.0000 0.0000 17.1697 0.0000 0.0000
# 5 0.0000 0.0000 0.0000 0.0000 27.3102 0.0000
# 6 0.0000 0.0000 0.0000 0.0000 0.0000 28.4003
#
#
#
# Elastic Compliance Matrix: (Units=1/GPa)
#
#
# Indices 1 2 3 4 5 6 
#
# 1 0.015775 -0.003990 -0.003414 0.000000 0.000000 0.000000
# 2 -0.003990 0.009766 -0.002824 0.000000 0.000000 0.000000
# 3 -0.003414 -0.002824 0.022571 0.000000 0.000000 0.000000
# 4 0.000000 0.000000 0.000000 0.058242 0.000000 0.000000
# 5 0.000000 0.000000 0.000000 0.000000 0.036616 0.000000
# 6 0.000000 0.000000 0.000000 0.000000 0.000000 0.035211
#
#
# Mechanical properties :
#
#
# Convention : Reuss Voigt Hill
#
# Bulk Modulus (GPa) = 36.15947 43.62792 39.89370
# Shear Modulus (GPa) = 24.05488 26.29645 25.17566
#
# Velocity S-wave (km/s) = 3.55572 3.71770 3.63762
# Velocity P-wave (km/s) = 5.98856 6.43111 6.21377
#
# Compressibility (1/GPa) = 0.02765527
#
# Stress axis : x y z
#
# Youngs Moduli (GPa) = 63.39046 102.39115 44.30468
#
# Poissons Ratio (x) = 0.40856 0.15127
# Poissons Ratio (y) = 0.25294 0.12512
# Poissons Ratio (z) = 0.21644 0.28917
#
# Static dielectric constant tensor:
#      x y z
#    x 3.416500 0.000000 0.000000 
#    y 0.000000 3.651770 0.000000 
#    z 0.000000 0.000000 3.159770 
# 
# 
# High freq. dielectric constant tensor:
#      x y z
#    x 1.749810 0.000000 0.000000 
#    y 0.000000 1.745450 0.000000 
#    z 0.000000 0.000000 1.699880 
# 
# From -- ./inp_files/20683.got.cif
#   From: 2010.03.12/outbox.cif.g09.slc.cpg/sg44_11_cif.got.tgz:20683.got - 2010.04.14 02:36:11.
