data_PCOD8188087
_publ_section_title
;
Structure prediction by ZEFSAII (Michael W. Deem and Ramdas Pophale) SiO2 
 PCOD8188087
Probable space group: I M M 2
;
_chemical_formula_sum "Si O2"
_cell_formula_units_Z 64
_cell_length_a 9.081114
_cell_length_b 29.877681
_cell_length_c 14.431814
_cell_angle_alpha 90.000000
_cell_angle_beta 90.000000
_cell_angle_gamma 90.000000
_cell_volume 3915.677690
_symmetry_space_group_name_H-M "I M M 2"
_symmetry_group_IT_number 44
_symmetry_cell_setting 'orthorhombic'
loop_
_space_group_symop_operation_xyz
x,y,z
-x,-y,z
-x,y,z
x,-y,z
1/2+x,1/2+y,1/2+z
1/2-x,1/2-y,1/2+z
1/2-x,1/2+y,1/2+z
1/2+x,1/2-y,1/2+z
loop_
_atom_site_type_symbol
_atom_site_label
_atom_site_fract_x
_atom_site_fract_y
_atom_site_fract_z
Si Si1 0.327044 0.550471 0.186680
Si Si2 0.327671 0.868446 0.625759
Si Si3 0.829598 0.551086 0.380147
Si Si4 0.324803 0.785140 0.505782
Si Si5 0.331211 0.222673 0.298639
Si Si6 0.326122 0.300420 0.619651
Si Si7 0.664190 0.673635 0.286924
Si Si8 0.167937 0.126398 0.976327
O O1 0.500000 0.558141 0.191570
O O2 0.287024 0.500000 0.156536
O O3 0.255461 0.584067 0.111089
O O4 0.262869 0.561387 0.287953
O O5 0.500000 0.876890 0.617913
O O6 0.272757 0.831720 0.551918
O O7 0.287825 0.851430 0.728187
O O8 0.806319 0.500000 0.412574
O O9 0.771431 0.583183 0.462057
O O10 0.000000 0.561006 0.359135
O O11 0.500000 0.781058 0.503839
O O12 0.263486 0.785598 0.400893
O O13 0.262182 0.742795 0.563816
O O14 0.500000 0.206901 0.295730
O O15 0.242039 0.195086 0.221855
O O16 0.313928 0.274177 0.273238
O O17 0.500000 0.295280 0.628871
O O18 0.283535 0.346449 0.567642
O O19 0.500000 0.659188 0.253796
O O20 0.686161 0.661953 0.393862
O O21 0.000000 0.109562 0.984351
#
# Coordination Sequence:
#
# PCOD8188087 Si02
#       8
#     8   8   8   8   8   8   8   8
#     4  10  20  33  48  67  96 130 159 192 239 293
#     4  11  20  30  48  71  95 128 164 201 238 280
#     4  10  20  32  47  70  99 126 157 200 241 282
#     4   9  18  32  48  67  96 130 160 193 241 285
#     4  10  19  33  49  67  95 132 168 202 236 279
#     4  10  19  33  49  69  97 129 164 201 239 282
#     4  10  18  28  45  68  95 129 165 196 231 280
#     4  10  19  31  49  69  95 134 166 194 238 287
#
# _framework density 16.344552
#
# number of rings (size 3 to 8) (size 9 to 14) (size 15 to 20)
#    0.000    2.000    3.750    1.125    0.000    2.000 
#    0.000    1.875    0.000    0.000    0.000    0.875 
#    0.000    1.000    0.000    0.000    0.000    0.000 
#
# Total GULP energy -396766.740504 kJ/mol
# GULP energy per Si atom -12398.960641 kJ/mol
# Density = 1.630735 g / cm^3
# Si number density = 16.344552 Si / 1000 Ang^3
#
#
#
# Elastic Constant Matrix: (Units=GPa)
#
#
# Indices 1 2 3 4 5 6 
#
# 1 54.8312 38.6138 26.0916 -0.0005 0.0000 0.0000
# 2 38.6138 93.6615 37.1697 -0.0007 0.0000 0.0000
# 3 26.0916 37.1697 74.7261 -0.0024 0.0000 -0.0001
# 4 -0.0005 -0.0007 -0.0024 23.7248 0.0000 0.0000
# 5 0.0000 0.0000 0.0000 0.0000 23.5112 -0.0001
# 6 0.0000 0.0000 -0.0001 0.0000 -0.0001 26.8111
#
#
#
# Elastic Compliance Matrix: (Units=1/GPa)
#
#
# Indices 1 2 3 4 5 6 
#
# 1 0.027043 -0.009222 -0.004855 0.000000 0.000000 0.000000
# 2 -0.009222 0.016448 -0.004961 0.000000 0.000000 0.000000
# 3 -0.004855 -0.004961 0.017545 0.000002 0.000000 0.000000
# 4 0.000000 0.000000 0.000002 0.042150 0.000000 0.000000
# 5 0.000000 0.000000 0.000000 0.000000 0.042533 0.000000
# 6 0.000000 0.000000 0.000000 0.000000 0.000000 0.037298
#
#
# Mechanical properties :
#
#
# Convention : Reuss Voigt Hill
#
# Bulk Modulus (GPa) = 43.55674 47.44101 45.49887
# Shear Modulus (GPa) = 21.85830 22.89898 22.37864
#
# Velocity S-wave (km/s) = 3.66094 3.74708 3.70426
# Velocity P-wave (km/s) = 6.67659 6.91443 6.79655
#
# Compressibility (1/GPa) = 0.02295856
#
# Stress axis : x y z
#
# Youngs Moduli (GPa) = 36.97873 60.79920 56.99556
#
# Poissons Ratio (x) = 0.56069 0.27672
# Poissons Ratio (y) = 0.34102 0.28277
# Poissons Ratio (z) = 0.17954 0.30164
#
# Static dielectric constant tensor:
#      x y z
#    x 3.000110 0.000000 0.000000 
#    y 0.000000 3.208850 0.000000 
#    z 0.000000 0.000000 2.938570 
# 
# 
# High freq. dielectric constant tensor:
#      x y z
#    x 1.621570 0.000000 0.000000 
#    y 0.000000 1.627680 0.000000 
#    z 0.000000 0.000000 1.598010 
# 
# From -- ./inp_files/17101.got.cif
#   From: 2010.03.12/outbox.cif.g09.slc.cpg/sg44_9_cif.got.tgz:17101.got - 2010.04.14 02:36:11.
