data_PCOD8188989
_publ_section_title
;
Structure prediction by ZEFSAII (Michael W. Deem and Ramdas Pophale) SiO2 
 PCOD8188989
Probable space group: I M M 2
;
_chemical_formula_sum "Si O2"
_cell_formula_units_Z 64
_cell_length_a 9.129283
_cell_length_b 28.018537
_cell_length_c 12.809394
_cell_angle_alpha 90.000000
_cell_angle_beta 90.000000
_cell_angle_gamma 90.000000
_cell_volume 3276.504048
_symmetry_space_group_name_H-M "I M M 2"
_symmetry_group_IT_number 44
_symmetry_cell_setting 'orthorhombic'
loop_
_space_group_symop_operation_xyz
x,y,z
-x,-y,z
-x,y,z
x,-y,z
1/2+x,1/2+y,1/2+z
1/2-x,1/2-y,1/2+z
1/2-x,1/2+y,1/2+z
1/2+x,1/2-y,1/2+z
loop_
_atom_site_type_symbol
_atom_site_label
_atom_site_fract_x
_atom_site_fract_y
_atom_site_fract_z
Si Si1 0.669578 0.110606 0.546200
Si Si2 0.174514 0.445110 0.247158
Si Si3 0.838771 0.922514 0.155336
Si Si4 0.666763 0.447265 0.876666
Si Si5 0.172125 0.704545 0.936142
Si Si6 0.826769 0.293037 0.527944
Si Si7 0.164608 0.815205 0.227344
Si Si8 0.171138 0.600316 0.461267
O O1 0.500000 0.098137 0.543821
O O2 0.736837 0.087584 0.651825
O O3 0.737157 0.087247 0.444610
O O4 0.696048 0.167581 0.533351
O O5 0.230839 0.500000 0.237704
O O6 0.234652 0.420233 0.352492
O O7 0.000000 0.444343 0.247034
O O8 0.773948 0.948865 0.257448
O O9 0.848142 0.867252 0.181105
O O10 0.000000 0.942678 0.128737
O O11 0.737690 0.931191 0.054979
O O12 0.500000 0.427758 0.875386
O O13 0.675363 0.500000 0.925118
O O14 0.240955 0.682262 0.832103
O O15 0.000000 0.714386 0.919682
O O16 0.258086 0.753403 0.953400
O O17 0.751866 0.284830 0.640599
O O18 0.789611 0.343878 0.474431
O O19 0.000000 0.285939 0.539727
O O20 0.000000 0.794093 0.245614
O O21 0.000000 0.591970 0.466048
#
# Coordination Sequence:
#
# PCOD8188989 Si02
#       8
#     8   8   8   8   8   8   8   8
#     4  10  21  36  56  81 111 147 190 239 285 341
#     4   9  18  35  58  82 111 148 188 233 289 345
#     4   9  18  33  53  77 106 143 180 222 281 339
#     4  10  20  34  53  79 111 144 180 226 282 343
#     4  11  22  35  55  84 114 147 193 243 292 351
#     4  10  21  36  55  82 114 150 191 238 291 348
#     4  10  19  35  57  77 106 147 185 230 287 344
#     4   9  19  35  56  81 110 145 187 234 281 335
#
# _framework density 19.533014999999999
#
# number of rings (size 3 to 8) (size 9 to 14) (size 15 to 20)
#    0.000    2.250    1.250    1.500    0.000    4.250 
#    0.000    3.125    0.000    0.750    0.000    0.000 
#    0.000    0.000    0.000    0.000    0.000    0.000 
#
# Total GULP energy -396659.572113 kJ/mol
# GULP energy per Si atom -12395.611629 kJ/mol
# Density = 1.948856 g / cm^3
# Si number density = 19.533015 Si / 1000 Ang^3
#
#
#
# Elastic Constant Matrix: (Units=GPa)
#
#
# Indices 1 2 3 4 5 6 
#
# 1 63.3048 33.8930 35.3003 0.0004 -0.0001 0.0001
# 2 33.8930 68.7013 44.6739 -0.0010 -0.0001 -0.0003
# 3 35.3003 44.6739 126.4657 -0.0016 -0.0001 0.0002
# 4 0.0004 -0.0010 -0.0016 24.6486 -0.0003 -0.0002
# 5 -0.0001 -0.0001 -0.0001 -0.0003 30.4864 -0.0001
# 6 0.0001 -0.0003 0.0002 -0.0002 -0.0001 8.4005
#
#
#
# Elastic Compliance Matrix: (Units=1/GPa)
#
#
# Indices 1 2 3 4 5 6 
#
# 1 0.022332 -0.009040 -0.003040 -0.000001 0.000000 -0.000001
# 2 -0.009040 0.022556 -0.005444 0.000001 0.000000 0.000001
# 3 -0.003040 -0.005444 0.010679 0.000001 0.000000 0.000000
# 4 -0.000001 0.000001 0.000001 0.040570 0.000000 0.000001
# 5 0.000000 0.000000 0.000000 0.000000 0.032802 0.000000
# 6 -0.000001 0.000001 0.000000 0.000001 0.000000 0.119040
#
#
# Mechanical properties :
#
#
# Convention : Reuss Voigt Hill
#
# Bulk Modulus (GPa) = 48.73921 54.02292 51.38107
# Shear Modulus (GPa) = 17.24925 22.34742 19.79833
#
# Velocity S-wave (km/s) = 2.97489 3.38610 3.18714
# Velocity P-wave (km/s) = 6.06683 6.55781 6.31709
#
# Compressibility (1/GPa) = 0.02051736
#
# Stress axis : x y z
#
# Youngs Moduli (GPa) = 44.77891 44.33386 93.64103
#
# Poissons Ratio (x) = 0.40080 0.28467
# Poissons Ratio (y) = 0.40482 0.50983
# Poissons Ratio (z) = 0.13613 0.24137
#
# Static dielectric constant tensor:
#      x y z
#    x 3.533370 0.000000 0.000000 
#    y 0.000000 3.626840 0.000000 
#    z 0.000000 0.000000 3.761370 
# 
# 
# High freq. dielectric constant tensor:
#      x y z
#    x 1.744580 0.000000 0.000000 
#    y 0.000000 1.757120 0.000000 
#    z 0.000000 0.000000 1.763750 
# 
# From -- ./inp_files/11523.got.cif
#   From: 2010.03.12/outbox.cif.g09.slc.cpg/sg44_6_cif.got.tgz:11523.got - 2010.04.14 02:36:11.
