data_PCOD8188133
_publ_section_title
;
Structure prediction by ZEFSAII (Michael W. Deem and Ramdas Pophale) SiO2 
 PCOD8188133
Probable space group: I M M 2
;
_chemical_formula_sum "Si O2"
_cell_formula_units_Z 64
_cell_length_a 8.826377
_cell_length_b 23.299808
_cell_length_c 19.268237
_cell_angle_alpha 90.000000
_cell_angle_beta 90.000000
_cell_angle_gamma 90.000000
_cell_volume 3962.568613
_symmetry_space_group_name_H-M "I M M 2"
_symmetry_group_IT_number 44
_symmetry_cell_setting 'orthorhombic'
loop_
_space_group_symop_operation_xyz
x,y,z
-x,-y,z
-x,y,z
x,-y,z
1/2+x,1/2+y,1/2+z
1/2-x,1/2-y,1/2+z
1/2-x,1/2+y,1/2+z
1/2+x,1/2-y,1/2+z
loop_
_atom_site_type_symbol
_atom_site_label
_atom_site_fract_x
_atom_site_fract_y
_atom_site_fract_z
Si Si1 0.175447 0.066599 0.182450
Si Si2 0.177888 0.768327 0.675605
Si Si3 0.676754 0.670684 0.043453
Si Si4 0.325756 0.435314 0.954111
Si Si5 0.179132 0.658111 0.590568
Si Si6 0.821346 0.223060 0.971869
Si Si7 0.179982 0.744017 0.823794
Si Si8 0.821254 0.614196 0.820555
O O1 0.249148 0.099371 0.117446
O O2 0.251192 0.083578 0.254418
O O3 0.000000 0.082262 0.186858
O O4 0.203020 0.000000 0.168188
O O5 0.221491 0.821666 0.625161
O O6 0.235608 0.709280 0.640931
O O7 0.245653 0.774316 0.753553
O O8 0.000000 0.763620 0.683796
O O9 0.500000 0.687040 0.033508
O O10 0.712117 0.606045 0.019284
O O11 0.776023 0.713908 0.998253
O O12 0.500000 0.427802 0.931153
O O13 0.292153 0.500000 0.979088
O O14 0.221932 0.421008 0.888874
O O15 0.237297 0.672267 0.513024
O O16 0.000000 0.652046 0.589136
O O17 0.768649 0.219877 0.891201
O O18 0.000000 0.215185 0.980437
O O19 0.242311 0.678902 0.827090
O O20 0.000000 0.741031 0.822918
O O21 0.000000 0.613507 0.811055
#
# Coordination Sequence:
#
# PCOD8188133 Si02
#       8
#     8   8   8   8   8   8   8   8
#     4  11  23  36  49  69  98 130 164 202 243 283
#     4   8  14  27  46  66  87 113 152 195 236 277
#     4   9  17  29  46  65  86 120 161 201 241 285
#     4  10  20  32  44  63  94 128 162 202 245 284
#     4  10  19  33  51  70  94 125 162 199 235 284
#     4  10  18  29  47  69  95 122 152 195 246 290
#     4   9  16  27  45  69  94 122 153 192 238 283
#     4  11  20  32  47  67  95 129 169 202 230 278
#
# _framework density 16.151139000000001
#
# number of rings (size 3 to 8) (size 9 to 14) (size 15 to 20)
#    0.000    2.250    2.500    2.625    0.000    2.750 
#    0.000    0.000    0.000    0.000    0.000    0.875 
#    0.000    5.000    0.000    0.000    0.000    0.250 
#
# Total GULP energy -396668.042734 kJ/mol
# GULP energy per Si atom -12395.876335 kJ/mol
# Density = 1.611438 g / cm^3
# Si number density = 16.151139 Si / 1000 Ang^3
#
#
#
# Elastic Constant Matrix: (Units=GPa)
#
#
# Indices 1 2 3 4 5 6 
#
# 1 55.9796 35.9305 36.0868 0.0000 0.0000 0.0000
# 2 35.9305 90.0796 65.5678 0.0000 0.0000 0.0000
# 3 36.0868 65.5678 141.2082 0.0000 0.0000 0.0000
# 4 0.0000 0.0000 0.0000 24.5916 0.0000 0.0000
# 5 0.0000 0.0000 0.0000 0.0000 16.8915 0.0000
# 6 0.0000 0.0000 0.0000 0.0000 0.0000 19.9884
#
#
#
# Elastic Compliance Matrix: (Units=1/GPa)
#
#
# Indices 1 2 3 4 5 6 
#
# 1 0.024635 -0.007921 -0.002618 0.000000 0.000000 0.000000
# 2 -0.007921 0.019316 -0.006945 0.000000 0.000000 0.000000
# 3 -0.002618 -0.006945 0.010975 0.000000 0.000000 0.000000
# 4 0.000000 0.000000 0.000000 0.040664 0.000000 0.000000
# 5 0.000000 0.000000 0.000000 0.000000 0.059201 0.000000
# 6 0.000000 0.000000 0.000000 0.000000 0.000000 0.050029
#
#
# Mechanical properties :
#
#
# Convention : Reuss Voigt Hill
#
# Bulk Modulus (GPa) = 50.10132 62.49306 56.29719
# Shear Modulus (GPa) = 20.28884 22.27313 21.28098
#
# Velocity S-wave (km/s) = 3.54812 3.71758 3.63383
# Velocity P-wave (km/s) = 6.91904 7.56332 7.24834
#
# Compressibility (1/GPa) = 0.01995955
#
# Stress axis : x y z
#
# Youngs Moduli (GPa) = 40.59223 51.77134 91.11305
#
# Poissons Ratio (x) = 0.41008 0.23851
# Poissons Ratio (y) = 0.32153 0.63275
# Poissons Ratio (z) = 0.10626 0.35954
#
# Static dielectric constant tensor:
#      x y z
#    x 2.957240 0.000000 0.000000 
#    y 0.000000 2.976810 0.000000 
#    z 0.000000 0.000000 3.449040 
# 
# 
# High freq. dielectric constant tensor:
#      x y z
#    x 1.611750 0.000000 0.000000 
#    y 0.000000 1.593220 0.000000 
#    z 0.000000 0.000000 1.622280 
# 
# From -- ./inp_files/20893.got.cif
#   From: 2010.03.12/outbox.cif.g09.slc.cpg/sg44_11_cif.got.tgz:20893.got - 2010.04.14 02:36:11.
