data_PCOD8188703
_publ_section_title
;
Structure prediction by ZEFSAII (Michael W. Deem and Ramdas Pophale) SiO2 
 PCOD8188703
Probable space group: I M M 2
;
_chemical_formula_sum "Si O2"
_cell_formula_units_Z 56
_cell_length_a 8.776536
_cell_length_b 24.018669
_cell_length_c 13.881714
_cell_angle_alpha 90.000000
_cell_angle_beta 90.000000
_cell_angle_gamma 90.000000
_cell_volume 2926.275211
_symmetry_space_group_name_H-M "I M M 2"
_symmetry_group_IT_number 44
_symmetry_cell_setting 'orthorhombic'
loop_
_space_group_symop_operation_xyz
x,y,z
-x,-y,z
-x,y,z
x,-y,z
1/2+x,1/2+y,1/2+z
1/2-x,1/2-y,1/2+z
1/2-x,1/2+y,1/2+z
1/2+x,1/2-y,1/2+z
loop_
_atom_site_type_symbol
_atom_site_label
_atom_site_fract_x
_atom_site_fract_y
_atom_site_fract_z
Si Si1 0.322602 0.373743 0.345680
Si Si2 0.679981 0.666554 0.840610
Si Si3 0.318163 0.331823 0.055598
Si Si4 0.819912 0.724841 0.232523
Si Si5 0.322650 0.437048 0.719309
Si Si6 0.821763 0.060393 0.660528
Si Si7 0.678173 0.936603 0.016341
O O1 0.500000 0.358610 0.349074
O O2 0.232970 0.319040 0.312768
O O3 0.288418 0.423317 0.270853
O O4 0.267600 0.393431 0.449695
O O5 0.500000 0.668333 0.849842
O O6 0.736359 0.714595 0.768331
O O7 0.731546 0.606064 0.801567
O O8 0.745925 0.677211 0.947921
O O9 0.500000 0.329056 0.062309
O O10 0.253030 0.285124 0.127529
O O11 0.255977 0.392307 0.089862
O O12 0.000000 0.721742 0.222353
O O13 0.500000 0.428481 0.693625
O O14 0.292633 0.500000 0.756598
O O15 0.224544 0.423819 0.625355
O O16 0.000000 0.055679 0.642200
O O17 0.745146 0.000000 0.640085
O O18 0.500000 0.926473 0.003509
O O19 0.723448 0.000000 0.989837
#
# Coordination Sequence:
#
# PCOD8188703 Si02
#       7
#     8   8   8   8   8   8   8
#     4  10  19  32  51  75 104 138 178 219 258 305
#     4   9  19  35  55  78 103 133 170 215 264 312
#     4   9  18  34  53  74 101 130 166 211 255 305
#     4  10  20  35  52  73 105 138 171 214 263 314
#     4   9  18  34  55  78 104 135 174 218 261 311
#     4   8  14  25  45  73  99 123 155 199 249 296
#     4  10  20  33  50  76 110 144 176 214 264 316
#
# _framework density 19.136956000000001
#
# number of rings (size 3 to 8) (size 9 to 14) (size 15 to 20)
#    0.000    2.714    0.000    2.571    0.000    3.143 
#    0.000    9.286    0.000    3.857    0.000    0.000 
#    0.000    0.000    0.000    0.000    0.000    0.000 
#
# Total GULP energy -347125.709700 kJ/mol
# GULP energy per Si atom -12397.346775 kJ/mol
# Density = 1.909340 g / cm^3
# Si number density = 19.136956 Si / 1000 Ang^3
#
#
#
# Elastic Constant Matrix: (Units=GPa)
#
#
# Indices 1 2 3 4 5 6 
#
# 1 34.9049 21.0397 23.5785 -0.0002 0.0000 0.0000
# 2 21.0397 129.1370 75.8800 -0.0002 0.0000 0.0000
# 3 23.5785 75.8800 136.2227 -0.0005 0.0001 0.0000
# 4 -0.0002 -0.0002 -0.0005 15.2787 0.0000 0.0000
# 5 0.0000 0.0000 0.0001 0.0000 24.4638 0.0000
# 6 0.0000 0.0000 0.0000 0.0000 0.0000 20.8593
#
#
#
# Elastic Compliance Matrix: (Units=1/GPa)
#
#
# Indices 1 2 3 4 5 6 
#
# 1 0.033218 -0.003023 -0.004066 0.000000 0.000000 0.000000
# 2 -0.003023 0.011787 -0.006042 0.000000 0.000000 0.000000
# 3 -0.004066 -0.006042 0.011410 0.000000 0.000000 0.000000
# 4 0.000000 0.000000 0.000000 0.065451 0.000000 0.000000
# 5 0.000000 0.000000 0.000000 0.000000 0.040877 0.000000
# 6 0.000000 0.000000 0.000000 0.000000 0.000000 0.047940
#
#
# Mechanical properties :
#
#
# Convention : Reuss Voigt Hill
#
# Bulk Modulus (GPa) = 33.16433 60.14009 46.65221
# Shear Modulus (GPa) = 20.24328 24.10477 22.17402
#
# Velocity S-wave (km/s) = 3.25593 3.55292 3.40766
# Velocity P-wave (km/s) = 5.61270 6.95165 6.31774
#
# Compressibility (1/GPa) = 0.03015288
#
# Stress axis : x y z
#
# Youngs Moduli (GPa) = 30.10430 84.84196 87.63988
#
# Poissons Ratio (x) = 0.25648 0.35631
# Poissons Ratio (y) = 0.09101 0.52954
# Poissons Ratio (z) = 0.12239 0.51263
#
# Static dielectric constant tensor:
#      x y z
#    x 3.221990 0.000000 0.000000 
#    y 0.000000 3.745140 0.000000 
#    z 0.000000 0.000000 3.548860 
# 
# 
# High freq. dielectric constant tensor:
#      x y z
#    x 1.715170 0.000000 0.000000 
#    y 0.000000 1.747690 0.000000 
#    z 0.000000 0.000000 1.742090 
# 
# From -- ./inp_files/16434.got.cif
#   From: 2010.03.12/outbox.cif.g09.slc.cpg/sg44_9_cif.got.tgz:16434.got - 2010.04.14 02:36:11.
