data_PCOD8188002
_publ_section_title
;
Structure prediction by ZEFSAII (Michael W. Deem and Ramdas Pophale) SiO2 
 PCOD8188002
Probable space group: I M M 2
;
_chemical_formula_sum "Si O2"
_cell_formula_units_Z 64
_cell_length_a 18.533136
_cell_length_b 8.869495
_cell_length_c 26.307211
_cell_angle_alpha 90.000000
_cell_angle_beta 90.000000
_cell_angle_gamma 90.000000
_cell_volume 4324.367692
_symmetry_space_group_name_H-M "I M M 2"
_symmetry_group_IT_number 44
_symmetry_cell_setting 'orthorhombic'
loop_
_space_group_symop_operation_xyz
x,y,z
-x,-y,z
-x,y,z
x,-y,z
1/2+x,1/2+y,1/2+z
1/2-x,1/2-y,1/2+z
1/2-x,1/2+y,1/2+z
1/2+x,1/2-y,1/2+z
loop_
_atom_site_type_symbol
_atom_site_label
_atom_site_fract_x
_atom_site_fract_y
_atom_site_fract_z
Si Si1 0.918019 0.825294 0.485010
Si Si2 0.836125 0.822815 0.098098
Si Si3 0.719067 0.672217 0.452469
Si Si4 0.214398 0.172524 0.545323
Si Si5 0.651196 0.827407 0.888705
Si Si6 0.078609 0.824600 0.998836
Si Si7 0.082748 0.824900 0.294732
Si Si8 0.917950 0.322241 0.189650
O O1 0.870836 0.792784 0.536246
O O2 0.893744 0.722418 0.437985
O O3 0.000000 0.785892 0.499089
O O4 0.909078 0.000000 0.468624
O O5 0.752564 0.774465 0.088496
O O6 0.884197 0.763786 0.050585
O O7 0.864341 0.746741 0.148841
O O8 0.840187 0.000000 0.105139
O O9 0.730027 0.500000 0.473523
O O10 0.751094 0.793911 0.490675
O O11 0.762121 0.689151 0.399397
O O12 0.632384 0.704867 0.450510
O O13 0.227674 0.000000 0.560499
O O14 0.633331 0.724747 0.840832
O O15 0.631011 0.000000 0.876507
O O16 0.000000 0.746447 0.990135
O O17 0.065699 0.000000 0.006127
O O18 0.106473 0.734766 0.244816
O O19 0.000000 0.789023 0.309337
O O20 0.094454 0.000000 0.283875
O O21 0.911217 0.500000 0.188323
O O22 0.000000 0.269339 0.178276
#
# Coordination Sequence:
#
# PCOD8188002 Si02
#       8
#     8   8   8   8   8   8   8   8
#     4   9  17  28  41  58  81 109 140 172 206 245
#     4  10  18  28  42  59  82 111 140 167 199 241
#     4   8  15  26  38  55  79 105 133 166 203 241
#     4   9  16  26  40  57  78 105 137 171 204 238
#     4  10  18  27  40  58  81 108 137 169 205 243
#     4   8  13  22  38  58  78 103 135 165 191 225
#     4  10  20  32  44  58  78 105 137 170 202 238
#     4  10  20  32  45  62  83 105 133 170 206 238
#
# _framework density 14.799851
#
# number of rings (size 3 to 8) (size 9 to 14) (size 15 to 20)
#    0.000    2.750    0.000    3.375    0.000    4.750 
#    0.000    0.000    0.000    3.375    0.000    0.000 
#    0.000    1.000    0.000    8.500    0.000    2.375 
#
# Total GULP energy -396517.874131 kJ/mol
# GULP energy per Si atom -12391.183567 kJ/mol
# Density = 1.476617 g / cm^3
# Si number density = 14.799851 Si / 1000 Ang^3
#
#
#
# Elastic Constant Matrix: (Units=GPa)
#
#
# Indices 1 2 3 4 5 6 
#
# 1 105.7059 24.4994 47.0624 0.0000 0.0000 0.0000
# 2 24.4994 46.5423 24.6286 0.0000 0.0000 0.0000
# 3 47.0624 24.6286 72.0427 0.0000 0.0000 0.0000
# 4 0.0000 0.0000 0.0000 23.7778 0.0000 0.0000
# 5 0.0000 0.0000 0.0000 0.0000 23.2018 0.0000
# 6 0.0000 0.0000 0.0000 0.0000 0.0000 16.8839
#
#
#
# Elastic Compliance Matrix: (Units=1/GPa)
#
#
# Indices 1 2 3 4 5 6 
#
# 1 0.013679 -0.003018 -0.007904 0.000000 0.000000 0.000000
# 2 -0.003018 0.026897 -0.007224 0.000000 0.000000 0.000000
# 3 -0.007904 -0.007224 0.021514 0.000000 0.000000 0.000000
# 4 0.000000 0.000000 0.000000 0.042056 0.000000 0.000000
# 5 0.000000 0.000000 0.000000 0.000000 0.043100 0.000000
# 6 0.000000 0.000000 0.000000 0.000000 0.000000 0.059228
#
#
# Mechanical properties :
#
#
# Convention : Reuss Voigt Hill
#
# Bulk Modulus (GPa) = 38.76242 46.29687 42.52964
# Shear Modulus (GPa) = 19.89151 21.31272 20.60211
#
# Velocity S-wave (km/s) = 3.67008 3.79893 3.73506
# Velocity P-wave (km/s) = 6.64886 7.11283 6.88476
#
# Compressibility (1/GPa) = 0.02579819
#
# Stress axis : x y z
#
# Youngs Moduli (GPa) = 73.10643 37.17906 46.48240
#
# Poissons Ratio (x) = 0.11220 0.36740
# Poissons Ratio (y) = 0.22062 0.33577
# Poissons Ratio (z) = 0.57784 0.26857
#
# Static dielectric constant tensor:
#      x y z
#    x 3.198990 0.000000 0.000000 
#    y 0.000000 2.877350 0.000000 
#    z 0.000000 0.000000 2.640370 
# 
# 
# High freq. dielectric constant tensor:
#      x y z
#    x 1.560340 0.000000 0.000000 
#    y 0.000000 1.571690 0.000000 
#    z 0.000000 0.000000 1.527470 
# 
# From -- ./inp_files/25217.got.cif
#   From: 2010.03.12/outbox.cif.g09.slc.cpg/sg44_13_cif.got.tgz:25217.got - 2010.04.14 02:36:11.
