data_PCOD8188547
_publ_section_title
;
Structure prediction by ZEFSAII (Michael W. Deem and Ramdas Pophale) SiO2 
 PCOD8188547
Probable space group: I M M 2
;
_chemical_formula_sum "Si O2"
_cell_formula_units_Z 64
_cell_length_a 9.155905
_cell_length_b 14.340667
_cell_length_c 28.042938
_cell_angle_alpha 90.000000
_cell_angle_beta 90.000000
_cell_angle_gamma 90.000000
_cell_volume 3682.087807
_symmetry_space_group_name_H-M "I M M 2"
_symmetry_group_IT_number 44
_symmetry_cell_setting 'orthorhombic'
loop_
_space_group_symop_operation_xyz
x,y,z
-x,-y,z
-x,y,z
x,-y,z
1/2+x,1/2+y,1/2+z
1/2-x,1/2-y,1/2+z
1/2-x,1/2+y,1/2+z
1/2+x,1/2-y,1/2+z
loop_
_atom_site_type_symbol
_atom_site_label
_atom_site_fract_x
_atom_site_fract_y
_atom_site_fract_z
Si Si1 0.666968 0.392513 0.564780
Si Si2 0.671914 0.606744 0.383601
Si Si3 0.328493 0.106633 0.161293
Si Si4 0.827478 0.776358 0.973652
Si Si5 0.170874 0.393269 0.288405
Si Si6 0.827216 0.724702 0.197491
Si Si7 0.329598 0.394714 0.009950
Si Si8 0.167620 0.892218 0.619598
O O1 0.500000 0.367916 0.578655
O O2 0.680277 0.500000 0.550042
O O3 0.770745 0.367830 0.608806
O O4 0.723070 0.333670 0.519963
O O5 0.500000 0.616525 0.376977
O O6 0.716314 0.500000 0.394387
O O7 0.729816 0.670053 0.426904
O O8 0.747284 0.642745 0.335400
O O9 0.500000 0.125175 0.162563
O O10 0.247901 0.173440 0.199143
O O11 0.290129 0.000000 0.174495
O O12 0.757966 0.673891 0.975194
O O13 0.000000 0.766832 0.972026
O O14 0.213473 0.500000 0.276806
O O15 0.223436 0.330490 0.244388
O O16 0.000000 0.382797 0.297474
O O17 0.775075 0.669378 0.151015
O O18 0.000000 0.736310 0.195185
O O19 0.500000 0.379169 0.001750
O O20 0.284955 0.500000 0.996344
O O21 0.288823 0.374824 0.064839
O O22 0.000000 0.862694 0.628898
O O23 0.190042 0.000000 0.632982
#
# Coordination Sequence:
#
# PCOD8188547 Si02
#       8
#     8   8   8   8   8   8   8   8
#     4   9  17  30  48  71 101 133 161 192 235 286
#     4   9  18  33  52  74 100 127 154 188 234 287
#     4  10  21  35  49  68  97 131 167 206 242 280
#     4  10  19  30  48  74  99 125 160 199 237 280
#     4   9  19  35  52  73 101 127 153 190 236 286
#     4  11  21  32  50  74  99 128 162 201 244 290
#     4   9  19  34  48  65  94 131 167 202 238 276
#     4   9  18  32  49  71 101 134 166 200 238 283
#
# _framework density 17.381442
#
# number of rings (size 3 to 8) (size 9 to 14) (size 15 to 20)
#    0.000    2.500    0.000    3.000    0.000    7.750 
#    0.000    2.500    0.000    4.500    0.000    0.000 
#    0.000    0.000    0.000    0.000    0.000    0.000 
#
# Total GULP energy -396868.578109 kJ/mol
# GULP energy per Si atom -12402.143066 kJ/mol
# Density = 1.734188 g / cm^3
# Si number density = 17.381442 Si / 1000 Ang^3
#
#
#
# Elastic Constant Matrix: (Units=GPa)
#
#
# Indices 1 2 3 4 5 6 
#
# 1 54.4554 45.5644 44.0274 0.0000 0.0000 0.0000
# 2 45.5644 113.7340 74.9026 0.0000 0.0000 0.0000
# 3 44.0274 74.9026 100.2353 0.0000 0.0000 0.0000
# 4 0.0000 0.0000 0.0000 31.2714 0.0000 0.0000
# 5 0.0000 0.0000 0.0000 0.0000 28.7880 0.0000
# 6 0.0000 0.0000 0.0000 0.0000 0.0000 31.3155
#
#
#
# Elastic Compliance Matrix: (Units=1/GPa)
#
#
# Indices 1 2 3 4 5 6 
#
# 1 0.030921 -0.006779 -0.008516 0.000000 0.000000 0.000000
# 2 -0.006779 0.018799 -0.011070 0.000000 0.000000 0.000000
# 3 -0.008516 -0.011070 0.021989 0.000000 0.000000 0.000000
# 4 0.000000 0.000000 0.000000 0.031978 0.000000 0.000000
# 5 0.000000 0.000000 0.000000 0.000000 0.034737 0.000000
# 6 0.000000 0.000000 0.000000 0.000000 0.000000 0.031933
#
#
# Mechanical properties :
#
#
# Convention : Reuss Voigt Hill
#
# Bulk Modulus (GPa) = 52.69006 66.37929 59.53468
# Shear Modulus (GPa) = 21.79466 25.20367 23.49916
#
# Velocity S-wave (km/s) = 3.54489 3.81206 3.68090
# Velocity P-wave (km/s) = 6.86548 7.59265 7.23820
#
# Compressibility (1/GPa) = 0.01897891
#
# Stress axis : x y z
#
# Youngs Moduli (GPa) = 32.34024 53.19468 45.47666
#
# Poissons Ratio (x) = 0.36063 0.38727
# Poissons Ratio (y) = 0.21925 0.50343
# Poissons Ratio (z) = 0.27540 0.58887
#
# Static dielectric constant tensor:
#      x y z
#    x 3.132740 0.000000 0.000000 
#    y 0.000000 3.361140 0.000000 
#    z 0.000000 0.000000 3.144560 
# 
# 
# High freq. dielectric constant tensor:
#      x y z
#    x 1.669190 0.000000 0.000000 
#    y 0.000000 1.675230 0.000000 
#    z 0.000000 0.000000 1.650790 
# 
# From -- ./inp_files/25114.got.cif
#   From: 2010.03.12/outbox.cif.g09.slc.cpg/sg44_13_cif.got.tgz:25114.got - 2010.04.14 02:36:11.
