data_PCOD8188849
_publ_section_title
;
Structure prediction by ZEFSAII (Michael W. Deem and Ramdas Pophale) SiO2 
 PCOD8188849
Probable space group: I M M 2
;
_chemical_formula_sum "Si O2"
_cell_formula_units_Z 56
_cell_length_a 8.781625
_cell_length_b 24.621016
_cell_length_c 14.097639
_cell_angle_alpha 90.000000
_cell_angle_beta 90.000000
_cell_angle_gamma 90.000000
_cell_volume 3048.086190
_symmetry_space_group_name_H-M "I M M 2"
_symmetry_group_IT_number 44
_symmetry_cell_setting 'orthorhombic'
loop_
_space_group_symop_operation_xyz
x,y,z
-x,-y,z
-x,y,z
x,-y,z
1/2+x,1/2+y,1/2+z
1/2-x,1/2-y,1/2+z
1/2-x,1/2+y,1/2+z
1/2+x,1/2-y,1/2+z
loop_
_atom_site_type_symbol
_atom_site_label
_atom_site_fract_x
_atom_site_fract_y
_atom_site_fract_z
Si Si1 0.820244 0.000000 0.827020
Si Si2 0.324886 0.785246 0.411196
Si Si3 0.669197 0.664088 0.394407
Si Si4 0.327945 0.606707 0.587181
Si Si5 0.323165 0.104565 0.737065
Si Si6 0.179309 0.500000 0.536304
Si Si7 0.820827 0.293073 0.692931
Si Si8 0.321463 0.680960 0.094612
O O1 0.771592 0.948217 0.765723
O O2 0.747165 0.000000 0.930871
O O3 0.000000 0.000000 0.841109
O O4 0.500000 0.802096 0.426034
O O5 0.296801 0.722576 0.438775
O O6 0.273843 0.794366 0.303124
O O7 0.220948 0.819280 0.483264
O O8 0.500000 0.664917 0.346504
O O9 0.675298 0.619578 0.475875
O O10 0.795100 0.650719 0.316167
O O11 0.500000 0.596678 0.621996
O O12 0.231283 0.551836 0.598323
O O13 0.258578 0.655610 0.646276
O O14 0.500000 0.089778 0.730236
O O15 0.264462 0.128884 0.638005
O O16 0.000000 0.500000 0.525743
O O17 0.765316 0.236573 0.645802
O O18 0.000000 0.299023 0.678604
O O19 0.500000 0.672891 0.107369
#
# Coordination Sequence:
#
# PCOD8188849 Si02
#       8
#     4   8   8   8   8   4   8   8
#     4  12  24  40  60  83 116 153 190 236 290 340
#     4  10  20  37  56  81 117 156 194 236 285 338
#     4  10  19  33  54  82 119 156 188 233 282 336
#     4  11  22  36  57  83 117 155 193 236 287 341
#     4  12  24  37  57  85 117 154 195 235 282 345
#     4  12  24  38  58  85 116 151 194 236 286 348
#     4  10  21  36  56  82 117 155 194 239 287 339
#     4  11  22  37  57  84 117 154 193 237 287 341
#
# _framework density 18.372183
#
# number of rings (size 3 to 8) (size 9 to 14) (size 15 to 20)
#    0.000    1.143    4.286    3.429    0.000    2.286 
#    0.000    0.000    0.000    0.857    0.000    1.000 
#    0.000    0.000    0.000    0.000    0.000    0.000 
#
# Total GULP energy -347255.633619 kJ/mol
# GULP energy per Si atom -12401.986915 kJ/mol
# Density = 1.833037 g / cm^3
# Si number density = 18.372183 Si / 1000 Ang^3
#
#
#
# Elastic Constant Matrix: (Units=GPa)
#
#
# Indices 1 2 3 4 5 6 
#
# 1 98.8089 42.4642 31.6502 0.0000 0.0000 0.0000
# 2 42.4642 88.6579 22.6258 -0.0002 0.0000 0.0000
# 3 31.6502 22.6258 77.2328 -0.0006 0.0001 0.0001
# 4 0.0000 -0.0002 -0.0006 27.0575 0.0001 0.0000
# 5 0.0000 0.0000 0.0001 0.0001 30.4569 0.0000
# 6 0.0000 0.0000 0.0001 0.0000 0.0000 30.7975
#
#
#
# Elastic Compliance Matrix: (Units=1/GPa)
#
#
# Indices 1 2 3 4 5 6 
#
# 1 0.013811 -0.005588 -0.004023 0.000000 0.000000 0.000000
# 2 -0.005588 0.014452 -0.001944 0.000000 0.000000 0.000000
# 3 -0.004023 -0.001944 0.015166 0.000000 0.000000 0.000000
# 4 0.000000 0.000000 0.000000 0.036958 0.000000 0.000000
# 5 0.000000 0.000000 0.000000 0.000000 0.032833 0.000000
# 6 0.000000 0.000000 0.000000 0.000000 0.000000 0.032470
#
#
# Mechanical properties :
#
#
# Convention : Reuss Voigt Hill
#
# Bulk Modulus (GPa) = 49.21422 50.90890 50.06156
# Shear Modulus (GPa) = 28.47831 28.85968 28.66899
#
# Velocity S-wave (km/s) = 3.94137 3.96768 3.95455
# Velocity P-wave (km/s) = 6.89624 6.98283 6.93967
#
# Compressibility (1/GPa) = 0.02031933
#
# Stress axis : x y z
#
# Youngs Moduli (GPa) = 72.40781 69.19473 65.93822
#
# Poissons Ratio (x) = 0.38668 0.26524
# Poissons Ratio (y) = 0.40464 0.12816
# Poissons Ratio (z) = 0.29126 0.13449
#
# Static dielectric constant tensor:
#      x y z
#    x 3.380700 0.000000 0.000000 
#    y 0.000000 3.407650 0.000000 
#    z 0.000000 0.000000 3.249010 
# 
# 
# High freq. dielectric constant tensor:
#      x y z
#    x 1.716650 0.000000 0.000000 
#    y 0.000000 1.706010 0.000000 
#    z 0.000000 0.000000 1.697630 
# 
# From -- ./inp_files/16528.got.cif
#   From: 2010.03.12/outbox.cif.g09.slc.cpg/sg44_9_cif.got.tgz:16528.got - 2010.04.14 02:36:11.
