data_PCOD8188492
_publ_section_title
;
Structure prediction by ZEFSAII (Michael W. Deem and Ramdas Pophale) SiO2 
 PCOD8188492
Probable space group: I M M 2
;
_chemical_formula_sum "Si O2"
_cell_formula_units_Z 56
_cell_length_a 14.334047
_cell_length_b 9.574568
_cell_length_c 23.242036
_cell_angle_alpha 90.000000
_cell_angle_beta 90.000000
_cell_angle_gamma 90.000000
_cell_volume 3189.790657
_symmetry_space_group_name_H-M "I M M 2"
_symmetry_group_IT_number 44
_symmetry_cell_setting 'orthorhombic'
loop_
_space_group_symop_operation_xyz
x,y,z
-x,-y,z
-x,y,z
x,-y,z
1/2+x,1/2+y,1/2+z
1/2-x,1/2-y,1/2+z
1/2-x,1/2+y,1/2+z
1/2+x,1/2-y,1/2+z
loop_
_atom_site_type_symbol
_atom_site_label
_atom_site_fract_x
_atom_site_fract_y
_atom_site_fract_z
Si Si1 0.601636 0.665762 0.911710
Si Si2 0.108696 0.341668 0.977168
Si Si3 0.209247 0.666224 0.863835
Si Si4 0.293450 0.838185 0.137099
Si Si5 0.104241 0.160087 0.086383
Si Si6 0.608388 0.340932 0.041622
Si Si7 0.893593 0.333572 0.751526
O O1 0.500000 0.727250 0.893176
O O2 0.594957 0.500000 0.911926
O O3 0.682282 0.715761 0.867536
O O4 0.627174 0.712064 0.976619
O O5 0.142082 0.500000 0.989105
O O6 0.136343 0.251321 0.032212
O O7 0.000000 0.335408 0.964389
O O8 0.158124 0.278438 0.920917
O O9 0.202205 0.500000 0.861669
O O10 0.159309 0.728987 0.807378
O O11 0.180497 0.817790 0.137083
O O12 0.334836 0.758013 0.083310
O O13 0.336891 0.778510 0.196073
O O14 0.320381 0.000000 0.130307
O O15 0.000000 0.203278 0.108124
O O16 0.103988 0.000000 0.065969
O O17 0.500000 0.328957 0.056880
O O18 0.642845 0.500000 0.049486
O O19 0.892969 0.500000 0.753620
O O20 0.000000 0.277790 0.749729
#
# Coordination Sequence:
#
# PCOD8188492 Si02
#       7
#     8   8   8   8   8   8   8
#     4   8  14  24  38  59  86 112 138 170 210 256
#     4   9  16  26  44  69  89 107 139 180 217 257
#     4   9  15  24  40  61  85 111 138 173 216 254
#     4  10  19  30  45  64  87 118 152 182 214 255
#     4   9  18  31  44  61  89 120 146 177 220 264
#     4   9  17  29  46  68  93 118 142 175 222 266
#     4   9  17  28  41  59  83 109 140 179 217 251
#
# _framework density 17.556011000000002
#
# number of rings (size 3 to 8) (size 9 to 14) (size 15 to 20)
#    0.000    3.000    0.000    2.571    0.000    4.286 
#    0.000    0.714    0.000    5.143    0.000    2.000 
#    0.000    0.000    0.000    0.000    0.000    0.000 
#
# Total GULP energy -347018.013054 kJ/mol
# GULP energy per Si atom -12393.500466 kJ/mol
# Density = 1.751605 g / cm^3
# Si number density = 17.556011 Si / 1000 Ang^3
#
#
#
# Elastic Constant Matrix: (Units=GPa)
#
#
# Indices 1 2 3 4 5 6 
#
# 1 134.7223 22.7286 92.2082 0.0000 0.0000 0.0000
# 2 22.7286 24.2984 18.3795 0.0000 0.0000 0.0000
# 3 92.2082 18.3795 99.5275 0.0000 0.0000 0.0000
# 4 0.0000 0.0000 0.0000 15.6313 0.0000 0.0000
# 5 0.0000 0.0000 0.0000 0.0000 33.0899 0.0000
# 6 0.0000 0.0000 0.0000 0.0000 0.0000 14.2578
#
#
#
# Elastic Compliance Matrix: (Units=1/GPa)
#
#
# Indices 1 2 3 4 5 6 
#
# 1 0.020947 -0.005712 -0.018351 0.000000 0.000000 0.000000
# 2 -0.005712 0.049395 -0.003829 0.000000 0.000000 0.000000
# 3 -0.018351 -0.003829 0.027756 0.000000 0.000000 0.000000
# 4 0.000000 0.000000 0.000000 0.063974 0.000000 0.000000
# 5 0.000000 0.000000 0.000000 0.000000 0.030221 0.000000
# 6 0.000000 0.000000 0.000000 0.000000 0.000000 0.070137
#
#
# Mechanical properties :
#
#
# Convention : Reuss Voigt Hill
#
# Bulk Modulus (GPa) = 23.63411 58.35344 40.99378
# Shear Modulus (GPa) = 15.04575 20.94458 17.99517
#
# Velocity S-wave (km/s) = 2.93066 3.45775 3.20506
# Velocity P-wave (km/s) = 4.99430 7.01798 6.09077
#
# Compressibility (1/GPa) = 0.04231173
#
# Stress axis : x y z
#
# Youngs Moduli (GPa) = 47.74052 20.24506 36.02777
#
# Poissons Ratio (x) = 0.11565 0.66116
# Poissons Ratio (y) = 0.27271 0.13797
# Poissons Ratio (z) = 0.87610 0.07753
#
# Static dielectric constant tensor:
#      x y z
#    x 3.690380 0.000000 0.000000 
#    y 0.000000 2.831450 0.000000 
#    z 0.000000 0.000000 3.238790 
# 
# 
# High freq. dielectric constant tensor:
#      x y z
#    x 1.702140 0.000000 0.000000 
#    y 0.000000 1.622040 0.000000 
#    z 0.000000 0.000000 1.660180 
# 
# From -- ./inp_files/23052.got.cif
#   From: 2010.03.12/outbox.cif.g09.slc.cpg/sg44_12_cif.got.tgz:23052.got - 2010.04.14 02:36:11.
