data_PCOD8188040
_publ_section_title
;
Structure prediction by ZEFSAII (Michael W. Deem and Ramdas Pophale) SiO2 
 PCOD8188040
Probable space group: I M M 2
;
_chemical_formula_sum "Si O2"
_cell_formula_units_Z 64
_cell_length_a 8.689989
_cell_length_b 26.382627
_cell_length_c 18.224600
_cell_angle_alpha 90.000000
_cell_angle_beta 90.000000
_cell_angle_gamma 90.000000
_cell_volume 4178.258152
_symmetry_space_group_name_H-M "I M M 2"
_symmetry_group_IT_number 44
_symmetry_cell_setting 'orthorhombic'
loop_
_space_group_symop_operation_xyz
x,y,z
-x,-y,z
-x,y,z
x,-y,z
1/2+x,1/2+y,1/2+z
1/2-x,1/2-y,1/2+z
1/2-x,1/2+y,1/2+z
1/2+x,1/2-y,1/2+z
loop_
_atom_site_type_symbol
_atom_site_label
_atom_site_fract_x
_atom_site_fract_y
_atom_site_fract_z
Si Si1 0.178126 0.057563 0.547940
Si Si2 0.820873 0.441869 0.201456
Si Si3 0.820881 0.147735 0.446769
Si Si4 0.177421 0.699325 0.407344
Si Si5 0.819996 0.256052 0.202132
Si Si6 0.320685 0.648243 0.281984
Si Si7 0.678353 0.742960 0.046375
Si Si8 0.679967 0.206202 0.328807
O O1 0.277539 0.072781 0.618492
O O2 0.225961 0.093588 0.480704
O O3 0.000000 0.065739 0.568980
O O4 0.211362 0.000000 0.523282
O O5 0.775772 0.500000 0.217190
O O6 0.726360 0.408039 0.258508
O O7 0.000000 0.431842 0.213043
O O8 0.776105 0.191105 0.505217
O O9 0.724867 0.154102 0.370620
O O10 0.000000 0.150280 0.427211
O O11 0.277663 0.655201 0.368487
O O12 0.211116 0.708217 0.493717
O O13 0.216410 0.751594 0.367552
O O14 0.000000 0.686119 0.394426
O O15 0.766566 0.310755 0.231862
O O16 0.784900 0.251122 0.116546
O O17 0.730717 0.209698 0.243532
O O18 0.000000 0.250131 0.215095
O O19 0.500000 0.656602 0.270494
O O20 0.500000 0.741128 0.069855
O O21 0.500000 0.217463 0.336584
#
# Coordination Sequence:
#
# PCOD8188040 Si02
#       8
#     8   8   8   8   8   8   8   8
#     4   9  17  29  45  64  86 113 144 178 215 252
#     4  10  20  32  45  62  85 112 144 181 215 247
#     4   9  17  29  43  59  83 113 143 174 209 248
#     4   9  17  30  45  60  82 109 137 171 210 249
#     4  11  20  29  43  62  86 113 142 175 210 250
#     4  11  20  30  45  62  84 113 145 177 209 250
#     4   9  17  28  42  61  85 113 142 173 209 248
#     4  10  18  28  42  59  81 108 141 176 209 248
#
# _framework density 15.317387999999999
#
# number of rings (size 3 to 8) (size 9 to 14) (size 15 to 20)
#    0.000    2.250    0.000    7.125    0.000    4.750 
#    0.000    0.000    0.000    0.000    0.000    0.000 
#    0.000    1.000    0.000    6.500    0.000    3.625 
#
# Total GULP energy -396684.283945 kJ/mol
# GULP energy per Si atom -12396.383873 kJ/mol
# Density = 1.528252 g / cm^3
# Si number density = 15.317388 Si / 1000 Ang^3
#
#
#
# Elastic Constant Matrix: (Units=GPa)
#
#
# Indices 1 2 3 4 5 6 
#
# 1 61.6058 27.8212 33.6503 0.0000 0.0000 0.0000
# 2 27.8212 70.4579 43.3101 0.0000 0.0000 0.0000
# 3 33.6503 43.3101 80.3716 0.0002 0.0000 0.0000
# 4 0.0000 0.0000 0.0002 26.9867 0.0000 0.0000
# 5 0.0000 0.0000 0.0000 0.0000 27.3310 0.0000
# 6 0.0000 0.0000 0.0000 0.0000 0.0000 17.5544
#
#
#
# Elastic Compliance Matrix: (Units=1/GPa)
#
#
# Indices 1 2 3 4 5 6 
#
# 1 0.021966 -0.004516 -0.006763 0.000000 0.000000 0.000000
# 2 -0.004516 0.022151 -0.010046 0.000000 0.000000 0.000000
# 3 -0.006763 -0.010046 0.020687 0.000000 0.000000 0.000000
# 4 0.000000 0.000000 0.000000 0.037055 0.000000 0.000000
# 5 0.000000 0.000000 0.000000 0.000000 0.036588 0.000000
# 6 0.000000 0.000000 0.000000 0.000000 0.000000 0.056966
#
#
# Mechanical properties :
#
#
# Convention : Reuss Voigt Hill
#
# Bulk Modulus (GPa) = 45.13850 46.88873 46.01362
# Shear Modulus (GPa) = 20.37082 21.55133 20.96107
#
# Velocity S-wave (km/s) = 3.65076 3.75505 3.70327
# Velocity P-wave (km/s) = 6.87775 7.03409 6.95636
#
# Compressibility (1/GPa) = 0.02215404
#
# Stress axis : x y z
#
# Youngs Moduli (GPa) = 45.52501 45.14397 48.33899
#
# Poissons Ratio (x) = 0.20389 0.32692
# Poissons Ratio (y) = 0.20561 0.48561
# Poissons Ratio (z) = 0.30789 0.45351
#
# Static dielectric constant tensor:
#      x y z
#    x 2.958970 0.000000 0.000000 
#    y 0.000000 2.891780 0.000000 
#    z 0.000000 0.000000 3.168580 
# 
# 
# High freq. dielectric constant tensor:
#      x y z
#    x 1.598910 0.000000 0.000000 
#    y 0.000000 1.551160 0.000000 
#    z 0.000000 0.000000 1.575930 
# 
# From -- ./inp_files/20916.got.cif
#   From: 2010.03.12/outbox.cif.g09.slc.cpg/sg44_11_cif.got.tgz:20916.got - 2010.04.14 02:36:11.
