data_PCOD8188328
_publ_section_title
;
Structure prediction by ZEFSAII (Michael W. Deem and Ramdas Pophale) SiO2 
 PCOD8188328
Probable space group: I M M 2
;
_chemical_formula_sum "Si O2"
_cell_formula_units_Z 56
_cell_length_a 12.151842
_cell_length_b 19.022661
_cell_length_c 13.517328
_cell_angle_alpha 90.000000
_cell_angle_beta 90.000000
_cell_angle_gamma 90.000000
_cell_volume 3124.670554
_symmetry_space_group_name_H-M "I M M 2"
_symmetry_group_IT_number 44
_symmetry_cell_setting 'orthorhombic'
loop_
_space_group_symop_operation_xyz
x,y,z
-x,-y,z
-x,y,z
x,-y,z
1/2+x,1/2+y,1/2+z
1/2-x,1/2-y,1/2+z
1/2-x,1/2+y,1/2+z
1/2+x,1/2-y,1/2+z
loop_
_atom_site_type_symbol
_atom_site_label
_atom_site_fract_x
_atom_site_fract_y
_atom_site_fract_z
Si Si1 0.625016 0.222669 0.338980
Si Si2 0.500000 0.580497 0.021852
Si Si3 0.000000 0.916800 0.289861
Si Si4 0.375337 0.615929 0.310409
Si Si5 0.371012 0.201957 0.564244
Si Si6 0.126686 0.080300 0.028681
Si Si7 0.803270 0.168963 0.193991
Si Si8 0.279760 0.579238 0.115052
O O1 0.500000 0.193923 0.332751
O O2 0.632503 0.300838 0.297489
O O3 0.665919 0.224685 0.453309
O O4 0.699527 0.173664 0.267905
O O5 0.500000 0.500000 0.056441
O O6 0.500000 0.589162 0.906143
O O7 0.389382 0.614716 0.066848
O O8 0.895769 0.873916 0.252292
O O9 0.000000 0.000000 0.257042
O O10 0.500000 0.589717 0.292658
O O11 0.334750 0.590823 0.417064
O O12 0.294779 0.578786 0.233097
O O13 0.500000 0.195773 0.568873
O O14 0.333855 0.254188 0.652072
O O15 0.324133 0.124889 0.584390
O O16 0.215047 0.122056 0.095604
O O17 0.000000 0.109477 0.043360
O O18 0.130321 0.000000 0.060088
O O19 0.259173 0.500000 0.076364
#
# Coordination Sequence:
#
# PCOD8188328 Si02
#       8
#     8   4   4   8   8   8   8   8
#     4  10  22  38  57  83 114 152 193 232 278 337
#     4   9  20  36  53  81 119 148 184 239 292 335
#     4  11  22  36  57  89 118 144 182 239 299 343
#     4  10  18  32  56  85 116 145 180 233 290 346
#     4  11  22  39  57  79 115 152 192 234 274 339
#     4  10  19  32  55  87 116 142 176 228 292 348
#     4  12  20  35  59  83 116 147 184 229 290 342
#     4  11  21  35  57  83 113 154 193 236 288 334
#
# _framework density 17.921889
#
# number of rings (size 3 to 8) (size 9 to 14) (size 15 to 20)
#    0.000    1.429    5.000    1.714    0.000    0.857 
#    0.000    0.714    0.000    4.286    0.000    0.000 
#    0.000    0.000    0.000    0.000    0.000    0.000 
#
# Total GULP energy -347066.922567 kJ/mol
# GULP energy per Si atom -12395.247235 kJ/mol
# Density = 1.788110 g / cm^3
# Si number density = 17.921889 Si / 1000 Ang^3
#
#
#
# Elastic Constant Matrix: (Units=GPa)
#
#
# Indices 1 2 3 4 5 6 
#
# 1 60.6968 33.1360 42.2346 0.0000 0.0000 0.0000
# 2 33.1360 81.6489 29.2062 -0.0005 -0.0001 0.0000
# 3 42.2346 29.2062 99.3029 -0.0010 -0.0002 0.0000
# 4 0.0000 -0.0005 -0.0010 24.4869 -0.0002 0.0000
# 5 0.0000 -0.0001 -0.0002 -0.0002 29.9768 0.0000
# 6 0.0000 0.0000 0.0000 0.0000 0.0000 24.0194
#
#
#
# Elastic Compliance Matrix: (Units=1/GPa)
#
#
# Indices 1 2 3 4 5 6 
#
# 1 0.027129 -0.007692 -0.009276 -0.000001 0.000000 0.000000
# 2 -0.007692 0.015868 -0.001396 0.000000 0.000000 0.000000
# 3 -0.009276 -0.001396 0.014426 0.000001 0.000000 0.000000
# 4 -0.000001 0.000000 0.000001 0.040838 0.000000 0.000000
# 5 0.000000 0.000000 0.000000 0.000000 0.033359 0.000000
# 6 0.000000 0.000000 0.000000 0.000000 0.000000 0.041633
#
#
# Mechanical properties :
#
#
# Convention : Reuss Voigt Hill
#
# Bulk Modulus (GPa) = 48.31786 50.08912 49.20349
# Shear Modulus (GPa) = 23.05430 24.83475 23.94453
#
# Velocity S-wave (km/s) = 3.59050 3.72657 3.65917
# Velocity P-wave (km/s) = 6.64889 6.82097 6.73548
#
# Compressibility (1/GPa) = 0.02069628
#
# Stress axis : x y z
#
# Youngs Moduli (GPa) = 36.86092 63.01827 69.31991
#
# Poissons Ratio (x) = 0.48473 0.64301
# Poissons Ratio (y) = 0.28353 0.09675
# Poissons Ratio (z) = 0.34192 0.08795
#
# Static dielectric constant tensor:
#      x y z
#    x 3.148480 0.000000 0.000000 
#    y 0.000000 3.315530 0.000000 
#    z 0.000000 0.000000 3.606820 
# 
# 
# High freq. dielectric constant tensor:
#      x y z
#    x 1.657590 0.000000 0.000000 
#    y 0.000000 1.691010 0.000000 
#    z 0.000000 0.000000 1.715550 
# 
# From -- ./inp_files/16536.got.cif
#   From: 2010.03.12/outbox.cif.g09.slc.cpg/sg44_9_cif.got.tgz:16536.got - 2010.04.14 02:36:11.
