data_PCOD8188330
_publ_section_title
;
Structure prediction by ZEFSAII (Michael W. Deem and Ramdas Pophale) SiO2 
 PCOD8188330
Probable space group: I M M 2
;
_chemical_formula_sum "Si O2"
_cell_formula_units_Z 48
_cell_length_a 9.364471
_cell_length_b 21.396513
_cell_length_c 12.334994
_cell_angle_alpha 90.000000
_cell_angle_beta 90.000000
_cell_angle_gamma 90.000000
_cell_volume 2471.526057
_symmetry_space_group_name_H-M "I M M 2"
_symmetry_group_IT_number 44
_symmetry_cell_setting 'orthorhombic'
loop_
_space_group_symop_operation_xyz
x,y,z
-x,-y,z
-x,y,z
x,-y,z
1/2+x,1/2+y,1/2+z
1/2-x,1/2-y,1/2+z
1/2-x,1/2+y,1/2+z
1/2+x,1/2-y,1/2+z
loop_
_atom_site_type_symbol
_atom_site_label
_atom_site_fract_x
_atom_site_fract_y
_atom_site_fract_z
Si Si1 0.831666 0.500000 0.942101
Si Si2 0.669086 0.000000 0.204451
Si Si3 0.169633 0.636547 0.653407
Si Si4 0.336380 0.336250 0.445252
Si Si5 0.331328 0.878364 0.565729
Si Si6 0.834121 0.296916 0.870253
Si Si7 0.833607 0.072003 0.759641
O O1 0.761324 0.500000 0.823686
O O2 0.000000 0.500000 0.929349
O O3 0.779323 0.440453 0.006321
O O4 0.718280 0.936253 0.145989
O O5 0.500000 0.000000 0.214319
O O6 0.238052 0.670007 0.550366
O O7 0.230844 0.668966 0.763636
O O8 0.000000 0.644104 0.646405
O O9 0.500000 0.333346 0.484311
O O10 0.303251 0.276987 0.366998
O O11 0.306162 0.399946 0.379412
O O12 0.500000 0.875314 0.589186
O O13 0.276920 0.823053 0.486230
O O14 0.250170 0.880951 0.679982
O O15 0.000000 0.314059 0.867870
O O16 0.000000 0.074763 0.729966
O O17 0.777728 0.000000 0.757127
#
# Coordination Sequence:
#
# PCOD8188330 Si02
#       7
#     4   4   8   8   8   8   8
#     4   9  14  26  50  81 108 134 167 214 273 318
#     4   9  16  30  54  83 112 136 169 222 277 318
#     4  10  20  36  59  84 107 137 179 224 268 317
#     4  10  23  40  55  75 110 151 182 213 261 322
#     4  10  18  32  57  84 108 136 177 226 270 314
#     4   9  19  36  58  82 109 140 175 220 275 322
#     4  10  22  38  54  75 109 150 183 215 263 319
#
# _framework density 19.421199000000001
#
# number of rings (size 3 to 8) (size 9 to 14) (size 15 to 20)
#    0.000    2.333    2.500    0.000    3.500    0.667 
#    0.000    1.667    0.000    1.000    0.000    0.000 
#    0.000    0.000    0.000    0.000    0.000    0.000 
#
# Total GULP energy -297457.303050 kJ/mol
# GULP energy per Si atom -12394.054294 kJ/mol
# Density = 1.937700 g / cm^3
# Si number density = 19.421199 Si / 1000 Ang^3
#
#
#
# Elastic Constant Matrix: (Units=GPa)
#
#
# Indices 1 2 3 4 5 6 
#
# 1 36.4110 24.5269 40.2674 0.0000 0.0000 0.0000
# 2 24.5269 97.7500 43.7594 0.0000 0.0000 0.0000
# 3 40.2674 43.7594 118.7063 0.0002 -0.0001 0.0000
# 4 0.0000 0.0000 0.0002 35.4372 0.0000 0.0000
# 5 0.0000 0.0000 -0.0001 0.0000 28.8585 0.0000
# 6 0.0000 0.0000 0.0000 0.0000 0.0000 16.9762
#
#
#
# Elastic Compliance Matrix: (Units=1/GPa)
#
#
# Indices 1 2 3 4 5 6 
#
# 1 0.046290 -0.005492 -0.013678 0.000000 0.000000 0.000000
# 2 -0.005492 0.012904 -0.002894 0.000000 0.000000 0.000000
# 3 -0.013678 -0.002894 0.014131 0.000000 0.000000 0.000000
# 4 0.000000 0.000000 0.000000 0.028219 0.000000 0.000000
# 5 0.000000 0.000000 0.000000 0.000000 0.034652 0.000000
# 6 0.000000 0.000000 0.000000 0.000000 0.000000 0.058906
#
#
# Mechanical properties :
#
#
# Convention : Reuss Voigt Hill
#
# Bulk Modulus (GPa) = 34.24956 52.21940 43.23448
# Shear Modulus (GPa) = 20.08344 25.87528 22.97936
#
# Velocity S-wave (km/s) = 3.21923 3.65406 3.44351
# Velocity P-wave (km/s) = 5.61171 6.68947 6.17416
#
# Compressibility (1/GPa) = 0.02919746
#
# Stress axis : x y z
#
# Youngs Moduli (GPa) = 21.60275 77.49780 70.76733
#
# Poissons Ratio (x) = 0.42559 0.96797
# Poissons Ratio (y) = 0.11864 0.20479
# Poissons Ratio (z) = 0.29549 0.22427
#
# Static dielectric constant tensor:
#      x y z
#    x 3.051450 0.000000 0.000000 
#    y 0.000000 3.678800 0.000000 
#    z 0.000000 0.000000 3.508640 
# 
# 
# High freq. dielectric constant tensor:
#      x y z
#    x 1.705200 0.000000 0.000000 
#    y 0.000000 1.768050 0.000000 
#    z 0.000000 0.000000 1.759310 
# 
# From -- ./inp_files/12390.got.cif
#   From: 2010.03.12/outbox.cif.g09.slc.cpg/sg44_7_cif.got.tgz:12390.got - 2010.04.14 02:36:11.
