data_PCOD8188778
_publ_section_title
;
Structure prediction by ZEFSAII (Michael W. Deem and Ramdas Pophale) SiO2 
 PCOD8188778
Probable space group: I M M 2
;
_chemical_formula_sum "Si O2"
_cell_formula_units_Z 64
_cell_length_a 17.464473
_cell_length_b 19.933155
_cell_length_c 9.151389
_cell_angle_alpha 90.000000
_cell_angle_beta 90.000000
_cell_angle_gamma 90.000000
_cell_volume 3185.800274
_symmetry_space_group_name_H-M "I M M 2"
_symmetry_group_IT_number 44
_symmetry_cell_setting 'orthorhombic'
loop_
_space_group_symop_operation_xyz
x,y,z
-x,-y,z
-x,y,z
x,-y,z
1/2+x,1/2+y,1/2+z
1/2-x,1/2-y,1/2+z
1/2-x,1/2+y,1/2+z
1/2+x,1/2-y,1/2+z
loop_
_atom_site_type_symbol
_atom_site_label
_atom_site_fract_x
_atom_site_fract_y
_atom_site_fract_z
Si Si1 0.913968 0.308986 0.852510
Si Si2 0.659201 0.752580 0.611900
Si Si3 0.270860 0.571930 0.516405
Si Si4 0.706497 0.203083 0.913543
Si Si5 0.355081 0.576378 0.973046
Si Si6 0.588989 0.286704 0.093368
Si Si7 0.201245 0.426954 0.830310
Si Si8 0.588385 0.615570 0.664511
O O1 0.895634 0.241940 0.756886
O O2 0.861578 0.370730 0.806764
O O3 0.000000 0.332377 0.822678
O O4 0.904091 0.295916 0.025907
O O5 0.705224 0.790253 0.738743
O O6 0.719284 0.736517 0.484007
O O7 0.616701 0.691310 0.689536
O O8 0.258603 0.500000 0.438901
O O9 0.214658 0.623444 0.436234
O O10 0.249919 0.569450 0.684937
O O11 0.362140 0.587806 0.526194
O O12 0.630663 0.236007 0.981519
O O13 0.367721 0.500000 0.035524
O O14 0.263934 0.590517 0.954657
O O15 0.400116 0.578593 0.818960
O O16 0.384063 0.635282 0.082208
O O17 0.500000 0.283936 0.051819
O O18 0.163229 0.500000 0.862250
O O19 0.500000 0.611450 0.617225
#
# Coordination Sequence:
#
# PCOD8188778 Si02
#       8
#     8   8   8   8   8   8   8   8
#     4  11  23  38  58  89 124 157 205 260 309 361
#     4  11  23  36  60  87 117 158 204 254 306 358
#     4   9  19  35  58  87 120 159 201 246 294 358
#     4  11  21  38  61  86 117 158 200 249 297 358
#     4  10  20  34  57  90 125 162 201 245 296 364
#     4  11  22  35  57  89 124 158 200 246 300 362
#     4   9  18  36  59  84 119 160 206 252 301 359
#     4  10  19  32  54  90 125 159 201 246 296 358
#
# _framework density 20.089144999999998
#
# number of rings (size 3 to 8) (size 9 to 14) (size 15 to 20)
#    0.000    1.750    2.500    3.375    1.750    2.500 
#    0.000    0.625    0.000    9.375    0.000    7.000 
#    0.000    0.000    0.000    0.000    0.000    0.000 
#
# Total GULP energy -396553.302198 kJ/mol
# GULP energy per Si atom -12392.290694 kJ/mol
# Density = 2.004342 g / cm^3
# Si number density = 20.089145 Si / 1000 Ang^3
#
#
#
# Elastic Constant Matrix: (Units=GPa)
#
#
# Indices 1 2 3 4 5 6 
#
# 1 117.1173 72.3035 33.8540 0.0000 0.0000 0.0000
# 2 72.3035 161.8376 36.4999 0.0000 0.0000 0.0000
# 3 33.8540 36.4999 74.0780 0.0000 0.0000 0.0000
# 4 0.0000 0.0000 0.0000 18.7591 0.0000 0.0000
# 5 0.0000 0.0000 0.0000 0.0000 23.7002 0.0000
# 6 0.0000 0.0000 0.0000 0.0000 0.0000 15.9574
#
#
#
# Elastic Compliance Matrix: (Units=1/GPa)
#
#
# Indices 1 2 3 4 5 6 
#
# 1 0.012478 -0.004825 -0.003325 0.000000 0.000000 0.000000
# 2 -0.004825 0.008817 -0.002139 0.000000 0.000000 0.000000
# 3 -0.003325 -0.002139 0.016073 0.000000 0.000000 0.000000
# 4 0.000000 0.000000 0.000000 0.053308 0.000000 0.000000
# 5 0.000000 0.000000 0.000000 0.000000 0.042194 0.000000
# 6 0.000000 0.000000 0.000000 0.000000 0.000000 0.062667
#
#
# Mechanical properties :
#
#
# Convention : Reuss Voigt Hill
#
# Bulk Modulus (GPa) = 59.56165 70.92753 65.24459
# Shear Modulus (GPa) = 22.55171 25.70836 24.13004
#
# Velocity S-wave (km/s) = 3.35413 3.58119 3.46952
# Velocity P-wave (km/s) = 6.68680 7.24451 6.97123
#
# Compressibility (1/GPa) = 0.01678933
#
# Stress axis : x y z
#
# Youngs Moduli (GPa) = 80.13843 113.41514 62.21576
#
# Poissons Ratio (x) = 0.54722 0.20689
# Poissons Ratio (y) = 0.38666 0.13310
# Poissons Ratio (z) = 0.26649 0.24264
#
# Static dielectric constant tensor:
#      x y z
#    x 3.612820 0.000000 0.000000 
#    y 0.000000 3.977320 0.000000 
#    z 0.000000 0.000000 3.390370 
# 
# 
# High freq. dielectric constant tensor:
#      x y z
#    x 1.780850 0.000000 0.000000 
#    y 0.000000 1.786590 0.000000 
#    z 0.000000 0.000000 1.757150 
# 
# From -- ./inp_files/8482.got.cif
#   From: 2010.03.12/outbox.cif.g09.slc.cpg/sg44_5_cif.got.tgz:8482.got - 2010.04.14 02:36:11.
