data_PCOD8188371
_publ_section_title
;
Structure prediction by ZEFSAII (Michael W. Deem and Ramdas Pophale) SiO2 
 PCOD8188371
Probable space group: I M M 2
;
_chemical_formula_sum "Si O2"
_cell_formula_units_Z 64
_cell_length_a 31.041321
_cell_length_b 8.581815
_cell_length_c 12.174504
_cell_angle_alpha 90.000000
_cell_angle_beta 90.000000
_cell_angle_gamma 90.000000
_cell_volume 3243.176763
_symmetry_space_group_name_H-M "I M M 2"
_symmetry_group_IT_number 44
_symmetry_cell_setting 'orthorhombic'
loop_
_space_group_symop_operation_xyz
x,y,z
-x,-y,z
-x,y,z
x,-y,z
1/2+x,1/2+y,1/2+z
1/2-x,1/2-y,1/2+z
1/2-x,1/2+y,1/2+z
1/2+x,1/2-y,1/2+z
loop_
_atom_site_type_symbol
_atom_site_label
_atom_site_fract_x
_atom_site_fract_y
_atom_site_fract_z
Si Si1 0.795321 0.315015 0.072830
Si Si2 0.872761 0.686204 0.923367
Si Si3 0.048007 0.685177 0.531112
Si Si4 0.547572 0.815229 0.563415
Si Si5 0.699703 0.318632 0.028054
Si Si6 0.428055 0.176258 0.796339
Si Si7 0.873880 0.315634 0.676091
Si Si8 0.173150 0.676881 0.305979
O O1 0.798057 0.500000 0.069002
O O2 0.804472 0.257746 0.196319
O O3 0.830984 0.248260 0.988122
O O4 0.748202 0.253857 0.040200
O O5 0.872700 0.500000 0.922751
O O6 0.871853 0.752387 0.799361
O O7 0.916127 0.751550 0.981495
O O8 0.053799 0.500000 0.525559
O O9 0.056016 0.757673 0.409274
O O10 0.083716 0.753618 0.614834
O O11 0.000000 0.731155 0.571687
O O12 0.500000 0.771695 0.518276
O O13 0.552876 0.743379 0.686402
O O14 0.553928 0.000000 0.571369
O O15 0.697153 0.500000 0.056145
O O16 0.685691 0.290868 0.903705
O O17 0.669211 0.228565 0.112023
O O18 0.377215 0.182645 0.786525
O O19 0.445145 0.000000 0.800247
O O20 0.877200 0.500000 0.679969
O O21 0.187734 0.500000 0.333480
#
# Coordination Sequence:
#
# PCOD8188371 Si02
#       8
#     8   8   8   8   8   8   8   8
#     4   9  19  34  51  73 102 135 169 211 261 306
#     4   9  17  30  47  70 102 137 171 208 252 305
#     4   9  16  26  43  72 104 130 165 212 254 294
#     4   9  15  23  40  71 107 135 160 202 261 312
#     4  11  23  36  52  77 106 135 171 218 263 301
#     4   9  14  24  44  71 102 132 162 200 252 306
#     4  10  20  34  53  75 102 141 178 210 254 307
#     4  10  18  34  58  77  99 135 174 209 254 311
#
# _framework density 19.733737000000001
#
# number of rings (size 3 to 8) (size 9 to 14) (size 15 to 20)
#    0.000    2.500    2.500    0.750    1.750    2.000 
#    0.000    3.125    0.000    1.125    0.000    0.000 
#    0.000    1.000    0.000    0.000    0.000    0.000 
#
# Total GULP energy -396672.078633 kJ/mol
# GULP energy per Si atom -12396.002457 kJ/mol
# Density = 1.968882 g / cm^3
# Si number density = 19.733737 Si / 1000 Ang^3
#
#
#
# Elastic Constant Matrix: (Units=GPa)
#
#
# Indices 1 2 3 4 5 6 
#
# 1 150.2887 4.1407 77.6793 0.0000 0.0000 0.0000
# 2 4.1407 5.0543 4.3005 0.0000 0.0000 0.0000
# 3 77.6793 4.3005 163.7645 0.0000 0.0000 0.0000
# 4 0.0000 0.0000 0.0000 6.1464 0.0000 0.0000
# 5 0.0000 0.0000 0.0000 0.0000 133.9171 0.0000
# 6 0.0000 0.0000 0.0000 0.0000 0.0000 14.3197
#
#
#
# Elastic Compliance Matrix: (Units=1/GPa)
#
#
# Indices 1 2 3 4 5 6 
#
# 1 0.008885 -0.003777 -0.004115 0.000000 0.000000 0.000000
# 2 -0.003777 0.203981 -0.003565 0.000000 0.000000 0.000000
# 3 -0.004115 -0.003565 0.008152 0.000000 0.000000 0.000000
# 4 0.000000 0.000000 0.000000 0.162698 0.000000 0.000000
# 5 0.000000 0.000000 0.000000 0.000000 0.007467 0.000000
# 6 0.000000 0.000000 0.000000 0.000000 0.000000 0.069834
#
#
# Mechanical properties :
#
#
# Convention : Reuss Voigt Hill
#
# Bulk Modulus (GPa) = 5.04789 54.59427 29.82108
# Shear Modulus (GPa) = 9.09148 46.40911 27.75030
#
# Velocity S-wave (km/s) = 2.14874 4.85476 3.75405
# Velocity P-wave (km/s) = 2.95291 7.69093 5.82538
#
# Compressibility (1/GPa) = 0.19810267
#
# Stress axis : x y z
#
# Youngs Moduli (GPa) = 112.54955 4.90242 122.67002
#
# Poissons Ratio (x) = 0.01852 0.50482
# Poissons Ratio (y) = 0.42515 0.43729
# Poissons Ratio (z) = 0.46317 0.01748
#
# Static dielectric constant tensor:
#      x y z
#    x 3.749050 0.000000 0.000000 
#    y 0.000000 2.840940 0.000000 
#    z 0.000000 0.000000 3.880620 
# 
# 
# High freq. dielectric constant tensor:
#      x y z
#    x 1.784940 0.000000 0.000000 
#    y 0.000000 1.687680 0.000000 
#    z 0.000000 0.000000 1.780800 
# 
# From -- ./inp_files/15079.got.cif
#   From: 2010.03.12/outbox.cif.g09.slc.cpg/sg44_8_cif.got.tgz:15079.got - 2010.04.14 02:36:11.
