data_PCOD8188216
_publ_section_title
;
Structure prediction by ZEFSAII (Michael W. Deem and Ramdas Pophale) SiO2 
 PCOD8188216
Probable space group: I M M 2
;
_chemical_formula_sum "Si O2"
_cell_formula_units_Z 48
_cell_length_a 9.281397
_cell_length_b 20.431558
_cell_length_c 14.514980
_cell_angle_alpha 90.000000
_cell_angle_beta 90.000000
_cell_angle_gamma 90.000000
_cell_volume 2752.525025
_symmetry_space_group_name_H-M "I M M 2"
_symmetry_group_IT_number 44
_symmetry_cell_setting 'orthorhombic'
loop_
_space_group_symop_operation_xyz
x,y,z
-x,-y,z
-x,y,z
x,-y,z
1/2+x,1/2+y,1/2+z
1/2-x,1/2-y,1/2+z
1/2-x,1/2+y,1/2+z
1/2+x,1/2-y,1/2+z
loop_
_atom_site_type_symbol
_atom_site_label
_atom_site_fract_x
_atom_site_fract_y
_atom_site_fract_z
Si Si1 0.170288 0.693677 0.193100
Si Si2 0.831102 0.123820 0.985141
Si Si3 0.828960 0.073023 0.180470
Si Si4 0.166629 0.426271 0.312749
Si Si5 0.171220 0.814531 0.315196
Si Si6 0.669310 0.224231 0.490405
O O1 0.220822 0.623887 0.233999
O O2 0.228379 0.751591 0.258510
O O3 0.000000 0.700406 0.187693
O O4 0.230362 0.701447 0.089702
O O5 0.753774 0.083146 0.906057
O O6 0.794264 0.199898 0.975965
O O7 0.000000 0.110550 0.976509
O O8 0.770006 0.098214 0.082469
O O9 0.776308 0.120792 0.261400
O O10 0.000000 0.074399 0.176293
O O11 0.770654 0.000000 0.200384
O O12 0.190721 0.500000 0.275986
O O13 0.000000 0.412441 0.335016
O O14 0.246222 0.817275 0.414296
O O15 0.000000 0.812410 0.328298
O O16 0.500000 0.210494 0.481077
#
# Coordination Sequence:
#
# PCOD8188216 Si02
#       6
#     8   8   8   8   8   8
#     4   9  17  32  51  69  96 131 164 196 233 288
#     4  10  18  30  51  77 101 126 158 201 250 293
#     4   9  17  30  50  75 100 128 163 199 240 294
#     4  10  20  33  50  73 100 131 164 199 242 289
#     4  10  18  32  53  73  96 130 166 200 239 285
#     4  10  19  32  51  76 101 126 162 205 243 283
#
# _framework density 17.438534000000001
#
# number of rings (size 3 to 8) (size 9 to 14) (size 15 to 20)
#    0.000    2.333    3.333    0.500    0.000    1.000 
#    0.000    3.333    0.000    2.500    0.000    0.000 
#    0.000    0.000    0.000    0.000    0.000    0.000 
#
# Total GULP energy -297596.763925 kJ/mol
# GULP energy per Si atom -12399.865164 kJ/mol
# Density = 1.739884 g / cm^3
# Si number density = 17.438534 Si / 1000 Ang^3
#
#
#
# Elastic Constant Matrix: (Units=GPa)
#
#
# Indices 1 2 3 4 5 6 
#
# 1 22.8794 26.7702 28.0326 0.0000 0.0000 0.0000
# 2 26.7702 119.8077 59.7850 0.0000 0.0000 0.0000
# 3 28.0326 59.7850 136.3068 0.0001 0.0000 0.0000
# 4 0.0000 0.0000 0.0001 32.7972 0.0000 0.0000
# 5 0.0000 0.0000 0.0000 0.0000 29.1542 0.0000
# 6 0.0000 0.0000 0.0000 0.0000 0.0000 15.0266
#
#
#
# Elastic Compliance Matrix: (Units=1/GPa)
#
#
# Indices 1 2 3 4 5 6 
#
# 1 0.067225 -0.010398 -0.009265 0.000000 0.000000 0.000000
# 2 -0.010398 0.012294 -0.003254 0.000000 0.000000 0.000000
# 3 -0.009265 -0.003254 0.010669 0.000000 0.000000 0.000000
# 4 0.000000 0.000000 0.000000 0.030490 0.000000 0.000000
# 5 0.000000 0.000000 0.000000 0.000000 0.034300 0.000000
# 6 0.000000 0.000000 0.000000 0.000000 0.000000 0.066549
#
#
# Mechanical properties :
#
#
# Convention : Reuss Voigt Hill
#
# Bulk Modulus (GPa) = 22.54543 56.46328 39.50436
# Shear Modulus (GPa) = 17.72143 26.35600 22.03871
#
# Velocity S-wave (km/s) = 3.19128 3.89185 3.55884
# Velocity P-wave (km/s) = 5.15127 7.25562 6.29204
#
# Compressibility (1/GPa) = 0.04435488
#
# Stress axis : x y z
#
# Youngs Moduli (GPa) = 14.87545 81.34303 93.73057
#
# Poissons Ratio (x) = 0.84578 0.86840
# Poissons Ratio (y) = 0.15467 0.30497
# Poissons Ratio (z) = 0.13782 0.26467
#
# Static dielectric constant tensor:
#      x y z
#    x 2.837880 0.000000 0.000000 
#    y 0.000000 3.412290 0.000000 
#    z 0.000000 0.000000 3.329030 
# 
# 
# High freq. dielectric constant tensor:
#      x y z
#    x 1.632820 0.000000 0.000000 
#    y 0.000000 1.677820 0.000000 
#    z 0.000000 0.000000 1.677530 
# 
# From -- ./inp_files/11168.got.cif
#   From: 2010.03.12/outbox.cif.g09.slc.cpg/sg44_6_cif.got.tgz:11168.got - 2010.04.14 02:36:11.
