data_PCOD8188868
_publ_section_title
;
Structure prediction by ZEFSAII (Michael W. Deem and Ramdas Pophale) SiO2 
 PCOD8188868
Probable space group: I M M 2
;
_chemical_formula_sum "Si O2"
_cell_formula_units_Z 56
_cell_length_a 9.395246
_cell_length_b 19.655732
_cell_length_c 15.128354
_cell_angle_alpha 90.000000
_cell_angle_beta 90.000000
_cell_angle_gamma 90.000000
_cell_volume 2793.759751
_symmetry_space_group_name_H-M "I M M 2"
_symmetry_group_IT_number 44
_symmetry_cell_setting 'orthorhombic'
loop_
_space_group_symop_operation_xyz
x,y,z
-x,-y,z
-x,y,z
x,-y,z
1/2+x,1/2+y,1/2+z
1/2-x,1/2-y,1/2+z
1/2-x,1/2+y,1/2+z
1/2+x,1/2-y,1/2+z
loop_
_atom_site_type_symbol
_atom_site_label
_atom_site_fract_x
_atom_site_fract_y
_atom_site_fract_z
Si Si1 0.840630 0.580366 0.224300
Si Si2 0.340754 0.687882 0.303862
Si Si3 0.166441 0.077774 0.199650
Si Si4 0.649776 0.575351 0.074879
Si Si5 0.337496 0.239966 0.479396
Si Si6 0.160880 0.875163 0.392159
Si Si7 0.830061 0.290518 0.648422
O O1 0.830291 0.500000 0.240403
O O2 0.753578 0.620198 0.297995
O O3 0.779713 0.607579 0.129461
O O4 0.000000 0.606439 0.227372
O O5 0.500000 0.670537 0.273351
O O6 0.335631 0.699328 0.408881
O O7 0.288270 0.750059 0.239113
O O8 0.200615 0.085757 0.303231
O O9 0.260926 0.133797 0.148727
O O10 0.000000 0.091344 0.179269
O O11 0.207040 0.000000 0.172090
O O12 0.500000 0.614952 0.094702
O O13 0.634550 0.500000 0.112799
O O14 0.674669 0.570283 0.970755
O O15 0.500000 0.224930 0.510097
O O16 0.276303 0.180608 0.417682
O O17 0.235895 0.251684 0.563583
O O18 0.000000 0.844623 0.386067
O O19 0.000000 0.297434 0.637294
#
# Coordination Sequence:
#
# PCOD8188868 Si02
#       7
#     8   8   8   8   8   8   8
#     4  10  21  35  53  81 114 147 188 239 293 349
#     4  10  22  40  60  83 115 152 194 241 293 357
#     4  10  21  38  61  89 123 164 209 256 309 370
#     4   9  17  30  49  75 110 150 186 221 272 341
#     4  11  23  39  59  86 117 152 198 250 303 362
#     4  10  19  33  55  85 117 151 194 244 297 354
#     4  11  23  41  62  89 122 159 205 255 306 365
#
# _framework density 20.044673
#
# number of rings (size 3 to 8) (size 9 to 14) (size 15 to 20)
#    0.000    1.857    1.429    2.571    0.000    9.143 
#    0.000    0.714    0.000    3.429    0.000    0.000 
#    0.000    0.000    0.000    0.000    0.000    0.000 
#
# Total GULP energy -346866.557758 kJ/mol
# GULP energy per Si atom -12388.091348 kJ/mol
# Density = 1.999905 g / cm^3
# Si number density = 20.044673 Si / 1000 Ang^3
#
#
#
# Elastic Constant Matrix: (Units=GPa)
#
#
# Indices 1 2 3 4 5 6 
#
# 1 118.2003 46.0080 30.3795 0.0000 0.0000 0.0000
# 2 46.0080 63.6923 5.7283 0.0000 0.0000 0.0000
# 3 30.3795 5.7283 62.3048 0.0001 0.0000 0.0000
# 4 0.0000 0.0000 0.0001 25.4012 0.0000 0.0000
# 5 0.0000 0.0000 0.0000 0.0000 28.5927 0.0000
# 6 0.0000 0.0000 0.0000 0.0000 0.0000 32.4005
#
#
#
# Elastic Compliance Matrix: (Units=1/GPa)
#
#
# Indices 1 2 3 4 5 6 
#
# 1 0.013546 -0.009268 -0.005753 0.000000 0.000000 0.000000
# 2 -0.009268 0.022172 0.002480 0.000000 0.000000 0.000000
# 3 -0.005753 0.002480 0.018627 0.000000 0.000000 0.000000
# 4 0.000000 0.000000 0.000000 0.039368 0.000000 0.000000
# 5 0.000000 0.000000 0.000000 0.000000 0.034974 0.000000
# 6 0.000000 0.000000 0.000000 0.000000 0.000000 0.030864
#
#
# Mechanical properties :
#
#
# Convention : Reuss Voigt Hill
#
# Bulk Modulus (GPa) = 34.17081 45.38102 39.77591
# Shear Modulus (GPa) = 25.72194 28.08429 26.90312
#
# Velocity S-wave (km/s) = 3.58611 3.74717 3.66752
# Velocity P-wave (km/s) = 5.85075 6.43512 6.14988
#
# Compressibility (1/GPa) = 0.02926474
#
# Stress axis : x y z
#
# Youngs Moduli (GPa) = 73.82183 45.10222 53.68494
#
# Poissons Ratio (x) = 0.41799 0.30885
# Poissons Ratio (y) = 0.68415 -0.13316
# Poissons Ratio (z) = 0.42469 -0.11187
#
# Static dielectric constant tensor:
#      x y z
#    x 3.831440 0.000000 0.000000 
#    y 0.000000 3.566430 0.000000 
#    z 0.000000 0.000000 3.613450 
# 
# 
# High freq. dielectric constant tensor:
#      x y z
#    x 1.787390 0.000000 0.000000 
#    y 0.000000 1.772470 0.000000 
#    z 0.000000 0.000000 1.771490 
# 
# From -- ./inp_files/16433.got.cif
#   From: 2010.03.12/outbox.cif.g09.slc.cpg/sg44_9_cif.got.tgz:16433.got - 2010.04.14 02:36:11.
