data_PCOD8188143
_publ_section_title
;
Structure prediction by ZEFSAII (Michael W. Deem and Ramdas Pophale) SiO2 
 PCOD8188143
Probable space group: I M M 2
;
_chemical_formula_sum "Si O2"
_cell_formula_units_Z 64
_cell_length_a 15.780251
_cell_length_b 8.868724
_cell_length_c 23.581481
_cell_angle_alpha 90.000000
_cell_angle_beta 90.000000
_cell_angle_gamma 90.000000
_cell_volume 3300.244555
_symmetry_space_group_name_H-M "I M M 2"
_symmetry_group_IT_number 44
_symmetry_cell_setting 'orthorhombic'
loop_
_space_group_symop_operation_xyz
x,y,z
-x,-y,z
-x,y,z
x,-y,z
1/2+x,1/2+y,1/2+z
1/2-x,1/2-y,1/2+z
1/2-x,1/2+y,1/2+z
1/2+x,1/2-y,1/2+z
loop_
_atom_site_type_symbol
_atom_site_label
_atom_site_fract_x
_atom_site_fract_y
_atom_site_fract_z
Si Si1 0.404748 0.321300 0.711800
Si Si2 0.344297 0.321950 0.587862
Si Si3 0.095984 0.663343 0.631971
Si Si4 0.901479 0.177625 0.744070
Si Si5 0.321561 0.321912 0.039430
Si Si6 0.259418 0.320120 0.796933
Si Si7 0.407826 0.827173 0.482099
Si Si8 0.756493 0.177984 0.422060
O O1 0.500000 0.260713 0.726506
O O2 0.405397 0.500000 0.716117
O O3 0.380821 0.270167 0.648435
O O4 0.333473 0.257578 0.755452
O O5 0.329209 0.500000 0.585745
O O6 0.257614 0.233447 0.576766
O O7 0.409436 0.272950 0.538936
O O8 0.144083 0.500000 0.632575
O O9 0.130144 0.770878 0.681728
O O10 0.099769 0.743801 0.570534
O O11 0.000000 0.630359 0.645456
O O12 0.834780 0.255755 0.786201
O O13 0.000000 0.224074 0.757130
O O14 0.891482 0.000000 0.748485
O O15 0.329801 0.500000 0.042521
O O16 0.316831 0.266363 0.973795
O O17 0.253126 0.500000 0.793098
O O18 0.284531 0.262192 0.860454
O O19 0.500000 0.814496 0.453193
O O20 0.338941 0.767211 0.437084
O O21 0.386246 0.000000 0.499190
O O22 0.758879 0.000000 0.419924
#
# Coordination Sequence:
#
# PCOD8188143 Si02
#       8
#     8   8   8   8   8   8   8   8
#     4   9  18  31  48  73 102 129 162 209 258 298
#     4  10  18  29  48  73 100 129 163 204 253 310
#     4  10  20  34  53  78 105 132 167 210 257 315
#     4  10  21  36  54  79 111 142 171 211 267 325
#     4  10  19  33  52  74 103 134 166 209 260 311
#     4  10  19  34  56  76  99 137 182 222 258 304
#     4   9  17  30  47  68  97 130 162 201 252 309
#     4   8  17  32  49  72  99 131 172 212 253 304
#
# _framework density 19.392503000000001
#
# number of rings (size 3 to 8) (size 9 to 14) (size 15 to 20)
#    0.000    2.500    0.000    3.375    0.000    3.750 
#    0.000    5.625    0.000    4.125    0.000    0.000 
#    0.000    0.000    0.000    0.000    0.000    0.000 
#
# Total GULP energy -396474.671084 kJ/mol
# GULP energy per Si atom -12389.833471 kJ/mol
# Density = 1.934836 g / cm^3
# Si number density = 19.392503 Si / 1000 Ang^3
#
#
#
# Elastic Constant Matrix: (Units=GPa)
#
#
# Indices 1 2 3 4 5 6 
#
# 1 64.8723 17.1383 39.9948 0.0000 0.0000 0.0000
# 2 17.1383 51.3379 20.7940 0.0000 0.0000 0.0000
# 3 39.9948 20.7940 130.9241 0.0000 0.0000 0.0000
# 4 0.0000 0.0000 0.0000 22.3093 0.0000 0.0000
# 5 0.0000 0.0000 0.0000 0.0000 21.5343 0.0000
# 6 0.0000 0.0000 0.0000 0.0000 0.0000 23.2567
#
#
#
# Elastic Compliance Matrix: (Units=1/GPa)
#
#
# Indices 1 2 3 4 5 6 
#
# 1 0.019907 -0.004470 -0.005371 0.000000 0.000000 0.000000
# 2 -0.004470 0.021822 -0.002100 0.000000 0.000000 0.000000
# 3 -0.005371 -0.002100 0.009612 0.000000 0.000000 0.000000
# 4 0.000000 0.000000 0.000000 0.044824 0.000000 0.000000
# 5 0.000000 0.000000 0.000000 0.000000 0.046438 0.000000
# 6 0.000000 0.000000 0.000000 0.000000 0.000000 0.042998
#
#
# Mechanical properties :
#
#
# Convention : Reuss Voigt Hill
#
# Bulk Modulus (GPa) = 36.41925 44.77651 40.59788
# Shear Modulus (GPa) = 22.86885 24.70055 23.78470
#
# Velocity S-wave (km/s) = 3.43776 3.57279 3.50593
# Velocity P-wave (km/s) = 5.88035 6.33715 6.11302
#
# Compressibility (1/GPa) = 0.02745801
#
# Stress axis : x y z
#
# Youngs Moduli (GPa) = 50.23270 45.82581 104.03195
#
# Poissons Ratio (x) = 0.20485 0.55879
# Poissons Ratio (y) = 0.22455 0.21850
# Poissons Ratio (z) = 0.26982 0.09625
#
# Static dielectric constant tensor:
#      x y z
#    x 3.649840 0.000000 0.000000 
#    y 0.000000 3.431280 0.000000 
#    z 0.000000 0.000000 3.857780 
# 
# 
# High freq. dielectric constant tensor:
#      x y z
#    x 1.748280 0.000000 0.000000 
#    y 0.000000 1.730520 0.000000 
#    z 0.000000 0.000000 1.751000 
# 
# From -- ./inp_files/25756.got.cif
#   From: 2010.03.12/outbox.cif.g09.slc.cpg/sg44_13_cif.got.tgz:25756.got - 2010.04.14 02:36:11.
