data_PCOD8188857
_publ_section_title
;
Structure prediction by ZEFSAII (Michael W. Deem and Ramdas Pophale) SiO2 
 PCOD8188857
Probable space group: I M M 2
;
_chemical_formula_sum "Si O2"
_cell_formula_units_Z 48
_cell_length_a 7.879724
_cell_length_b 9.293568
_cell_length_c 33.769570
_cell_angle_alpha 90.000000
_cell_angle_beta 90.000000
_cell_angle_gamma 90.000000
_cell_volume 2472.970966
_symmetry_space_group_name_H-M "I M M 2"
_symmetry_group_IT_number 44
_symmetry_cell_setting 'orthorhombic'
loop_
_space_group_symop_operation_xyz
x,y,z
-x,-y,z
-x,y,z
x,-y,z
1/2+x,1/2+y,1/2+z
1/2-x,1/2-y,1/2+z
1/2-x,1/2+y,1/2+z
1/2+x,1/2-y,1/2+z
loop_
_atom_site_type_symbol
_atom_site_label
_atom_site_fract_x
_atom_site_fract_y
_atom_site_fract_z
Si Si1 0.307251 0.159527 0.223720
Si Si2 0.804783 0.331332 0.957800
Si Si3 0.500000 0.170763 0.091117
Si Si4 0.813518 0.828845 0.141130
Si Si5 0.000000 0.671711 0.500264
Si Si6 0.307230 0.839344 0.795417
Si Si7 0.803588 0.661588 0.866772
O O1 0.500000 0.149095 0.209516
O O2 0.207325 0.227369 0.186327
O O3 0.299032 0.255598 0.262690
O O4 0.237263 0.000000 0.234279
O O5 0.769900 0.500000 0.965161
O O6 0.672381 0.235964 0.982115
O O7 0.774948 0.291977 0.911990
O O8 0.000000 0.294173 0.969798
O O9 0.331038 0.235014 0.112182
O O10 0.500000 0.000000 0.094280
O O11 0.500000 0.219349 0.045840
O O12 0.000000 0.781257 0.125609
O O13 0.796395 0.000000 0.142144
O O14 0.000000 0.500000 0.494535
O O15 0.500000 0.840618 0.781038
O O16 0.298535 0.767612 0.838512
O O17 0.233492 0.000000 0.798844
O O18 0.735569 0.500000 0.860276
O O19 0.000000 0.669780 0.855337
#
# Coordination Sequence:
#
# PCOD8188857 Si02
#       7
#     8   8   4   8   4   8   8
#     4  10  19  33  55  80 105 136 184 238 279 325
#     4   9  20  40  63  85 113 153 200 247 293 345
#     4   9  18  33  49  79 119 149 183 229 283 345
#     4   9  16  29  52  78 107 144 183 229 280 326
#     4  11  23  35  57  91 127 157 189 239 301 367
#     4  11  24  36  47  73 113 149 181 222 275 338
#     4   9  19  37  59  80 101 134 186 239 282 326
#
# _framework density 19.409852000000001
#
# number of rings (size 3 to 8) (size 9 to 14) (size 15 to 20)
#    0.000    2.333    0.833    2.750    1.167    6.333 
#    0.000    3.333    0.000    2.000    0.000    2.333 
#    0.000    0.000    0.000    0.000    0.000    0.000 
#
# Total GULP energy -297545.880274 kJ/mol
# GULP energy per Si atom -12397.745011 kJ/mol
# Density = 1.936567 g / cm^3
# Si number density = 19.409852 Si / 1000 Ang^3
#
#
#
# Elastic Constant Matrix: (Units=GPa)
#
#
# Indices 1 2 3 4 5 6 
#
# 1 120.0868 37.7091 63.9719 0.0000 0.0000 0.0000
# 2 37.7091 79.8437 54.4042 0.0000 0.0000 0.0000
# 3 63.9719 54.4042 130.9426 0.0000 0.0000 0.0000
# 4 0.0000 0.0000 0.0000 20.0675 0.0000 0.0000
# 5 0.0000 0.0000 0.0000 0.0000 29.3722 0.0000
# 6 0.0000 0.0000 0.0000 0.0000 0.0000 24.6720
#
#
#
# Elastic Compliance Matrix: (Units=1/GPa)
#
#
# Indices 1 2 3 4 5 6 
#
# 1 0.011538 -0.002244 -0.004705 0.000000 0.000000 0.000000
# 2 -0.002244 0.017907 -0.006344 0.000000 0.000000 0.000000
# 3 -0.004705 -0.006344 0.012571 0.000000 0.000000 0.000000
# 4 0.000000 0.000000 0.000000 0.049832 0.000000 0.000000
# 5 0.000000 0.000000 0.000000 0.000000 0.034046 0.000000
# 6 0.000000 0.000000 0.000000 0.000000 0.000000 0.040532
#
#
# Mechanical properties :
#
#
# Convention : Reuss Voigt Hill
#
# Bulk Modulus (GPa) = 64.80169 71.44928 68.12548
# Shear Modulus (GPa) = 25.23300 26.47489 25.85395
#
# Velocity S-wave (km/s) = 3.60948 3.69723 3.65362
# Velocity P-wave (km/s) = 7.12948 7.42407 7.27827
#
# Compressibility (1/GPa) = 0.01543170
#
# Stress axis : x y z
#
# Youngs Moduli (GPa) = 86.66919 55.84530 79.54694
#
# Poissons Ratio (x) = 0.12529 0.37425
# Poissons Ratio (y) = 0.19444 0.50463
# Poissons Ratio (z) = 0.40776 0.35427
#
# Static dielectric constant tensor:
#      x y z
#    x 3.610340 0.000000 0.000000 
#    y 0.000000 3.247610 0.000000 
#    z 0.000000 0.000000 3.485920 
# 
# 
# High freq. dielectric constant tensor:
#      x y z
#    x 1.767120 0.000000 0.000000 
#    y 0.000000 1.718400 0.000000 
#    z 0.000000 0.000000 1.754470 
# 
# From -- ./inp_files/26954.got.cif
#   From: 2010.03.12/outbox.cif.g09.slc.cpg/sg44_14_cif.got.tgz:26954.got - 2010.04.14 02:36:11.
