data_PCOD8188140
_publ_section_title
;
Structure prediction by ZEFSAII (Michael W. Deem and Ramdas Pophale) SiO2 
 PCOD8188140
Probable space group: I M M 2
;
_chemical_formula_sum "Si O2"
_cell_formula_units_Z 64
_cell_length_a 8.888770
_cell_length_b 23.359569
_cell_length_c 19.068174
_cell_angle_alpha 90.000000
_cell_angle_beta 90.000000
_cell_angle_gamma 90.000000
_cell_volume 3959.274389
_symmetry_space_group_name_H-M "I M M 2"
_symmetry_group_IT_number 44
_symmetry_cell_setting 'orthorhombic'
loop_
_space_group_symop_operation_xyz
x,y,z
-x,-y,z
-x,y,z
x,-y,z
1/2+x,1/2+y,1/2+z
1/2-x,1/2-y,1/2+z
1/2-x,1/2+y,1/2+z
1/2+x,1/2-y,1/2+z
loop_
_atom_site_type_symbol
_atom_site_label
_atom_site_fract_x
_atom_site_fract_y
_atom_site_fract_z
Si Si1 0.323319 0.331370 0.524410
Si Si2 0.823456 0.384066 0.305686
Si Si3 0.677775 0.780956 0.444892
Si Si4 0.822296 0.159344 0.568943
Si Si5 0.821340 0.063638 0.939682
Si Si6 0.324329 0.933493 0.656062
Si Si7 0.824691 0.748010 0.308592
Si Si8 0.823723 0.239173 0.151689
O O1 0.500000 0.335534 0.516561
O O2 0.265282 0.280137 0.474819
O O3 0.254561 0.391680 0.497651
O O4 0.279578 0.316700 0.605042
O O5 0.737569 0.420773 0.363249
O O6 0.773661 0.408209 0.230694
O O7 0.774467 0.318027 0.310880
O O8 0.000000 0.391859 0.317497
O O9 0.500000 0.788075 0.448975
O O10 0.752596 0.830326 0.491868
O O11 0.732387 0.785261 0.364723
O O12 0.769356 0.097176 0.594797
O O13 0.766184 0.205977 0.624999
O O14 0.000000 0.161877 0.563222
O O15 0.000000 0.066244 0.937225
O O16 0.765904 0.000000 0.960371
O O17 0.500000 0.922081 0.643491
O O18 0.284056 0.000000 0.653487
O O19 0.784690 0.773852 0.232233
O O20 0.000000 0.754266 0.325267
O O21 0.000000 0.254266 0.142804
#
# Coordination Sequence:
#
# PCOD8188140 Si02
#       8
#     8   8   8   8   8   8   8   8
#     4   8  15  28  45  64  85 119 157 190 232 278
#     4  10  19  31  46  66  96 128 164 199 229 277
#     4  10  19  32  50  67  93 126 159 195 242 298
#     4  11  21  32  48  71  98 124 160 206 249 286
#     4  10  19  30  44  65  94 126 164 202 233 272
#     4  10  20  35  52  68  93 134 175 201 235 290
#     4  10  18  29  48  72  95 122 158 200 242 284
#     4   9  17  32  50  66  92 126 161 198 242 295
#
# _framework density 16.164579
#
# number of rings (size 3 to 8) (size 9 to 14) (size 15 to 20)
#    0.000    2.250    2.500    2.625    0.000    2.000 
#    0.000    0.000    0.000    0.000    0.000    0.875 
#    0.000    3.000    0.000    0.000    0.000    0.000 
#
# Total GULP energy -396747.931835 kJ/mol
# GULP energy per Si atom -12398.372870 kJ/mol
# Density = 1.612779 g / cm^3
# Si number density = 16.164579 Si / 1000 Ang^3
#
#
#
# Elastic Constant Matrix: (Units=GPa)
#
#
# Indices 1 2 3 4 5 6 
#
# 1 54.6658 26.0959 41.3111 0.0000 0.0000 0.0000
# 2 26.0959 78.0070 56.1354 0.0000 0.0000 0.0000
# 3 41.3111 56.1354 126.8234 0.0000 0.0000 0.0000
# 4 0.0000 0.0000 0.0000 24.4561 0.0000 0.0000
# 5 0.0000 0.0000 0.0000 0.0000 25.7073 0.0000
# 6 0.0000 0.0000 0.0000 0.0000 0.0000 17.0548
#
#
#
# Elastic Compliance Matrix: (Units=1/GPa)
#
#
# Indices 1 2 3 4 5 6 
#
# 1 0.024962 -0.003667 -0.006508 0.000000 0.000000 0.000000
# 2 -0.003667 0.019350 -0.007370 0.000000 0.000000 0.000000
# 3 -0.006508 -0.007370 0.013267 0.000000 0.000000 0.000000
# 4 0.000000 0.000000 0.000000 0.040890 0.000000 0.000000
# 5 0.000000 0.000000 0.000000 0.000000 0.038900 0.000000
# 6 0.000000 0.000000 0.000000 0.000000 0.000000 0.058635
#
#
# Mechanical properties :
#
#
# Convention : Reuss Voigt Hill
#
# Bulk Modulus (GPa) = 44.46810 56.28678 50.37744
# Shear Modulus (GPa) = 20.95657 22.50721 21.73189
#
# Velocity S-wave (km/s) = 3.60453 3.73551 3.67060
# Velocity P-wave (km/s) = 6.70021 7.31451 7.01409
#
# Compressibility (1/GPa) = 0.02248803
#
# Stress axis : x y z
#
# Youngs Moduli (GPa) = 40.06168 51.67968 75.37505
#
# Poissons Ratio (x) = 0.18953 0.49051
# Poissons Ratio (y) = 0.14692 0.55553
# Poissons Ratio (z) = 0.26071 0.38089
#
# Static dielectric constant tensor:
#      x y z
#    x 2.893830 0.000000 0.000000 
#    y 0.000000 3.123640 0.000000 
#    z 0.000000 0.000000 3.178620 
# 
# 
# High freq. dielectric constant tensor:
#      x y z
#    x 1.610500 0.000000 0.000000 
#    y 0.000000 1.596980 0.000000 
#    z 0.000000 0.000000 1.619930 
# 
# From -- ./inp_files/20860.got.cif
#   From: 2010.03.12/outbox.cif.g09.slc.cpg/sg44_11_cif.got.tgz:20860.got - 2010.04.14 02:36:11.
