data_PCOD8188993
_publ_section_title
;
Structure prediction by ZEFSAII (Michael W. Deem and Ramdas Pophale) SiO2 
 PCOD8188993
Probable space group: I M M 2
;
_chemical_formula_sum "Si O2"
_cell_formula_units_Z 48
_cell_length_a 8.914931
_cell_length_b 20.357780
_cell_length_c 14.450155
_cell_angle_alpha 90.000000
_cell_angle_beta 90.000000
_cell_angle_gamma 90.000000
_cell_volume 2622.532679
_symmetry_space_group_name_H-M "I M M 2"
_symmetry_group_IT_number 44
_symmetry_cell_setting 'orthorhombic'
loop_
_space_group_symop_operation_xyz
x,y,z
-x,-y,z
-x,y,z
x,-y,z
1/2+x,1/2+y,1/2+z
1/2-x,1/2-y,1/2+z
1/2-x,1/2+y,1/2+z
1/2+x,1/2-y,1/2+z
loop_
_atom_site_type_symbol
_atom_site_label
_atom_site_fract_x
_atom_site_fract_y
_atom_site_fract_z
Si Si1 0.827660 0.575196 0.576340
Si Si2 0.171492 0.238863 0.769972
Si Si3 0.823052 0.876087 0.258371
Si Si4 0.321879 0.427596 0.955334
Si Si5 0.824008 0.812922 0.967999
Si Si6 0.672970 0.306121 0.071398
O O1 0.809996 0.500000 0.545116
O O2 0.752116 0.584567 0.675554
O O3 0.751316 0.619143 0.497738
O O4 0.000000 0.596427 0.585302
O O5 0.279991 0.300059 0.756046
O O6 0.218801 0.199104 0.861209
O O7 0.190599 0.190745 0.682163
O O8 0.000000 0.263989 0.778056
O O9 0.764367 0.907534 0.353765
O O10 0.000000 0.882558 0.247658
O O11 0.500000 0.429097 0.956030
O O12 0.258208 0.500000 0.980445
O O13 0.263447 0.374445 0.029940
O O14 0.000000 0.819488 0.983216
O O15 0.766718 0.753955 0.031431
O O16 0.500000 0.295816 0.042056
#
# Coordination Sequence:
#
# PCOD8188993 Si02
#       6
#     8   8   8   8   8   8
#     4  11  24  40  57  80 113 153 191 232 288 344
#     4  10  21  35  54  83 116 145 183 233 281 333
#     4  11  20  32  56  87 115 146 183 230 283 336
#     4   9  18  32  52  81 113 144 183 226 271 328
#     4  11  22  36  56  83 113 146 189 236 279 329
#     4  10  19  35  57  79 109 149 187 226 277 334
#
# _framework density 18.302917999999998
#
# number of rings (size 3 to 8) (size 9 to 14) (size 15 to 20)
#    0.000    1.667    3.333    2.000    0.000    2.667 
#    0.000    0.833    0.000    4.500    0.000    0.000 
#    0.000    0.000    0.000    0.000    0.000    0.000 
#
# Total GULP energy -297653.870453 kJ/mol
# GULP energy per Si atom -12402.244602 kJ/mol
# Density = 1.826126 g / cm^3
# Si number density = 18.302918 Si / 1000 Ang^3
#
#
#
# Elastic Constant Matrix: (Units=GPa)
#
#
# Indices 1 2 3 4 5 6 
#
# 1 65.9467 31.0494 30.5575 0.0000 0.0000 0.0000
# 2 31.0494 118.8759 50.1428 0.0000 0.0000 0.0000
# 3 30.5575 50.1428 119.0120 0.0001 0.0000 0.0000
# 4 0.0000 0.0000 0.0001 15.9336 0.0000 0.0000
# 5 0.0000 0.0000 0.0000 0.0000 22.2877 0.0000
# 6 0.0000 0.0000 0.0000 0.0000 0.0000 15.5455
#
#
#
# Elastic Compliance Matrix: (Units=1/GPa)
#
#
# Indices 1 2 3 4 5 6 
#
# 1 0.018274 -0.003398 -0.003261 0.000000 0.000000 0.000000
# 2 -0.003398 0.010862 -0.003704 0.000000 0.000000 0.000000
# 3 -0.003261 -0.003704 0.010800 0.000000 0.000000 0.000000
# 4 0.000000 0.000000 0.000000 0.062761 0.000000 0.000000
# 5 0.000000 0.000000 0.000000 0.000000 0.044868 0.000000
# 6 0.000000 0.000000 0.000000 0.000000 0.000000 0.064327
#
#
# Mechanical properties :
#
#
# Convention : Reuss Voigt Hill
#
# Bulk Modulus (GPa) = 52.05099 58.59266 55.32183
# Shear Modulus (GPa) = 20.91866 23.55900 22.23883
#
# Velocity S-wave (km/s) = 3.38437 3.59161 3.48953
# Velocity P-wave (km/s) = 6.61606 7.02010 6.82107
#
# Compressibility (1/GPa) = 0.01921193
#
# Stress axis : x y z
#
# Youngs Moduli (GPa) = 54.72155 92.06410 92.59005
#
# Poissons Ratio (x) = 0.31281 0.30189
# Poissons Ratio (y) = 0.18593 0.34296
# Poissons Ratio (z) = 0.17842 0.34101
#
# Static dielectric constant tensor:
#      x y z
#    x 3.326020 0.000000 0.000000 
#    y 0.000000 3.564620 0.000000 
#    z 0.000000 0.000000 3.575860 
# 
# 
# High freq. dielectric constant tensor:
#      x y z
#    x 1.700570 0.000000 0.000000 
#    y 0.000000 1.706650 0.000000 
#    z 0.000000 0.000000 1.714080 
# 
# From -- ./inp_files/16069.got.cif
#   From: 2010.03.12/outbox.cif.g09.slc.cpg/sg44_9_cif.got.tgz:16069.got - 2010.04.14 02:36:11.
