data_PCOD8188046
_publ_section_title
;
Structure prediction by ZEFSAII (Michael W. Deem and Ramdas Pophale) SiO2 
 PCOD8188046
Probable space group: I M M 2
;
_chemical_formula_sum "Si O2"
_cell_formula_units_Z 56
_cell_length_a 8.695643
_cell_length_b 22.512398
_cell_length_c 17.746860
_cell_angle_alpha 90.000000
_cell_angle_beta 90.000000
_cell_angle_gamma 90.000000
_cell_volume 3474.121340
_symmetry_space_group_name_H-M "I M M 2"
_symmetry_group_IT_number 44
_symmetry_cell_setting 'orthorhombic'
loop_
_space_group_symop_operation_xyz
x,y,z
-x,-y,z
-x,y,z
x,-y,z
1/2+x,1/2+y,1/2+z
1/2-x,1/2-y,1/2+z
1/2-x,1/2+y,1/2+z
1/2+x,1/2-y,1/2+z
loop_
_atom_site_type_symbol
_atom_site_label
_atom_site_fract_x
_atom_site_fract_y
_atom_site_fract_z
Si Si1 0.677050 0.307101 0.573640
Si Si2 0.677926 0.314613 0.114716
Si Si3 0.180563 0.284653 0.429180
Si Si4 0.319551 0.067293 0.343671
Si Si5 0.323128 0.345969 0.731936
Si Si6 0.680821 0.278431 0.274698
Si Si7 0.179439 0.658814 0.969874
O O1 0.500000 0.285819 0.568563
O O2 0.788741 0.252899 0.592741
O O3 0.735850 0.327893 0.491070
O O4 0.696403 0.354829 0.641067
O O5 0.500000 0.329143 0.102666
O O6 0.723924 0.320520 0.203000
O O7 0.775025 0.356104 0.057122
O O8 0.233044 0.305989 0.346561
O O9 0.229130 0.216120 0.440422
O O10 0.000000 0.291793 0.437252
O O11 0.500000 0.070342 0.329046
O O12 0.236636 0.094449 0.270761
O O13 0.273111 0.102822 0.419034
O O14 0.262303 0.000000 0.354033
O O15 0.500000 0.334734 0.752925
O O16 0.229530 0.289544 0.761674
O O17 0.500000 0.278352 0.289411
O O18 0.000000 0.672594 0.963746
#
# Coordination Sequence:
#
# PCOD8188046 Si02
#       7
#     8   8   8   8   8   8   8
#     4   9  17  28  41  59  84 112 143 174 214 263
#     4   9  17  27  41  60  82 110 144 176 211 258
#     4  11  19  26  41  64  88 114 146 178 211 257
#     4  10  21  34  47  63  85 118 155 187 222 263
#     4  10  19  30  45  63  83 112 147 186 223 257
#     4  10  18  28  42  61  87 118 145 174 214 261
#     4  10  18  29  44  59  82 114 145 181 221 257
#
# _framework density 16.119184000000001
#
# number of rings (size 3 to 8) (size 9 to 14) (size 15 to 20)
#    0.000    2.143    1.429    5.143    0.000    4.286 
#    0.000    0.000    0.000    0.000    0.000    0.000 
#    0.000    1.143    0.000    8.571    0.000    4.429 
#
# Total GULP energy -346994.570043 kJ/mol
# GULP energy per Si atom -12392.663216 kJ/mol
# Density = 1.608250 g / cm^3
# Si number density = 16.119184 Si / 1000 Ang^3
#
#
#
# Elastic Constant Matrix: (Units=GPa)
#
#
# Indices 1 2 3 4 5 6 
#
# 1 62.0107 20.8449 46.0962 0.0000 0.0000 0.0000
# 2 20.8449 47.6872 41.8885 0.0000 0.0000 0.0000
# 3 46.0962 41.8885 155.2869 0.0001 0.0000 0.0000
# 4 0.0000 0.0000 0.0001 16.3123 0.0000 0.0000
# 5 0.0000 0.0000 0.0000 0.0000 31.1166 0.0000
# 6 0.0000 0.0000 0.0000 0.0000 0.0000 12.0893
#
#
#
# Elastic Compliance Matrix: (Units=1/GPa)
#
#
# Indices 1 2 3 4 5 6 
#
# 1 0.021559 -0.004983 -0.005056 0.000000 0.000000 0.000000
# 2 -0.004983 0.028633 -0.006245 0.000000 0.000000 0.000000
# 3 -0.005056 -0.006245 0.009625 0.000000 0.000000 0.000000
# 4 0.000000 0.000000 0.000000 0.061304 0.000000 0.000000
# 5 0.000000 0.000000 0.000000 0.000000 0.032137 0.000000
# 6 0.000000 0.000000 0.000000 0.000000 0.000000 0.082717
#
#
# Mechanical properties :
#
#
# Convention : Reuss Voigt Hill
#
# Bulk Modulus (GPa) = 36.69582 53.62710 45.16146
# Shear Modulus (GPa) = 18.00980 22.31399 20.16189
#
# Velocity S-wave (km/s) = 3.34621 3.72467 3.54050
# Velocity P-wave (km/s) = 6.14364 7.19992 6.69265
#
# Compressibility (1/GPa) = 0.02725106
#
# Stress axis : x y z
#
# Youngs Moduli (GPa) = 46.38327 34.92413 103.89708
#
# Poissons Ratio (x) = 0.17403 0.52526
# Poissons Ratio (y) = 0.23114 0.64880
# Poissons Ratio (z) = 0.23450 0.21809
#
# Static dielectric constant tensor:
#      x y z
#    x 3.115520 0.000000 0.000000 
#    y 0.000000 2.538110 0.000000 
#    z 0.000000 0.000000 3.895420 
# 
# 
# High freq. dielectric constant tensor:
#      x y z
#    x 1.636150 0.000000 0.000000 
#    y 0.000000 1.533130 0.000000 
#    z 0.000000 0.000000 1.645820 
# 
# From -- ./inp_files/20688.got.cif
#   From: 2010.03.12/outbox.cif.g09.slc.cpg/sg44_11_cif.got.tgz:20688.got - 2010.04.14 02:36:11.
