data_PCOD8188796
_publ_section_title
;
Structure prediction by ZEFSAII (Michael W. Deem and Ramdas Pophale) SiO2 
 PCOD8188796
Probable space group: I M M 2
;
_chemical_formula_sum "Si O2"
_cell_formula_units_Z 64
_cell_length_a 8.957678
_cell_length_b 29.226184
_cell_length_c 12.603504
_cell_angle_alpha 90.000000
_cell_angle_beta 90.000000
_cell_angle_gamma 90.000000
_cell_volume 3299.581535
_symmetry_space_group_name_H-M "I M M 2"
_symmetry_group_IT_number 44
_symmetry_cell_setting 'orthorhombic'
loop_
_space_group_symop_operation_xyz
x,y,z
-x,-y,z
-x,y,z
x,-y,z
1/2+x,1/2+y,1/2+z
1/2-x,1/2-y,1/2+z
1/2-x,1/2+y,1/2+z
1/2+x,1/2-y,1/2+z
loop_
_atom_site_type_symbol
_atom_site_label
_atom_site_fract_x
_atom_site_fract_y
_atom_site_fract_z
Si Si1 0.822538 0.357802 0.382170
Si Si2 0.822085 0.115872 0.669597
Si Si3 0.665138 0.753654 0.897926
Si Si4 0.834074 0.214336 0.624085
Si Si5 0.670528 0.445979 0.781403
Si Si6 0.823595 0.297741 0.745275
Si Si7 0.826913 0.446005 0.996977
Si Si8 0.323043 0.115334 0.118104
O O1 0.738500 0.386397 0.290507
O O2 0.768602 0.304820 0.379181
O O3 0.776969 0.380438 0.495062
O O4 0.000000 0.360906 0.366623
O O5 0.761563 0.163965 0.618578
O O6 0.750874 0.076011 0.599249
O O7 0.000000 0.109452 0.668002
O O8 0.500000 0.750365 0.848070
O O9 0.764672 0.708847 0.864443
O O10 0.657237 0.745839 0.021967
O O11 0.752072 0.249133 0.704194
O O12 0.000000 0.204471 0.667458
O O13 0.500000 0.429291 0.787505
O O14 0.682670 0.500000 0.775456
O O15 0.746658 0.428045 0.673442
O O16 0.753983 0.427749 0.887220
O O17 0.759067 0.340989 0.683221
O O18 0.000000 0.298789 0.736093
O O19 0.803504 0.500000 0.007746
O O20 0.000000 0.432354 0.994319
O O21 0.500000 0.111027 0.130047
#
# Coordination Sequence:
#
# PCOD8188796 Si02
#       8
#     8   8   8   8   8   8   8   8
#     4  10  20  36  56  79 113 157 201 240 281 332
#     4  11  22  36  58  86 117 153 192 237 288 340
#     4  10  19  33  51  73 107 151 193 236 281 328
#     4   9  18  33  51  74 110 150 186 227 278 328
#     4  10  22  41  64  89 117 146 180 230 290 348
#     4  10  19  34  52  76 110 148 190 233 277 329
#     4  10  22  42  66  89 115 146 183 231 285 343
#     4  10  21  37  59  84 113 153 196 239 285 336
#
# _framework density 19.396398999999999
#
# number of rings (size 3 to 8) (size 9 to 14) (size 15 to 20)
#    0.000    2.000    2.500    1.125    1.750    2.500 
#    0.000    1.875    0.000    0.750    0.000    0.000 
#    0.000    0.000    0.000    0.000    0.000    0.000 
#
# Total GULP energy -396515.075246 kJ/mol
# GULP energy per Si atom -12391.096101 kJ/mol
# Density = 1.935225 g / cm^3
# Si number density = 19.396399 Si / 1000 Ang^3
#
#
#
# Elastic Constant Matrix: (Units=GPa)
#
#
# Indices 1 2 3 4 5 6 
#
# 1 72.4654 31.2691 47.9348 0.0002 0.0000 0.0001
# 2 31.2691 45.9873 34.8582 -0.0001 0.0001 0.0002
# 3 47.9348 34.8582 109.7887 -0.0002 0.0002 0.0005
# 4 0.0002 -0.0001 -0.0002 37.8084 0.0001 0.0002
# 5 0.0000 0.0001 0.0002 0.0001 30.6792 0.0001
# 6 0.0001 0.0002 0.0005 0.0002 0.0001 23.5004
#
#
#
# Elastic Compliance Matrix: (Units=1/GPa)
#
#
# Indices 1 2 3 4 5 6 
#
# 1 0.022645 -0.010408 -0.006582 0.000000 0.000000 0.000000
# 2 -0.010408 0.033421 -0.006067 0.000000 0.000000 0.000000
# 3 -0.006582 -0.006067 0.013909 0.000000 0.000000 0.000000
# 4 0.000000 0.000000 0.000000 0.026449 0.000000 0.000000
# 5 0.000000 0.000000 0.000000 0.000000 0.032595 0.000000
# 6 0.000000 0.000000 0.000000 0.000000 0.000000 0.042552
#
#
# Mechanical properties :
#
#
# Convention : Reuss Voigt Hill
#
# Bulk Modulus (GPa) = 41.91184 50.70727 46.30955
# Shear Modulus (GPa) = 22.15927 26.00956 24.08442
#
# Velocity S-wave (km/s) = 3.38367 3.66587 3.52759
# Velocity P-wave (km/s) = 6.07623 6.64210 6.36546
#
# Compressibility (1/GPa) = 0.02385961
#
# Stress axis : x y z
#
# Youngs Moduli (GPa) = 44.15993 29.92156 71.89780
#
# Poissons Ratio (x) = 0.31142 0.47326
# Poissons Ratio (y) = 0.45961 0.43620
# Poissons Ratio (z) = 0.29068 0.18153
#
# Static dielectric constant tensor:
#      x y z
#    x 3.530680 0.000000 0.000000 
#    y 0.000000 3.486690 0.000000 
#    z 0.000000 0.000000 3.568790 
# 
# 
# High freq. dielectric constant tensor:
#      x y z
#    x 1.741970 0.000000 0.000000 
#    y 0.000000 1.746520 0.000000 
#    z 0.000000 0.000000 1.763440 
# 
# From -- ./inp_files/11445.got.cif
#   From: 2010.03.12/outbox.cif.g09.slc.cpg/sg44_6_cif.got.tgz:11445.got - 2010.04.14 02:36:11.
