data_PCOD8188805
_publ_section_title
;
Structure prediction by ZEFSAII (Michael W. Deem and Ramdas Pophale) SiO2 
 PCOD8188805
Probable space group: I M M 2
;
_chemical_formula_sum "Si O2"
_cell_formula_units_Z 48
_cell_length_a 8.606292
_cell_length_b 15.417356
_cell_length_c 19.011898
_cell_angle_alpha 90.000000
_cell_angle_beta 90.000000
_cell_angle_gamma 90.000000
_cell_volume 2522.617786
_symmetry_space_group_name_H-M "I M M 2"
_symmetry_group_IT_number 44
_symmetry_cell_setting 'orthorhombic'
loop_
_space_group_symop_operation_xyz
x,y,z
-x,-y,z
-x,y,z
x,-y,z
1/2+x,1/2+y,1/2+z
1/2-x,1/2-y,1/2+z
1/2-x,1/2+y,1/2+z
1/2+x,1/2-y,1/2+z
loop_
_atom_site_type_symbol
_atom_site_label
_atom_site_fract_x
_atom_site_fract_y
_atom_site_fract_z
Si Si1 0.316300 0.154103 0.486050
Si Si2 0.315474 0.000000 0.074453
Si Si3 0.684251 0.500000 0.233595
Si Si4 0.182788 0.653092 0.828133
Si Si5 0.316491 0.346770 0.332451
Si Si6 0.183600 0.000000 0.575830
Si Si7 0.683425 0.161300 0.983302
Si Si8 0.313899 0.000000 0.232522
O O1 0.500000 0.145044 0.490533
O O2 0.254625 0.135023 0.406966
O O3 0.240025 0.086346 0.538193
O O4 0.267276 0.250813 0.508001
O O5 0.247785 0.000000 0.153548
O O6 0.500000 0.000000 0.075280
O O7 0.256048 0.085883 0.034928
O O8 0.500000 0.500000 0.231005
O O9 0.743046 0.585564 0.274283
O O10 0.752581 0.500000 0.154977
O O11 0.226757 0.750620 0.804608
O O12 0.253282 0.584624 0.772906
O O13 0.000000 0.640829 0.829796
O O14 0.500000 0.354591 0.347030
O O15 0.228649 0.366601 0.404698
O O16 0.000000 0.000000 0.577383
O O17 0.500000 0.174842 0.988498
O O18 0.500000 0.000000 0.231464
#
# Coordination Sequence:
#
# PCOD8188805 Si02
#       8
#     8   4   4   8   8   4   8   4
#     4  10  20  36  55  77 103 137 178 219 262 316
#     4   9  19  30  45  73 108 137 164 202 258 313
#     4   9  19  33  51  75 104 135 174 218 262 315
#     4   8  15  27  48  72  93 121 166 212 248 290
#     4   9  17  32  52  74  97 130 172 213 255 307
#     4  11  22  35  53  81 110 139 174 220 272 321
#     4  10  19  33  52  78 107 136 172 218 263 309
#     4   9  15  26  44  69  96 125 158 200 250 299
#
# _framework density 19.027853
#
# number of rings (size 3 to 8) (size 9 to 14) (size 15 to 20)
#    0.000    2.667    0.000    3.250    0.000    2.667 
#    0.000    7.917    0.000    0.000    0.000   19.833 
#    0.000    0.000    0.000    0.000    0.000    0.000 
#
# Total GULP energy -297562.408187 kJ/mol
# GULP energy per Si atom -12398.433674 kJ/mol
# Density = 1.898455 g / cm^3
# Si number density = 19.027853 Si / 1000 Ang^3
#
#
#
# Elastic Constant Matrix: (Units=GPa)
#
#
# Indices 1 2 3 4 5 6 
#
# 1 32.1345 16.7620 18.1348 0.0000 0.0000 0.0000
# 2 16.7620 173.1794 114.1786 0.0000 0.0000 0.0000
# 3 18.1348 114.1786 151.6368 0.0000 0.0000 0.0000
# 4 0.0000 0.0000 0.0000 19.1554 0.0000 0.0000
# 5 0.0000 0.0000 0.0000 0.0000 22.5200 0.0000
# 6 0.0000 0.0000 0.0000 0.0000 0.0000 21.3876
#
#
#
# Elastic Compliance Matrix: (Units=1/GPa)
#
#
# Indices 1 2 3 4 5 6 
#
# 1 0.033495 -0.001193 -0.003107 0.000000 0.000000 0.000000
# 2 -0.001193 0.011510 -0.008524 0.000000 0.000000 0.000000
# 3 -0.003107 -0.008524 0.013384 0.000000 0.000000 0.000000
# 4 0.000000 0.000000 0.000000 0.052205 0.000000 0.000000
# 5 0.000000 0.000000 0.000000 0.000000 0.044405 0.000000
# 6 0.000000 0.000000 0.000000 0.000000 0.000000 0.046756
#
#
# Mechanical properties :
#
#
# Convention : Reuss Voigt Hill
#
# Bulk Modulus (GPa) = 30.54312 72.78908 51.66610
# Shear Modulus (GPa) = 20.98045 26.47096 23.72570
#
# Velocity S-wave (km/s) = 3.32417 3.73388 3.53497
# Velocity P-wave (km/s) = 5.55159 7.54494 6.62368
#
# Compressibility (1/GPa) = 0.03274060
#
# Stress axis : x y z
#
# Youngs Moduli (GPa) = 29.85504 86.88369 74.71343
#
# Poissons Ratio (x) = 0.10368 0.23215
# Poissons Ratio (y) = 0.03563 0.63684
# Poissons Ratio (z) = 0.09277 0.74057
#
# Static dielectric constant tensor:
#      x y z
#    x 3.106690 0.000000 0.000000 
#    y 0.000000 3.661610 0.000000 
#    z 0.000000 0.000000 3.719480 
# 
# 
# High freq. dielectric constant tensor:
#      x y z
#    x 1.701610 0.000000 0.000000 
#    y 0.000000 1.757000 0.000000 
#    z 0.000000 0.000000 1.736640 
# 
# From -- ./inp_files/16231.got.cif
#   From: 2010.03.12/outbox.cif.g09.slc.cpg/sg44_9_cif.got.tgz:16231.got - 2010.04.14 02:36:11.
