data_PCOD8188168
_publ_section_title
;
Structure prediction by ZEFSAII (Michael W. Deem and Ramdas Pophale) SiO2 
 PCOD8188168
Probable space group: I M M 2
;
_chemical_formula_sum "Si O2"
_cell_formula_units_Z 52
_cell_length_a 26.635140
_cell_length_b 14.945711
_cell_length_c 7.605044
_cell_angle_alpha 90.000000
_cell_angle_beta 90.000000
_cell_angle_gamma 90.000000
_cell_volume 3027.424318
_symmetry_space_group_name_H-M "I M M 2"
_symmetry_group_IT_number 44
_symmetry_cell_setting 'orthorhombic'
loop_
_space_group_symop_operation_xyz
x,y,z
-x,-y,z
-x,y,z
x,-y,z
1/2+x,1/2+y,1/2+z
1/2-x,1/2-y,1/2+z
1/2-x,1/2+y,1/2+z
1/2+x,1/2-y,1/2+z
loop_
_atom_site_type_symbol
_atom_site_label
_atom_site_fract_x
_atom_site_fract_y
_atom_site_fract_z
Si Si1 0.765344 0.000000 0.601400
Si Si2 0.706940 0.000000 0.941357
Si Si3 0.630228 0.658579 0.790523
Si Si4 0.055416 0.103621 0.583895
Si Si5 0.691762 0.192860 0.943588
Si Si6 0.890539 0.895071 0.935547
Si Si7 0.208689 0.000000 0.232289
Si Si8 0.297687 0.676993 0.255835
O O1 0.751004 0.000000 0.394402
O O2 0.798556 0.911504 0.634269
O O3 0.718054 0.000000 0.731403
O O4 0.674833 0.089643 0.978403
O O5 0.759931 0.000000 0.050344
O O6 0.654695 0.757188 0.807646
O O7 0.592266 0.646430 0.624273
O O8 0.674361 0.587349 0.754862
O O9 0.598586 0.648244 0.968668
O O10 0.066596 0.118855 0.790466
O O11 0.000000 0.144087 0.546242
O O12 0.055622 0.000000 0.536561
O O13 0.747099 0.191297 0.862916
O O14 0.692268 0.238475 0.133062
O O15 0.842039 0.835125 0.893791
O O16 0.876155 0.000000 0.955091
#
# Coordination Sequence:
#
# PCOD8188168 Si02
#       8
#     4   4   8   8   8   8   4   8
#     4  10  18  30  46  65  98 134 181 225 260 303
#     4  10  24  36  44  71 109 149 189 230 268 304
#     4  12  21  34  56  80 107 143 187 222 267 327
#     4  10  21  37  55  80 114 145 176 222 273 328
#     4  11  22  33  49  74 108 146 188 230 262 317
#     4  11  20  33  54  79 109 143 179 218 265 322
#     4  12  18  32  53  74 104 145 186 219 260 321
#     4  11  19  32  48  73 105 141 184 222 265 317
#
# _framework density 17.176317999999998
#
# number of rings (size 3 to 8) (size 9 to 14) (size 15 to 20)
#    0.000    1.077    5.385    3.692    0.000    0.615 
#    0.000    1.538    0.000    0.000    0.000    0.538 
#    0.000    0.000    0.000    0.000    0.000    0.000 
#
# Total GULP energy -322240.123298 kJ/mol
# GULP energy per Si atom -12393.850896 kJ/mol
# Density = 1.713722 g / cm^3
# Si number density = 17.176318 Si / 1000 Ang^3
#
#
#
# Elastic Constant Matrix: (Units=GPa)
#
#
# Indices 1 2 3 4 5 6 
#
# 1 62.4785 29.4443 16.8920 0.0000 0.0000 0.0000
# 2 29.4443 122.9058 29.7923 0.0000 0.0000 0.0000
# 3 16.8920 29.7923 85.0668 0.0000 0.0000 0.0000
# 4 0.0000 0.0000 0.0000 25.9462 0.0000 0.0000
# 5 0.0000 0.0000 0.0000 0.0000 14.2971 0.0000
# 6 0.0000 0.0000 0.0000 0.0000 0.0000 13.3883
#
#
#
# Elastic Compliance Matrix: (Units=1/GPa)
#
#
# Indices 1 2 3 4 5 6 
#
# 1 0.018449 -0.003859 -0.002312 0.000000 0.000000 0.000000
# 2 -0.003859 0.009698 -0.002630 0.000000 0.000000 0.000000
# 3 -0.002312 -0.002630 0.013136 0.000000 0.000000 0.000000
# 4 0.000000 0.000000 0.000000 0.038541 0.000000 0.000000
# 5 0.000000 0.000000 0.000000 0.000000 0.069944 0.000000
# 6 0.000000 0.000000 0.000000 0.000000 0.000000 0.074692
#
#
# Mechanical properties :
#
#
# Convention : Reuss Voigt Hill
#
# Bulk Modulus (GPa) = 42.22901 46.96759 44.59830
# Shear Modulus (GPa) = 20.00334 23.68114 21.84224
#
# Velocity S-wave (km/s) = 3.41631 3.71712 3.56989
# Velocity P-wave (km/s) = 6.34039 6.76952 6.55847
#
# Compressibility (1/GPa) = 0.02368041
#
# Stress axis : x y z
#
# Youngs Moduli (GPa) = 54.20226 103.10884 76.12835
#
# Poissons Ratio (x) = 0.39795 0.17600
# Poissons Ratio (y) = 0.20919 0.20024
# Poissons Ratio (z) = 0.12531 0.27120
#
# Static dielectric constant tensor:
#      x y z
#    x 2.900400 0.000000 0.000000 
#    y 0.000000 3.367150 0.000000 
#    z 0.000000 0.000000 3.562840 
# 
# 
# High freq. dielectric constant tensor:
#      x y z
#    x 1.612510 0.000000 0.000000 
#    y 0.000000 1.643250 0.000000 
#    z 0.000000 0.000000 1.688010 
# 
# From -- ./inp_files/9786.got.cif
#   From: 2010.03.12/outbox.cif.g09.slc.cpg/sg44_5_cif.got.tgz:9786.got - 2010.04.14 02:36:11.
