data_PCOD8188340
_publ_section_title
;
Structure prediction by ZEFSAII (Michael W. Deem and Ramdas Pophale) SiO2 
 PCOD8188340
Probable space group: I M M 2
;
_chemical_formula_sum "Si O2"
_cell_formula_units_Z 64
_cell_length_a 8.770284
_cell_length_b 29.161757
_cell_length_c 12.838899
_cell_angle_alpha 90.000000
_cell_angle_beta 90.000000
_cell_angle_gamma 90.000000
_cell_volume 3283.636890
_symmetry_space_group_name_H-M "I M M 2"
_symmetry_group_IT_number 44
_symmetry_cell_setting 'orthorhombic'
loop_
_space_group_symop_operation_xyz
x,y,z
-x,-y,z
-x,y,z
x,-y,z
1/2+x,1/2+y,1/2+z
1/2-x,1/2-y,1/2+z
1/2-x,1/2+y,1/2+z
1/2+x,1/2-y,1/2+z
loop_
_atom_site_type_symbol
_atom_site_label
_atom_site_fract_x
_atom_site_fract_y
_atom_site_fract_z
Si Si1 0.177289 0.676558 0.734040
Si Si2 0.828983 0.550053 0.863619
Si Si3 0.675664 0.414924 0.680041
Si Si4 0.319609 0.298123 0.528954
Si Si5 0.319530 0.891845 0.558592
Si Si6 0.677396 0.604043 0.453036
Si Si7 0.818523 0.052774 0.749509
Si Si8 0.818853 0.299358 0.960744
O O1 0.206242 0.623328 0.717288
O O2 0.272252 0.704384 0.649011
O O3 0.243260 0.688746 0.846914
O O4 0.000000 0.688461 0.722634
O O5 0.829376 0.500000 0.915910
O O6 0.719341 0.545388 0.761332
O O7 0.000000 0.564435 0.829851
O O8 0.766478 0.584667 0.950806
O O9 0.500000 0.399421 0.692085
O O10 0.706099 0.426233 0.558045
O O11 0.500000 0.299223 0.521121
O O12 0.254475 0.344165 0.471021
O O13 0.251354 0.251093 0.483046
O O14 0.500000 0.897597 0.575238
O O15 0.235035 0.916122 0.653731
O O16 0.270178 0.838183 0.546081
O O17 0.500000 0.609526 0.430665
O O18 0.749002 0.576995 0.354649
O O19 0.000000 0.052045 0.751682
O O20 0.757959 0.000000 0.742217
O O21 0.000000 0.298355 0.959355
#
# Coordination Sequence:
#
# PCOD8188340 Si02
#       8
#     8   8   8   8   8   8   8   8
#     4  10  18  33  54  76 106 144 179 218 274 333
#     4  10  20  34  53  77 107 141 175 218 274 333
#     4  10  19  33  55  80 105 138 178 224 274 327
#     4   9  18  34  54  79 107 141 184 230 278 328
#     4  10  20  37  56  76 105 145 184 221 276 336
#     4   8  17  34  54  75 105 142 177 219 278 329
#     4  10  21  37  56  78 107 145 187 233 280 329
#     4   9  18  33  55  77 104 144 183 219 271 338
#
# _framework density 19.490583999999998
#
# number of rings (size 3 to 8) (size 9 to 14) (size 15 to 20)
#    0.000    2.500    1.250    1.875    0.000    3.000 
#    0.000    7.500    0.000    0.000    0.000    0.000 
#    0.000    0.000    0.000    0.000    0.000    0.000 
#
# Total GULP energy -396448.515360 kJ/mol
# GULP energy per Si atom -12389.016105 kJ/mol
# Density = 1.944622 g / cm^3
# Si number density = 19.490584 Si / 1000 Ang^3
#
#
#
# Elastic Constant Matrix: (Units=GPa)
#
#
# Indices 1 2 3 4 5 6 
#
# 1 16.3577 15.4064 20.2927 0.0001 0.0000 0.0001
# 2 15.4064 114.1975 65.9030 0.0004 0.0000 0.0001
# 3 20.2927 65.9030 141.8334 0.0008 0.0003 0.0008
# 4 0.0001 0.0004 0.0008 26.7357 0.0002 0.0005
# 5 0.0000 0.0000 0.0003 0.0002 28.8948 0.0001
# 6 0.0001 0.0001 0.0008 0.0005 0.0001 19.2337
#
#
#
# Elastic Compliance Matrix: (Units=1/GPa)
#
#
# Indices 1 2 3 4 5 6 
#
# 1 0.076765 -0.005490 -0.008432 0.000000 0.000000 0.000000
# 2 -0.005490 0.012358 -0.004957 0.000000 0.000000 0.000000
# 3 -0.008432 -0.004957 0.010560 0.000000 0.000000 0.000000
# 4 0.000000 0.000000 0.000000 0.037403 0.000000 -0.000001
# 5 0.000000 0.000000 0.000000 0.000000 0.034608 0.000000
# 6 0.000000 0.000000 0.000000 -0.000001 0.000000 0.051992
#
#
# Mechanical properties :
#
#
# Convention : Reuss Voigt Hill
#
# Bulk Modulus (GPa) = 16.14855 52.84364 34.49610
# Shear Modulus (GPa) = 17.72509 26.35859 22.04184
#
# Velocity S-wave (km/s) = 3.01893 3.68146 3.36653
# Velocity P-wave (km/s) = 4.52274 6.72622 5.73137
#
# Compressibility (1/GPa) = 0.06192505
#
# Stress axis : x y z
#
# Youngs Moduli (GPa) = 13.02678 80.92001 94.69692
#
# Poissons Ratio (x) = 0.44427 0.79849
# Poissons Ratio (y) = 0.07152 0.46937
# Poissons Ratio (z) = 0.10984 0.40109
#
# Static dielectric constant tensor:
#      x y z
#    x 3.191930 0.000000 0.000000 
#    y 0.000000 3.882520 0.000000 
#    z 0.000000 0.000000 3.784940 
# 
# 
# High freq. dielectric constant tensor:
#      x y z
#    x 1.722180 0.000000 0.000000 
#    y 0.000000 1.762950 0.000000 
#    z 0.000000 0.000000 1.762420 
# 
# From -- ./inp_files/11539.got.cif
#   From: 2010.03.12/outbox.cif.g09.slc.cpg/sg44_6_cif.got.tgz:11539.got - 2010.04.14 02:36:11.
