data_PCOD8188826
_publ_section_title
;
Structure prediction by ZEFSAII (Michael W. Deem and Ramdas Pophale) SiO2 
 PCOD8188826
Probable space group: I M M 2
;
_chemical_formula_sum "Si O2"
_cell_formula_units_Z 64
_cell_length_a 8.991340
_cell_length_b 25.101707
_cell_length_c 15.071489
_cell_angle_alpha 90.000000
_cell_angle_beta 90.000000
_cell_angle_gamma 90.000000
_cell_volume 3401.604656
_symmetry_space_group_name_H-M "I M M 2"
_symmetry_group_IT_number 44
_symmetry_cell_setting 'orthorhombic'
loop_
_space_group_symop_operation_xyz
x,y,z
-x,-y,z
-x,y,z
x,-y,z
1/2+x,1/2+y,1/2+z
1/2-x,1/2-y,1/2+z
1/2-x,1/2+y,1/2+z
1/2+x,1/2-y,1/2+z
loop_
_atom_site_type_symbol
_atom_site_label
_atom_site_fract_x
_atom_site_fract_y
_atom_site_fract_z
Si Si1 0.324903 0.153074 0.351420
Si Si2 0.669059 0.775346 0.019730
Si Si3 0.174609 0.394754 0.544349
Si Si4 0.326347 0.169876 0.552463
Si Si5 0.824600 0.939344 0.869483
Si Si6 0.323839 0.356299 0.222458
Si Si7 0.176611 0.441163 0.728593
Si Si8 0.171369 0.259916 0.315057
O O1 0.500000 0.162920 0.338620
O O2 0.283381 0.148425 0.455042
O O3 0.268246 0.099178 0.304536
O O4 0.239277 0.201262 0.304398
O O5 0.500000 0.759033 0.042975
O O6 0.711551 0.832593 0.059386
O O7 0.777395 0.731520 0.061762
O O8 0.691109 0.780204 0.914776
O O9 0.255466 0.418913 0.460131
O O10 0.235145 0.424415 0.631628
O O11 0.000000 0.403063 0.529310
O O12 0.500000 0.165830 0.571145
O O13 0.240737 0.133188 0.623925
O O14 0.768028 0.903342 0.787375
O O15 0.000000 0.934512 0.879367
O O16 0.774845 0.000000 0.850965
O O17 0.500000 0.354005 0.218693
O O18 0.261859 0.299483 0.252838
O O19 0.238150 0.500000 0.751298
O O20 0.000000 0.440862 0.726288
O O21 0.000000 0.259261 0.285435
#
# Coordination Sequence:
#
# PCOD8188826 Si02
#       8
#     8   8   8   8   8   8   8   8
#     4   9  19  36  56  79 109 146 184 225 274 327
#     4   9  18  32  51  79 114 147 177 215 269 328
#     4  10  19  33  55  84 114 145 182 222 268 328
#     4  10  21  35  53  79 112 145 185 232 277 326
#     4  10  22  39  57  79 110 148 188 230 279 335
#     4  11  22  36  56  79 108 147 187 229 280 332
#     4   9  18  33  55  82 109 141 183 225 266 319
#     4  10  19  33  53  80 112 142 177 223 269 324
#
# _framework density 18.814648999999999
#
# number of rings (size 3 to 8) (size 9 to 14) (size 15 to 20)
#    0.000    2.250    1.250    1.500    1.750    2.750 
#    0.000    1.250    0.000    1.875    0.000    0.000 
#    0.000    0.000    0.000    0.000    0.000    0.000 
#
# Total GULP energy -396849.650249 kJ/mol
# GULP energy per Si atom -12401.551570 kJ/mol
# Density = 1.877183 g / cm^3
# Si number density = 18.814649 Si / 1000 Ang^3
#
#
#
# Elastic Constant Matrix: (Units=GPa)
#
#
# Indices 1 2 3 4 5 6 
#
# 1 45.1169 23.2443 32.2501 -0.0001 0.0000 0.0000
# 2 23.2443 106.6557 61.8456 -0.0001 0.0000 0.0000
# 3 32.2501 61.8456 111.4491 -0.0002 0.0002 0.0001
# 4 -0.0001 -0.0001 -0.0002 30.5121 0.0001 0.0000
# 5 0.0000 0.0000 0.0002 0.0001 28.0481 0.0000
# 6 0.0000 0.0000 0.0001 0.0000 0.0000 19.8979
#
#
#
# Elastic Compliance Matrix: (Units=1/GPa)
#
#
# Indices 1 2 3 4 5 6 
#
# 1 0.028257 -0.002089 -0.007017 0.000000 0.000000 0.000000
# 2 -0.002089 0.013979 -0.007153 0.000000 0.000000 0.000000
# 3 -0.007017 -0.007153 0.014972 0.000000 0.000000 0.000000
# 4 0.000000 0.000000 0.000000 0.032774 0.000000 0.000000
# 5 0.000000 0.000000 0.000000 0.000000 0.035653 0.000000
# 6 0.000000 0.000000 0.000000 0.000000 0.000000 0.050257
#
#
# Mechanical properties :
#
#
# Convention : Reuss Voigt Hill
#
# Bulk Modulus (GPa) = 40.50223 55.32239 47.91231
# Shear Modulus (GPa) = 23.07973 25.41708 24.24841
#
# Velocity S-wave (km/s) = 3.50621 3.67947 3.59389
# Velocity P-wave (km/s) = 6.16158 6.89341 6.53774
#
# Compressibility (1/GPa) = 0.02469000
#
# Stress axis : x y z
#
# Youngs Moduli (GPa) = 35.38931 71.53693 66.78912
#
# Poissons Ratio (x) = 0.14945 0.46869
# Poissons Ratio (y) = 0.07393 0.47772
# Poissons Ratio (z) = 0.24834 0.51168
#
# Static dielectric constant tensor:
#      x y z
#    x 3.308500 0.000000 0.000000 
#    y 0.000000 3.608530 0.000000 
#    z 0.000000 0.000000 3.582390 
# 
# 
# High freq. dielectric constant tensor:
#      x y z
#    x 1.715930 0.000000 0.000000 
#    y 0.000000 1.724610 0.000000 
#    z 0.000000 0.000000 1.737150 
# 
# From -- ./inp_files/16847.got.cif
#   From: 2010.03.12/outbox.cif.g09.slc.cpg/sg44_9_cif.got.tgz:16847.got - 2010.04.14 02:36:11.
