data_PCOD8188485
_publ_section_title
;
Structure prediction by ZEFSAII (Michael W. Deem and Ramdas Pophale) SiO2 
 PCOD8188485
Probable space group: I M M 2
;
_chemical_formula_sum "Si O2"
_cell_formula_units_Z 64
_cell_length_a 8.638828
_cell_length_b 28.694193
_cell_length_c 14.366890
_cell_angle_alpha 90.000000
_cell_angle_beta 90.000000
_cell_angle_gamma 90.000000
_cell_volume 3561.325004
_symmetry_space_group_name_H-M "I M M 2"
_symmetry_group_IT_number 44
_symmetry_cell_setting 'orthorhombic'
loop_
_space_group_symop_operation_xyz
x,y,z
-x,-y,z
-x,y,z
x,-y,z
1/2+x,1/2+y,1/2+z
1/2-x,1/2-y,1/2+z
1/2-x,1/2+y,1/2+z
1/2+x,1/2-y,1/2+z
loop_
_atom_site_type_symbol
_atom_site_label
_atom_site_fract_x
_atom_site_fract_y
_atom_site_fract_z
Si Si1 0.315661 0.551910 0.545000
Si Si2 0.816397 0.696143 0.045010
Si Si3 0.684026 0.627191 0.189248
Si Si4 0.183953 0.800981 0.045006
Si Si5 0.816003 0.125525 0.898059
Si Si6 0.683003 0.551610 0.045004
Si Si7 0.684026 0.627194 0.900762
Si Si8 0.183996 0.874477 0.191949
O O1 0.500000 0.549553 0.544997
O O2 0.243797 0.500000 0.545000
O O3 0.258499 0.579427 0.452922
O O4 0.258507 0.579425 0.637084
O O5 0.755149 0.671742 0.138097
O O6 0.749957 0.748782 0.045008
O O7 0.000000 0.695311 0.045016
O O8 0.755166 0.671742 0.951917
O O9 0.500000 0.632413 0.186911
O O10 0.751681 0.625335 0.293715
O O11 0.736494 0.579906 0.136680
O O12 0.242204 0.828442 0.137147
O O13 0.000000 0.800345 0.045005
O O14 0.242202 0.828440 0.952860
O O15 0.000000 0.125183 0.893620
O O16 0.500000 0.546714 0.045009
O O17 0.759134 0.500000 0.045002
O O18 0.736481 0.579906 0.953325
O O19 0.500000 0.632422 0.903102
O O20 0.751678 0.625336 0.796294
O O21 0.000000 0.874818 0.196389
#
# Coordination Sequence:
#
# PCOD8188485 Si02
#       8
#     8   8   8   8   8   8   8   8
#     4   8  13  21  36  63  95 118 137 168 211 255
#     4  10  19  30  44  61  83 112 145 180 216 253
#     4   9  17  29  45  64  86 113 143 175 211 250
#     4   8  15  27  41  59  83 110 139 173 215 257
#     4   8  14  25  40  59  86 116 142 170 208 255
#     4   8  14  24  38  59  85 108 133 167 204 241
#     4   9  17  29  45  64  86 113 143 175 211 250
#     4   8  14  25  40  59  86 116 142 170 208 255
#
# _framework density 17.970839999999999
#
# number of rings (size 3 to 8) (size 9 to 14) (size 15 to 20)
#    0.000    3.500    0.000    2.625    0.000    2.000 
#    0.000    5.000    0.000    7.500    0.000    2.625 
#    0.000    1.000    0.000    0.000    0.000    0.000 
#
# Total GULP energy -396574.333266 kJ/mol
# GULP energy per Si atom -12392.947915 kJ/mol
# Density = 1.792994 g / cm^3
# Si number density = 17.970840 Si / 1000 Ang^3
#
#
#
# Elastic Constant Matrix: (Units=GPa)
#
#
# Indices 1 2 3 4 5 6 
#
# 1 13.4406 13.6533 12.4756 0.0001 0.0000 0.0000
# 2 13.6533 197.8628 102.6037 0.0002 0.0000 0.0000
# 3 12.4756 102.6037 200.6005 0.0002 0.0003 0.0001
# 4 0.0001 0.0002 0.0002 11.9270 0.0001 0.0000
# 5 0.0000 0.0000 0.0003 0.0001 11.0031 0.0000
# 6 0.0000 0.0000 0.0001 0.0000 0.0000 16.4013
#
#
#
# Elastic Compliance Matrix: (Units=1/GPa)
#
#
# Indices 1 2 3 4 5 6 
#
# 1 0.081295 -0.004066 -0.002976 0.000000 0.000000 0.000000
# 2 -0.004066 0.007082 -0.003369 0.000000 0.000000 0.000000
# 3 -0.002976 -0.003369 0.006893 0.000000 0.000000 0.000000
# 4 0.000000 0.000000 0.000000 0.083843 -0.000001 0.000000
# 5 0.000000 0.000000 0.000000 -0.000001 0.090884 0.000000
# 6 0.000000 0.000000 0.000000 0.000000 0.000000 0.060971
#
#
# Mechanical properties :
#
#
# Convention : Reuss Voigt Hill
#
# Bulk Modulus (GPa) = 13.43247 74.37434 43.90341
# Shear Modulus (GPa) = 13.27646 26.74436 20.01041
#
# Velocity S-wave (km/s) = 2.72100 3.86192 3.34052
# Velocity P-wave (km/s) = 4.16684 7.83338 6.27393
#
# Compressibility (1/GPa) = 0.07444645
#
# Stress axis : x y z
#
# Youngs Moduli (GPa) = 12.30095 141.20693 145.06509
#
# Poissons Ratio (x) = 0.57421 0.43169
# Poissons Ratio (y) = 0.05002 0.48877
# Poissons Ratio (z) = 0.03661 0.47577
#
# Static dielectric constant tensor:
#      x y z
#    x 2.685090 0.000000 0.000000 
#    y 0.000000 3.676690 0.000000 
#    z 0.000000 0.000000 3.657480 
# 
# 
# High freq. dielectric constant tensor:
#      x y z
#    x 1.631240 0.000000 0.000000 
#    y 0.000000 1.702220 0.000000 
#    z 0.000000 0.000000 1.702610 
# 
# From -- ./inp_files/17078.got.cif
#   From: 2010.03.12/outbox.cif.g09.slc.cpg/sg44_9_cif.got.tgz:17078.got - 2010.04.14 02:36:11.
