data_PCOD8188595
_publ_section_title
;
Structure prediction by ZEFSAII (Michael W. Deem and Ramdas Pophale) SiO2 
 PCOD8188595
Probable space group: I M M 2
;
_chemical_formula_sum "Si O2"
_cell_formula_units_Z 48
_cell_length_a 16.535662
_cell_length_b 9.127507
_cell_length_c 18.755157
_cell_angle_alpha 90.000000
_cell_angle_beta 90.000000
_cell_angle_gamma 90.000000
_cell_volume 2830.704043
_symmetry_space_group_name_H-M "I M M 2"
_symmetry_group_IT_number 44
_symmetry_cell_setting 'orthorhombic'
loop_
_space_group_symop_operation_xyz
x,y,z
-x,-y,z
-x,y,z
x,-y,z
1/2+x,1/2+y,1/2+z
1/2-x,1/2-y,1/2+z
1/2-x,1/2+y,1/2+z
1/2+x,1/2-y,1/2+z
loop_
_atom_site_type_symbol
_atom_site_label
_atom_site_fract_x
_atom_site_fract_y
_atom_site_fract_z
Si Si1 0.843577 0.330061 0.971870
Si Si2 0.663735 0.827672 0.209741
Si Si3 0.500000 0.326034 0.440475
Si Si4 0.690155 0.669260 0.062569
Si Si5 0.409996 0.325345 0.927321
Si Si6 0.236939 0.173892 0.340422
Si Si7 0.500000 0.828095 0.288539
O O1 0.868890 0.500000 0.965943
O O2 0.802009 0.274733 0.898910
O O3 0.922202 0.230768 0.984236
O O4 0.782150 0.305753 0.037290
O O5 0.674562 0.756890 0.133707
O O6 0.734870 0.769681 0.262841
O O7 0.577618 0.783298 0.242353
O O8 0.670105 0.000000 0.199922
O O9 0.500000 0.500000 0.437657
O O10 0.500000 0.261291 0.361264
O O11 0.673649 0.500000 0.078169
O O12 0.628067 0.726999 0.002232
O O13 0.500000 0.259113 0.918071
O O14 0.412523 0.500000 0.926564
O O15 0.352683 0.268294 0.862337
O O16 0.235887 0.000000 0.342308
O O17 0.500000 0.000000 0.307751
#
# Coordination Sequence:
#
# PCOD8188595 Si02
#       7
#     8   8   4   8   8   8   4
#     4   9  17  34  53  68  95 137 175 196 234 313
#     4  10  19  31  49  70  98 133 166 201 241 295
#     4  12  22  30  50  82 104 119 158 223 268 283
#     4   9  19  32  50  74  99 131 164 199 247 297
#     4   8  14  26  46  72  96 118 155 204 244 280
#     4   8  14  27  48  68  88 127 172 198 228 286
#     4  10  20  34  50  70 100 143 172 191 246 319
#
# _framework density 16.956913
#
# number of rings (size 3 to 8) (size 9 to 14) (size 15 to 20)
#    0.000    2.833    1.667    2.750    1.167    1.333 
#    0.000    0.000    1.833    0.000    0.000    0.000 
#    0.000    0.000    0.000    0.000    0.000    0.000 
#
# Total GULP energy -297471.660732 kJ/mol
# GULP energy per Si atom -12394.652530 kJ/mol
# Density = 1.691832 g / cm^3
# Si number density = 16.956913 Si / 1000 Ang^3
#
#
#
# Elastic Constant Matrix: (Units=GPa)
#
#
# Indices 1 2 3 4 5 6 
#
# 1 151.7646 36.5332 64.7490 0.0000 0.0000 0.0000
# 2 36.5332 40.7648 25.7392 0.0000 0.0000 0.0000
# 3 64.7490 25.7392 98.3884 0.0000 0.0000 0.0000
# 4 0.0000 0.0000 0.0000 27.8392 0.0000 0.0000
# 5 0.0000 0.0000 0.0000 0.0000 21.0953 0.0000
# 6 0.0000 0.0000 0.0000 0.0000 0.0000 11.6341
#
#
#
# Elastic Compliance Matrix: (Units=1/GPa)
#
#
# Indices 1 2 3 4 5 6 
#
# 1 0.010217 -0.005883 -0.005185 0.000000 0.000000 0.000000
# 2 -0.005883 0.032772 -0.004702 0.000000 0.000000 0.000000
# 3 -0.005185 -0.004702 0.014806 0.000000 0.000000 0.000000
# 4 0.000000 0.000000 0.000000 0.035921 0.000000 0.000000
# 5 0.000000 0.000000 0.000000 0.000000 0.047404 0.000000
# 6 0.000000 0.000000 0.000000 0.000000 0.000000 0.085954
#
#
# Mechanical properties :
#
#
# Convention : Reuss Voigt Hill
#
# Bulk Modulus (GPa) = 38.08677 60.55119 49.31898
# Shear Modulus (GPa) = 18.70094 23.04015 20.87054
#
# Velocity S-wave (km/s) = 3.32452 3.69012 3.51208
# Velocity P-wave (km/s) = 6.10297 7.34454 6.75235
#
# Compressibility (1/GPa) = 0.02625584
#
# Stress axis : x y z
#
# Youngs Moduli (GPa) = 97.87154 30.51379 67.53966
#
# Poissons Ratio (x) = 0.17951 0.35020
# Poissons Ratio (y) = 0.57578 0.31756
# Poissons Ratio (z) = 0.50747 0.14347
#
# Static dielectric constant tensor:
#      x y z
#    x 3.640640 0.000000 0.000000 
#    y 0.000000 2.768530 0.000000 
#    z 0.000000 0.000000 3.130860 
# 
# 
# High freq. dielectric constant tensor:
#      x y z
#    x 1.664550 0.000000 0.000000 
#    y 0.000000 1.613240 0.000000 
#    z 0.000000 0.000000 1.640940 
# 
# From -- ./inp_files/24307.got.cif
#   From: 2010.03.12/outbox.cif.g09.slc.cpg/sg44_13_cif.got.tgz:24307.got - 2010.04.14 02:36:11.
