data_PCOD8188193
_publ_section_title
;
Structure prediction by ZEFSAII (Michael W. Deem and Ramdas Pophale) SiO2 
 PCOD8188193
Probable space group: I M M 2
;
_chemical_formula_sum "Si O2"
_cell_formula_units_Z 48
_cell_length_a 19.798754
_cell_length_b 11.697727
_cell_length_c 12.269781
_cell_angle_alpha 90.000000
_cell_angle_beta 90.000000
_cell_angle_gamma 90.000000
_cell_volume 2841.686423
_symmetry_space_group_name_H-M "I M M 2"
_symmetry_group_IT_number 44
_symmetry_cell_setting 'orthorhombic'
loop_
_space_group_symop_operation_xyz
x,y,z
-x,-y,z
-x,y,z
x,-y,z
1/2+x,1/2+y,1/2+z
1/2-x,1/2-y,1/2+z
1/2-x,1/2+y,1/2+z
1/2+x,1/2-y,1/2+z
loop_
_atom_site_type_symbol
_atom_site_label
_atom_site_fract_x
_atom_site_fract_y
_atom_site_fract_z
Si Si1 0.353100 0.271981 0.581670
Si Si2 0.814945 0.369200 0.755856
Si Si3 0.168854 0.212688 0.327266
Si Si4 0.578073 0.500000 0.841413
Si Si5 0.574557 0.865282 0.413529
Si Si6 0.574481 0.500000 0.583522
Si Si7 0.286627 0.866384 0.014858
O O1 0.360731 0.248257 0.710722
O O2 0.390806 0.165315 0.528111
O O3 0.388166 0.388149 0.541885
O O4 0.277666 0.285228 0.535770
O O5 0.810606 0.500000 0.789357
O O6 0.745546 0.319565 0.801314
O O7 0.879147 0.313029 0.816621
O O8 0.828319 0.355323 0.627143
O O9 0.169461 0.316233 0.414717
O O10 0.121709 0.111593 0.377380
O O11 0.500000 0.500000 0.888283
O O12 0.574246 0.500000 0.712891
O O13 0.500000 0.810381 0.404550
O O14 0.568750 0.000000 0.405551
O O15 0.500000 0.500000 0.534016
O O16 0.268395 0.000000 0.992665
#
# Coordination Sequence:
#
# PCOD8188193 Si02
#       7
#     8   8   8   4   8   4   8
#     4  10  18  30  49  76 104 133 169 212 256 301
#     4   9  17  32  52  74  98 133 176 210 247 296
#     4  10  18  31  54  76 103 135 165 209 258 303
#     4   9  18  32  52  77  98 126 169 209 251 303
#     4  10  20  33  51  75 104 136 172 216 259 301
#     4   9  16  28  48  73 101 132 163 203 256 303
#     4  10  19  32  51  75 104 134 171 211 249 300
#
# _framework density 16.891376999999999
#
# number of rings (size 3 to 8) (size 9 to 14) (size 15 to 20)
#    0.000    2.333    3.333    0.500    0.000    1.333 
#    0.000    0.833    1.833    1.500    0.000    1.167 
#    0.000    0.000    0.000    0.000    0.000    0.000 
#
# Total GULP energy -297371.992051 kJ/mol
# GULP energy per Si atom -12390.499669 kJ/mol
# Density = 1.685293 g / cm^3
# Si number density = 16.891377 Si / 1000 Ang^3
#
#
#
# Elastic Constant Matrix: (Units=GPa)
#
#
# Indices 1 2 3 4 5 6 
#
# 1 93.7633 25.0781 43.6087 0.0000 0.0000 0.0000
# 2 25.0781 33.1747 29.4931 0.0000 0.0000 0.0000
# 3 43.6087 29.4931 87.6043 0.0000 0.0000 0.0000
# 4 0.0000 0.0000 0.0000 25.3762 0.0000 0.0000
# 5 0.0000 0.0000 0.0000 0.0000 19.2049 0.0000
# 6 0.0000 0.0000 0.0000 0.0000 0.0000 17.9059
#
#
#
# Elastic Compliance Matrix: (Units=1/GPa)
#
#
# Indices 1 2 3 4 5 6 
#
# 1 0.014836 -0.006635 -0.005151 0.000000 0.000000 0.000000
# 2 -0.006635 0.045987 -0.012179 0.000000 0.000000 0.000000
# 3 -0.005151 -0.012179 0.018079 0.000000 0.000000 0.000000
# 4 0.000000 0.000000 0.000000 0.039407 0.000000 0.000000
# 5 0.000000 0.000000 0.000000 0.000000 0.052070 0.000000
# 6 0.000000 0.000000 0.000000 0.000000 0.000000 0.055848
#
#
# Mechanical properties :
#
#
# Convention : Reuss Voigt Hill
#
# Bulk Modulus (GPa) = 32.28853 45.65580 38.97217
# Shear Modulus (GPa) = 17.57587 20.25490 18.91538
#
# Velocity S-wave (km/s) = 3.22921 3.46660 3.35001
# Velocity P-wave (km/s) = 5.74984 6.56588 6.17136
#
# Compressibility (1/GPa) = 0.03097075
#
# Stress axis : x y z
#
# Youngs Moduli (GPa) = 67.40532 21.74539 55.31152
#
# Poissons Ratio (x) = 0.14429 0.28492
# Poissons Ratio (y) = 0.44725 0.67364
# Poissons Ratio (z) = 0.34722 0.26484
#
# Static dielectric constant tensor:
#      x y z
#    x 3.510010 0.000000 0.000000 
#    y 0.000000 3.131110 0.000000 
#    z 0.000000 0.000000 3.111200 
# 
# 
# High freq. dielectric constant tensor:
#      x y z
#    x 1.652050 0.000000 0.000000 
#    y 0.000000 1.633060 0.000000 
#    z 0.000000 0.000000 1.635920 
# 
# From -- ./inp_files/12406.got.cif
#   From: 2010.03.12/outbox.cif.g09.slc.cpg/sg44_7_cif.got.tgz:12406.got - 2010.04.14 02:36:11.
