data_PCOD8188540
_publ_section_title
;
Structure prediction by ZEFSAII (Michael W. Deem and Ramdas Pophale) SiO2 
 PCOD8188540
Probable space group: I M M 2
;
_chemical_formula_sum "Si O2"
_cell_formula_units_Z 56
_cell_length_a 21.013828
_cell_length_b 8.997453
_cell_length_c 14.563011
_cell_angle_alpha 90.000000
_cell_angle_beta 90.000000
_cell_angle_gamma 90.000000
_cell_volume 2753.442030
_symmetry_space_group_name_H-M "I M M 2"
_symmetry_group_IT_number 44
_symmetry_cell_setting 'orthorhombic'
loop_
_space_group_symop_operation_xyz
x,y,z
-x,-y,z
-x,y,z
x,-y,z
1/2+x,1/2+y,1/2+z
1/2-x,1/2-y,1/2+z
1/2-x,1/2+y,1/2+z
1/2+x,1/2-y,1/2+z
loop_
_atom_site_type_symbol
_atom_site_label
_atom_site_fract_x
_atom_site_fract_y
_atom_site_fract_z
Si Si1 0.070997 0.839119 0.162100
Si Si2 0.428853 0.825233 0.999809
Si Si3 0.427173 0.674357 0.366803
Si Si4 0.127114 0.671381 0.311852
Si Si5 0.852528 0.671293 0.023432
Si Si6 0.625125 0.176312 0.190571
Si Si7 0.257006 0.171498 0.678743
O O1 0.075760 0.780411 0.265769
O O2 0.095060 0.705444 0.099430
O O3 0.000000 0.869657 0.133639
O O4 0.106832 0.000000 0.149486
O O5 0.500000 0.761455 0.979643
O O6 0.402045 0.759655 0.094813
O O7 0.433898 0.000000 0.011110
O O8 0.377680 0.786387 0.919581
O O9 0.500000 0.708427 0.400523
O O10 0.416717 0.500000 0.355889
O O11 0.371108 0.731067 0.435010
O O12 0.417657 0.752291 0.269577
O O13 0.107545 0.500000 0.297227
O O14 0.194985 0.703219 0.263795
O O15 0.854833 0.500000 0.993911
O O16 0.786457 0.709539 0.077231
O O17 0.698330 0.222593 0.198716
O O18 0.620291 0.000000 0.198703
O O19 0.235846 0.000000 0.680595
#
# Coordination Sequence:
#
# PCOD8188540 Si02
#       7
#     8   8   8   8   8   8   8
#     4  10  19  30  47  77 116 151 183 225 281 344
#     4   9  18  34  57  84 110 138 181 236 285 329
#     4  11  24  41  61  86 117 154 195 244 302 353
#     4   9  18  34  57  81 107 144 188 234 285 339
#     4  10  21  37  59  85 113 148 191 239 289 346
#     4  11  23  38  59  85 114 154 199 240 284 340
#     4   9  20  38  57  84 119 150 185 230 284 344
#
# _framework density 20.338180000000001
#
# number of rings (size 3 to 8) (size 9 to 14) (size 15 to 20)
#    0.000    2.143    0.000    3.857    0.000    9.143 
#    0.000    2.857    0.000    3.429    0.000    0.000 
#    0.000    0.000    0.000    0.000    0.000    0.000 
#
# Total GULP energy -346918.419558 kJ/mol
# GULP energy per Si atom -12389.943556 kJ/mol
# Density = 2.029189 g / cm^3
# Si number density = 20.338180 Si / 1000 Ang^3
#
#
#
# Elastic Constant Matrix: (Units=GPa)
#
#
# Indices 1 2 3 4 5 6 
#
# 1 77.4478 28.4314 29.7746 0.0000 0.0000 0.0000
# 2 28.4314 68.3805 24.5501 0.0000 0.0000 0.0000
# 3 29.7746 24.5501 124.6885 0.0000 0.0000 0.0000
# 4 0.0000 0.0000 0.0000 15.8257 0.0000 0.0000
# 5 0.0000 0.0000 0.0000 0.0000 23.8945 0.0000
# 6 0.0000 0.0000 0.0000 0.0000 0.0000 28.9626
#
#
#
# Elastic Compliance Matrix: (Units=1/GPa)
#
#
# Indices 1 2 3 4 5 6 
#
# 1 0.016046 -0.005699 -0.002710 0.000000 0.000000 0.000000
# 2 -0.005699 0.017760 -0.002136 0.000000 0.000000 0.000000
# 3 -0.002710 -0.002136 0.009088 0.000000 0.000000 0.000000
# 4 0.000000 0.000000 0.000000 0.063188 0.000000 0.000000
# 5 0.000000 0.000000 0.000000 0.000000 0.041851 0.000000
# 6 0.000000 0.000000 0.000000 0.000000 0.000000 0.034527
#
#
# Mechanical properties :
#
#
# Convention : Reuss Voigt Hill
#
# Bulk Modulus (GPa) = 45.86112 48.44766 47.15439
# Shear Modulus (GPa) = 23.71728 26.25394 24.98561
#
# Velocity S-wave (km/s) = 3.41859 3.59676 3.50881
# Velocity P-wave (km/s) = 6.17904 6.41262 6.29692
#
# Compressibility (1/GPa) = 0.02180496
#
# Stress axis : x y z
#
# Youngs Moduli (GPa) = 62.32235 56.30513 110.04035
#
# Poissons Ratio (x) = 0.32087 0.29816
# Poissons Ratio (y) = 0.35516 0.23505
# Poissons Ratio (z) = 0.16886 0.12027
#
# Static dielectric constant tensor:
#      x y z
#    x 3.656340 0.000000 0.000000 
#    y 0.000000 4.079790 0.000000 
#    z 0.000000 0.000000 3.959630 
# 
# 
# High freq. dielectric constant tensor:
#      x y z
#    x 1.781200 0.000000 0.000000 
#    y 0.000000 1.786410 0.000000 
#    z 0.000000 0.000000 1.801040 
# 
# From -- ./inp_files/19203.got.cif
#   From: 2010.03.12/outbox.cif.g09.slc.cpg/sg44_10_cif.got.tgz:19203.got - 2010.04.14 02:36:11.
