data_PCOD8188569
_publ_section_title
;
Structure prediction by ZEFSAII (Michael W. Deem and Ramdas Pophale) SiO2 
 PCOD8188569
Probable space group: I M M 2
;
_chemical_formula_sum "Si O2"
_cell_formula_units_Z 64
_cell_length_a 23.617785
_cell_length_b 8.852933
_cell_length_c 19.319015
_cell_angle_alpha 90.000000
_cell_angle_beta 90.000000
_cell_angle_gamma 90.000000
_cell_volume 4039.348480
_symmetry_space_group_name_H-M "I M M 2"
_symmetry_group_IT_number 44
_symmetry_cell_setting 'orthorhombic'
loop_
_space_group_symop_operation_xyz
x,y,z
-x,-y,z
-x,y,z
x,-y,z
1/2+x,1/2+y,1/2+z
1/2-x,1/2-y,1/2+z
1/2-x,1/2+y,1/2+z
1/2+x,1/2-y,1/2+z
loop_
_atom_site_type_symbol
_atom_site_label
_atom_site_fract_x
_atom_site_fract_y
_atom_site_fract_z
Si Si1 0.935204 0.176826 0.723560
Si Si2 0.225569 0.177373 0.496867
Si Si3 0.756199 0.821444 0.860332
Si Si4 0.269278 0.179494 0.710676
Si Si5 0.337146 0.321885 0.127852
Si Si6 0.164666 0.321497 0.083550
Si Si7 0.379354 0.178384 0.355407
Si Si8 0.062779 0.320231 0.996450
O O1 0.899244 0.224714 0.655253
O O2 0.913723 0.270985 0.788378
O O3 0.000000 0.217458 0.707524
O O4 0.926881 0.000000 0.739887
O O5 0.218792 0.263573 0.424382
O O6 0.175642 0.233569 0.549260
O O7 0.285661 0.222393 0.530331
O O8 0.222033 0.000000 0.481942
O O9 0.723869 0.767995 0.790065
O O10 0.818578 0.754058 0.860509
O O11 0.761734 0.000000 0.863249
O O12 0.209724 0.243598 0.681059
O O13 0.320224 0.240021 0.660888
O O14 0.268193 0.000000 0.706552
O O15 0.329681 0.500000 0.126462
O O16 0.159574 0.500000 0.086040
O O17 0.105366 0.254040 0.055274
O O18 0.415968 0.231123 0.421171
O O19 0.370505 0.000000 0.354178
O O20 0.061459 0.500000 0.999864
O O21 0.000000 0.253614 0.009581
#
# Coordination Sequence:
#
# PCOD8188569 Si02
#       8
#     8   8   8   8   8   8   8   8
#     4  10  19  31  47  66  88 117 153 189 223 259
#     4   9  16  28  46  63  83 114 147 177 217 265
#     4  11  19  28  44  66  90 114 145 182 222 260
#     4   8  14  24  41  59  80 109 139 172 212 256
#     4   8  14  27  45  63  84 113 147 180 215 260
#     4   8  13  24  41  60  79 106 142 172 206 251
#     4  11  20  30  42  61  92 124 152 175 209 261
#     4   9  16  25  39  60  84 108 138 174 206 240
#
# _framework density 15.844137999999999
#
# number of rings (size 3 to 8) (size 9 to 14) (size 15 to 20)
#    0.000    2.750    2.500    2.625    0.000    0.750 
#    0.000    0.625    0.000    0.000    0.000    0.875 
#    0.000    1.000    0.000    0.000    0.000    0.000 
#
# Total GULP energy -396511.132241 kJ/mol
# GULP energy per Si atom -12390.972883 kJ/mol
# Density = 1.580808 g / cm^3
# Si number density = 15.844138 Si / 1000 Ang^3
#
#
#
# Elastic Constant Matrix: (Units=GPa)
#
#
# Indices 1 2 3 4 5 6 
#
# 1 92.4792 16.1906 78.3791 0.0000 0.0000 0.0000
# 2 16.1906 27.0947 29.7465 0.0000 0.0000 0.0000
# 3 78.3791 29.7465 155.1171 0.0000 0.0000 0.0000
# 4 0.0000 0.0000 0.0000 21.3490 0.0000 0.0000
# 5 0.0000 0.0000 0.0000 0.0000 24.2820 0.0000
# 6 0.0000 0.0000 0.0000 0.0000 0.0000 10.4227
#
#
#
# Elastic Compliance Matrix: (Units=1/GPa)
#
#
# Indices 1 2 3 4 5 6 
#
# 1 0.018935 -0.001027 -0.009371 0.000000 0.000000 0.000000
# 2 -0.001027 0.046806 -0.008457 0.000000 0.000000 0.000000
# 3 -0.009371 -0.008457 0.012803 0.000000 0.000000 0.000000
# 4 0.000000 0.000000 0.000000 0.046841 0.000000 0.000000
# 5 0.000000 0.000000 0.000000 0.000000 0.041183 0.000000
# 6 0.000000 0.000000 0.000000 0.000000 0.000000 0.095945
#
#
# Mechanical properties :
#
#
# Convention : Reuss Voigt Hill
#
# Bulk Modulus (GPa) = 24.48873 58.14707 41.31790
# Shear Modulus (GPa) = 15.93201 21.23571 18.58386
#
# Velocity S-wave (km/s) = 3.17447 3.66497 3.42850
# Velocity P-wave (km/s) = 5.37829 7.39516 6.46585
#
# Compressibility (1/GPa) = 0.04083512
#
# Stress axis : x y z
#
# Youngs Moduli (GPa) = 52.81206 21.36486 78.10368
#
# Poissons Ratio (x) = 0.02194 0.73189
# Poissons Ratio (y) = 0.05423 0.66052
# Poissons Ratio (z) = 0.49489 0.18068
#
# Static dielectric constant tensor:
#      x y z
#    x 3.164290 0.000000 0.000000 
#    y 0.000000 2.659060 0.000000 
#    z 0.000000 0.000000 3.428340 
# 
# 
# High freq. dielectric constant tensor:
#      x y z
#    x 1.585860 0.000000 0.000000 
#    y 0.000000 1.570110 0.000000 
#    z 0.000000 0.000000 1.611810 
# 
# From -- ./inp_files/20923.got.cif
#   From: 2010.03.12/outbox.cif.g09.slc.cpg/sg44_11_cif.got.tgz:20923.got - 2010.04.14 02:36:11.
