data_PCOD8188248
_publ_section_title
;
Structure prediction by ZEFSAII (Michael W. Deem and Ramdas Pophale) SiO2 
 PCOD8188248
Probable space group: I M M 2
;
_chemical_formula_sum "Si O2"
_cell_formula_units_Z 64
_cell_length_a 15.145828
_cell_length_b 18.574674
_cell_length_c 14.285357
_cell_angle_alpha 90.000000
_cell_angle_beta 90.000000
_cell_angle_gamma 90.000000
_cell_volume 4018.882593
_symmetry_space_group_name_H-M "I M M 2"
_symmetry_group_IT_number 44
_symmetry_cell_setting 'orthorhombic'
loop_
_space_group_symop_operation_xyz
x,y,z
-x,-y,z
-x,y,z
x,-y,z
1/2+x,1/2+y,1/2+z
1/2-x,1/2-y,1/2+z
1/2-x,1/2+y,1/2+z
1/2+x,1/2-y,1/2+z
loop_
_atom_site_type_symbol
_atom_site_label
_atom_site_fract_x
_atom_site_fract_y
_atom_site_fract_z
Si Si1 0.899867 0.917839 0.688760
Si Si2 0.742383 0.727413 0.894613
Si Si3 0.096876 0.800424 0.829775
Si Si4 0.397208 0.084219 0.697221
Si Si5 0.601755 0.846777 0.892837
Si Si6 0.898045 0.582651 0.587801
Si Si7 0.749669 0.163811 0.587339
Si Si8 0.807236 0.295669 0.701428
O O1 0.890124 0.881133 0.790836
O O2 0.834141 0.883380 0.614039
O O3 0.000000 0.909082 0.651071
O O4 0.873203 0.000000 0.703488
O O5 0.826631 0.782208 0.904452
O O6 0.653245 0.772386 0.906306
O O7 0.744605 0.688849 0.792311
O O8 0.750553 0.667686 0.974874
O O9 0.106427 0.747249 0.739216
O O10 0.000000 0.790156 0.875092
O O11 0.500000 0.099893 0.677926
O O12 0.367711 0.111903 0.799450
O O13 0.340524 0.126125 0.620012
O O14 0.376424 0.000000 0.691081
O O15 0.500000 0.824804 0.886696
O O16 0.619616 0.899585 0.979497
O O17 0.872808 0.500000 0.605657
O O18 0.835190 0.630261 0.653429
O O19 0.000000 0.597351 0.613397
O O20 0.754912 0.244604 0.628898
#
# Coordination Sequence:
#
# PCOD8188248 Si02
#       8
#     8   8   8   8   8   8   8   8
#     4   9  17  30  51  77  98 121 155 196 251 301
#     4  10  20  31  47  75  97 128 172 202 236 297
#     4   8  16  30  49  69  95 127 155 197 244 280
#     4  10  20  34  51  74 105 137 167 202 248 298
#     4  10  18  31  50  75 104 130 160 207 252 297
#     4  10  19  31  51  77 101 129 163 204 260 309
#     4  11  19  32  51  70 103 135 166 200 243 290
#     4   9  18  32  50  67 102 126 165 203 244 287
#
# _framework density 15.924823999999999
#
# number of rings (size 3 to 8) (size 9 to 14) (size 15 to 20)
#    0.750    1.625    2.500    1.125    0.000    3.000 
#    0.000    1.875    0.000    1.500    0.000    0.000 
#    0.000    2.500    0.000    0.000    0.000    0.000 
#
# Total GULP energy -396620.695173 kJ/mol
# GULP energy per Si atom -12394.396724 kJ/mol
# Density = 1.588858 g / cm^3
# Si number density = 15.924824 Si / 1000 Ang^3
#
#
#
# Elastic Constant Matrix: (Units=GPa)
#
#
# Indices 1 2 3 4 5 6 
#
# 1 68.3147 35.7763 19.0776 0.0000 0.0000 0.0000
# 2 35.7763 93.4331 30.5306 0.0000 0.0000 0.0000
# 3 19.0776 30.5306 45.7332 0.0000 0.0000 0.0000
# 4 0.0000 0.0000 0.0000 23.6199 0.0000 0.0000
# 5 0.0000 0.0000 0.0000 0.0000 16.8795 0.0000
# 6 0.0000 0.0000 0.0000 0.0000 0.0000 26.4215
#
#
#
# Elastic Compliance Matrix: (Units=1/GPa)
#
#
# Indices 1 2 3 4 5 6 
#
# 1 0.018836 -0.005941 -0.003891 0.000000 0.000000 0.000000
# 2 -0.005941 0.015563 -0.007911 0.000000 0.000000 0.000000
# 3 -0.003891 -0.007911 0.028771 0.000000 0.000000 0.000000
# 4 0.000000 0.000000 0.000000 0.042337 0.000000 0.000000
# 5 0.000000 0.000000 0.000000 0.000000 0.059243 0.000000
# 6 0.000000 0.000000 0.000000 0.000000 0.000000 0.037848
#
#
# Mechanical properties :
#
#
# Convention : Reuss Voigt Hill
#
# Bulk Modulus (GPa) = 36.12399 42.02780 39.07590
# Shear Modulus (GPa) = 20.21733 21.52394 20.87063
#
# Velocity S-wave (km/s) = 3.56694 3.68040 3.62411
# Velocity P-wave (km/s) = 6.30059 6.67151 6.48870
#
# Compressibility (1/GPa) = 0.02768244
#
# Stress axis : x y z
#
# Youngs Moduli (GPa) = 53.08942 64.25601 34.75773
#
# Poissons Ratio (x) = 0.38174 0.13526
# Poissons Ratio (y) = 0.31540 0.27497
# Poissons Ratio (z) = 0.20660 0.50834
#
# Static dielectric constant tensor:
#      x y z
#    x 3.006340 0.000000 0.000000 
#    y 0.000000 2.882410 0.000000 
#    z 0.000000 0.000000 2.845460 
# 
# 
# High freq. dielectric constant tensor:
#      x y z
#    x 1.611170 0.000000 0.000000 
#    y 0.000000 1.600190 0.000000 
#    z 0.000000 0.000000 1.593170 
# 
# From -- ./inp_files/21965.got.cif
#   From: 2010.03.12/outbox.cif.g09.slc.cpg/sg44_11_cif.got.tgz:21965.got - 2010.04.14 02:36:11.
