data_PCOD8188647
_publ_section_title
;
Structure prediction by ZEFSAII (Michael W. Deem and Ramdas Pophale) SiO2 
 PCOD8188647
Probable space group: I M M 2
;
_chemical_formula_sum "Si O2"
_cell_formula_units_Z 48
_cell_length_a 16.547421
_cell_length_b 8.759285
_cell_length_c 18.478743
_cell_angle_alpha 90.000000
_cell_angle_beta 90.000000
_cell_angle_gamma 90.000000
_cell_volume 2678.375101
_symmetry_space_group_name_H-M "I M M 2"
_symmetry_group_IT_number 44
_symmetry_cell_setting 'orthorhombic'
loop_
_space_group_symop_operation_xyz
x,y,z
-x,-y,z
-x,y,z
x,-y,z
1/2+x,1/2+y,1/2+z
1/2-x,1/2-y,1/2+z
1/2-x,1/2+y,1/2+z
1/2+x,1/2-y,1/2+z
loop_
_atom_site_type_symbol
_atom_site_label
_atom_site_fract_x
_atom_site_fract_y
_atom_site_fract_z
Si Si1 0.850600 0.677675 0.983970
Si Si2 0.000000 0.821474 0.906773
Si Si3 0.260888 0.323850 0.854728
Si Si4 0.816599 0.679939 0.143179
Si Si5 0.000000 0.679526 0.750033
Si Si6 0.336439 0.320047 0.228518
Si Si7 0.591856 0.181175 0.783844
O O1 0.877126 0.500000 0.985478
O O2 0.768229 0.696382 0.937531
O O3 0.921442 0.779152 0.952068
O O4 0.835468 0.746281 0.064110
O O5 0.000000 0.728084 0.833064
O O6 0.000000 0.000000 0.888540
O O7 0.262184 0.500000 0.831564
O O8 0.195673 0.236918 0.805751
O O9 0.350718 0.254775 0.845062
O O10 0.822443 0.500000 0.138606
O O11 0.726369 0.728918 0.166197
O O12 0.879877 0.738130 0.204117
O O13 0.921523 0.743760 0.709129
O O14 0.000000 0.500000 0.744922
O O15 0.347583 0.500000 0.233710
O O16 0.500000 0.234971 0.796989
O O17 0.600416 0.000000 0.789536
#
# Coordination Sequence:
#
# PCOD8188647 Si02
#       7
#     8   4   8   8   4   8   8
#     4  10  20  35  55  77 106 140 174 212 261 316
#     4  12  24  34  50  80 112 141 174 213 262 315
#     4  10  19  31  51  77 105 137 173 214 264 309
#     4   8  17  33  55  78 101 134 174 213 257 312
#     4  12  22  34  54  80 108 137 174 219 268 315
#     4  10  19  34  55  78 104 137 179 218 256 309
#     4   9  18  33  54  77  99 132 178 220 259 307
#
# _framework density 17.921312
#
# number of rings (size 3 to 8) (size 9 to 14) (size 15 to 20)
#    0.000    2.167    1.667    3.500    1.167    1.000 
#    0.000    4.167    1.833    0.000    0.000    0.000 
#    0.000    0.000    0.000    0.000    0.000    0.000 
#
# Total GULP energy -297576.155947 kJ/mol
# GULP energy per Si atom -12399.006498 kJ/mol
# Density = 1.788052 g / cm^3
# Si number density = 17.921312 Si / 1000 Ang^3
#
#
#
# Elastic Constant Matrix: (Units=GPa)
#
#
# Indices 1 2 3 4 5 6 
#
# 1 146.9567 40.1478 32.6632 0.0000 0.0000 0.0000
# 2 40.1478 70.1344 11.7695 0.0000 0.0000 0.0000
# 3 32.6632 11.7695 64.7532 0.0000 0.0000 0.0000
# 4 0.0000 0.0000 0.0000 19.0342 0.0000 0.0000
# 5 0.0000 0.0000 0.0000 0.0000 14.2621 0.0000
# 6 0.0000 0.0000 0.0000 0.0000 0.0000 29.3717
#
#
#
# Elastic Compliance Matrix: (Units=1/GPa)
#
#
# Indices 1 2 3 4 5 6 
#
# 1 0.008829 -0.004442 -0.003646 0.000000 0.000000 0.000000
# 2 -0.004442 0.016942 -0.000839 0.000000 0.000000 0.000000
# 3 -0.003646 -0.000839 0.017435 0.000000 0.000000 0.000000
# 4 0.000000 0.000000 0.000000 0.052537 0.000000 0.000000
# 5 0.000000 0.000000 0.000000 0.000000 0.070116 0.000000
# 6 0.000000 0.000000 0.000000 0.000000 0.000000 0.034046
#
#
# Mechanical properties :
#
#
# Convention : Reuss Voigt Hill
#
# Bulk Modulus (GPa) = 39.44471 50.11168 44.77820
# Shear Modulus (GPa) = 22.10351 25.68454 23.89403
#
# Velocity S-wave (km/s) = 3.51574 3.78985 3.65536
# Velocity P-wave (km/s) = 6.20792 6.86829 6.54644
#
# Compressibility (1/GPa) = 0.02535194
#
# Stress axis : x y z
#
# Youngs Moduli (GPa) = 113.26777 59.02531 57.35644
#
# Poissons Ratio (x) = 0.26219 0.20912
# Poissons Ratio (y) = 0.50314 0.04810
# Poissons Ratio (z) = 0.41298 0.04950
#
# Static dielectric constant tensor:
#      x y z
#    x 3.537060 0.000000 0.000000 
#    y 0.000000 3.211270 0.000000 
#    z 0.000000 0.000000 3.383400 
# 
# 
# High freq. dielectric constant tensor:
#      x y z
#    x 1.700710 0.000000 0.000000 
#    y 0.000000 1.684750 0.000000 
#    z 0.000000 0.000000 1.672940 
# 
# From -- ./inp_files/21729.got.cif
#   From: 2010.03.12/outbox.cif.g09.slc.cpg/sg44_11_cif.got.tgz:21729.got - 2010.04.14 02:36:11.
