data_PCOD8188667
_publ_section_title
;
Structure prediction by ZEFSAII (Michael W. Deem and Ramdas Pophale) SiO2 
 PCOD8188667
Probable space group: I M M 2
;
_chemical_formula_sum "Si O2"
_cell_formula_units_Z 64
_cell_length_a 18.440339
_cell_length_b 9.039194
_cell_length_c 20.576308
_cell_angle_alpha 90.000000
_cell_angle_beta 90.000000
_cell_angle_gamma 90.000000
_cell_volume 3429.778394
_symmetry_space_group_name_H-M "I M M 2"
_symmetry_group_IT_number 44
_symmetry_cell_setting 'orthorhombic'
loop_
_space_group_symop_operation_xyz
x,y,z
-x,-y,z
-x,y,z
x,-y,z
1/2+x,1/2+y,1/2+z
1/2-x,1/2-y,1/2+z
1/2-x,1/2+y,1/2+z
1/2+x,1/2-y,1/2+z
loop_
_atom_site_type_symbol
_atom_site_label
_atom_site_fract_x
_atom_site_fract_y
_atom_site_fract_z
Si Si1 0.674701 0.663636 0.260860
Si Si2 0.183287 0.825633 0.901530
Si Si3 0.416362 0.670007 0.519467
Si Si4 0.846464 0.662861 0.273366
Si Si5 0.415655 0.670385 0.029904
Si Si6 0.334872 0.671163 0.898871
Si Si7 0.683381 0.174884 0.133026
Si Si8 0.662498 0.175243 0.631738
O O1 0.643596 0.500000 0.244280
O O2 0.647542 0.719954 0.331744
O O3 0.760422 0.654632 0.268500
O O4 0.652387 0.774806 0.203399
O O5 0.259431 0.748548 0.916044
O O6 0.198224 0.000000 0.901626
O O7 0.127482 0.776083 0.956585
O O8 0.500000 0.692181 0.502996
O O9 0.398308 0.500000 0.536625
O O10 0.395805 0.773126 0.579529
O O11 0.878566 0.500000 0.287895
O O12 0.870631 0.769892 0.331729
O O13 0.871536 0.719782 0.202130
O O14 0.500000 0.708451 0.035487
O O15 0.399799 0.500000 0.048279
O O16 0.372997 0.776633 0.078375
O O17 0.391211 0.702815 0.956326
O O18 0.318631 0.500000 0.889307
O O19 0.760912 0.246865 0.117804
O O20 0.691975 0.000000 0.132340
O O21 0.675631 0.000000 0.628083
#
# Coordination Sequence:
#
# PCOD8188667 Si02
#       8
#     8   8   8   8   8   8   8   8
#     4   8  15  30  51  75 103 134 169 208 253 307
#     4   9  18  33  53  76 104 137 170 206 253 310
#     4  10  21  36  53  76 106 138 175 219 261 300
#     4   8  16  31  51  75 103 133 166 207 253 304
#     4  10  22  39  54  71 102 142 178 211 253 309
#     4  10  19  31  53  81 102 126 168 217 259 302
#     4  11  21  33  54  82 107 132 169 217 263 304
#     4  10  20  35  55  78 105 139 177 211 251 309
#
# _framework density 18.660098999999999
#
# number of rings (size 3 to 8) (size 9 to 14) (size 15 to 20)
#    0.000    2.500    0.000    4.125    0.000    9.000 
#    0.000    1.250    0.000    4.500    0.000    0.000 
#    0.000    0.000    0.000    0.000    0.000    0.000 
#
# Total GULP energy -396723.041990 kJ/mol
# GULP energy per Si atom -12397.595062 kJ/mol
# Density = 1.861763 g / cm^3
# Si number density = 18.660099 Si / 1000 Ang^3
#
#
#
# Elastic Constant Matrix: (Units=GPa)
#
#
# Indices 1 2 3 4 5 6 
#
# 1 36.1782 18.2056 12.9804 0.0000 0.0000 0.0000
# 2 18.2056 76.9953 35.7734 0.0000 0.0000 0.0000
# 3 12.9804 35.7734 107.4498 0.0000 0.0000 0.0000
# 4 0.0000 0.0000 0.0000 32.3607 0.0000 0.0000
# 5 0.0000 0.0000 0.0000 0.0000 2.5735 0.0000
# 6 0.0000 0.0000 0.0000 0.0000 0.0000 18.6166
#
#
#
# Elastic Compliance Matrix: (Units=1/GPa)
#
#
# Indices 1 2 3 4 5 6 
#
# 1 0.031597 -0.006740 -0.001573 0.000000 0.000000 0.000000
# 2 -0.006740 0.016802 -0.004780 0.000000 0.000000 0.000000
# 3 -0.001573 -0.004780 0.011088 0.000000 0.000000 0.000000
# 4 0.000000 0.000000 0.000000 0.030902 0.000000 0.000000
# 5 0.000000 0.000000 0.000000 0.000000 0.388575 0.000000
# 6 0.000000 0.000000 0.000000 0.000000 0.000000 0.053715
#
#
# Mechanical properties :
#
#
# Convention : Reuss Voigt Hill
#
# Bulk Modulus (GPa) = 30.02884 39.39359 34.71122
# Shear Modulus (GPa) = 8.77245 20.95442 14.86343
#
# Velocity S-wave (km/s) = 2.17057 3.35469 2.82536
# Velocity P-wave (km/s) = 4.73385 6.01350 5.41163
#
# Compressibility (1/GPa) = 0.03330132
#
# Stress axis : x y z
#
# Youngs Moduli (GPa) = 31.64841 59.51556 90.18733
#
# Poissons Ratio (x) = 0.40115 0.14187
# Poissons Ratio (y) = 0.21332 0.43107
# Poissons Ratio (z) = 0.04978 0.28447
#
# Static dielectric constant tensor:
#      x y z
#    x 3.049360 0.000000 0.000000 
#    y 0.000000 3.417190 0.000000 
#    z 0.000000 0.000000 4.128170 
# 
# 
# High freq. dielectric constant tensor:
#      x y z
#    x 1.684870 0.000000 0.000000 
#    y 0.000000 1.720300 0.000000 
#    z 0.000000 0.000000 1.746030 
# 
# From -- ./inp_files/24368.got.cif
#   From: 2010.03.12/outbox.cif.g09.slc.cpg/sg44_13_cif.got.tgz:24368.got - 2010.04.14 02:36:11.
