data_PCOD8188454
_publ_section_title
;
Structure prediction by ZEFSAII (Michael W. Deem and Ramdas Pophale) SiO2 
 PCOD8188454
Probable space group: I M M 2
;
_chemical_formula_sum "Si O2"
_cell_formula_units_Z 56
_cell_length_a 13.643823
_cell_length_b 8.950925
_cell_length_c 28.793433
_cell_angle_alpha 90.000000
_cell_angle_beta 90.000000
_cell_angle_gamma 90.000000
_cell_volume 3516.393294
_symmetry_space_group_name_H-M "I M M 2"
_symmetry_group_IT_number 44
_symmetry_cell_setting 'orthorhombic'
loop_
_space_group_symop_operation_xyz
x,y,z
-x,-y,z
-x,y,z
x,-y,z
1/2+x,1/2+y,1/2+z
1/2-x,1/2-y,1/2+z
1/2-x,1/2+y,1/2+z
1/2+x,1/2-y,1/2+z
loop_
_atom_site_type_symbol
_atom_site_label
_atom_site_fract_x
_atom_site_fract_y
_atom_site_fract_z
Si Si1 0.611593 0.326564 0.971910
Si Si2 0.889659 0.671667 0.931704
Si Si3 0.612551 0.174788 0.789193
Si Si4 0.885984 0.675411 0.103376
Si Si5 0.883625 0.168155 0.196669
Si Si6 0.704607 0.329054 0.874713
Si Si7 0.290332 0.676308 0.515907
O O1 0.500000 0.281871 0.982244
O O2 0.632125 0.500000 0.982368
O O3 0.634836 0.292364 0.918211
O O4 0.679910 0.228546 0.005123
O O5 0.876838 0.500000 0.947879
O O6 0.817238 0.704454 0.888804
O O7 0.000000 0.705636 0.915061
O O8 0.864536 0.773352 0.975642
O O9 0.500000 0.221637 0.798518
O O10 0.655794 0.256415 0.743788
O O11 0.677493 0.220476 0.833016
O O12 0.621946 0.000000 0.780589
O O13 0.867585 0.500000 0.102153
O O14 0.847171 0.737820 0.152485
O O15 0.822620 0.753304 0.064112
O O16 0.000000 0.714653 0.095679
O O17 0.000000 0.169623 0.197916
O O18 0.842492 0.000000 0.193280
O O19 0.690567 0.500000 0.858632
O O20 0.293501 0.500000 0.520271
#
# Coordination Sequence:
#
# PCOD8188454 Si02
#       7
#     8   8   8   8   8   8   8
#     4   9  18  33  50  66  88 120 156 191 226 266
#     4   9  18  33  49  64  87 120 156 192 228 267
#     4  10  19  29  42  63  92 123 151 179 216 265
#     4  10  19  31  47  66  91 122 153 185 222 267
#     4   9  17  29  45  65  89 116 147 184 224 265
#     4   9  17  29  46  67  88 114 150 187 224 265
#     4  11  21  30  44  68  95 121 151 186 225 270
#
# _framework density 15.925407999999999
#
# number of rings (size 3 to 8) (size 9 to 14) (size 15 to 20)
#    0.000    2.429    0.000    4.286    0.000    8.571 
#    0.000    0.000    0.000    0.000    0.000    1.000 
#    0.000    5.714    0.000    0.000    0.000    0.000 
#
# Total GULP energy -347238.599828 kJ/mol
# GULP energy per Si atom -12401.378565 kJ/mol
# Density = 1.588916 g / cm^3
# Si number density = 15.925408 Si / 1000 Ang^3
#
#
#
# Elastic Constant Matrix: (Units=GPa)
#
#
# Indices 1 2 3 4 5 6 
#
# 1 85.9940 37.9103 47.8237 0.0000 0.0000 0.0000
# 2 37.9103 95.1565 61.4643 0.0000 0.0000 0.0000
# 3 47.8237 61.4643 118.8418 0.0000 0.0000 0.0000
# 4 0.0000 0.0000 0.0000 33.3999 0.0000 0.0000
# 5 0.0000 0.0000 0.0000 0.0000 21.0578 0.0000
# 6 0.0000 0.0000 0.0000 0.0000 0.0000 18.3634
#
#
#
# Elastic Compliance Matrix: (Units=1/GPa)
#
#
# Indices 1 2 3 4 5 6 
#
# 1 0.015623 -0.003248 -0.004607 0.000000 0.000000 0.000000
# 2 -0.003248 0.016456 -0.007204 0.000000 0.000000 0.000000
# 3 -0.004607 -0.007204 0.013994 0.000000 0.000000 0.000000
# 4 0.000000 0.000000 0.000000 0.029940 0.000000 0.000000
# 5 0.000000 0.000000 0.000000 0.000000 0.047488 0.000000
# 6 0.000000 0.000000 0.000000 0.000000 0.000000 0.054456
#
#
# Mechanical properties :
#
#
# Convention : Reuss Voigt Hill
#
# Bulk Modulus (GPa) = 62.67596 66.04322 64.35959
# Shear Modulus (GPa) = 23.43077 24.75050 24.09064
#
# Velocity S-wave (km/s) = 3.83989 3.94655 3.89359
# Velocity P-wave (km/s) = 7.68772 7.89477 7.79193
#
# Compressibility (1/GPa) = 0.01595508
#
# Stress axis : x y z
#
# Youngs Moduli (GPa) = 64.00931 60.76662 71.45824
#
# Poissons Ratio (x) = 0.19740 0.32919
# Poissons Ratio (y) = 0.20793 0.51478
# Poissons Ratio (z) = 0.29487 0.43776
#
# Static dielectric constant tensor:
#      x y z
#    x 2.947620 0.000000 0.000000 
#    y 0.000000 3.069140 0.000000 
#    z 0.000000 0.000000 2.983070 
# 
# 
# High freq. dielectric constant tensor:
#      x y z
#    x 1.582870 0.000000 0.000000 
#    y 0.000000 1.620450 0.000000 
#    z 0.000000 0.000000 1.606070 
# 
# From -- ./inp_files/27226.got.cif
#   From: 2010.03.12/outbox.cif.g09.slc.cpg/sg44_14_cif.got.tgz:27226.got - 2010.04.14 02:36:11.
