data_PCOD8188711
_publ_section_title
;
Structure prediction by ZEFSAII (Michael W. Deem and Ramdas Pophale) SiO2 
 PCOD8188711
Probable space group: I M M 2
;
_chemical_formula_sum "Si O2"
_cell_formula_units_Z 64
_cell_length_a 9.074654
_cell_length_b 20.606603
_cell_length_c 19.422964
_cell_angle_alpha 90.000000
_cell_angle_beta 90.000000
_cell_angle_gamma 90.000000
_cell_volume 3632.051389
_symmetry_space_group_name_H-M "I M M 2"
_symmetry_group_IT_number 44
_symmetry_cell_setting 'orthorhombic'
loop_
_space_group_symop_operation_xyz
x,y,z
-x,-y,z
-x,y,z
x,-y,z
1/2+x,1/2+y,1/2+z
1/2-x,1/2-y,1/2+z
1/2-x,1/2+y,1/2+z
1/2+x,1/2-y,1/2+z
loop_
_atom_site_type_symbol
_atom_site_label
_atom_site_fract_x
_atom_site_fract_y
_atom_site_fract_z
Si Si1 0.669668 0.426779 0.998980
Si Si2 0.673269 0.813529 0.420936
Si Si3 0.674046 0.261913 0.794916
Si Si4 0.170926 0.817908 0.000511
Si Si5 0.331428 0.370271 0.140600
Si Si6 0.830441 0.760676 0.140740
Si Si7 0.330706 0.072722 0.918009
Si Si8 0.825791 0.125070 0.793000
O O1 0.500000 0.408989 0.982388
O O2 0.706071 0.500000 0.975614
O O3 0.777012 0.378011 0.960224
O O4 0.697518 0.423071 0.081419
O O5 0.500000 0.817469 0.407600
O O6 0.758776 0.813558 0.348075
O O7 0.716449 0.749707 0.464493
O O8 0.500000 0.254046 0.806609
O O9 0.710930 0.286190 0.717141
O O10 0.754936 0.194427 0.809778
O O11 0.265947 0.877140 0.972780
O O12 0.000000 0.832845 0.986332
O O13 0.205823 0.813916 0.082337
O O14 0.500000 0.349789 0.145619
O O15 0.249430 0.305039 0.120556
O O16 0.283167 0.397607 0.215545
O O17 0.000000 0.741668 0.137679
O O18 0.500000 0.090709 0.904260
O O19 0.243249 0.074253 0.845919
O O20 0.314820 0.000000 0.947999
O O21 0.000000 0.129581 0.805026
#
# Coordination Sequence:
#
# PCOD8188711 Si02
#       8
#     8   8   8   8   8   8   8   8
#     4  10  21  36  53  76 108 145 183 221 264 314
#     4  11  21  34  55  81 109 139 177 222 266 314
#     4  10  19  32  54  80 108 139 173 218 266 311
#     4  10  20  35  56  80 106 137 175 220 267 315
#     4   9  18  31  50  76 106 140 178 216 257 307
#     4   9  18  33  53  79 107 135 171 216 264 313
#     4  11  24  38  52  75 107 143 182 221 264 315
#     4  10  19  32  51  77 107 142 180 215 257 310
#
# _framework density 17.620895999999998
#
# number of rings (size 3 to 8) (size 9 to 14) (size 15 to 20)
#    0.000    2.000    2.500    1.500    0.000    3.750 
#    0.000    1.250    0.000    0.750    0.000    1.750 
#    0.000    0.000    0.000    0.000    0.000    0.000 
#
# Total GULP energy -396754.436150 kJ/mol
# GULP energy per Si atom -12398.576130 kJ/mol
# Density = 1.758079 g / cm^3
# Si number density = 17.620896 Si / 1000 Ang^3
#
#
#
# Elastic Constant Matrix: (Units=GPa)
#
#
# Indices 1 2 3 4 5 6 
#
# 1 81.4163 44.1031 41.4554 0.0000 0.0000 0.0000
# 2 44.1031 87.6890 45.4314 0.0000 0.0000 0.0000
# 3 41.4554 45.4314 95.3909 0.0000 0.0000 0.0000
# 4 0.0000 0.0000 0.0000 22.6728 0.0000 0.0000
# 5 0.0000 0.0000 0.0000 0.0000 26.8018 0.0000
# 6 0.0000 0.0000 0.0000 0.0000 0.0000 24.7055
#
#
#
# Elastic Compliance Matrix: (Units=1/GPa)
#
#
# Indices 1 2 3 4 5 6 
#
# 1 0.018377 -0.006777 -0.004758 0.000000 0.000000 0.000000
# 2 -0.006777 0.017639 -0.005456 0.000000 0.000000 0.000000
# 3 -0.004758 -0.005456 0.015149 0.000000 0.000000 0.000000
# 4 0.000000 0.000000 0.000000 0.044106 0.000000 0.000000
# 5 0.000000 0.000000 0.000000 0.000000 0.037311 0.000000
# 6 0.000000 0.000000 0.000000 0.000000 0.000000 0.040477
#
#
# Mechanical properties :
#
#
# Convention : Reuss Voigt Hill
#
# Bulk Modulus (GPa) = 58.19829 58.49734 58.34781
# Shear Modulus (GPa) = 23.49970 23.73644 23.61807
#
# Velocity S-wave (km/s) = 3.65585 3.67422 3.66504
# Velocity P-wave (km/s) = 7.13582 7.16028 7.14806
#
# Compressibility (1/GPa) = 0.01718264
#
# Stress axis : x y z
#
# Youngs Moduli (GPa) = 54.41694 56.69238 66.00888
#
# Poissons Ratio (x) = 0.38421 0.31410
# Poissons Ratio (y) = 0.36879 0.36012
# Poissons Ratio (z) = 0.25894 0.30929
#
# Static dielectric constant tensor:
#      x y z
#    x 3.326650 0.000000 0.000000 
#    y 0.000000 2.978250 0.000000 
#    z 0.000000 0.000000 3.602290 
# 
# 
# High freq. dielectric constant tensor:
#      x y z
#    x 1.689400 0.000000 0.000000 
#    y 0.000000 1.648220 0.000000 
#    z 0.000000 0.000000 1.689290 
# 
# From -- ./inp_files/22289.got.cif
#   From: 2010.03.12/outbox.cif.g09.slc.cpg/sg44_12_cif.got.tgz:22289.got - 2010.04.14 02:36:11.
