data_PCOD8188138
_publ_section_title
;
Structure prediction by ZEFSAII (Michael W. Deem and Ramdas Pophale) SiO2 
 PCOD8188138
Probable space group: I M M 2
;
_chemical_formula_sum "Si O2"
_cell_formula_units_Z 48
_cell_length_a 8.461924
_cell_length_b 18.127383
_cell_length_c 17.936439
_cell_angle_alpha 90.000000
_cell_angle_beta 90.000000
_cell_angle_gamma 90.000000
_cell_volume 2751.315888
_symmetry_space_group_name_H-M "I M M 2"
_symmetry_group_IT_number 44
_symmetry_cell_setting 'orthorhombic'
loop_
_space_group_symop_operation_xyz
x,y,z
-x,-y,z
-x,y,z
x,-y,z
1/2+x,1/2+y,1/2+z
1/2-x,1/2-y,1/2+z
1/2-x,1/2+y,1/2+z
1/2+x,1/2-y,1/2+z
loop_
_atom_site_type_symbol
_atom_site_label
_atom_site_fract_x
_atom_site_fract_y
_atom_site_fract_z
Si Si1 0.315122 0.416419 0.782300
Si Si2 0.816508 0.310856 0.906124
Si Si3 0.683603 0.800569 0.186575
Si Si4 0.318286 0.802908 0.807714
Si Si5 0.187248 0.300314 0.074575
Si Si6 0.312242 0.918147 0.694679
O O1 0.500000 0.412961 0.766796
O O2 0.257251 0.500000 0.794581
O O3 0.276583 0.370201 0.856820
O O4 0.224553 0.384945 0.708633
O O5 0.784711 0.226940 0.877063
O O6 0.000000 0.329254 0.899658
O O7 0.756124 0.316464 0.990769
O O8 0.500000 0.784800 0.202356
O O9 0.798012 0.753170 0.239362
O O10 0.730296 0.776059 0.102660
O O11 0.500000 0.805022 0.832739
O O12 0.262696 0.882386 0.774842
O O13 0.248162 0.368530 0.125511
O O14 0.000000 0.289941 0.077903
O O15 0.500000 0.921871 0.690418
O O16 0.237869 0.000000 0.689021
#
# Coordination Sequence:
#
# PCOD8188138 Si02
#       6
#     8   8   8   8   8   8
#     4  10  20  33  49  69  96 128 157 190 236 286
#     4  10  19  30  47  70  95 123 156 193 229 272
#     4  10  18  29  48  69  90 119 157 197 230 270
#     4   9  16  28  46  65  89 120 154 190 227 272
#     4   9  18  31  47  68  94 123 153 188 232 278
#     4   8  14  26  45  67  88 113 147 184 222 266
#
# _framework density 17.446197999999999
#
# number of rings (size 3 to 8) (size 9 to 14) (size 15 to 20)
#    0.000    2.667    0.000    6.000    0.000    3.333 
#    0.000    1.667    0.000   13.500    0.000    4.667 
#    0.000    0.000    0.000    0.000    0.000    0.000 
#
# Total GULP energy -297394.124127 kJ/mol
# GULP energy per Si atom -12391.421839 kJ/mol
# Density = 1.740649 g / cm^3
# Si number density = 17.446198 Si / 1000 Ang^3
#
#
#
# Elastic Constant Matrix: (Units=GPa)
#
#
# Indices 1 2 3 4 5 6 
#
# 1 37.6226 22.9457 17.9762 0.0000 0.0000 0.0000
# 2 22.9457 113.7353 79.0496 0.0000 0.0000 0.0000
# 3 17.9762 79.0496 73.3188 0.0000 0.0000 0.0000
# 4 0.0000 0.0000 0.0000 20.3555 0.0000 0.0000
# 5 0.0000 0.0000 0.0000 0.0000 24.6819 0.0000
# 6 0.0000 0.0000 0.0000 0.0000 0.0000 15.3647
#
#
#
# Elastic Compliance Matrix: (Units=1/GPa)
#
#
# Indices 1 2 3 4 5 6 
#
# 1 0.030516 -0.003816 -0.003368 0.000000 0.000000 0.000000
# 2 -0.003816 0.035556 -0.037400 0.000000 0.000000 0.000000
# 3 -0.003368 -0.037400 0.054788 0.000000 0.000000 0.000000
# 4 0.000000 0.000000 0.000000 0.049127 0.000000 0.000000
# 5 0.000000 0.000000 0.000000 0.000000 0.040516 0.000000
# 6 0.000000 0.000000 0.000000 0.000000 0.000000 0.065084
#
#
# Mechanical properties :
#
#
# Convention : Reuss Voigt Hill
#
# Bulk Modulus (GPa) = 31.55243 51.62440 41.58841
# Shear Modulus (GPa) = 13.32198 19.06077 16.19138
#
# Velocity S-wave (km/s) = 2.76634 3.30895 3.04974
# Velocity P-wave (km/s) = 5.32243 6.65235 6.02420
#
# Compressibility (1/GPa) = 0.03169328
#
# Stress axis : x y z
#
# Youngs Moduli (GPa) = 32.76958 28.12428 18.25205
#
# Poissons Ratio (x) = 0.10731 0.06147
# Poissons Ratio (y) = 0.12504 0.68263
# Poissons Ratio (z) = 0.11037 1.05185
#
# Static dielectric constant tensor:
#      x y z
#    x 3.053120 0.000000 0.000000 
#    y 0.000000 3.625400 0.000000 
#    z 0.000000 0.000000 3.382800 
# 
# 
# High freq. dielectric constant tensor:
#      x y z
#    x 1.666600 0.000000 0.000000 
#    y 0.000000 1.659660 0.000000 
#    z 0.000000 0.000000 1.655900 
# 
# From -- ./inp_files/20322.got.cif
#   From: 2010.03.12/outbox.cif.g09.slc.cpg/sg44_11_cif.got.tgz:20322.got - 2010.04.14 02:36:11.
