data_PCOD8188516
_publ_section_title
;
Structure prediction by ZEFSAII (Michael W. Deem and Ramdas Pophale) SiO2 
 PCOD8188516
Probable space group: I M M 2
;
_chemical_formula_sum "Si O2"
_cell_formula_units_Z 64
_cell_length_a 28.162345
_cell_length_b 8.963779
_cell_length_c 14.543172
_cell_angle_alpha 90.000000
_cell_angle_beta 90.000000
_cell_angle_gamma 90.000000
_cell_volume 3671.293417
_symmetry_space_group_name_H-M "I M M 2"
_symmetry_group_IT_number 44
_symmetry_cell_setting 'orthorhombic'
loop_
_space_group_symop_operation_xyz
x,y,z
-x,-y,z
-x,y,z
x,-y,z
1/2+x,1/2+y,1/2+z
1/2-x,1/2-y,1/2+z
1/2-x,1/2+y,1/2+z
1/2+x,1/2-y,1/2+z
loop_
_atom_site_type_symbol
_atom_site_label
_atom_site_fract_x
_atom_site_fract_y
_atom_site_fract_z
Si Si1 0.220258 0.671921 0.304160
Si Si2 0.176540 0.325013 0.018752
Si Si3 0.318263 0.173928 0.312146
Si Si4 0.361399 0.324346 0.688208
Si Si5 0.863767 0.325167 0.629819
Si Si6 0.775024 0.672539 0.516482
Si Si7 0.553922 0.673816 0.817338
Si Si8 0.946942 0.677101 0.506399
O O1 0.217665 0.500000 0.274202
O O2 0.272448 0.733114 0.282117
O O3 0.181995 0.763642 0.247641
O O4 0.209248 0.693179 0.411428
O O5 0.173975 0.500000 0.035335
O O6 0.139054 0.245914 0.086169
O O7 0.229291 0.269450 0.042056
O O8 0.163370 0.281553 0.913570
O O9 0.359990 0.210913 0.238685
O O10 0.304164 0.000000 0.309306
O O11 0.355980 0.500000 0.679639
O O12 0.411361 0.278779 0.734581
O O13 0.864410 0.500000 0.611500
O O14 0.817581 0.261712 0.577831
O O15 0.912090 0.258852 0.586025
O O16 0.763258 0.500000 0.538350
O O17 0.500000 0.715415 0.788783
O O18 0.558845 0.500000 0.839689
O O19 0.569913 0.761681 0.908172
O O20 0.945408 0.500000 0.500962
O O21 0.000000 0.734122 0.529709
#
# Coordination Sequence:
#
# PCOD8188516 Si02
#       8
#     8   8   8   8   8   8   8   8
#     4  10  19  30  46  71 101 127 155 193 232 276
#     4  10  20  32  46  66  93 124 160 200 236 271
#     4   9  18  32  48  66  94 131 164 195 232 273
#     4  11  21  32  49  69  91 124 161 195 237 285
#     4   9  16  28  47  68  91 122 156 186 223 275
#     4   9  17  29  46  68  96 127 154 184 227 278
#     4   9  19  35  52  71  95 121 150 187 233 284
#     4   9  17  30  50  75  99 122 150 186 230 280
#
# _framework density 17.432548000000001
#
# number of rings (size 3 to 8) (size 9 to 14) (size 15 to 20)
#    0.000    2.500    0.000    2.625    0.000    4.000 
#    0.000    1.250    0.000    0.750    0.000    1.750 
#    0.000    0.000    0.000    0.000    0.000    0.000 
#
# Total GULP energy -396769.132827 kJ/mol
# GULP energy per Si atom -12399.035401 kJ/mol
# Density = 1.739287 g / cm^3
# Si number density = 17.432548 Si / 1000 Ang^3
#
#
#
# Elastic Constant Matrix: (Units=GPa)
#
#
# Indices 1 2 3 4 5 6 
#
# 1 101.5666 35.6972 84.4574 0.0000 0.0000 0.0000
# 2 35.6972 51.1175 36.2966 0.0000 0.0000 0.0000
# 3 84.4574 36.2966 124.7943 0.0000 0.0000 0.0000
# 4 0.0000 0.0000 0.0000 23.7049 0.0000 0.0000
# 5 0.0000 0.0000 0.0000 0.0000 31.7871 0.0000
# 6 0.0000 0.0000 0.0000 0.0000 0.0000 17.5903
#
#
#
# Elastic Compliance Matrix: (Units=1/GPa)
#
#
# Indices 1 2 3 4 5 6 
#
# 1 0.024182 -0.006637 -0.014435 0.000000 0.000000 0.000000
# 2 -0.006637 0.026476 -0.003209 0.000000 0.000000 0.000000
# 3 -0.014435 -0.003209 0.018716 0.000000 0.000000 0.000000
# 4 0.000000 0.000000 0.000000 0.042185 0.000000 0.000000
# 5 0.000000 0.000000 0.000000 0.000000 0.031459 0.000000
# 6 0.000000 0.000000 0.000000 0.000000 0.000000 0.056850
#
#
# Mechanical properties :
#
#
# Convention : Reuss Voigt Hill
#
# Bulk Modulus (GPa) = 48.05022 65.59787 56.82404
# Shear Modulus (GPa) = 19.57953 22.68495 21.13224
#
# Velocity S-wave (km/s) = 3.35499 3.61127 3.48549
# Velocity P-wave (km/s) = 6.52927 7.42291 6.99038
#
# Compressibility (1/GPa) = 0.02081156
#
# Stress axis : x y z
#
# Youngs Moduli (GPa) = 41.35254 37.76976 53.43039
#
# Poissons Ratio (x) = 0.25069 0.77129
# Poissons Ratio (y) = 0.27447 0.17144
# Poissons Ratio (z) = 0.59694 0.12119
#
# Static dielectric constant tensor:
#      x y z
#    x 3.311920 0.000000 0.000000 
#    y 0.000000 3.165670 0.000000 
#    z 0.000000 0.000000 3.448170 
# 
# 
# High freq. dielectric constant tensor:
#      x y z
#    x 1.652860 0.000000 0.000000 
#    y 0.000000 1.664690 0.000000 
#    z 0.000000 0.000000 1.678490 
# 
# From -- ./inp_files/19680.got.cif
#   From: 2010.03.12/outbox.cif.g09.slc.cpg/sg44_10_cif.got.tgz:19680.got - 2010.04.14 02:36:11.
