data_PCOD8188297
_publ_section_title
;
Structure prediction by ZEFSAII (Michael W. Deem and Ramdas Pophale) SiO2 
 PCOD8188297
Probable space group: I M M 2
;
_chemical_formula_sum "Si O2"
_cell_formula_units_Z 64
_cell_length_a 9.076007
_cell_length_b 33.401615
_cell_length_c 11.768135
_cell_angle_alpha 90.000000
_cell_angle_beta 90.000000
_cell_angle_gamma 90.000000
_cell_volume 3567.548861
_symmetry_space_group_name_H-M "I M M 2"
_symmetry_group_IT_number 44
_symmetry_cell_setting 'orthorhombic'
loop_
_space_group_symop_operation_xyz
x,y,z
-x,-y,z
-x,y,z
x,-y,z
1/2+x,1/2+y,1/2+z
1/2-x,1/2-y,1/2+z
1/2-x,1/2+y,1/2+z
1/2+x,1/2-y,1/2+z
loop_
_atom_site_type_symbol
_atom_site_label
_atom_site_fract_x
_atom_site_fract_y
_atom_site_fract_z
Si Si1 0.325507 0.231171 0.822200
Si Si2 0.826497 0.954783 0.139075
Si Si3 0.833892 0.612066 0.273944
Si Si4 0.329619 0.320431 0.880581
Si Si5 0.665771 0.833316 0.990437
Si Si6 0.171696 0.177775 0.644877
Si Si7 0.835233 0.045620 0.879159
Si Si8 0.324167 0.876475 0.211669
O O1 0.500000 0.222915 0.813273
O O2 0.286287 0.277611 0.827962
O O3 0.250124 0.214324 0.709192
O O4 0.265010 0.207270 0.934916
O O5 0.738958 0.921643 0.211470
O O6 0.000000 0.947579 0.153197
O O7 0.786270 0.000000 0.180691
O O8 0.778334 0.950156 0.008086
O O9 0.824900 0.632574 0.396221
O O10 0.736250 0.635257 0.182537
O O11 0.770484 0.567814 0.290509
O O12 0.000000 0.609824 0.228032
O O13 0.500000 0.330609 0.857406
O O14 0.229063 0.354732 0.825927
O O15 0.295483 0.317594 0.012875
O O16 0.500000 0.823304 0.026036
O O17 0.742093 0.850493 0.104937
O O18 0.000000 0.179388 0.673367
O O19 0.000000 0.063502 0.870496
O O20 0.834531 0.000000 0.840350
O O21 0.500000 0.879259 0.208573
#
# Coordination Sequence:
#
# PCOD8188297 Si02
#       8
#     8   8   8   8   8   8   8   8
#     4   9  19  37  57  76 104 139 176 221 272 318
#     4   9  18  33  53  78 112 148 180 220 270 325
#     4  10  18  32  53  75 105 140 174 215 263 313
#     4  10  23  39  55  76 106 144 181 224 272 320
#     4   8  16  30  49  74 103 136 170 210 260 310
#     4  10  21  37  56  77 102 137 181 221 266 319
#     4   9  17  29  48  78 112 141 172 213 261 316
#     4  11  21  33  54  82 112 144 181 225 270 323
#
# _framework density 17.939488000000001
#
# number of rings (size 3 to 8) (size 9 to 14) (size 15 to 20)
#    0.000    2.500    1.250    2.625    1.750    2.000 
#    0.000    1.875    0.000    0.750    0.000    5.250 
#    0.000    0.000    0.000    0.000    0.000    0.000 
#
# Total GULP energy -396701.483737 kJ/mol
# GULP energy per Si atom -12396.921367 kJ/mol
# Density = 1.789866 g / cm^3
# Si number density = 17.939488 Si / 1000 Ang^3
#
#
#
# Elastic Constant Matrix: (Units=GPa)
#
#
# Indices 1 2 3 4 5 6 
#
# 1 74.1433 56.7127 45.4401 0.0002 0.0001 0.0000
# 2 56.7127 127.8843 50.9247 -0.0001 0.0000 0.0000
# 3 45.4401 50.9247 71.0750 -0.0003 -0.0004 0.0004
# 4 0.0002 -0.0001 -0.0003 24.0870 0.0000 0.0001
# 5 0.0001 0.0000 -0.0004 0.0000 23.9196 0.0000
# 6 0.0000 0.0000 0.0004 0.0001 0.0000 28.9986
#
#
#
# Elastic Compliance Matrix: (Units=1/GPa)
#
#
# Indices 1 2 3 4 5 6 
#
# 1 0.025834 -0.006828 -0.011625 0.000000 0.000000 0.000000
# 2 -0.006828 0.012746 -0.004767 0.000000 0.000000 0.000000
# 3 -0.011625 -0.004767 0.024917 0.000000 0.000001 0.000000
# 4 0.000000 0.000000 0.000000 0.041516 0.000000 0.000000
# 5 0.000000 0.000000 0.000001 0.000000 0.041807 0.000000
# 6 0.000000 0.000000 0.000000 0.000000 0.000000 0.034484
#
#
# Mechanical properties :
#
#
# Convention : Reuss Voigt Hill
#
# Bulk Modulus (GPa) = 58.62195 64.36197 61.49196
# Shear Modulus (GPa) = 21.41977 23.40271 22.41124
#
# Velocity S-wave (km/s) = 3.45918 3.61575 3.53833
# Velocity P-wave (km/s) = 6.97876 7.30662 7.14457
#
# Compressibility (1/GPa) = 0.01705846
#
# Stress axis : x y z
#
# Youngs Moduli (GPa) = 38.70829 78.45751 40.13309
#
# Poissons Ratio (x) = 0.53568 0.46653
# Poissons Ratio (y) = 0.26429 0.19132
# Poissons Ratio (z) = 0.44996 0.37402
#
# Static dielectric constant tensor:
#      x y z
#    x 3.233480 0.000000 0.000000 
#    y 0.000000 3.360960 0.000000 
#    z 0.000000 0.000000 3.101370 
# 
# 
# High freq. dielectric constant tensor:
#      x y z
#    x 1.685110 0.000000 0.000000 
#    y 0.000000 1.698840 0.000000 
#    z 0.000000 0.000000 1.668240 
# 
# From -- ./inp_files/11532.got.cif
#   From: 2010.03.12/outbox.cif.g09.slc.cpg/sg44_6_cif.got.tgz:11532.got - 2010.04.14 02:36:11.
