data_PCOD8188901
_publ_section_title
;
Structure prediction by ZEFSAII (Michael W. Deem and Ramdas Pophale) SiO2 
 PCOD8188901
Probable space group: I M M 2
;
_chemical_formula_sum "Si O2"
_cell_formula_units_Z 48
_cell_length_a 10.349864
_cell_length_b 9.015379
_cell_length_c 27.952728
_cell_angle_alpha 90.000000
_cell_angle_beta 90.000000
_cell_angle_gamma 90.000000
_cell_volume 2608.211650
_symmetry_space_group_name_H-M "I M M 2"
_symmetry_group_IT_number 44
_symmetry_cell_setting 'orthorhombic'
loop_
_space_group_symop_operation_xyz
x,y,z
-x,-y,z
-x,y,z
x,-y,z
1/2+x,1/2+y,1/2+z
1/2-x,1/2-y,1/2+z
1/2-x,1/2+y,1/2+z
1/2+x,1/2-y,1/2+z
loop_
_atom_site_type_symbol
_atom_site_label
_atom_site_fract_x
_atom_site_fract_y
_atom_site_fract_z
Si Si1 0.754083 0.673993 0.506940
Si Si2 0.754537 0.175837 0.720680
Si Si3 0.500000 0.824234 0.667511
Si Si4 0.500000 0.672501 0.566136
Si Si5 0.500000 0.323283 0.053601
Si Si6 0.349764 0.828739 0.418370
Si Si7 0.000000 0.176096 0.662291
Si Si8 0.146960 0.672732 0.810067
O O1 0.783210 0.500000 0.508499
O O2 0.626118 0.717268 0.536207
O O3 0.734996 0.724053 0.452223
O O4 0.873331 0.762231 0.528348
O O5 0.624840 0.234534 0.695757
O O6 0.873890 0.237507 0.689393
O O7 0.760378 0.238839 0.774274
O O8 0.756679 0.000000 0.723786
O O9 0.500000 0.764005 0.614353
O O10 0.500000 0.000000 0.663982
O O11 0.500000 0.500000 0.578744
O O12 0.500000 0.500000 0.050671
O O13 0.500000 0.265195 0.108137
O O14 0.500000 0.789510 0.424431
O O15 0.305922 0.796239 0.364042
O O16 0.324993 0.000000 0.431588
O O17 0.000000 0.000000 0.662532
O O18 0.155567 0.500000 0.798239
O O19 0.000000 0.728932 0.803594
#
# Coordination Sequence:
#
# PCOD8188901 Si02
#       8
#     8   8   4   4   4   8   4   8
#     4  11  22  38  57  84 117 147 183 231 284 335
#     4  10  19  34  54  79 108 140 179 225 272 320
#     4  10  22  36  53  78 111 146 183 226 271 322
#     4  10  22  38  57  82 113 147 187 231 279 332
#     4  11  23  39  58  81 112 153 193 229 274 329
#     4   9  18  34  57  83 109 140 183 230 274 329
#     4   9  18  33  54  77 102 136 185 230 264 315
#     4   9  18  33  54  82 110 137 177 226 271 320
#
# _framework density 18.403413
#
# number of rings (size 3 to 8) (size 9 to 14) (size 15 to 20)
#    0.000    2.167    1.667    2.750    0.000    4.000 
#    0.000    4.167    0.000    4.000    0.000    0.000 
#    0.000    0.000    0.000    0.000    0.000    0.000 
#
# Total GULP energy -297661.087954 kJ/mol
# GULP energy per Si atom -12402.545331 kJ/mol
# Density = 1.836153 g / cm^3
# Si number density = 18.403413 Si / 1000 Ang^3
#
#
#
# Elastic Constant Matrix: (Units=GPa)
#
#
# Indices 1 2 3 4 5 6 
#
# 1 128.7940 39.2072 64.3610 0.0000 0.0000 0.0000
# 2 39.2072 50.2043 44.8280 0.0000 0.0000 0.0000
# 3 64.3610 44.8280 140.9505 0.0000 0.0000 0.0000
# 4 0.0000 0.0000 0.0000 36.0042 0.0000 0.0000
# 5 0.0000 0.0000 0.0000 0.0000 5.6056 0.0000
# 6 0.0000 0.0000 0.0000 0.0000 0.0000 14.4868
#
#
#
# Elastic Compliance Matrix: (Units=1/GPa)
#
#
# Indices 1 2 3 4 5 6 
#
# 1 0.011156 -0.005815 -0.003245 0.000000 0.000000 0.000000
# 2 -0.005815 0.030850 -0.007156 0.000000 0.000000 0.000000
# 3 -0.003245 -0.007156 0.010852 0.000000 0.000000 0.000000
# 4 0.000000 0.000000 0.000000 0.027775 0.000000 0.000000
# 5 0.000000 0.000000 0.000000 0.000000 0.178393 0.000000
# 6 0.000000 0.000000 0.000000 0.000000 0.000000 0.069028
#
#
# Mechanical properties :
#
#
# Convention : Reuss Voigt Hill
#
# Bulk Modulus (GPa) = 48.95688 68.52679 58.74183
# Shear Modulus (GPa) = 13.61307 22.65616 18.13461
#
# Velocity S-wave (km/s) = 2.72270 3.51249 3.14250
# Velocity P-wave (km/s) = 6.04516 7.33259 6.71978
#
# Compressibility (1/GPa) = 0.02042614
#
# Stress axis : x y z
#
# Youngs Moduli (GPa) = 89.63811 32.41511 92.14729
#
# Poissons Ratio (x) = 0.18850 0.29898
# Poissons Ratio (y) = 0.52126 0.65942
# Poissons Ratio (z) = 0.29084 0.23197
#
# Static dielectric constant tensor:
#      x y z
#    x 3.366470 0.000000 0.000000 
#    y 0.000000 3.184640 0.000000 
#    z 0.000000 0.000000 3.475610 
# 
# 
# High freq. dielectric constant tensor:
#      x y z
#    x 1.704630 0.000000 0.000000 
#    y 0.000000 1.701380 0.000000 
#    z 0.000000 0.000000 1.726910 
# 
# From -- ./inp_files/27018.got.cif
#   From: 2010.03.12/outbox.cif.g09.slc.cpg/sg44_14_cif.got.tgz:27018.got - 2010.04.14 02:36:11.
