data_PCOD8188439
_publ_section_title
;
Structure prediction by ZEFSAII (Michael W. Deem and Ramdas Pophale) SiO2 
 PCOD8188439
Probable space group: I M M 2
;
_chemical_formula_sum "Si O2"
_cell_formula_units_Z 64
_cell_length_a 13.613240
_cell_length_b 9.343673
_cell_length_c 34.609009
_cell_angle_alpha 90.000000
_cell_angle_beta 90.000000
_cell_angle_gamma 90.000000
_cell_volume 4402.185065
_symmetry_space_group_name_H-M "I M M 2"
_symmetry_group_IT_number 44
_symmetry_cell_setting 'orthorhombic'
loop_
_space_group_symop_operation_xyz
x,y,z
-x,-y,z
-x,y,z
x,-y,z
1/2+x,1/2+y,1/2+z
1/2-x,1/2-y,1/2+z
1/2-x,1/2+y,1/2+z
1/2+x,1/2-y,1/2+z
loop_
_atom_site_type_symbol
_atom_site_label
_atom_site_fract_x
_atom_site_fract_y
_atom_site_fract_z
Si Si1 0.116647 0.336791 0.339900
Si Si2 0.611884 0.666677 0.152256
Si Si3 0.613303 0.332157 0.766883
Si Si4 0.386488 0.334613 0.612466
Si Si5 0.613960 0.170122 0.006589
Si Si6 0.221103 0.831792 0.573953
Si Si7 0.883603 0.341469 0.422791
Si Si8 0.777181 0.833701 0.190385
O O1 0.153676 0.500000 0.335736
O O2 0.159539 0.243507 0.304750
O O3 0.150262 0.269383 0.381910
O O4 0.000000 0.331455 0.337654
O O5 0.500000 0.718370 0.155969
O O6 0.623103 0.500000 0.161028
O O7 0.647853 0.702833 0.109137
O O8 0.675705 0.750325 0.183833
O O9 0.500000 0.289530 0.760234
O O10 0.624317 0.500000 0.773048
O O11 0.674002 0.278564 0.729873
O O12 0.500000 0.294953 0.608388
O O13 0.366265 0.500000 0.602124
O O14 0.327584 0.234542 0.582861
O O15 0.353964 0.301693 0.656218
O O16 0.500000 0.205576 0.014331
O O17 0.679690 0.256530 0.036203
O O18 0.631997 0.000000 0.010207
O O19 0.647481 0.228833 0.963787
O O20 0.231888 0.000000 0.566533
O O21 0.838776 0.500000 0.422013
O O22 0.000000 0.352415 0.423244
O O23 0.751391 0.000000 0.192765
#
# Coordination Sequence:
#
# PCOD8188439 Si02
#       8
#     8   8   8   8   8   8   8   8
#     4   8  13  22  36  53  74 102 134 162 188 223
#     4   9  18  31  43  55  76 105 132 161 199 236
#     4   9  16  25  37  55  81 108 130 157 194 231
#     4   9  17  30  46  60  76 102 136 170 200 231
#     4   9  16  26  41  59  79 106 139 170 197 229
#     4  10  19  29  41  59  83 107 131 162 201 242
#     4   7  11  21  36  53  74 101 132 164 194 222
#     4   9  17  28  42  60  79 101 132 166 197 230
#
# _framework density 14.538233
#
# number of rings (size 3 to 8) (size 9 to 14) (size 15 to 20)
#    0.000    3.250    0.000    2.625    0.000    3.750 
#    0.000    0.625    0.000    4.500    0.000    0.000 
#    0.000    1.000    0.000    9.000    0.000    6.000 
#
# Total GULP energy -396505.947049 kJ/mol
# GULP energy per Si atom -12390.810845 kJ/mol
# Density = 1.450514 g / cm^3
# Si number density = 14.538233 Si / 1000 Ang^3
#
#
#
# Elastic Constant Matrix: (Units=GPa)
#
#
# Indices 1 2 3 4 5 6 
#
# 1 79.1707 36.9236 54.7852 0.0000 0.0000 0.0000
# 2 36.9236 46.8001 52.1229 0.0000 0.0000 0.0000
# 3 54.7852 52.1229 142.8076 0.0000 0.0000 0.0000
# 4 0.0000 0.0000 0.0000 22.9715 0.0000 0.0000
# 5 0.0000 0.0000 0.0000 0.0000 18.1306 0.0000
# 6 0.0000 0.0000 0.0000 0.0000 0.0000 18.5202
#
#
#
# Elastic Compliance Matrix: (Units=1/GPa)
#
#
# Indices 1 2 3 4 5 6 
#
# 1 0.020904 -0.012740 -0.003370 0.000000 0.000000 0.000000
# 2 -0.012740 0.043767 -0.011087 0.000000 0.000000 0.000000
# 3 -0.003370 -0.011087 0.012342 0.000000 0.000000 0.000000
# 4 0.000000 0.000000 0.000000 0.043532 0.000000 0.000000
# 5 0.000000 0.000000 0.000000 0.000000 0.055155 0.000000
# 6 0.000000 0.000000 0.000000 0.000000 0.000000 0.053995
#
#
# Mechanical properties :
#
#
# Convention : Reuss Voigt Hill
#
# Bulk Modulus (GPa) = 44.20886 61.82684 53.01785
# Shear Modulus (GPa) = 17.14513 20.25423 18.69968
#
# Velocity S-wave (km/s) = 3.43784 3.73657 3.59031
# Velocity P-wave (km/s) = 6.79949 7.82530 7.33036
#
# Compressibility (1/GPa) = 0.02261990
#
# Stress axis : x y z
#
# Youngs Moduli (GPa) = 47.83708 22.84847 81.02634
#
# Poissons Ratio (x) = 0.29109 0.27303
# Poissons Ratio (y) = 0.60944 0.89833
# Poissons Ratio (z) = 0.16119 0.25332
#
# Static dielectric constant tensor:
#      x y z
#    x 2.565790 0.000000 0.000000 
#    y 0.000000 2.743130 0.000000 
#    z 0.000000 0.000000 3.143480 
# 
# 
# High freq. dielectric constant tensor:
#      x y z
#    x 1.512880 0.000000 0.000000 
#    y 0.000000 1.544600 0.000000 
#    z 0.000000 0.000000 1.562350 
# 
# From -- ./inp_files/27525.got.cif
#   From: 2010.03.12/outbox.cif.g09.slc.cpg/sg44_14_cif.got.tgz:27525.got - 2010.04.14 02:36:11.
