data_PCOD8188337
_publ_section_title
;
Structure prediction by ZEFSAII (Michael W. Deem and Ramdas Pophale) SiO2 
 PCOD8188337
Probable space group: I M M 2
;
_chemical_formula_sum "Si O2"
_cell_formula_units_Z 48
_cell_length_a 8.282192
_cell_length_b 28.775077
_cell_length_c 10.398367
_cell_angle_alpha 90.000000
_cell_angle_beta 90.000000
_cell_angle_gamma 90.000000
_cell_volume 2478.146233
_symmetry_space_group_name_H-M "I M M 2"
_symmetry_group_IT_number 44
_symmetry_cell_setting 'orthorhombic'
loop_
_space_group_symop_operation_xyz
x,y,z
-x,-y,z
-x,y,z
x,-y,z
1/2+x,1/2+y,1/2+z
1/2-x,1/2-y,1/2+z
1/2-x,1/2+y,1/2+z
1/2+x,1/2-y,1/2+z
loop_
_atom_site_type_symbol
_atom_site_label
_atom_site_fract_x
_atom_site_fract_y
_atom_site_fract_z
Si Si1 0.807799 0.050730 0.362120
Si Si2 0.308628 0.550375 0.572618
Si Si3 0.808032 0.805315 0.717343
Si Si4 0.191750 0.852309 0.978964
Si Si5 0.688552 0.200082 0.225990
Si Si6 0.311022 0.354928 0.966742
O O1 0.742121 0.057604 0.217177
O O2 0.738301 0.092833 0.449134
O O3 0.000000 0.053239 0.359917
O O4 0.751688 0.000000 0.415268
O O5 0.500000 0.549505 0.577383
O O6 0.246629 0.500000 0.519052
O O7 0.251611 0.593609 0.485119
O O8 0.747278 0.832351 0.843530
O O9 0.744645 0.752641 0.720245
O O10 0.732292 0.830763 0.591972
O O11 0.000000 0.805621 0.710184
O O12 0.000000 0.847404 0.996059
O O13 0.278026 0.823726 0.090375
O O14 0.500000 0.198858 0.257641
O O15 0.782427 0.174688 0.339320
O O16 0.500000 0.358831 0.989953
#
# Coordination Sequence:
#
# PCOD8188337 Si02
#       6
#     8   8   8   8   8   8
#     4   8  13  23  44  73  96 116 151 197 237 276
#     4   8  13  23  44  73  96 116 151 197 237 276
#     4   9  20  33  48  72 101 126 159 201 240 281
#     4  10  18  33  53  72  95 129 162 194 238 290
#     4  11  21  33  48  71  99 127 163 207 236 271
#     4  10  18  33  53  72  95 129 162 194 238 290
#
# _framework density 19.369316999999999
#
# number of rings (size 3 to 8) (size 9 to 14) (size 15 to 20)
#    0.000    2.667    1.667    2.500    0.000    0.000 
#    0.000    3.333    0.000    7.000    0.000    0.000 
#    0.000    2.667    0.000    0.000    0.000    0.000 
#
# Total GULP energy -297436.013250 kJ/mol
# GULP energy per Si atom -12393.167219 kJ/mol
# Density = 1.932523 g / cm^3
# Si number density = 19.369317 Si / 1000 Ang^3
#
#
#
# Elastic Constant Matrix: (Units=GPa)
#
#
# Indices 1 2 3 4 5 6 
#
# 1 6.9968 1.6014 -6.2687 -0.0001 0.0001 0.0001
# 2 1.6014 215.5176 82.5080 0.0005 0.0000 0.0001
# 3 -6.2687 82.5080 119.4409 0.0054 0.0014 0.0010
# 4 -0.0001 0.0005 0.0054 14.6340 0.0006 0.0005
# 5 0.0001 0.0000 0.0014 0.0006 9.5708 0.0004
# 6 0.0001 0.0001 0.0010 0.0005 0.0004 15.1503
#
#
#
# Elastic Compliance Matrix: (Units=1/GPa)
#
#
# Indices 1 2 3 4 5 6 
#
# 1 0.155139 -0.005805 0.012152 -0.000003 -0.000003 -0.000001
# 2 -0.005805 0.006525 -0.004812 0.000002 0.000001 0.000000
# 3 0.012152 -0.004812 0.012334 -0.000004 -0.000002 -0.000001
# 4 -0.000003 0.000002 -0.000004 0.068334 -0.000004 -0.000002
# 5 -0.000003 0.000001 -0.000002 -0.000004 0.104485 -0.000003
# 6 -0.000001 0.000000 -0.000001 -0.000002 -0.000003 0.066005
#
#
# Mechanical properties :
#
#
# Convention : Reuss Voigt Hill
#
# Bulk Modulus (GPa) = 5.64754 55.29298 30.47026
# Shear Modulus (GPa) = 10.66608 25.47866 18.07237
#
# Velocity S-wave (km/s) = 2.34918 3.63080 3.05789
# Velocity P-wave (km/s) = 3.20628 6.79600 5.31346
#
# Compressibility (1/GPa) = 0.17706833
#
# Stress axis : x y z
#
# Youngs Moduli (GPa) = 6.44585 153.24539 81.07366
#
# Poissons Ratio (x) = 0.88962 -0.98524
# Poissons Ratio (y) = 0.03742 0.39016
# Poissons Ratio (z) = -0.07833 0.73748
#
# Static dielectric constant tensor:
#      x y z
#    x 2.953160 0.000000 0.000000 
#    y 0.000000 4.246800 0.000000 
#    z 0.000000 0.000000 3.568160 
# 
# 
# High freq. dielectric constant tensor:
#      x y z
#    x 1.699270 0.000000 0.000000 
#    y 0.000000 1.780180 0.000000 
#    z 0.000000 0.000000 1.734770 
# 
# From -- ./inp_files/4861.got.cif
#   From: 2010.03.12/outbox.cif.g09.slc.cpg/sg44_3_cif.got.tgz:4861.got - 2010.04.14 02:36:11.
