data_PCOD8188425
_publ_section_title
;
Structure prediction by ZEFSAII (Michael W. Deem and Ramdas Pophale) SiO2 
 PCOD8188425
Probable space group: I M M 2
;
_chemical_formula_sum "Si O2"
_cell_formula_units_Z 64
_cell_length_a 22.367940
_cell_length_b 9.252898
_cell_length_c 20.096843
_cell_angle_alpha 90.000000
_cell_angle_beta 90.000000
_cell_angle_gamma 90.000000
_cell_volume 4159.408774
_symmetry_space_group_name_H-M "I M M 2"
_symmetry_group_IT_number 44
_symmetry_cell_setting 'orthorhombic'
loop_
_space_group_symop_operation_xyz
x,y,z
-x,-y,z
-x,y,z
x,-y,z
1/2+x,1/2+y,1/2+z
1/2-x,1/2-y,1/2+z
1/2-x,1/2+y,1/2+z
1/2+x,1/2-y,1/2+z
loop_
_atom_site_type_symbol
_atom_site_label
_atom_site_fract_x
_atom_site_fract_y
_atom_site_fract_z
Si Si1 0.342285 0.836659 0.177770
Si Si2 0.247759 0.332462 0.110658
Si Si3 0.848901 0.168424 0.883903
Si Si4 0.740398 0.840700 0.306938
Si Si5 0.853993 0.664742 0.016042
Si Si6 0.663047 0.330945 0.711151
Si Si7 0.068915 0.831687 0.760583
Si Si8 0.430767 0.167887 0.643715
O O1 0.310862 0.753160 0.115690
O O2 0.296942 0.832571 0.239038
O O3 0.403331 0.757181 0.199068
O O4 0.357040 0.000000 0.155702
O O5 0.259268 0.500000 0.127995
O O6 0.215544 0.315938 0.038843
O O7 0.201586 0.267184 0.162470
O O8 0.784073 0.227090 0.860392
O O9 0.899027 0.209767 0.829735
O O10 0.842386 0.000000 0.894186
O O11 0.868503 0.236285 0.953303
O O12 0.809642 0.811114 0.285896
O O13 0.733967 0.000000 0.338847
O O14 0.865977 0.500000 0.995290
O O15 0.899553 0.710886 0.074244
O O16 0.665329 0.500000 0.690709
O O17 0.596165 0.266316 0.703946
O O18 0.000000 0.788504 0.767654
O O19 0.077693 0.000000 0.744899
O O20 0.500000 0.205293 0.637622
O O21 0.419450 0.000000 0.660272
#
# Coordination Sequence:
#
# PCOD8188425 Si02
#       8
#     8   8   8   8   8   8   8   8
#     4   9  16  26  42  63  82 101 131 173 216 252
#     4   9  16  27  43  60  79 106 136 167 209 257
#     4  10  19  28  41  60  81 109 145 180 210 241
#     4   8  15  27  41  57  79 104 130 165 211 257
#     4   9  18  30  42  57  81 113 145 175 207 245
#     4   9  16  26  42  63  82 102 132 172 215 251
#     4   9  18  31  43  57  82 115 147 176 207 247
#     4   9  18  31  44  59  82 114 148 176 205 246
#
# _framework density 15.386803
#
# number of rings (size 3 to 8) (size 9 to 14) (size 15 to 20)
#    0.000    3.000    0.000    3.000    0.000    7.500 
#    0.000    0.000    0.000    0.000    0.000    0.000 
#    0.000    1.000    0.000    5.500    0.000    4.375 
#
# Total GULP energy -396571.485146 kJ/mol
# GULP energy per Si atom -12392.858911 kJ/mol
# Density = 1.535178 g / cm^3
# Si number density = 15.386803 Si / 1000 Ang^3
#
#
#
# Elastic Constant Matrix: (Units=GPa)
#
#
# Indices 1 2 3 4 5 6 
#
# 1 100.2218 54.8859 46.3653 0.0000 0.0000 0.0000
# 2 54.8859 85.3171 25.9406 0.0000 0.0000 0.0000
# 3 46.3653 25.9406 23.6845 0.0000 0.0000 0.0000
# 4 0.0000 0.0000 0.0000 24.4670 0.0000 0.0000
# 5 0.0000 0.0000 0.0000 0.0000 15.7490 0.0000
# 6 0.0000 0.0000 0.0000 0.0000 0.0000 22.6917
#
#
#
# Elastic Compliance Matrix: (Units=1/GPa)
#
#
# Indices 1 2 3 4 5 6 
#
# 1 0.109169 -0.007873 -0.205088 0.000000 0.000000 0.000000
# 2 -0.007873 0.018141 -0.004456 0.000000 0.000000 0.000000
# 3 -0.205088 -0.004456 0.448587 0.000000 0.000000 0.000000
# 4 0.000000 0.000000 0.000000 0.040871 0.000000 0.000000
# 5 0.000000 0.000000 0.000000 0.000000 0.063496 0.000000
# 6 0.000000 0.000000 0.000000 0.000000 0.000000 0.044069
#
#
# Mechanical properties :
#
#
# Convention : Reuss Voigt Hill
#
# Bulk Modulus (GPa) = 7.08907 51.51189 29.30048
# Shear Modulus (GPa) = 4.14529 18.05029 11.09779
#
# Velocity S-wave (km/s) = 1.64314 3.42877 2.68853
# Velocity P-wave (km/s) = 2.86655 7.01612 5.35925
#
# Compressibility (1/GPa) = 0.14106217
#
# Stress axis : x y z
#
# Youngs Moduli (GPa) = 9.16013 55.12429 2.22922
#
# Poissons Ratio (x) = 0.43401 0.45719
# Poissons Ratio (y) = 0.07212 0.00993
# Poissons Ratio (z) = 1.87863 0.24563
#
# Static dielectric constant tensor:
#      x y z
#    x 3.119570 0.000000 0.000000 
#    y 0.000000 3.094270 0.000000 
#    z 0.000000 0.000000 2.746540 
# 
# 
# High freq. dielectric constant tensor:
#      x y z
#    x 1.574090 0.000000 0.000000 
#    y 0.000000 1.603630 0.000000 
#    z 0.000000 0.000000 1.546190 
# 
# From -- ./inp_files/22346.got.cif
#   From: 2010.03.12/outbox.cif.g09.slc.cpg/sg44_12_cif.got.tgz:22346.got - 2010.04.14 02:36:11.
