data_PCOD8188897
_publ_section_title
;
Structure prediction by ZEFSAII (Michael W. Deem and Ramdas Pophale) SiO2 
 PCOD8188897
Probable space group: I M M 2
;
_chemical_formula_sum "Si O2"
_cell_formula_units_Z 48
_cell_length_a 16.258499
_cell_length_b 9.029006
_cell_length_c 18.554703
_cell_angle_alpha 90.000000
_cell_angle_beta 90.000000
_cell_angle_gamma 90.000000
_cell_volume 2723.794869
_symmetry_space_group_name_H-M "I M M 2"
_symmetry_group_IT_number 44
_symmetry_cell_setting 'orthorhombic'
loop_
_space_group_symop_operation_xyz
x,y,z
-x,-y,z
-x,y,z
x,-y,z
1/2+x,1/2+y,1/2+z
1/2-x,1/2-y,1/2+z
1/2-x,1/2+y,1/2+z
1/2+x,1/2-y,1/2+z
loop_
_atom_site_type_symbol
_atom_site_label
_atom_site_fract_x
_atom_site_fract_y
_atom_site_fract_z
Si Si1 0.731628 0.675042 0.068680
Si Si2 0.822339 0.828672 0.786510
Si Si3 0.660474 0.168917 0.703982
Si Si4 0.000000 0.824365 0.022611
Si Si5 0.095675 0.672190 0.657067
Si Si6 0.332803 0.324540 0.451174
Si Si7 0.500000 0.674230 0.685136
O O1 0.720104 0.500000 0.061503
O O2 0.801201 0.716632 0.127273
O O3 0.645259 0.743610 0.094294
O O4 0.758022 0.744860 0.992565
O O5 0.727493 0.804135 0.765762
O O6 0.882199 0.733711 0.736130
O O7 0.831734 0.775706 0.868265
O O8 0.847396 0.000000 0.776541
O O9 0.581867 0.267686 0.724164
O O10 0.631460 0.000000 0.701499
O O11 0.080817 0.765529 0.982266
O O12 0.000000 0.000000 0.022558
O O13 0.000000 0.763066 0.103710
O O14 0.118924 0.500000 0.654742
O O15 0.000000 0.699131 0.642080
O O16 0.322003 0.500000 0.460249
O O17 0.500000 0.500000 0.688599
#
# Coordination Sequence:
#
# PCOD8188897 Si02
#       7
#     8   8   8   4   8   8   4
#     4  10  20  34  54  78 104 138 177 215 263 314
#     4   9  20  35  55  79 106 140 176 212 260 315
#     4   9  18  33  49  73 104 136 171 210 254 302
#     4   9  18  29  47  79 109 134 165 204 255 307
#     4  10  21  36  55  79 106 137 177 222 266 312
#     4  10  19  34  54  78 109 141 173 211 258 313
#     4  11  19  29  51  79 101 130 171 212 253 303
#
# _framework density 17.622471999999998
#
# number of rings (size 3 to 8) (size 9 to 14) (size 15 to 20)
#    0.000    2.333    1.667    2.250    1.167    4.667 
#    0.000    0.417    1.833    0.000    0.000    0.000 
#    0.000    0.000    0.000    0.000    0.000    0.000 
#
# Total GULP energy -297652.716863 kJ/mol
# GULP energy per Si atom -12402.196536 kJ/mol
# Density = 1.758236 g / cm^3
# Si number density = 17.622472 Si / 1000 Ang^3
#
#
#
# Elastic Constant Matrix: (Units=GPa)
#
#
# Indices 1 2 3 4 5 6 
#
# 1 104.2264 49.0877 36.2935 0.0000 0.0000 0.0000
# 2 49.0877 74.0952 28.5284 0.0000 0.0000 0.0000
# 3 36.2935 28.5284 81.4369 0.0000 0.0000 0.0000
# 4 0.0000 0.0000 0.0000 26.3739 0.0000 0.0000
# 5 0.0000 0.0000 0.0000 0.0000 21.1779 0.0000
# 6 0.0000 0.0000 0.0000 0.0000 0.0000 29.9222
#
#
#
# Elastic Compliance Matrix: (Units=1/GPa)
#
#
# Indices 1 2 3 4 5 6 
#
# 1 0.014834 -0.008417 -0.003662 0.000000 0.000000 0.000000
# 2 -0.008417 0.020377 -0.003387 0.000000 0.000000 0.000000
# 3 -0.003662 -0.003387 0.015098 0.000000 0.000000 0.000000
# 4 0.000000 0.000000 0.000000 0.037916 0.000000 0.000000
# 5 0.000000 0.000000 0.000000 0.000000 0.047219 0.000000
# 6 0.000000 0.000000 0.000000 0.000000 0.000000 0.033420
#
#
# Mechanical properties :
#
#
# Convention : Reuss Voigt Hill
#
# Bulk Modulus (GPa) = 51.61114 54.17528 52.89321
# Shear Modulus (GPa) = 24.24173 25.21808 24.72991
#
# Velocity S-wave (km/s) = 3.71295 3.78698 3.75015
# Velocity P-wave (km/s) = 6.90884 7.06616 6.98794
#
# Compressibility (1/GPa) = 0.01937566
#
# Stress axis : x y z
#
# Youngs Moduli (GPa) = 67.41190 49.07564 66.23368
#
# Poissons Ratio (x) = 0.41309 0.24257
# Poissons Ratio (y) = 0.56744 0.22432
# Poissons Ratio (z) = 0.24688 0.16621
#
# Static dielectric constant tensor:
#      x y z
#    x 3.246060 0.000000 0.000000 
#    y 0.000000 3.169400 0.000000 
#    z 0.000000 0.000000 3.193650 
# 
# 
# High freq. dielectric constant tensor:
#      x y z
#    x 1.682860 0.000000 0.000000 
#    y 0.000000 1.678050 0.000000 
#    z 0.000000 0.000000 1.664490 
# 
# From -- ./inp_files/20329.got.cif
#   From: 2010.03.12/outbox.cif.g09.slc.cpg/sg44_11_cif.got.tgz:20329.got - 2010.04.14 02:36:11.
