data_PCOD8188690
_publ_section_title
;
Structure prediction by ZEFSAII (Michael W. Deem and Ramdas Pophale) SiO2 
 PCOD8188690
Probable space group: I M M 2
;
_chemical_formula_sum "Si O2"
_cell_formula_units_Z 48
_cell_length_a 12.425228
_cell_length_b 9.164803
_cell_length_c 22.577764
_cell_angle_alpha 90.000000
_cell_angle_beta 90.000000
_cell_angle_gamma 90.000000
_cell_volume 2571.037611
_symmetry_space_group_name_H-M "I M M 2"
_symmetry_group_IT_number 44
_symmetry_cell_setting 'orthorhombic'
loop_
_space_group_symop_operation_xyz
x,y,z
-x,-y,z
-x,y,z
x,-y,z
1/2+x,1/2+y,1/2+z
1/2-x,1/2-y,1/2+z
1/2-x,1/2+y,1/2+z
1/2+x,1/2-y,1/2+z
loop_
_atom_site_type_symbol
_atom_site_label
_atom_site_fract_x
_atom_site_fract_y
_atom_site_fract_z
Si Si1 0.000000 0.673138 0.373981
Si Si2 0.617317 0.173347 0.295279
Si Si3 0.822210 0.327743 0.467934
Si Si4 0.118208 0.673158 0.597030
Si Si5 0.725473 0.673591 0.697085
Si Si6 0.500000 0.673610 0.746062
Si Si7 0.878405 0.669948 0.927965
O O1 0.895682 0.722085 0.412367
O O2 0.000000 0.500000 0.363314
O O3 0.000000 0.753593 0.310900
O O4 0.500000 0.224983 0.272528
O O5 0.708266 0.238019 0.252666
O O6 0.636523 0.230264 0.361456
O O7 0.620957 0.000000 0.296032
O O8 0.811600 0.500000 0.468014
O O9 0.872434 0.271896 0.529612
O O10 0.703709 0.259777 0.467574
O O11 0.124876 0.500000 0.599053
O O12 0.216273 0.735721 0.637760
O O13 0.000000 0.722976 0.620850
O O14 0.730497 0.500000 0.696543
O O15 0.602373 0.724819 0.706571
O O16 0.500000 0.500000 0.756546
O O17 0.850223 0.500000 0.931950
O O18 0.000000 0.698785 0.950262
#
# Coordination Sequence:
#
# PCOD8188690 Si02
#       7
#     4   8   8   8   8   4   8
#     4  10  20  34  52  74 106 142 175 212 256 306
#     4   8  13  23  41  65  90 118 153 192 236 286
#     4  10  19  32  50  74 101 131 171 215 254 299
#     4   9  16  29  48  69  96 129 165 208 258 305
#     4   9  16  26  43  69  98 124 155 200 251 299
#     4  10  20  32  48  76 106 130 165 212 260 312
#     4   9  18  32  49  71 102 134 164 202 251 307
#
# _framework density 18.669505999999998
#
# number of rings (size 3 to 8) (size 9 to 14) (size 15 to 20)
#    0.000    2.833    0.833    2.500    0.000    4.333 
#    1.500    0.000    0.000    1.000    0.000    0.000 
#    0.000    2.667    0.000    0.000    0.000    0.000 
#
# Total GULP energy -297385.042107 kJ/mol
# GULP energy per Si atom -12391.043421 kJ/mol
# Density = 1.862701 g / cm^3
# Si number density = 18.669506 Si / 1000 Ang^3
#
#
#
# Elastic Constant Matrix: (Units=GPa)
#
#
# Indices 1 2 3 4 5 6 
#
# 1 164.9554 20.9151 72.2250 0.0000 0.0000 0.0000
# 2 20.9151 13.4486 17.2939 0.0000 0.0000 0.0000
# 3 72.2250 17.2939 103.9604 0.0000 0.0000 0.0000
# 4 0.0000 0.0000 0.0000 17.4454 0.0000 0.0000
# 5 0.0000 0.0000 0.0000 0.0000 34.4833 0.0000
# 6 0.0000 0.0000 0.0000 0.0000 0.0000 20.9419
#
#
#
# Elastic Compliance Matrix: (Units=1/GPa)
#
#
# Indices 1 2 3 4 5 6 
#
# 1 0.009321 -0.007847 -0.005170 0.000000 0.000000 0.000000
# 2 -0.007847 0.101199 -0.011383 0.000000 0.000000 0.000000
# 3 -0.005170 -0.011383 0.015104 0.000000 0.000000 0.000000
# 4 0.000000 0.000000 0.000000 0.057322 0.000000 0.000000
# 5 0.000000 0.000000 0.000000 0.000000 0.029000 0.000000
# 6 0.000000 0.000000 0.000000 0.000000 0.000000 0.047751
#
#
# Mechanical properties :
#
#
# Convention : Reuss Voigt Hill
#
# Bulk Modulus (GPa) = 13.01681 55.91470 34.46576
# Shear Modulus (GPa) = 14.96536 26.03614 20.50075
#
# Velocity S-wave (km/s) = 2.83431 3.73846 3.31734
# Velocity P-wave (km/s) = 4.20696 6.97492 5.75969
#
# Compressibility (1/GPa) = 0.07682371
#
# Stress axis : x y z
#
# Youngs Moduli (GPa) = 107.28469 9.88155 66.20557
#
# Poissons Ratio (x) = 0.07754 0.34230
# Poissons Ratio (y) = 0.84191 0.75359
# Poissons Ratio (z) = 0.55468 0.11248
#
# Static dielectric constant tensor:
#      x y z
#    x 3.749270 0.000000 0.000000 
#    y 0.000000 2.777860 0.000000 
#    z 0.000000 0.000000 3.571350 
# 
# 
# High freq. dielectric constant tensor:
#      x y z
#    x 1.742060 0.000000 0.000000 
#    y 0.000000 1.655690 0.000000 
#    z 0.000000 0.000000 1.721900 
# 
# From -- ./inp_files/23733.got.cif
#   From: 2010.03.12/outbox.cif.g09.slc.cpg/sg44_12_cif.got.tgz:23733.got - 2010.04.14 02:36:11.
