data_PCOD8188770
_publ_section_title
;
Structure prediction by ZEFSAII (Michael W. Deem and Ramdas Pophale) SiO2 
 PCOD8188770
Probable space group: I M M 2
;
_chemical_formula_sum "Si O2"
_cell_formula_units_Z 64
_cell_length_a 15.906470
_cell_length_b 8.727618
_cell_length_c 23.058071
_cell_angle_alpha 90.000000
_cell_angle_beta 90.000000
_cell_angle_gamma 90.000000
_cell_volume 3201.050400
_symmetry_space_group_name_H-M "I M M 2"
_symmetry_group_IT_number 44
_symmetry_cell_setting 'orthorhombic'
loop_
_space_group_symop_operation_xyz
x,y,z
-x,-y,z
-x,y,z
x,-y,z
1/2+x,1/2+y,1/2+z
1/2-x,1/2-y,1/2+z
1/2-x,1/2+y,1/2+z
1/2+x,1/2-y,1/2+z
loop_
_atom_site_type_symbol
_atom_site_label
_atom_site_fract_x
_atom_site_fract_y
_atom_site_fract_z
Si Si1 0.088817 0.322315 0.805560
Si Si2 0.271201 0.181664 0.639044
Si Si3 0.404169 0.320523 0.549152
Si Si4 0.307346 0.177612 0.873378
Si Si5 0.737988 0.318847 0.758883
Si Si6 0.350199 0.177898 0.429875
Si Si7 0.403310 0.165830 0.979800
Si Si8 0.405644 0.321461 0.093962
O O1 0.091927 0.500000 0.790363
O O2 0.168856 0.249034 0.773148
O O3 0.089077 0.299863 0.874807
O O4 0.000000 0.251180 0.782827
O O5 0.336008 0.254750 0.593887
O O6 0.299506 0.234646 0.702961
O O7 0.173497 0.239706 0.632017
O O8 0.276908 0.000000 0.632290
O O9 0.500000 0.289478 0.571081
O O10 0.387640 0.500000 0.541999
O O11 0.394694 0.239889 0.487147
O O12 0.317205 0.278509 0.815376
O O13 0.231873 0.224222 0.915894
O O14 0.387120 0.217482 0.913681
O O15 0.300675 0.000000 0.855452
O O16 0.737043 0.500000 0.748821
O O17 0.326120 0.000000 0.438313
O O18 0.500000 0.141765 0.987909
O O19 0.358258 0.000000 0.990706
O O20 0.374996 0.287402 0.028247
O O21 0.500000 0.250419 0.108649
O O22 0.413966 0.500000 0.102240
#
# Coordination Sequence:
#
# PCOD8188770 Si02
#       8
#     8   8   8   8   8   8   8   8
#     4   8  15  29  50  77 107 138 172 211 258 315
#     4  11  23  39  59  80 107 147 190 231 277 331
#     4  11  24  40  58  82 112 145 184 233 285 334
#     4  10  19  33  54  78 107 142 180 224 274 328
#     4  10  21  36  54  76 104 139 182 230 275 324
#     4  10  19  32  54  83 114 145 177 217 267 327
#     4   9  18  32  51  77 106 135 171 216 265 318
#     4   9  19  35  55  82 115 147 179 218 267 324
#
# _framework density 19.993438000000001
#
# number of rings (size 3 to 8) (size 9 to 14) (size 15 to 20)
#    0.000    2.250    0.000    3.750    0.000    6.000 
#    0.000    0.625    0.000    9.375    0.000    0.000 
#    0.000    0.000    0.000    0.000    0.000    0.000 
#
# Total GULP energy -396438.313831 kJ/mol
# GULP energy per Si atom -12388.697307 kJ/mol
# Density = 1.994793 g / cm^3
# Si number density = 19.993438 Si / 1000 Ang^3
#
#
#
# Elastic Constant Matrix: (Units=GPa)
#
#
# Indices 1 2 3 4 5 6 
#
# 1 46.2504 21.2081 28.3552 0.0000 0.0000 0.0000
# 2 21.2081 45.9113 19.7462 0.0000 0.0000 0.0000
# 3 28.3552 19.7462 89.7438 0.0000 0.0000 0.0000
# 4 0.0000 0.0000 0.0000 34.0005 0.0000 0.0000
# 5 0.0000 0.0000 0.0000 0.0000 16.0497 0.0000
# 6 0.0000 0.0000 0.0000 0.0000 0.0000 23.2828
#
#
#
# Elastic Compliance Matrix: (Units=1/GPa)
#
#
# Indices 1 2 3 4 5 6 
#
# 1 0.031347 -0.011289 -0.007421 0.000000 0.000000 0.000000
# 2 -0.011289 0.028123 -0.002621 0.000000 0.000000 0.000000
# 3 -0.007421 -0.002621 0.014064 0.000000 0.000000 0.000000
# 4 0.000000 0.000000 0.000000 0.029411 0.000000 0.000000
# 5 0.000000 0.000000 0.000000 0.000000 0.062306 0.000000
# 6 0.000000 0.000000 0.000000 0.000000 0.000000 0.042950
#
#
# Mechanical properties :
#
#
# Convention : Reuss Voigt Hill
#
# Bulk Modulus (GPa) = 32.39019 35.61384 34.00201
# Shear Modulus (GPa) = 19.14572 22.17301 20.65936
#
# Velocity S-wave (km/s) = 3.09787 3.33380 3.21800
# Velocity P-wave (km/s) = 5.38807 5.71580 5.55435
#
# Compressibility (1/GPa) = 0.03087355
#
# Stress axis : x y z
#
# Youngs Moduli (GPa) = 31.90058 35.55781 71.10297
#
# Poissons Ratio (x) = 0.40141 0.52762
# Poissons Ratio (y) = 0.36012 0.18637
# Poissons Ratio (z) = 0.23672 0.09320
#
# Static dielectric constant tensor:
#      x y z
#    x 3.928360 0.000000 0.000000 
#    y 0.000000 3.743310 0.000000 
#    z 0.000000 0.000000 3.627960 
# 
# 
# High freq. dielectric constant tensor:
#      x y z
#    x 1.772750 0.000000 0.000000 
#    y 0.000000 1.770690 0.000000 
#    z 0.000000 0.000000 1.776610 
# 
# From -- ./inp_files/25773.got.cif
#   From: 2010.03.12/outbox.cif.g09.slc.cpg/sg44_13_cif.got.tgz:25773.got - 2010.04.14 02:36:11.
