data_PCOD8188999
_publ_section_title
;
Structure prediction by ZEFSAII (Michael W. Deem and Ramdas Pophale) SiO2 
 PCOD8188999
Probable space group: I M M 2
;
_chemical_formula_sum "Si O2"
_cell_formula_units_Z 64
_cell_length_a 24.634432
_cell_length_b 8.849704
_cell_length_c 15.173199
_cell_angle_alpha 90.000000
_cell_angle_beta 90.000000
_cell_angle_gamma 90.000000
_cell_volume 3307.870140
_symmetry_space_group_name_H-M "I M M 2"
_symmetry_group_IT_number 44
_symmetry_cell_setting 'orthorhombic'
loop_
_space_group_symop_operation_xyz
x,y,z
-x,-y,z
-x,y,z
x,-y,z
1/2+x,1/2+y,1/2+z
1/2-x,1/2-y,1/2+z
1/2-x,1/2+y,1/2+z
1/2+x,1/2-y,1/2+z
loop_
_atom_site_type_symbol
_atom_site_label
_atom_site_fract_x
_atom_site_fract_y
_atom_site_fract_z
Si Si1 0.062539 0.172249 0.454760
Si Si2 0.781437 0.671811 0.666809
Si Si3 0.255447 0.172338 0.364513
Si Si4 0.836827 0.823367 0.144297
Si Si5 0.856226 0.678288 0.323199
Si Si6 0.898408 0.680227 0.629341
Si Si7 0.352540 0.325112 0.450750
Si Si8 0.437929 0.325239 0.305828
O O1 0.094609 0.268385 0.383301
O O2 0.068803 0.242759 0.551332
O O3 0.000000 0.180036 0.427639
O O4 0.083478 0.000000 0.455589
O O5 0.781243 0.500000 0.636017
O O6 0.785986 0.688446 0.771767
O O7 0.724693 0.744407 0.634055
O O8 0.836168 0.744306 0.626236
O O9 0.199770 0.264859 0.365546
O O10 0.296766 0.235820 0.436430
O O11 0.241098 0.000000 0.386640
O O12 0.866572 0.739597 0.224339
O O13 0.832986 0.000000 0.170344
O O14 0.869253 0.797783 0.053160
O O15 0.855067 0.500000 0.320343
O O16 0.900444 0.500000 0.619955
O O17 0.925970 0.724142 0.721182
O O18 0.339909 0.500000 0.433903
O O19 0.401218 0.269429 0.388110
O O20 0.500000 0.302003 0.335059
O O21 0.426046 0.500000 0.282914
#
# Coordination Sequence:
#
# PCOD8188999 Si02
#       8
#     8   8   8   8   8   8   8   8
#     4  11  25  44  63  85 115 153 198 245 297 355
#     4   8  16  31  51  78 114 152 184 226 283 342
#     4  10  19  35  57  84 119 154 189 235 292 350
#     4   9  19  37  58  83 120 157 192 237 293 349
#     4  11  23  40  62  88 117 150 195 244 294 351
#     4  11  21  35  57  87 119 154 196 242 293 348
#     4  10  20  34  57  86 116 156 202 245 288 344
#     4  10  21  37  55  80 118 159 199 244 291 344
#
# _framework density 19.347797
#
# number of rings (size 3 to 8) (size 9 to 14) (size 15 to 20)
#    0.000    2.000    1.250    3.375    1.750    3.250 
#    0.000    1.250    0.000    2.250    0.000    0.000 
#    0.000    0.000    0.000    0.000    0.000    0.000 
#
# Total GULP energy -396769.028552 kJ/mol
# GULP energy per Si atom -12399.032142 kJ/mol
# Density = 1.930376 g / cm^3
# Si number density = 19.347797 Si / 1000 Ang^3
#
#
#
# Elastic Constant Matrix: (Units=GPa)
#
#
# Indices 1 2 3 4 5 6 
#
# 1 86.1633 37.6222 51.8147 0.0000 0.0000 0.0000
# 2 37.6222 100.7876 49.6375 0.0000 0.0000 0.0000
# 3 51.8147 49.6375 119.1499 0.0000 0.0000 0.0000
# 4 0.0000 0.0000 0.0000 24.2532 0.0000 0.0000
# 5 0.0000 0.0000 0.0000 0.0000 27.1389 0.0000
# 6 0.0000 0.0000 0.0000 0.0000 0.0000 26.4250
#
#
#
# Elastic Compliance Matrix: (Units=1/GPa)
#
#
# Indices 1 2 3 4 5 6 
#
# 1 0.016551 -0.003313 -0.005817 0.000000 0.000000 0.000000
# 2 -0.003313 0.013146 -0.004036 0.000000 0.000000 0.000000
# 3 -0.005817 -0.004036 0.012604 0.000000 0.000000 0.000000
# 4 0.000000 0.000000 0.000000 0.041232 0.000000 0.000000
# 5 0.000000 0.000000 0.000000 0.000000 0.036848 0.000000
# 6 0.000000 0.000000 0.000000 0.000000 0.000000 0.037843
#
#
# Mechanical properties :
#
#
# Convention : Reuss Voigt Hill
#
# Bulk Modulus (GPa) = 62.62376 64.91662 63.77019
# Shear Modulus (GPa) = 26.33270 26.69852 26.51561
#
# Velocity S-wave (km/s) = 3.69320 3.71877 3.70600
# Velocity P-wave (km/s) = 7.11505 7.21556 7.16548
#
# Compressibility (1/GPa) = 0.01596838
#
# Stress axis : x y z
#
# Youngs Moduli (GPa) = 60.42051 76.06730 79.34095
#
# Poissons Ratio (x) = 0.25202 0.46154
# Poissons Ratio (y) = 0.20018 0.32021
# Poissons Ratio (z) = 0.35147 0.30700
#
# Static dielectric constant tensor:
#      x y z
#    x 3.553350 0.000000 0.000000 
#    y 0.000000 3.445710 0.000000 
#    z 0.000000 0.000000 3.512780 
# 
# 
# High freq. dielectric constant tensor:
#      x y z
#    x 1.746880 0.000000 0.000000 
#    y 0.000000 1.742610 0.000000 
#    z 0.000000 0.000000 1.753070 
# 
# From -- ./inp_files/16873.got.cif
#   From: 2010.03.12/outbox.cif.g09.slc.cpg/sg44_9_cif.got.tgz:16873.got - 2010.04.14 02:36:11.
