data_PCOD8188658
_publ_section_title
;
Structure prediction by ZEFSAII (Michael W. Deem and Ramdas Pophale) SiO2 
 PCOD8188658
Probable space group: I M M 2
;
_chemical_formula_sum "Si O2"
_cell_formula_units_Z 64
_cell_length_a 24.890925
_cell_length_b 9.463686
_cell_length_c 15.155848
_cell_angle_alpha 90.000000
_cell_angle_beta 90.000000
_cell_angle_gamma 90.000000
_cell_volume 3570.110016
_symmetry_space_group_name_H-M "I M M 2"
_symmetry_group_IT_number 44
_symmetry_cell_setting 'orthorhombic'
loop_
_space_group_symop_operation_xyz
x,y,z
-x,-y,z
-x,y,z
x,-y,z
1/2+x,1/2+y,1/2+z
1/2-x,1/2-y,1/2+z
1/2-x,1/2+y,1/2+z
1/2+x,1/2-y,1/2+z
loop_
_atom_site_type_symbol
_atom_site_label
_atom_site_fract_x
_atom_site_fract_y
_atom_site_fract_z
Si Si1 0.717237 0.841288 0.121040
Si Si2 0.239207 0.341745 0.418465
Si Si3 0.332469 0.333572 0.648479
Si Si4 0.600751 0.167830 0.147449
Si Si5 0.938829 0.836504 0.481753
Si Si6 0.359318 0.333611 0.458351
Si Si7 0.938091 0.338715 0.838358
Si Si8 0.852337 0.165077 0.339964
O O1 0.771974 0.765966 0.155590
O O2 0.661791 0.770633 0.154604
O O3 0.716570 0.000000 0.157444
O O4 0.715335 0.836495 0.015880
O O5 0.234050 0.500000 0.380293
O O6 0.301319 0.293564 0.417836
O O7 0.204440 0.237617 0.359059
O O8 0.323415 0.500000 0.633521
O O9 0.362474 0.278803 0.560429
O O10 0.366333 0.300518 0.737038
O O11 0.569913 0.244367 0.068518
O O12 0.570943 0.208216 0.237488
O O13 0.599745 0.000000 0.128405
O O14 0.900631 0.781129 0.402143
O O15 0.000000 0.817469 0.449421
O O16 0.926408 0.000000 0.503567
O O17 0.369588 0.500000 0.452491
O O18 0.405277 0.256954 0.404856
O O19 0.919385 0.500000 0.850410
O O20 0.000000 0.318742 0.862295
O O21 0.843155 0.000000 0.353165
#
# Coordination Sequence:
#
# PCOD8188658 Si02
#       8
#     8   8   8   8   8   8   8   8
#     4   8  14  27  48  73 101 132 161 199 248 298
#     4   9  17  31  50  75 106 134 164 210 259 302
#     4   8  16  31  51  76 105 134 168 209 254 305
#     4  10  19  33  55  78 100 135 178 211 249 309
#     4  10  21  35  49  72 109 143 170 212 264 303
#     4   9  19  36  56  76 102 137 175 213 258 309
#     4  10  22  37  53  77 106 134 173 223 263 297
#     4  10  19  31  52  78 103 136 176 213 253 307
#
# _framework density 17.926618999999999
#
# number of rings (size 3 to 8) (size 9 to 14) (size 15 to 20)
#    0.000    2.750    1.250    1.875    1.750    2.000 
#    0.000    1.250    0.000    3.000    0.000    0.000 
#    0.000    0.000    0.000    0.000    0.000    0.000 
#
# Total GULP energy -396608.779803 kJ/mol
# GULP energy per Si atom -12394.024369 kJ/mol
# Density = 1.788582 g / cm^3
# Si number density = 17.926619 Si / 1000 Ang^3
#
#
#
# Elastic Constant Matrix: (Units=GPa)
#
#
# Indices 1 2 3 4 5 6 
#
# 1 97.5441 36.4204 63.3154 0.0000 0.0000 0.0000
# 2 36.4204 39.2105 44.0793 0.0000 0.0000 0.0000
# 3 63.3154 44.0793 120.4632 0.0000 0.0000 0.0000
# 4 0.0000 0.0000 0.0000 22.2322 0.0000 0.0000
# 5 0.0000 0.0000 0.0000 0.0000 28.4415 0.0000
# 6 0.0000 0.0000 0.0000 0.0000 0.0000 27.0219
#
#
#
# Elastic Compliance Matrix: (Units=1/GPa)
#
#
# Indices 1 2 3 4 5 6 
#
# 1 0.017650 -0.010134 -0.005569 0.000000 0.000000 0.000000
# 2 -0.010134 0.049144 -0.012656 0.000000 0.000000 0.000000
# 3 -0.005569 -0.012656 0.015859 0.000000 0.000000 0.000000
# 4 0.000000 0.000000 0.000000 0.044980 0.000000 0.000000
# 5 0.000000 0.000000 0.000000 0.000000 0.035160 0.000000
# 6 0.000000 0.000000 0.000000 0.000000 0.000000 0.037007
#
#
# Mechanical properties :
#
#
# Convention : Reuss Voigt Hill
#
# Bulk Modulus (GPa) = 38.55689 60.53866 49.54777
# Shear Modulus (GPa) = 18.85633 23.09930 20.97781
#
# Velocity S-wave (km/s) = 3.24676 3.59353 3.42454
# Velocity P-wave (km/s) = 5.96742 7.14573 6.58299
#
# Compressibility (1/GPa) = 0.02593570
#
# Stress axis : x y z
#
# Youngs Moduli (GPa) = 56.65660 20.34839 63.05475
#
# Poissons Ratio (x) = 0.20621 0.35113
# Poissons Ratio (y) = 0.57416 0.79802
# Poissons Ratio (z) = 0.31550 0.25753
#
# Static dielectric constant tensor:
#      x y z
#    x 3.355300 0.000000 0.000000 
#    y 0.000000 3.030280 0.000000 
#    z 0.000000 0.000000 3.328730 
# 
# 
# High freq. dielectric constant tensor:
#      x y z
#    x 1.693230 0.000000 0.000000 
#    y 0.000000 1.660240 0.000000 
#    z 0.000000 0.000000 1.693290 
# 
# From -- ./inp_files/19468.got.cif
#   From: 2010.03.12/outbox.cif.g09.slc.cpg/sg44_10_cif.got.tgz:19468.got - 2010.04.14 02:36:11.
