data_PCOD8188378
_publ_section_title
;
Structure prediction by ZEFSAII (Michael W. Deem and Ramdas Pophale) SiO2 
 PCOD8188378
Probable space group: I M M 2
;
_chemical_formula_sum "Si O2"
_cell_formula_units_Z 64
_cell_length_a 17.814030
_cell_length_b 17.016182
_cell_length_c 11.588592
_cell_angle_alpha 90.000000
_cell_angle_beta 90.000000
_cell_angle_gamma 90.000000
_cell_volume 3512.812539
_symmetry_space_group_name_H-M "I M M 2"
_symmetry_group_IT_number 44
_symmetry_cell_setting 'orthorhombic'
loop_
_space_group_symop_operation_xyz
x,y,z
-x,-y,z
-x,y,z
x,-y,z
1/2+x,1/2+y,1/2+z
1/2-x,1/2-y,1/2+z
1/2-x,1/2+y,1/2+z
1/2+x,1/2-y,1/2+z
loop_
_atom_site_type_symbol
_atom_site_label
_atom_site_fract_x
_atom_site_fract_y
_atom_site_fract_z
Si Si1 0.216962 0.814436 0.053320
Si Si2 0.912504 0.090623 0.613454
Si Si3 0.165547 0.820080 0.809274
Si Si4 0.772144 0.589625 0.759366
Si Si5 0.166752 0.710249 0.233715
Si Si6 0.323902 0.306777 0.936047
Si Si7 0.586403 0.088703 0.595607
Si Si8 0.413497 0.157879 0.347726
O O1 0.253019 0.883284 0.129667
O O2 0.152504 0.771024 0.128511
O O3 0.181294 0.852761 0.938370
O O4 0.276956 0.746492 0.023496
O O5 0.872954 0.112533 0.733801
O O6 0.881779 0.140654 0.506487
O O7 0.000000 0.107875 0.625669
O O8 0.895651 0.000000 0.587301
O O9 0.243566 0.794777 0.751693
O O10 0.109722 0.746399 0.817824
O O11 0.747207 0.500000 0.773422
O O12 0.731520 0.639859 0.859019
O O13 0.861947 0.598369 0.774561
O O14 0.130661 0.747821 0.349737
O O15 0.131265 0.626128 0.203423
O O16 0.500000 0.087979 0.630840
O O17 0.600395 0.140190 0.482312
O O18 0.616056 0.000000 0.575866
O O19 0.500000 0.143490 0.313591
#
# Coordination Sequence:
#
# PCOD8188378 Si02
#       8
#     8   8   8   8   8   8   8   8
#     4  10  18  35  56  82 109 141 188 231 269 333
#     4  11  24  39  56  82 114 148 188 238 291 334
#     4  11  20  36  59  82 111 147 191 236 276 333
#     4  11  21  34  56  85 117 149 183 234 288 331
#     4  10  18  34  59  83 109 146 187 225 278 332
#     4  10  19  37  60  80 109 143 193 235 276 335
#     4  10  21  35  53  85 122 149 182 231 282 337
#     4  11  20  33  56  85 116 153 189 225 279 339
#
# _framework density 18.21902
#
# number of rings (size 3 to 8) (size 9 to 14) (size 15 to 20)
#    0.000    1.500    6.250    1.125    0.000    2.250 
#    0.000    1.875    0.000    0.750    0.000    7.000 
#    0.000    0.000    0.000    0.000    0.000    0.000 
#
# Total GULP energy -396690.587058 kJ/mol
# GULP energy per Si atom -12396.580846 kJ/mol
# Density = 1.817755 g / cm^3
# Si number density = 18.219020 Si / 1000 Ang^3
#
#
#
# Elastic Constant Matrix: (Units=GPa)
#
#
# Indices 1 2 3 4 5 6 
#
# 1 70.3188 33.7472 41.3482 0.0000 0.0000 0.0000
# 2 33.7472 83.1220 31.2046 0.0000 0.0000 0.0000
# 3 41.3482 31.2046 105.1782 0.0000 0.0000 0.0000
# 4 0.0000 0.0000 0.0000 27.5667 0.0000 0.0000
# 5 0.0000 0.0000 0.0000 0.0000 25.5790 0.0000
# 6 0.0000 0.0000 0.0000 0.0000 0.0000 28.1757
#
#
#
# Elastic Compliance Matrix: (Units=1/GPa)
#
#
# Indices 1 2 3 4 5 6 
#
# 1 0.020913 -0.006082 -0.006417 0.000000 0.000000 0.000000
# 2 -0.006082 0.015307 -0.002150 0.000000 0.000000 0.000000
# 3 -0.006417 -0.002150 0.012668 0.000000 0.000000 0.000000
# 4 0.000000 0.000000 0.000000 0.036276 0.000000 0.000000
# 5 0.000000 0.000000 0.000000 0.000000 0.039095 0.000000
# 6 0.000000 0.000000 0.000000 0.000000 0.000000 0.035492
#
#
# Mechanical properties :
#
#
# Convention : Reuss Voigt Hill
#
# Bulk Modulus (GPa) = 51.04655 52.35766 51.70211
# Shear Modulus (GPa) = 25.56520 26.41886 25.99203
#
# Velocity S-wave (km/s) = 3.75001 3.81211 3.78119
# Velocity P-wave (km/s) = 6.84319 6.94093 6.89223
#
# Compressibility (1/GPa) = 0.01958996
#
# Stress axis : x y z
#
# Youngs Moduli (GPa) = 47.81733 65.33002 78.93639
#
# Poissons Ratio (x) = 0.39731 0.50654
# Poissons Ratio (y) = 0.29080 0.16975
# Poissons Ratio (z) = 0.30685 0.14049
#
# Static dielectric constant tensor:
#      x y z
#    x 3.211680 0.000000 0.000000 
#    y 0.000000 3.359450 0.000000 
#    z 0.000000 0.000000 3.562420 
# 
# 
# High freq. dielectric constant tensor:
#      x y z
#    x 1.686740 0.000000 0.000000 
#    y 0.000000 1.700850 0.000000 
#    z 0.000000 0.000000 1.715310 
# 
# From -- ./inp_files/14063.got.cif
#   From: 2010.03.12/outbox.cif.g09.slc.cpg/sg44_8_cif.got.tgz:14063.got - 2010.04.14 02:36:11.
