data_PCOD8188280
_publ_section_title
;
Structure prediction by ZEFSAII (Michael W. Deem and Ramdas Pophale) SiO2 
 PCOD8188280
Probable space group: I M M 2
;
_chemical_formula_sum "Si O2"
_cell_formula_units_Z 46
_cell_length_a 16.758141
_cell_length_b 7.771879
_cell_length_c 20.781772
_cell_angle_alpha 90.000000
_cell_angle_beta 90.000000
_cell_angle_gamma 90.000000
_cell_volume 2706.664622
_symmetry_space_group_name_H-M "I M M 2"
_symmetry_group_IT_number 44
_symmetry_cell_setting 'orthorhombic'
loop_
_space_group_symop_operation_xyz
x,y,z
-x,-y,z
-x,y,z
x,-y,z
1/2+x,1/2+y,1/2+z
1/2-x,1/2-y,1/2+z
1/2-x,1/2+y,1/2+z
1/2+x,1/2-y,1/2+z
loop_
_atom_site_type_symbol
_atom_site_label
_atom_site_fract_x
_atom_site_fract_y
_atom_site_fract_z
Si Si1 0.000000 0.500000 0.844360
Si Si2 0.301290 0.309289 0.078381
Si Si3 0.000000 0.797277 0.945962
Si Si4 0.088095 0.796616 0.183947
Si Si5 0.406618 0.000000 0.102245
Si Si6 0.637031 0.298010 0.544354
Si Si7 0.353365 0.000000 0.249688
Si Si8 0.249628 0.690197 0.224600
O O1 0.000000 0.676824 0.884006
O O2 0.922776 0.500000 0.800610
O O3 0.337335 0.500000 0.067207
O O4 0.224740 0.282915 0.031837
O O5 0.269082 0.284801 0.150071
O O6 0.370074 0.168427 0.067256
O O7 0.921331 0.748488 0.986366
O O8 0.000000 0.000000 0.926957
O O9 0.099241 0.728803 0.110925
O O10 0.154128 0.715625 0.231703
O O11 0.000000 0.741135 0.207899
O O12 0.098449 0.000000 0.185516
O O13 0.500000 0.000000 0.089149
O O14 0.389711 0.000000 0.178249
O O15 0.648315 0.500000 0.549354
O O16 0.299517 0.168461 0.263716
O O17 0.273423 0.500000 0.249609
#
# Coordination Sequence:
#
# PCOD8188280 Si02
#       8
#     2   8   4   8   4   8   4   8
#     4  12  26  38  54  72  90 138 194 226 248 276
#     4   9  17  27  44  71  97 126 165 197 241 309
#     4  10  22  36  50  74 104 132 178 216 240 287
#     4   9  14  23  43  73 107 138 161 184 237 313
#     4  10  18  32  50  68  96 131 165 204 253 304
#     4   9  15  29  46  67 102 141 162 192 245 297
#     4  10  20  38  49  62  89 132 178 224 254 274
#     4   9  17  29  46  68  93 128 167 205 248 304
#
# _framework density 16.995086000000001
#
# number of rings (size 3 to 8) (size 9 to 14) (size 15 to 20)
#    0.000    2.609    3.043    0.000    1.217    1.391 
#    0.000    0.000    0.000    0.000    0.000    0.000 
#    0.000    2.783    0.348    0.000    0.000    0.000 
#
# Total GULP energy -285076.566220 kJ/mol
# GULP energy per Si atom -12394.633314 kJ/mol
# Density = 1.695640 g / cm^3
# Si number density = 16.995086 Si / 1000 Ang^3
#
#
#
# Elastic Constant Matrix: (Units=GPa)
#
#
# Indices 1 2 3 4 5 6 
#
# 1 149.1969 76.7136 34.5856 0.0000 0.0000 0.0000
# 2 76.7136 119.9930 31.6351 0.0000 0.0000 0.0000
# 3 34.5856 31.6351 40.8948 0.0000 0.0000 0.0000
# 4 0.0000 0.0000 0.0000 13.9957 0.0000 0.0000
# 5 0.0000 0.0000 0.0000 0.0000 12.2495 0.0000
# 6 0.0000 0.0000 0.0000 0.0000 0.0000 12.8707
#
#
#
# Elastic Compliance Matrix: (Units=1/GPa)
#
#
# Indices 1 2 3 4 5 6 
#
# 1 0.010659 -0.005575 -0.004702 0.000000 0.000000 0.000000
# 2 -0.005575 0.013385 -0.005639 0.000000 0.000000 0.000000
# 3 -0.004702 -0.005639 0.032792 0.000000 0.000000 0.000000
# 4 0.000000 0.000000 0.000000 0.071450 0.000000 0.000000
# 5 0.000000 0.000000 0.000000 0.000000 0.081636 0.000000
# 6 0.000000 0.000000 0.000000 0.000000 0.000000 0.077696
#
#
# Mechanical properties :
#
#
# Convention : Reuss Voigt Hill
#
# Bulk Modulus (GPa) = 39.99453 66.21704 53.10579
# Shear Modulus (GPa) = 15.25390 18.96653 17.11022
#
# Velocity S-wave (km/s) = 2.99916 3.34428 3.17641
# Velocity P-wave (km/s) = 5.96468 7.34570 6.69092
#
# Compressibility (1/GPa) = 0.02500342
#
# Stress axis : x y z
#
# Youngs Moduli (GPa) = 93.81765 74.71248 30.49532
#
# Poissons Ratio (x) = 0.41651 0.14339
# Poissons Ratio (y) = 0.52302 0.17197
# Poissons Ratio (z) = 0.44113 0.42132
#
# Static dielectric constant tensor:
#      x y z
#    x 3.296100 0.000000 0.000000 
#    y 0.000000 3.284060 0.000000 
#    z 0.000000 0.000000 2.565920 
# 
# 
# High freq. dielectric constant tensor:
#      x y z
#    x 1.661790 0.000000 0.000000 
#    y 0.000000 1.668700 0.000000 
#    z 0.000000 0.000000 1.573130 
# 
# From -- ./inp_files/24059.got.cif
#   From: 2010.03.12/outbox.cif.g09.slc.cpg/sg44_13_cif.got.tgz:24059.got - 2010.04.14 02:36:11.
