data_PCOD8188818
_publ_section_title
;
Structure prediction by ZEFSAII (Michael W. Deem and Ramdas Pophale) SiO2 
 PCOD8188818
Probable space group: I M M 2
;
_chemical_formula_sum "Si O2"
_cell_formula_units_Z 48
_cell_length_a 16.363924
_cell_length_b 9.163056
_cell_length_c 18.477341
_cell_angle_alpha 90.000000
_cell_angle_beta 90.000000
_cell_angle_gamma 90.000000
_cell_volume 2770.558141
_symmetry_space_group_name_H-M "I M M 2"
_symmetry_group_IT_number 44
_symmetry_cell_setting 'orthorhombic'
loop_
_space_group_symop_operation_xyz
x,y,z
-x,-y,z
-x,y,z
x,-y,z
1/2+x,1/2+y,1/2+z
1/2-x,1/2-y,1/2+z
1/2-x,1/2+y,1/2+z
1/2+x,1/2-y,1/2+z
loop_
_atom_site_type_symbol
_atom_site_label
_atom_site_fract_x
_atom_site_fract_y
_atom_site_fract_z
Si Si1 0.837846 0.328968 0.990550
Si Si2 0.000000 0.826911 0.959535
Si Si3 0.000000 0.171939 0.792963
Si Si4 0.299199 0.168827 0.067008
Si Si5 0.653469 0.168595 0.229647
Si Si6 0.728519 0.332208 0.854573
Si Si7 0.592094 0.829192 0.931835
O O1 0.853985 0.500000 0.000796
O O2 0.797911 0.292132 0.913049
O O3 0.921643 0.241452 0.998309
O O4 0.778643 0.270988 0.053460
O O5 0.000000 0.778787 0.876057
O O6 0.000000 0.000000 0.969674
O O7 0.920382 0.232182 0.754316
O O8 0.000000 0.000000 0.785294
O O9 0.330981 0.204427 0.146461
O O10 0.273197 0.000000 0.058913
O O11 0.370942 0.208676 0.010529
O O12 0.734890 0.205708 0.275816
O O13 0.629221 0.000000 0.241717
O O14 0.703438 0.500000 0.861397
O O15 0.646307 0.241009 0.868134
O O16 0.500000 0.766415 0.928664
O O17 0.591881 0.000000 0.917803
#
# Coordination Sequence:
#
# PCOD8188818 Si02
#       7
#     8   4   4   8   8   8   8
#     4  10  19  33  53  77 106 137 172 215 261 308
#     4  11  21  33  53  79 107 136 175 218 259 311
#     4  11  23  33  49  81 113 138 169 214 265 309
#     4   9  19  34  54  76 103 137 172 211 258 312
#     4  10  20  35  55  76 105 141 176 210 254 315
#     4   9  18  32  51  75 100 133 172 210 253 301
#     4   9  18  32  51  76 100 128 169 212 254 303
#
# _framework density 17.325028
#
# number of rings (size 3 to 8) (size 9 to 14) (size 15 to 20)
#    0.000    2.333    1.667    1.000    1.167    3.000 
#    0.000    0.000    1.833    0.000    0.000    0.000 
#    0.000    0.000    0.000    0.000    0.000    0.000 
#
# Total GULP energy -297661.330554 kJ/mol
# GULP energy per Si atom -12402.555440 kJ/mol
# Density = 1.728560 g / cm^3
# Si number density = 17.325028 Si / 1000 Ang^3
#
#
#
# Elastic Constant Matrix: (Units=GPa)
#
#
# Indices 1 2 3 4 5 6 
#
# 1 141.1316 54.1614 41.5155 0.0000 0.0000 0.0000
# 2 54.1614 60.5226 27.4023 0.0000 0.0000 0.0000
# 3 41.5155 27.4023 69.7829 0.0000 0.0000 0.0000
# 4 0.0000 0.0000 0.0000 24.6538 0.0000 0.0000
# 5 0.0000 0.0000 0.0000 0.0000 -5.8928 0.0000
# 6 0.0000 0.0000 0.0000 0.0000 0.0000 36.3946
#
#
#
# Elastic Compliance Matrix: (Units=1/GPa)
#
#
# Indices 1 2 3 4 5 6 
#
# 1 0.011412 -0.008682 -0.003380 0.000000 0.000000 0.000000
# 2 -0.008682 0.026701 -0.005320 0.000000 0.000000 0.000000
# 3 -0.003380 -0.005320 0.018430 0.000000 0.000000 0.000000
# 4 0.000000 0.000000 0.000000 0.040562 0.000000 0.000000
# 5 0.000000 0.000000 0.000000 0.000000 -0.169698 0.000000
# 6 0.000000 0.000000 0.000000 0.000000 0.000000 0.027477
#
#
# Mechanical properties :
#
#
# Convention : Reuss Voigt Hill
#
# Bulk Modulus (GPa) = 45.91534 57.51060 51.71297
# Shear Modulus (GPa) = -1615.81092 20.92164 -797.44464
#
# Velocity S-wave (km/s) = -30.57238 3.47882 -21.47752
# Velocity P-wave (km/s) = 34.92373 7.02876 24.18950
#
# Compressibility (1/GPa) = 0.02177921
#
# Stress axis : x y z
#
# Youngs Moduli (GPa) = 87.62992 37.45208 54.25986
#
# Poissons Ratio (x) = 0.32516 0.18339
# Poissons Ratio (y) = 0.76080 0.28865
# Poissons Ratio (z) = 0.29617 0.19924
#
# Static dielectric constant tensor:
#      x y z
#    x 3.299940 0.000000 0.000000 
#    y 0.000000 3.218010 0.000000 
#    z 0.000000 0.000000 3.152020 
# 
# 
# High freq. dielectric constant tensor:
#      x y z
#    x 1.670040 0.000000 0.000000 
#    y 0.000000 1.670590 0.000000 
#    z 0.000000 0.000000 1.652910 
# 
# From -- ./inp_files/20332.got.cif
#   From: 2010.03.12/outbox.cif.g09.slc.cpg/sg44_11_cif.got.tgz:20332.got - 2010.04.14 02:36:11.
