data_PCOD8188391
_publ_section_title
;
Structure prediction by ZEFSAII (Michael W. Deem and Ramdas Pophale) SiO2 
 PCOD8188391
Probable space group: I M M 2
;
_chemical_formula_sum "Si O2"
_cell_formula_units_Z 64
_cell_length_a 8.740178
_cell_length_b 30.693310
_cell_length_c 11.910896
_cell_angle_alpha 90.000000
_cell_angle_beta 90.000000
_cell_angle_gamma 90.000000
_cell_volume 3195.276430
_symmetry_space_group_name_H-M "I M M 2"
_symmetry_group_IT_number 44
_symmetry_cell_setting 'orthorhombic'
loop_
_space_group_symop_operation_xyz
x,y,z
-x,-y,z
-x,y,z
x,-y,z
1/2+x,1/2+y,1/2+z
1/2-x,1/2-y,1/2+z
1/2-x,1/2+y,1/2+z
1/2+x,1/2-y,1/2+z
loop_
_atom_site_type_symbol
_atom_site_label
_atom_site_fract_x
_atom_site_fract_y
_atom_site_fract_z
Si Si1 0.821412 0.126637 0.860890
Si Si2 0.678541 0.202630 0.005899
Si Si3 0.673804 0.951476 0.985531
Si Si4 0.324874 0.920070 0.225589
Si Si5 0.321267 0.301631 0.965903
Si Si6 0.321602 0.330175 0.721125
Si Si7 0.319170 0.127010 0.617059
Si Si8 0.681447 0.047978 0.466669
O O1 0.770957 0.168732 0.930525
O O2 0.787189 0.082743 0.929286
O O3 0.735096 0.124793 0.743742
O O4 0.000000 0.129904 0.837699
O O5 0.500000 0.192496 0.991761
O O6 0.721751 0.251021 0.968009
O O7 0.726148 0.199349 0.135560
O O8 0.500000 0.938920 0.952053
O O9 0.713984 0.000000 0.942132
O O10 0.689739 0.952422 0.120541
O O11 0.500000 0.903635 0.240202
O O12 0.214328 0.880191 0.196992
O O13 0.266908 0.943410 0.338563
O O14 0.500000 0.309138 0.985517
O O15 0.266291 0.319138 0.845978
O O16 0.233823 0.327781 0.062371
O O17 0.500000 0.320566 0.703759
O O18 0.500000 0.125630 0.614586
O O19 0.251167 0.085423 0.548319
O O20 0.500000 0.048026 0.474042
O O21 0.743874 0.000000 0.502267
#
# Coordination Sequence:
#
# PCOD8188391 Si02
#       8
#     8   8   8   8   8   8   8   8
#     4  12  26  43  62  88 124 165 206 257 316 367
#     4  11  24  43  65  91 121 161 209 255 306 367
#     4  10  21  38  63  93 124 162 207 254 304 365
#     4  10  18  34  61  92 124 159 198 247 300 360
#     4  10  24  43  63  91 127 161 199 252 310 367
#     4  11  22  38  62  93 128 162 196 249 311 365
#     4  11  23  40  64  91 121 162 209 255 304 363
#     4   9  18  34  59  92 123 154 199 248 294 350
#
# _framework density 20.029565999999999
#
# number of rings (size 3 to 8) (size 9 to 14) (size 15 to 20)
#    0.000    1.500    2.500    2.625    1.750    3.750 
#    0.000    1.250    0.000    3.750    0.000    0.000 
#    0.000    0.000    0.000    0.000    0.000    0.000 
#
# Total GULP energy -396889.836887 kJ/mol
# GULP energy per Si atom -12402.807403 kJ/mol
# Density = 1.998398 g / cm^3
# Si number density = 20.029566 Si / 1000 Ang^3
#
#
#
# Elastic Constant Matrix: (Units=GPa)
#
#
# Indices 1 2 3 4 5 6 
#
# 1 35.9385 37.9219 14.3279 0.0005 0.0006 0.0004
# 2 37.9219 116.2782 40.0804 0.0008 0.0007 0.0003
# 3 14.3279 40.0804 108.7146 0.0037 0.0020 0.0016
# 4 0.0005 0.0008 0.0037 21.0253 0.0011 0.0010
# 5 0.0006 0.0007 0.0020 0.0011 30.7577 0.0008
# 6 0.0004 0.0003 0.0016 0.0010 0.0008 23.1188
#
#
#
# Elastic Compliance Matrix: (Units=1/GPa)
#
#
# Indices 1 2 3 4 5 6 
#
# 1 0.042455 -0.013652 -0.000562 0.000000 0.000000 -0.000001
# 2 -0.013652 0.014242 -0.003451 0.000000 0.000000 0.000000
# 3 -0.000562 -0.003451 0.010545 -0.000002 -0.000001 -0.000001
# 4 0.000000 0.000000 -0.000002 0.047562 -0.000002 -0.000002
# 5 0.000000 0.000000 -0.000001 -0.000002 0.032512 -0.000001
# 6 -0.000001 0.000000 -0.000001 -0.000002 -0.000001 0.043255
#
#
# Mechanical properties :
#
#
# Convention : Reuss Voigt Hill
#
# Bulk Modulus (GPa) = 31.33748 49.51019 40.42384
# Shear Modulus (GPa) = 21.13817 26.22044 23.67930
#
# Velocity S-wave (km/s) = 3.25214 3.62206 3.44207
# Velocity P-wave (km/s) = 5.45724 6.50112 6.00192
#
# Compressibility (1/GPa) = 0.03191067
#
# Stress axis : x y z
#
# Youngs Moduli (GPa) = 23.55441 70.21418 94.83217
#
# Poissons Ratio (x) = 0.95857 0.05330
# Poissons Ratio (y) = 0.32157 0.32731
# Poissons Ratio (z) = 0.01324 0.24234
#
# Static dielectric constant tensor:
#      x y z
#    x 3.453540 0.000000 0.000000 
#    y 0.000000 3.779210 0.000000 
#    z 0.000000 0.000000 3.781870 
# 
# 
# High freq. dielectric constant tensor:
#      x y z
#    x 1.764850 0.000000 0.000000 
#    y 0.000000 1.790650 0.000000 
#    z 0.000000 0.000000 1.789860 
# 
# From -- ./inp_files/11516.got.cif
#   From: 2010.03.12/outbox.cif.g09.slc.cpg/sg44_6_cif.got.tgz:11516.got - 2010.04.14 02:36:11.
