data_PCOD8188586
_publ_section_title
;
Structure prediction by ZEFSAII (Michael W. Deem and Ramdas Pophale) SiO2 
 PCOD8188586
Probable space group: I M M 2
;
_chemical_formula_sum "Si O2"
_cell_formula_units_Z 64
_cell_length_a 27.616827
_cell_length_b 8.930390
_cell_length_c 14.411087
_cell_angle_alpha 90.000000
_cell_angle_beta 90.000000
_cell_angle_gamma 90.000000
_cell_volume 3554.192490
_symmetry_space_group_name_H-M "I M M 2"
_symmetry_group_IT_number 44
_symmetry_cell_setting 'orthorhombic'
loop_
_space_group_symop_operation_xyz
x,y,z
-x,-y,z
-x,y,z
x,-y,z
1/2+x,1/2+y,1/2+z
1/2-x,1/2-y,1/2+z
1/2-x,1/2+y,1/2+z
1/2+x,1/2-y,1/2+z
loop_
_atom_site_type_symbol
_atom_site_label
_atom_site_fract_x
_atom_site_fract_y
_atom_site_fract_z
Si Si1 0.233600 0.335385 0.055330
Si Si2 0.175563 0.325116 0.612608
Si Si3 0.143557 0.673886 0.410706
Si Si4 0.827471 0.823123 0.795186
Si Si5 0.556369 0.326763 0.599378
Si Si6 0.733202 0.334338 0.845948
Si Si7 0.554647 0.827255 0.789186
Si Si8 0.865613 0.323023 0.978483
O O1 0.238100 0.500000 0.103007
O O2 0.267125 0.215974 0.107849
O O3 0.250760 0.349748 0.950820
O O4 0.177638 0.281448 0.051007
O O5 0.170329 0.500000 0.631840
O O6 0.148512 0.275116 0.517921
O O7 0.150536 0.234924 0.697193
O O8 0.157009 0.500000 0.403278
O O9 0.180109 0.760740 0.342362
O O10 0.089258 0.708749 0.376349
O O11 0.771545 0.770496 0.793784
O O12 0.857953 0.753346 0.878949
O O13 0.830746 0.000000 0.802375
O O14 0.500000 0.297583 0.580858
O O15 0.570175 0.500000 0.591545
O O16 0.570794 0.270743 0.701564
O O17 0.584558 0.235083 0.521031
O O18 0.731858 0.500000 0.799908
O O19 0.500000 0.787975 0.820578
O O20 0.559176 0.000000 0.759216
O O21 0.867458 0.500000 0.962271
#
# Coordination Sequence:
#
# PCOD8188586 Si02
#       8
#     8   8   8   8   8   8   8   8
#     4   8  16  30  46  67  95 126 161 202 244 288
#     4  10  19  31  48  71 101 137 174 210 248 295
#     4   9  18  32  51  75 102 133 170 212 255 300
#     4  11  21  33  50  72 102 138 173 210 251 296
#     4  10  21  36  54  78 105 131 163 205 254 307
#     4   9  17  30  47  68  96 129 165 204 245 292
#     4   9  18  34  55  77 101 130 165 207 257 309
#     4  10  20  35  55  77 102 133 171 212 254 303
#
# _framework density 18.006903000000001
#
# number of rings (size 3 to 8) (size 9 to 14) (size 15 to 20)
#    0.000    2.500    0.000    3.375    0.000    6.250 
#    0.000    1.250    0.000    0.750    0.000    1.750 
#    0.000    0.000    0.000    0.000    0.000    0.000 
#
# Total GULP energy -396726.882769 kJ/mol
# GULP energy per Si atom -12397.715087 kJ/mol
# Density = 1.796592 g / cm^3
# Si number density = 18.006903 Si / 1000 Ang^3
#
#
#
# Elastic Constant Matrix: (Units=GPa)
#
#
# Indices 1 2 3 4 5 6 
#
# 1 87.1545 41.5421 52.3391 0.0000 0.0000 0.0000
# 2 41.5421 104.2114 52.4037 0.0000 0.0000 0.0000
# 3 52.3391 52.4037 99.9364 0.0000 0.0000 0.0000
# 4 0.0000 0.0000 0.0000 27.7947 0.0000 0.0000
# 5 0.0000 0.0000 0.0000 0.0000 23.6109 0.0000
# 6 0.0000 0.0000 0.0000 0.0000 0.0000 24.7511
#
#
#
# Elastic Compliance Matrix: (Units=1/GPa)
#
#
# Indices 1 2 3 4 5 6 
#
# 1 0.017497 -0.003214 -0.007478 0.000000 0.000000 0.000000
# 2 -0.003214 0.013623 -0.005460 0.000000 0.000000 0.000000
# 3 -0.007478 -0.005460 0.016786 0.000000 0.000000 0.000000
# 4 0.000000 0.000000 0.000000 0.035978 0.000000 0.000000
# 5 0.000000 0.000000 0.000000 0.000000 0.042353 0.000000
# 6 0.000000 0.000000 0.000000 0.000000 0.000000 0.040402
#
#
# Mechanical properties :
#
#
# Convention : Reuss Voigt Hill
#
# Bulk Modulus (GPa) = 64.09940 64.87469 64.48704
# Shear Modulus (GPa) = 24.49253 24.89917 24.69585
#
# Velocity S-wave (km/s) = 3.69206 3.72258 3.70735
# Velocity P-wave (km/s) = 7.33822 7.38801 7.36316
#
# Compressibility (1/GPa) = 0.01560077
#
# Stress axis : x y z
#
# Youngs Moduli (GPa) = 57.15337 73.40619 59.57436
#
# Poissons Ratio (x) = 0.23596 0.44549
# Poissons Ratio (y) = 0.18372 0.32527
# Poissons Ratio (z) = 0.42739 0.40079
#
# Static dielectric constant tensor:
#      x y z
#    x 3.300120 0.000000 0.000000 
#    y 0.000000 3.467280 0.000000 
#    z 0.000000 0.000000 3.325170 
# 
# 
# High freq. dielectric constant tensor:
#      x y z
#    x 1.672180 0.000000 0.000000 
#    y 0.000000 1.706110 0.000000 
#    z 0.000000 0.000000 1.690580 
# 
# From -- ./inp_files/19473.got.cif
#   From: 2010.03.12/outbox.cif.g09.slc.cpg/sg44_10_cif.got.tgz:19473.got - 2010.04.14 02:36:11.
