data_PCOD8188262
_publ_section_title
;
Structure prediction by ZEFSAII (Michael W. Deem and Ramdas Pophale) SiO2 
 PCOD8188262
Probable space group: I M M 2
;
_chemical_formula_sum "Si O2"
_cell_formula_units_Z 64
_cell_length_a 8.784475
_cell_length_b 28.628015
_cell_length_c 12.252072
_cell_angle_alpha 90.000000
_cell_angle_beta 90.000000
_cell_angle_gamma 90.000000
_cell_volume 3081.176576
_symmetry_space_group_name_H-M "I M M 2"
_symmetry_group_IT_number 44
_symmetry_cell_setting 'orthorhombic'
loop_
_space_group_symop_operation_xyz
x,y,z
-x,-y,z
-x,y,z
x,-y,z
1/2+x,1/2+y,1/2+z
1/2-x,1/2-y,1/2+z
1/2-x,1/2+y,1/2+z
1/2+x,1/2-y,1/2+z
loop_
_atom_site_type_symbol
_atom_site_label
_atom_site_fract_x
_atom_site_fract_y
_atom_site_fract_z
Si Si1 0.821716 0.052416 0.337420
Si Si2 0.831619 0.449555 0.377696
Si Si3 0.673194 0.071262 0.117247
Si Si4 0.319882 0.151851 0.396781
Si Si5 0.175994 0.691029 0.129125
Si Si6 0.674277 0.339823 0.531420
Si Si7 0.827965 0.134487 0.793685
Si Si8 0.178702 0.281507 0.696140
O O1 0.781333 0.050594 0.209760
O O2 0.743872 0.098499 0.391685
O O3 0.000000 0.059660 0.352708
O O4 0.775687 0.000000 0.384741
O O5 0.824049 0.500000 0.320996
O O6 0.803167 0.457385 0.506610
O O7 0.698155 0.419169 0.326551
O O8 0.000000 0.426928 0.361051
O O9 0.500000 0.069157 0.160593
O O10 0.713617 0.124677 0.092180
O O11 0.500000 0.146605 0.396691
O O12 0.266970 0.178902 0.506659
O O13 0.266269 0.185761 0.297188
O O14 0.205445 0.644551 0.199723
O O15 0.278869 0.726845 0.202098
O O16 0.000000 0.705860 0.129297
O O17 0.500000 0.353513 0.554823
O O18 0.702844 0.334918 0.402549
O O19 0.722102 0.291549 0.586996
O O20 0.000000 0.140551 0.751237
O O21 0.000000 0.287493 0.678438
#
# Coordination Sequence:
#
# PCOD8188262 Si02
#       8
#     8   8   8   8   8   8   8   8
#     4  11  23  37  58  90 126 165 210 259 314 376
#     4   9  18  33  55  84 118 159 206 253 303 362
#     4  10  18  31  53  84 122 161 199 245 301 362
#     4  10  24  45  66  90 125 164 208 263 311 370
#     4  11  25  44  65  90 121 161 208 255 310 371
#     4  10  20  35  57  87 123 159 195 242 296 354
#     4  10  22  39  59  86 122 159 200 250 301 356
#     4  11  23  40  64  94 123 156 198 246 308 370
#
# _framework density 20.771284999999999
#
# number of rings (size 3 to 8) (size 9 to 14) (size 15 to 20)
#    0.000    1.750    1.250    2.625    1.750    5.250 
#    0.000    0.625    0.000    0.750    0.000    0.000 
#    0.000    0.000    0.000    0.000    0.000    0.000 
#
# Total GULP energy -396485.901393 kJ/mol
# GULP energy per Si atom -12390.184419 kJ/mol
# Density = 2.072401 g / cm^3
# Si number density = 20.771285 Si / 1000 Ang^3
#
#
#
# Elastic Constant Matrix: (Units=GPa)
#
#
# Indices 1 2 3 4 5 6 
#
# 1 62.2506 35.0440 42.7177 0.0009 0.0000 0.0000
# 2 35.0440 94.2172 47.4089 -0.0009 0.0000 -0.0001
# 3 42.7177 47.4089 97.2830 -0.0008 0.0001 0.0004
# 4 0.0009 -0.0009 -0.0008 -21.5527 0.0000 0.0003
# 5 0.0000 0.0000 0.0001 0.0000 28.5555 0.0000
# 6 0.0000 -0.0001 0.0004 0.0003 0.0000 27.7329
#
#
#
# Elastic Compliance Matrix: (Units=1/GPa)
#
#
# Indices 1 2 3 4 5 6 
#
# 1 0.024602 -0.004922 -0.008404 0.000002 0.000000 0.000000
# 2 -0.004922 0.015047 -0.005172 -0.000001 0.000000 0.000000
# 3 -0.008404 -0.005172 0.016490 -0.000001 0.000000 0.000000
# 4 0.000002 -0.000001 -0.000001 -0.046398 0.000000 0.000001
# 5 0.000000 0.000000 0.000000 0.000000 0.035019 0.000000
# 6 0.000000 0.000000 0.000000 0.000001 0.000000 0.036058
#
#
# Mechanical properties :
#
#
# Convention : Reuss Voigt Hill
#
# Bulk Modulus (GPa) = 52.23749 56.01023 54.12386
# Shear Modulus (GPa) = 40.25922 15.51916 27.88919
#
# Velocity S-wave (km/s) = 4.40729 2.73636 3.66824
# Velocity P-wave (km/s) = 7.14860 6.08336 6.63739
#
# Compressibility (1/GPa) = 0.01914334
#
# Stress axis : x y z
#
# Youngs Moduli (GPa) = 40.64690 66.46001 60.64290
#
# Poissons Ratio (x) = 0.32710 0.50967
# Poissons Ratio (y) = 0.20005 0.31362
# Poissons Ratio (z) = 0.34162 0.34370
#
# Static dielectric constant tensor:
#      x y z
#    x 3.637950 0.000000 0.000000 
#    y 0.000000 3.862970 0.000000 
#    z 0.000000 0.000000 3.650040 
# 
# 
# High freq. dielectric constant tensor:
#      x y z
#    x 1.810430 0.000000 0.000000 
#    y 0.000000 1.822240 0.000000 
#    z 0.000000 0.000000 1.792180 
# 
# From -- ./inp_files/11569.got.cif
#   From: 2010.03.12/outbox.cif.g09.slc.cpg/sg44_6_cif.got.tgz:11569.got - 2010.04.14 02:36:11.
