data_PCOD8188398
_publ_section_title
;
Structure prediction by ZEFSAII (Michael W. Deem and Ramdas Pophale) SiO2 
 PCOD8188398
Probable space group: I M M 2
;
_chemical_formula_sum "Si O2"
_cell_formula_units_Z 64
_cell_length_a 18.299117
_cell_length_b 15.105732
_cell_length_c 11.976139
_cell_angle_alpha 90.000000
_cell_angle_beta 90.000000
_cell_angle_gamma 90.000000
_cell_volume 3310.462992
_symmetry_space_group_name_H-M "I M M 2"
_symmetry_group_IT_number 44
_symmetry_cell_setting 'orthorhombic'
loop_
_space_group_symop_operation_xyz
x,y,z
-x,-y,z
-x,y,z
x,-y,z
1/2+x,1/2+y,1/2+z
1/2-x,1/2-y,1/2+z
1/2-x,1/2+y,1/2+z
1/2+x,1/2-y,1/2+z
loop_
_atom_site_type_symbol
_atom_site_label
_atom_site_fract_x
_atom_site_fract_y
_atom_site_fract_z
Si Si1 0.317547 0.405086 0.356450
Si Si2 0.918138 0.899993 0.132459
Si Si3 0.304093 0.144246 0.706955
Si Si4 0.701492 0.102078 0.038889
Si Si5 0.722829 0.656798 0.752038
Si Si6 0.919413 0.603076 0.374042
Si Si7 0.819293 0.603467 0.953609
Si Si8 0.917147 0.767637 0.925621
O O1 0.358364 0.500000 0.364876
O O2 0.257652 0.417371 0.260309
O O3 0.277068 0.382873 0.473214
O O4 0.374396 0.325768 0.332541
O O5 0.854615 0.890327 0.225052
O O6 0.000000 0.888938 0.184824
O O7 0.911267 0.000000 0.081682
O O8 0.907715 0.822743 0.040666
O O9 0.290062 0.240037 0.757941
O O10 0.384516 0.116171 0.750579
O O11 0.294356 0.133529 0.575883
O O12 0.712888 0.142091 0.161184
O O13 0.683717 0.000000 0.053892
O O14 0.633396 0.145283 0.970103
O O15 0.751727 0.619908 0.870140
O O16 0.927626 0.500000 0.396822
O O17 0.000000 0.647913 0.377744
O O18 0.843093 0.500000 0.950498
O O19 0.887398 0.667463 0.926527
O O20 0.000000 0.760412 0.887815
#
# Coordination Sequence:
#
# PCOD8188398 Si02
#       8
#     8   8   8   8   8   8   8   8
#     4  10  18  35  61  87 115 149 195 257 308 352
#     4  10  20  36  61  92 121 148 190 257 320 365
#     4  11  22  37  60  85 121 159 207 252 306 362
#     4   9  17  32  57  86 111 145 193 245 299 356
#     4  12  22  37  62  85 124 161 208 253 306 364
#     4   9  19  36  60  89 117 149 195 252 307 359
#     4  12  25  41  60  89 124 169 208 245 303 376
#     4  11  22  37  57  89 121 153 196 245 304 368
#
# _framework density 19.332643000000001
#
# number of rings (size 3 to 8) (size 9 to 14) (size 15 to 20)
#    0.000    1.500    3.750    3.375    1.750    2.000 
#    0.000    0.625    0.000    2.250    0.000    0.000 
#    0.000    0.000    0.000    0.000    0.000    0.000 
#
# Total GULP energy -396532.881661 kJ/mol
# GULP energy per Si atom -12391.652552 kJ/mol
# Density = 1.928864 g / cm^3
# Si number density = 19.332643 Si / 1000 Ang^3
#
#
#
# Elastic Constant Matrix: (Units=GPa)
#
#
# Indices 1 2 3 4 5 6 
#
# 1 128.9330 48.0345 44.7450 0.0000 0.0000 0.0000
# 2 48.0345 115.6469 10.2028 0.0000 0.0000 0.0000
# 3 44.7450 10.2028 80.6747 0.0000 0.0000 0.0000
# 4 0.0000 0.0000 0.0000 -12.4099 0.0000 0.0000
# 5 0.0000 0.0000 0.0000 0.0000 11.8943 0.0000
# 6 0.0000 0.0000 0.0000 0.0000 0.0000 27.3304
#
#
#
# Elastic Compliance Matrix: (Units=1/GPa)
#
#
# Indices 1 2 3 4 5 6 
#
# 1 0.011311 -0.004191 -0.005743 0.000000 0.000000 0.000000
# 2 -0.004191 0.010298 0.001022 0.000000 0.000000 0.000000
# 3 -0.005743 0.001022 0.015452 0.000000 0.000000 0.000000
# 4 0.000000 0.000000 0.000000 -0.080581 0.000000 0.000000
# 5 0.000000 0.000000 0.000000 0.000000 0.084074 0.000000
# 6 0.000000 0.000000 0.000000 0.000000 0.000000 0.036589
#
#
# Mechanical properties :
#
#
# Convention : Reuss Voigt Hill
#
# Bulk Modulus (GPa) = 51.98716 59.02434 55.50575
# Shear Modulus (GPa) = 49.32052 20.18113 34.75083
#
# Velocity S-wave (km/s) = 5.05637 3.23443 4.24432
# Velocity P-wave (km/s) = 7.81271 6.67427 7.26582
#
# Compressibility (1/GPa) = 0.01923552
#
# Stress axis : x y z
#
# Youngs Moduli (GPa) = 88.41335 97.10949 64.71851
#
# Poissons Ratio (x) = 0.40700 0.37169
# Poissons Ratio (y) = 0.37056 -0.06616
# Poissons Ratio (z) = 0.50777 -0.09927
#
# Static dielectric constant tensor:
#      x y z
#    x 4.089730 0.000000 0.000000 
#    y 0.000000 3.910270 0.000000 
#    z 0.000000 0.000000 3.389950 
# 
# 
# High freq. dielectric constant tensor:
#      x y z
#    x 1.748410 0.000000 0.000000 
#    y 0.000000 1.759530 0.000000 
#    z 0.000000 0.000000 1.723780 
# 
# From -- ./inp_files/14006.got.cif
#   From: 2010.03.12/outbox.cif.g09.slc.cpg/sg44_8_cif.got.tgz:14006.got - 2010.04.14 02:36:11.
