data_PCOD8188712
_publ_section_title
;
Structure prediction by ZEFSAII (Michael W. Deem and Ramdas Pophale) SiO2 
 PCOD8188712
Probable space group: I M M 2
;
_chemical_formula_sum "Si O2"
_cell_formula_units_Z 64
_cell_length_a 20.655184
_cell_length_b 8.778776
_cell_length_c 19.668839
_cell_angle_alpha 90.000000
_cell_angle_beta 90.000000
_cell_angle_gamma 90.000000
_cell_volume 3566.496163
_symmetry_space_group_name_H-M "I M M 2"
_symmetry_group_IT_number 44
_symmetry_cell_setting 'orthorhombic'
loop_
_space_group_symop_operation_xyz
x,y,z
-x,-y,z
-x,y,z
x,-y,z
1/2+x,1/2+y,1/2+z
1/2-x,1/2-y,1/2+z
1/2-x,1/2+y,1/2+z
1/2+x,1/2-y,1/2+z
loop_
_atom_site_type_symbol
_atom_site_label
_atom_site_fract_x
_atom_site_fract_y
_atom_site_fract_z
Si Si1 0.264724 0.820607 0.951640
Si Si2 0.573562 0.178360 0.164628
Si Si3 0.230367 0.173477 0.312040
Si Si4 0.881430 0.673251 0.805778
Si Si5 0.687069 0.320195 0.082455
Si Si6 0.374360 0.180714 0.453063
Si Si7 0.071834 0.824519 0.080321
Si Si8 0.805065 0.179443 0.164970
O O1 0.289315 0.776536 0.876254
O O2 0.194518 0.754551 0.969389
O O3 0.262489 0.000000 0.958645
O O4 0.313168 0.752836 0.007494
O O5 0.500000 0.202941 0.140889
O O6 0.582107 0.247099 0.241317
O O7 0.619307 0.271799 0.114983
O O8 0.593243 0.000000 0.163040
O O9 0.305328 0.192185 0.293884
O O10 0.191914 0.225633 0.244544
O O11 0.214124 0.000000 0.331653
O O12 0.903816 0.500000 0.807887
O O13 0.899935 0.743593 0.879692
O O14 0.690603 0.500000 0.076181
O O15 0.747711 0.265326 0.126929
O O16 0.424229 0.226649 0.511387
O O17 0.364358 0.000000 0.449767
O O18 0.125619 0.770859 0.134300
O O19 0.000000 0.798644 0.111360
O O20 0.083035 0.000000 0.060977
O O21 0.791823 0.000000 0.157443
#
# Coordination Sequence:
#
# PCOD8188712 Si02
#       8
#     8   8   8   8   8   8   8   8
#     4  11  21  34  54  80 110 141 178 226 281 327
#     4  10  20  36  57  79 107 148 190 224 270 330
#     4   9  17  32  54  79 107 139 180 225 272 324
#     4   8  15  29  49  75 106 138 179 220 257 315
#     4  12  23  35  55  82 111 142 184 232 274 320
#     4  10  19  32  51  78 108 144 186 224 266 316
#     4  10  21  35  52  78 111 149 187 223 267 322
#     4  10  19  35  58  79 107 146 184 225 272 326
#
# _framework density 17.944783999999999
#
# number of rings (size 3 to 8) (size 9 to 14) (size 15 to 20)
#    0.000    2.000    2.500    3.375    0.000    1.500 
#    0.000    1.875    0.000    0.750    0.000    1.750 
#    0.000    0.000    0.000    0.000    0.000    0.000 
#
# Total GULP energy -396716.854009 kJ/mol
# GULP energy per Si atom -12397.401688 kJ/mol
# Density = 1.790394 g / cm^3
# Si number density = 17.944784 Si / 1000 Ang^3
#
#
#
# Elastic Constant Matrix: (Units=GPa)
#
#
# Indices 1 2 3 4 5 6 
#
# 1 84.9667 30.5528 54.2896 0.0000 0.0000 0.0000
# 2 30.5528 83.3627 42.8383 0.0000 0.0000 0.0000
# 3 54.2896 42.8383 117.4405 0.0000 0.0000 0.0000
# 4 0.0000 0.0000 0.0000 28.3261 0.0000 0.0000
# 5 0.0000 0.0000 0.0000 0.0000 21.4087 0.0000
# 6 0.0000 0.0000 0.0000 0.0000 0.0000 16.5347
#
#
#
# Elastic Compliance Matrix: (Units=1/GPa)
#
#
# Indices 1 2 3 4 5 6 
#
# 1 0.017193 -0.002728 -0.006953 0.000000 0.000000 0.000000
# 2 -0.002728 0.015196 -0.004282 0.000000 0.000000 0.000000
# 3 -0.006953 -0.004282 0.013291 0.000000 0.000000 0.000000
# 4 0.000000 0.000000 0.000000 0.035303 0.000000 0.000000
# 5 0.000000 0.000000 0.000000 0.000000 0.046710 0.000000
# 6 0.000000 0.000000 0.000000 0.000000 0.000000 0.060479
#
#
# Mechanical properties :
#
#
# Convention : Reuss Voigt Hill
#
# Bulk Modulus (GPa) = 56.32478 60.12570 58.22524
# Shear Modulus (GPa) = 22.52098 23.79316 23.15707
#
# Velocity S-wave (km/s) = 3.54646 3.64525 3.59620
# Velocity P-wave (km/s) = 6.94448 7.16211 7.05414
#
# Compressibility (1/GPa) = 0.01775417
#
# Stress axis : x y z
#
# Youngs Moduli (GPa) = 58.16399 65.80659 75.24042
#
# Poissons Ratio (x) = 0.17955 0.52311
# Poissons Ratio (y) = 0.15870 0.32216
# Poissons Ratio (z) = 0.40439 0.28176
#
# Static dielectric constant tensor:
#      x y z
#    x 3.129810 0.000000 0.000000 
#    y 0.000000 3.186110 0.000000 
#    z 0.000000 0.000000 3.621860 
# 
# 
# High freq. dielectric constant tensor:
#      x y z
#    x 1.667500 0.000000 0.000000 
#    y 0.000000 1.679610 0.000000 
#    z 0.000000 0.000000 1.704770 
# 
# From -- ./inp_files/24485.got.cif
#   From: 2010.03.12/outbox.cif.g09.slc.cpg/sg44_13_cif.got.tgz:24485.got - 2010.04.14 02:36:11.
