data_PCOD8188952
_publ_section_title
;
Structure prediction by ZEFSAII (Michael W. Deem and Ramdas Pophale) SiO2 
 PCOD8188952
Probable space group: I M M 2
;
_chemical_formula_sum "Si O2"
_cell_formula_units_Z 48
_cell_length_a 18.236787
_cell_length_b 8.976587
_cell_length_c 15.038312
_cell_angle_alpha 90.000000
_cell_angle_beta 90.000000
_cell_angle_gamma 90.000000
_cell_volume 2461.833408
_symmetry_space_group_name_H-M "I M M 2"
_symmetry_group_IT_number 44
_symmetry_cell_setting 'orthorhombic'
loop_
_space_group_symop_operation_xyz
x,y,z
-x,-y,z
-x,y,z
x,-y,z
1/2+x,1/2+y,1/2+z
1/2-x,1/2-y,1/2+z
1/2-x,1/2+y,1/2+z
1/2+x,1/2-y,1/2+z
loop_
_atom_site_type_symbol
_atom_site_label
_atom_site_fract_x
_atom_site_fract_y
_atom_site_fract_z
Si Si1 0.772191 0.823361 0.453640
Si Si2 0.000000 0.831161 0.070081
Si Si3 0.394945 0.830201 0.691293
Si Si4 0.920739 0.170759 0.367784
Si Si5 0.500000 0.328714 0.360907
Si Si6 0.229969 0.171683 0.654481
Si Si7 0.348765 0.177368 0.311430
O O1 0.852970 0.765915 0.424753
O O2 0.762914 0.764284 0.554160
O O3 0.708612 0.763077 0.387094
O O4 0.767503 0.000000 0.453612
O O5 0.926339 0.752850 0.105091
O O6 0.000000 0.817911 0.965700
O O7 0.000000 0.000000 0.103464
O O8 0.430749 0.762560 0.778389
O O9 0.308528 0.812265 0.699458
O O10 0.419060 0.000000 0.682266
O O11 0.000000 0.184022 0.418484
O O12 0.903988 0.000000 0.342752
O O13 0.500000 0.500000 0.328408
O O14 0.428191 0.246668 0.325542
O O15 0.175745 0.271116 0.713254
O O16 0.202876 0.000000 0.653909
O O17 0.354030 0.000000 0.313860
#
# Coordination Sequence:
#
# PCOD8188952 Si02
#       7
#     8   4   8   8   4   8   8
#     4   9  19  37  60  86 118 158 202 245 294 354
#     4  11  23  37  57  86 119 154 197 247 302 362
#     4  11  21  33  55  85 120 155 191 240 300 358
#     4  10  19  34  57  83 115 154 198 241 290 353
#     4  11  25  43  61  86 119 156 199 251 304 356
#     4  10  21  38  59  86 119 157 202 246 296 356
#     4  11  22  40  65  89 120 160 202 250 299 354
#
# _framework density 19.497664
#
# number of rings (size 3 to 8) (size 9 to 14) (size 15 to 20)
#    0.000    1.667    2.500    2.500    0.000    3.333 
#    1.500    2.500    0.000    0.000    0.000    0.000 
#    0.000    0.000    0.000    0.000    0.000    0.000 
#
# Total GULP energy -297549.938513 kJ/mol
# GULP energy per Si atom -12397.914105 kJ/mol
# Density = 1.945329 g / cm^3
# Si number density = 19.497664 Si / 1000 Ang^3
#
#
#
# Elastic Constant Matrix: (Units=GPa)
#
#
# Indices 1 2 3 4 5 6 
#
# 1 148.8289 45.2890 52.5629 0.0000 0.0000 0.0000
# 2 45.2890 89.1330 33.4223 0.0000 0.0000 0.0000
# 3 52.5629 33.4223 102.0467 0.0000 0.0000 0.0000
# 4 0.0000 0.0000 0.0000 24.9712 0.0000 0.0000
# 5 0.0000 0.0000 0.0000 0.0000 30.7269 0.0000
# 6 0.0000 0.0000 0.0000 0.0000 0.0000 27.9508
#
#
#
# Elastic Compliance Matrix: (Units=1/GPa)
#
#
# Indices 1 2 3 4 5 6 
#
# 1 0.008955 -0.003215 -0.003559 0.000000 0.000000 0.000000
# 2 -0.003215 0.013944 -0.002911 0.000000 0.000000 0.000000
# 3 -0.003559 -0.002911 0.012586 0.000000 0.000000 0.000000
# 4 0.000000 0.000000 0.000000 0.040046 0.000000 0.000000
# 5 0.000000 0.000000 0.000000 0.000000 0.032545 0.000000
# 6 0.000000 0.000000 0.000000 0.000000 0.000000 0.035777
#
#
# Mechanical properties :
#
#
# Convention : Reuss Voigt Hill
#
# Bulk Modulus (GPa) = 62.05724 66.95078 64.50401
# Shear Modulus (GPa) = 29.65675 30.64540 30.15108
#
# Velocity S-wave (km/s) = 3.90428 3.96883 3.93669
# Velocity P-wave (km/s) = 7.22646 7.44409 7.33608
#
# Compressibility (1/GPa) = 0.01611415
#
# Stress axis : x y z
#
# Youngs Moduli (GPa) = 111.67441 71.71351 79.45216
#
# Poissons Ratio (x) = 0.23058 0.28280
# Poissons Ratio (y) = 0.35906 0.23128
# Poissons Ratio (z) = 0.39749 0.20875
#
# Static dielectric constant tensor:
#      x y z
#    x 3.915070 0.000000 0.000000 
#    y 0.000000 3.463080 0.000000 
#    z 0.000000 0.000000 3.535930 
# 
# 
# High freq. dielectric constant tensor:
#      x y z
#    x 1.775050 0.000000 0.000000 
#    y 0.000000 1.744630 0.000000 
#    z 0.000000 0.000000 1.750010 
# 
# From -- ./inp_files/16133.got.cif
#   From: 2010.03.12/outbox.cif.g09.slc.cpg/sg44_9_cif.got.tgz:16133.got - 2010.04.14 02:36:11.
