data_PCOD8188545
_publ_section_title
;
Structure prediction by ZEFSAII (Michael W. Deem and Ramdas Pophale) SiO2 
 PCOD8188545
Probable space group: I M M 2
;
_chemical_formula_sum "Si O2"
_cell_formula_units_Z 64
_cell_length_a 21.418488
_cell_length_b 13.089945
_cell_length_c 12.901554
_cell_angle_alpha 90.000000
_cell_angle_beta 90.000000
_cell_angle_gamma 90.000000
_cell_volume 3617.167796
_symmetry_space_group_name_H-M "I M M 2"
_symmetry_group_IT_number 44
_symmetry_cell_setting 'orthorhombic'
loop_
_space_group_symop_operation_xyz
x,y,z
-x,-y,z
-x,y,z
x,-y,z
1/2+x,1/2+y,1/2+z
1/2-x,1/2-y,1/2+z
1/2-x,1/2+y,1/2+z
1/2+x,1/2-y,1/2+z
loop_
_atom_site_type_symbol
_atom_site_label
_atom_site_fract_x
_atom_site_fract_y
_atom_site_fract_z
Si Si1 0.099550 0.619425 0.711200
Si Si2 0.202402 0.882450 0.795354
Si Si3 0.568750 0.880726 0.980547
Si Si4 0.171838 0.118314 0.229507
Si Si5 0.929332 0.884936 0.071838
Si Si6 0.070475 0.798132 0.855422
Si Si7 0.781300 0.719070 0.637395
Si Si8 0.688733 0.778677 0.907832
O O1 0.088128 0.500000 0.735098
O O2 0.070068 0.654810 0.601192
O O3 0.071119 0.683660 0.807745
O O4 0.172293 0.645310 0.701655
O O5 0.128161 0.861726 0.808162
O O6 0.227950 0.826175 0.694326
O O7 0.249763 0.847263 0.886329
O O8 0.212513 0.000000 0.776853
O O9 0.500000 0.852384 0.936275
O O10 0.621765 0.835692 0.904650
O O11 0.581185 0.000000 0.980826
O O12 0.105614 0.144395 0.177870
O O13 0.218606 0.152546 0.137896
O O14 0.184461 0.180758 0.334255
O O15 0.178954 0.000000 0.258393
O O16 0.000000 0.884347 0.107263
O O17 0.909218 0.000000 0.034077
O O18 0.917997 0.802783 0.979590
O O19 0.000000 0.844124 0.833497
O O20 0.803299 0.754880 0.525645
#
# Coordination Sequence:
#
# PCOD8188545 Si02
#       8
#     8   8   8   8   8   8   8   8
#     4   9  17  30  49  74 104 134 165 202 243 290
#     4  10  20  33  50  72  98 128 162 200 243 291
#     4   9  17  30  50  75 101 131 167 206 247 290
#     4  10  20  34  53  74  97 128 165 203 243 290
#     4   9  18  32  49  70  96 127 165 207 247 288
#     4  10  19  30  48  74 101 130 165 204 246 289
#     4   9  19  33  49  73 101 127 159 201 246 291
#     4  10  20  34  53  75  99 128 163 202 244 290
#
# _framework density 17.6934
#
# number of rings (size 3 to 8) (size 9 to 14) (size 15 to 20)
#    0.000    2.500    0.000    2.250    0.000    5.000 
#    0.000    0.000    0.000    8.250    0.000    1.750 
#    0.000    0.000    0.000    0.000    0.000    0.000 
#
# Total GULP energy -396418.347901 kJ/mol
# GULP energy per Si atom -12388.073372 kJ/mol
# Density = 1.765313 g / cm^3
# Si number density = 17.693400 Si / 1000 Ang^3
#
#
#
# Elastic Constant Matrix: (Units=GPa)
#
#
# Indices 1 2 3 4 5 6 
#
# 1 109.2271 44.3931 35.1116 0.0000 0.0000 0.0000
# 2 44.3931 79.6499 24.7064 0.0000 0.0000 0.0000
# 3 35.1116 24.7064 54.0931 0.0000 0.0000 0.0000
# 4 0.0000 0.0000 0.0000 21.2353 0.0000 0.0000
# 5 0.0000 0.0000 0.0000 0.0000 23.6502 0.0000
# 6 0.0000 0.0000 0.0000 0.0000 0.0000 22.1796
#
#
#
# Elastic Compliance Matrix: (Units=1/GPa)
#
#
# Indices 1 2 3 4 5 6 
#
# 1 0.013391 -0.005554 -0.006155 0.000000 0.000000 0.000000
# 2 -0.005554 0.016931 -0.004128 0.000000 0.000000 0.000000
# 3 -0.006155 -0.004128 0.024367 0.000000 0.000000 0.000000
# 4 0.000000 0.000000 0.000000 0.047091 0.000000 0.000000
# 5 0.000000 0.000000 0.000000 0.000000 0.042283 0.000000
# 6 0.000000 0.000000 0.000000 0.000000 0.000000 0.045086
#
#
# Mechanical properties :
#
#
# Convention : Reuss Voigt Hill
#
# Bulk Modulus (GPa) = 43.45034 50.15472 46.80253
# Shear Modulus (GPa) = 21.88212 22.66364 22.27288
#
# Velocity S-wave (km/s) = 3.52055 3.58286 3.55184
# Velocity P-wave (km/s) = 6.41376 6.74715 6.58256
#
# Compressibility (1/GPa) = 0.02301478
#
# Stress axis : x y z
#
# Youngs Moduli (GPa) = 74.67489 59.06304 41.03850
#
# Poissons Ratio (x) = 0.32806 0.25261
# Poissons Ratio (y) = 0.41477 0.16940
# Poissons Ratio (z) = 0.45965 0.24380
#
# Static dielectric constant tensor:
#      x y z
#    x 3.628980 0.000000 0.000000 
#    y 0.000000 3.163560 0.000000 
#    z 0.000000 0.000000 3.129100 
# 
# 
# High freq. dielectric constant tensor:
#      x y z
#    x 1.706600 0.000000 0.000000 
#    y 0.000000 1.665290 0.000000 
#    z 0.000000 0.000000 1.666570 
# 
# From -- ./inp_files/14692.got.cif
#   From: 2010.03.12/outbox.cif.g09.slc.cpg/sg44_8_cif.got.tgz:14692.got - 2010.04.14 02:36:11.
