data_PCOD8188806
_publ_section_title
;
Structure prediction by ZEFSAII (Michael W. Deem and Ramdas Pophale) SiO2 
 PCOD8188806
Probable space group: I M M 2
;
_chemical_formula_sum "Si O2"
_cell_formula_units_Z 56
_cell_length_a 24.193061
_cell_length_b 9.313515
_cell_length_c 13.740218
_cell_angle_alpha 90.000000
_cell_angle_beta 90.000000
_cell_angle_gamma 90.000000
_cell_volume 3095.979398
_symmetry_space_group_name_H-M "I M M 2"
_symmetry_group_IT_number 44
_symmetry_cell_setting 'orthorhombic'
loop_
_space_group_symop_operation_xyz
x,y,z
-x,-y,z
-x,y,z
x,-y,z
1/2+x,1/2+y,1/2+z
1/2-x,1/2-y,1/2+z
1/2-x,1/2+y,1/2+z
1/2+x,1/2-y,1/2+z
loop_
_atom_site_type_symbol
_atom_site_label
_atom_site_fract_x
_atom_site_fract_y
_atom_site_fract_z
Si Si1 0.560572 0.170029 0.878690
Si Si2 0.774785 0.331000 0.298397
Si Si3 0.119965 0.669518 0.185946
Si Si4 0.936681 0.166570 0.018434
Si Si5 0.832810 0.329569 0.490271
Si Si6 0.060772 0.829369 0.799092
Si Si7 0.667367 0.329656 0.187680
O O1 0.500000 0.234851 0.904055
O O2 0.577482 0.218533 0.770278
O O3 0.605652 0.220669 0.957714
O O4 0.558856 0.000000 0.880427
O O5 0.781748 0.500000 0.302282
O O6 0.819160 0.276542 0.218589
O O7 0.789620 0.276503 0.407152
O O8 0.713377 0.284438 0.267387
O O9 0.117748 0.500000 0.168304
O O10 0.104659 0.746087 0.086098
O O11 0.000000 0.193092 0.049850
O O12 0.921245 0.000000 0.026412
O O13 0.927415 0.223617 0.908646
O O14 0.829779 0.500000 0.507658
O O15 0.817213 0.247759 0.588063
O O16 0.108268 0.772278 0.726753
O O17 0.000000 0.774170 0.764398
O O18 0.061023 0.000000 0.800247
O O19 0.667390 0.500000 0.170857
#
# Coordination Sequence:
#
# PCOD8188806 Si02
#       7
#     8   8   8   8   8   8   8
#     4   8  14  26  45  67  92 124 155 182 223 279
#     4   8  17  33  49  67  94 126 154 184 229 283
#     4   9  16  28  47  69  93 122 158 194 227 271
#     4   9  17  29  45  68  98 127 155 190 231 272
#     4   9  18  33  50  69  94 120 151 190 227 270
#     4   8  16  31  48  66  91 124 158 188 224 278
#     4  10  19  33  53  71  90 121 157 190 229 275
#
# _framework density 18.087975
#
# number of rings (size 3 to 8) (size 9 to 14) (size 15 to 20)
#    0.000    3.286    0.000    3.000    0.000    2.571 
#    0.000    6.429    0.000    1.714    0.000    0.000 
#    0.000    0.000    0.000    0.000    0.000    0.000 
#
# Total GULP energy -347012.900127 kJ/mol
# GULP energy per Si atom -12393.317862 kJ/mol
# Density = 1.804681 g / cm^3
# Si number density = 18.087975 Si / 1000 Ang^3
#
#
#
# Elastic Constant Matrix: (Units=GPa)
#
#
# Indices 1 2 3 4 5 6 
#
# 1 131.7997 26.8940 70.2291 0.0000 0.0000 0.0000
# 2 26.8940 27.8945 31.8091 0.0000 0.0000 0.0000
# 3 70.2291 31.8091 120.9218 0.0000 0.0000 0.0000
# 4 0.0000 0.0000 0.0000 28.5732 0.0000 0.0000
# 5 0.0000 0.0000 0.0000 0.0000 26.8567 0.0000
# 6 0.0000 0.0000 0.0000 0.0000 0.0000 15.8665
#
#
#
# Elastic Compliance Matrix: (Units=1/GPa)
#
#
# Indices 1 2 3 4 5 6 
#
# 1 0.011444 -0.004935 -0.005348 0.000000 0.000000 0.000000
# 2 -0.004935 0.053339 -0.011165 0.000000 0.000000 0.000000
# 3 -0.005348 -0.011165 0.014313 0.000000 0.000000 0.000000
# 4 0.000000 0.000000 0.000000 0.034998 0.000000 0.000000
# 5 0.000000 0.000000 0.000000 0.000000 0.037235 0.000000
# 6 0.000000 0.000000 0.000000 0.000000 0.000000 0.063026
#
#
# Mechanical properties :
#
#
# Convention : Reuss Voigt Hill
#
# Bulk Modulus (GPa) = 27.62444 59.83113 43.72779
# Shear Modulus (GPa) = 18.56543 24.37153 21.46848
#
# Velocity S-wave (km/s) = 3.20722 3.67466 3.44887
# Velocity P-wave (km/s) = 5.38706 7.15219 6.33144
#
# Compressibility (1/GPa) = 0.03619983
#
# Stress axis : x y z
#
# Youngs Moduli (GPa) = 87.38140 18.74800 69.86594
#
# Poissons Ratio (x) = 0.09251 0.37367
# Poissons Ratio (y) = 0.43119 0.78006
# Poissons Ratio (z) = 0.46735 0.20932
#
# Static dielectric constant tensor:
#      x y z
#    x 3.795960 0.000000 0.000000 
#    y 0.000000 2.801400 0.000000 
#    z 0.000000 0.000000 3.291260 
# 
# 
# High freq. dielectric constant tensor:
#      x y z
#    x 1.708830 0.000000 0.000000 
#    y 0.000000 1.647790 0.000000 
#    z 0.000000 0.000000 1.699030 
# 
# From -- ./inp_files/14661.got.cif
#   From: 2010.03.12/outbox.cif.g09.slc.cpg/sg44_8_cif.got.tgz:14661.got - 2010.04.14 02:36:11.
