data_PCOD8188074
_publ_section_title
;
Structure prediction by ZEFSAII (Michael W. Deem and Ramdas Pophale) SiO2 
 PCOD8188074
Probable space group: I M M 2
;
_chemical_formula_sum "Si O2"
_cell_formula_units_Z 64
_cell_length_a 28.191461
_cell_length_b 8.906786
_cell_length_c 14.848805
_cell_angle_alpha 90.000000
_cell_angle_beta 90.000000
_cell_angle_gamma 90.000000
_cell_volume 3728.465297
_symmetry_space_group_name_H-M "I M M 2"
_symmetry_group_IT_number 44
_symmetry_cell_setting 'orthorhombic'
loop_
_space_group_symop_operation_xyz
x,y,z
-x,-y,z
-x,y,z
x,-y,z
1/2+x,1/2+y,1/2+z
1/2-x,1/2-y,1/2+z
1/2-x,1/2+y,1/2+z
1/2+x,1/2-y,1/2+z
loop_
_atom_site_type_symbol
_atom_site_label
_atom_site_fract_x
_atom_site_fract_y
_atom_site_fract_z
Si Si1 0.140781 0.675062 0.472590
Si Si2 0.052405 0.678365 0.361439
Si Si3 0.282494 0.677610 0.852124
Si Si4 0.720698 0.823529 0.667322
Si Si5 0.052833 0.321279 0.159228
Si Si6 0.174996 0.676976 0.856365
Si Si7 0.363764 0.822560 0.537673
Si Si8 0.819776 0.674528 0.659016
O O1 0.146369 0.500000 0.449381
O O2 0.091511 0.739398 0.432051
O O3 0.184897 0.762537 0.431607
O O4 0.141676 0.702791 0.580494
O O5 0.051693 0.500000 0.363454
O O6 0.065175 0.734281 0.260520
O O7 0.000000 0.738682 0.388969
O O8 0.286510 0.500000 0.846959
O O9 0.299084 0.746506 0.757489
O O10 0.228879 0.731853 0.871291
O O11 0.684412 0.780153 0.588775
O O12 0.772222 0.765730 0.637847
O O13 0.723025 0.000000 0.683864
O O14 0.055184 0.500000 0.158175
O O15 0.090610 0.251416 0.088587
O O16 0.000000 0.266881 0.131964
O O17 0.173608 0.500000 0.867096
O O18 0.158018 0.725351 0.755754
O O19 0.141194 0.743590 0.935513
O O20 0.370787 0.000000 0.535792
O O21 0.805118 0.500000 0.664934
#
# Coordination Sequence:
#
# PCOD8188074 Si02
#       8
#     8   8   8   8   8   8   8   8
#     4  10  18  28  45  66  86 114 153 188 219 264
#     4   8  14  25  41  62  87 111 139 181 228 270
#     4  10  19  30  43  62  90 119 144 176 222 268
#     4  10  18  28  44  65  87 114 149 182 212 257
#     4   8  13  21  34  55  82 106 130 169 219 261
#     4   8  15  27  39  53  79 114 143 168 207 254
#     4   9  15  23  39  60  80 106 141 174 205 251
#     4   9  18  30  42  60  89 120 147 181 222 258
#
# _framework density 17.165241000000002
#
# number of rings (size 3 to 8) (size 9 to 14) (size 15 to 20)
#    0.000    3.000    0.000    3.750    0.000    3.500 
#    0.000    0.000    0.000    1.875    0.000    5.250 
#    0.000    1.500    0.000    0.375    0.000    2.500 
#
# Total GULP energy -396546.302230 kJ/mol
# GULP energy per Si atom -12392.071945 kJ/mol
# Density = 1.712617 g / cm^3
# Si number density = 17.165241 Si / 1000 Ang^3
#
#
#
# Elastic Constant Matrix: (Units=GPa)
#
#
# Indices 1 2 3 4 5 6 
#
# 1 101.9942 14.4527 86.5069 0.0000 0.0000 0.0000
# 2 14.4527 26.2852 20.6517 0.0000 0.0000 0.0000
# 3 86.5069 20.6517 156.2814 0.0000 0.0000 0.0000
# 4 0.0000 0.0000 0.0000 15.0540 0.0000 0.0000
# 5 0.0000 0.0000 0.0000 0.0000 29.9240 0.0000
# 6 0.0000 0.0000 0.0000 0.0000 0.0000 12.0155
#
#
#
# Elastic Compliance Matrix: (Units=1/GPa)
#
#
# Indices 1 2 3 4 5 6 
#
# 1 0.018614 -0.002387 -0.009988 0.000000 0.000000 0.000000
# 2 -0.002387 0.042758 -0.004329 0.000000 0.000000 0.000000
# 3 -0.009988 -0.004329 0.012499 0.000000 0.000000 0.000000
# 4 0.000000 0.000000 0.000000 0.066428 0.000000 0.000000
# 5 0.000000 0.000000 0.000000 0.000000 0.033418 0.000000
# 6 0.000000 0.000000 0.000000 0.000000 0.000000 0.083226
#
#
# Mechanical properties :
#
#
# Convention : Reuss Voigt Hill
#
# Bulk Modulus (GPa) = 24.71384 58.64261 41.67822
# Shear Modulus (GPa) = 16.45609 22.26201 19.35905
#
# Velocity S-wave (km/s) = 3.09963 3.60519 3.36192
# Velocity P-wave (km/s) = 5.21911 7.18106 6.27721
#
# Compressibility (1/GPa) = 0.04046316
#
# Stress axis : x y z
#
# Youngs Moduli (GPa) = 53.72231 23.38744 80.00343
#
# Poissons Ratio (x) = 0.05584 0.79908
# Poissons Ratio (y) = 0.12826 0.34631
# Poissons Ratio (z) = 0.53658 0.10124
#
# Static dielectric constant tensor:
#      x y z
#    x 3.323540 0.000000 0.000000 
#    y 0.000000 2.787780 0.000000 
#    z 0.000000 0.000000 3.587080 
# 
# 
# High freq. dielectric constant tensor:
#      x y z
#    x 1.642690 0.000000 0.000000 
#    y 0.000000 1.615750 0.000000 
#    z 0.000000 0.000000 1.670850 
# 
# From -- ./inp_files/19691.got.cif
#   From: 2010.03.12/outbox.cif.g09.slc.cpg/sg44_10_cif.got.tgz:19691.got - 2010.04.14 02:36:11.
