data_PCOD8188407
_publ_section_title
;
Structure prediction by ZEFSAII (Michael W. Deem and Ramdas Pophale) SiO2 
 PCOD8188407
Probable space group: I M M 2
;
_chemical_formula_sum "Si O2"
_cell_formula_units_Z 56
_cell_length_a 21.185998
_cell_length_b 8.745274
_cell_length_c 14.101763
_cell_angle_alpha 90.000000
_cell_angle_beta 90.000000
_cell_angle_gamma 90.000000
_cell_volume 2612.737384
_symmetry_space_group_name_H-M "I M M 2"
_symmetry_group_IT_number 44
_symmetry_cell_setting 'orthorhombic'
loop_
_space_group_symop_operation_xyz
x,y,z
-x,-y,z
-x,y,z
x,-y,z
1/2+x,1/2+y,1/2+z
1/2-x,1/2-y,1/2+z
1/2-x,1/2+y,1/2+z
1/2+x,1/2-y,1/2+z
loop_
_atom_site_type_symbol
_atom_site_label
_atom_site_fract_x
_atom_site_fract_y
_atom_site_fract_z
Si Si1 0.681889 0.676066 0.405090
Si Si2 0.571296 0.671605 0.684144
Si Si3 0.858601 0.181508 0.701967
Si Si4 0.000000 0.670808 0.482084
Si Si5 0.000000 0.176597 0.673862
Si Si6 0.122029 0.325628 0.358154
Si Si7 0.071584 0.327631 0.990069
Si Si8 0.708935 0.320085 0.007980
O O1 0.701562 0.500000 0.416055
O O2 0.684278 0.727696 0.293527
O O3 0.608819 0.702226 0.429689
O O4 0.718330 0.777402 0.485200
O O5 0.500000 0.678265 0.724060
O O6 0.588168 0.500000 0.650047
O O7 0.619601 0.721129 0.765431
O O8 0.578810 0.791863 0.600556
O O9 0.931657 0.247859 0.708753
O O10 0.820224 0.240643 0.608059
O O11 0.864437 0.000000 0.695744
O O12 0.000000 0.800509 0.561147
O O13 0.059686 0.696720 0.417646
O O14 0.000000 0.500000 0.527137
O O15 0.000000 0.000000 0.699792
O O16 0.133101 0.500000 0.327174
O O17 0.179623 0.269487 0.420123
O O18 0.095992 0.500000 0.972123
O O19 0.000000 0.310055 0.956214
O O20 0.698016 0.500000 0.000385
#
# Coordination Sequence:
#
# PCOD8188407 Si02
#       8
#     8   8   8   4   4   8   8   8
#     4  11  24  43  65  91 122 162 208 259 317 382
#     4  10  20  34  56  87 120 158 205 252 299 359
#     4   9  21  39  65  94 123 160 210 261 314 372
#     4  10  20  32  52  87 126 161 196 249 322 382
#     4  10  18  36  64  93 120 159 208 263 320 374
#     4  11  21  35  56  87 126 166 205 254 318 381
#     4  10  22  41  63  89 122 159 201 255 318 380
#     4  11  23  42  63  88 122 164 213 263 312 375
#
# _framework density 21.433458000000002
#
# number of rings (size 3 to 8) (size 9 to 14) (size 15 to 20)
#    0.000    1.714    2.143    2.143    1.000    3.143 
#    0.000    8.571    0.000    0.000    0.000    0.000 
#    0.000    0.000    0.000    0.000    0.000    0.000 
#
# Total GULP energy -346976.153104 kJ/mol
# GULP energy per Si atom -12392.005468 kJ/mol
# Density = 2.138467 g / cm^3
# Si number density = 21.433458 Si / 1000 Ang^3
#
#
#
# Elastic Constant Matrix: (Units=GPa)
#
#
# Indices 1 2 3 4 5 6 
#
# 1 78.3888 14.9996 36.4272 0.0000 0.0000 0.0000
# 2 14.9996 44.7738 12.7948 0.0000 0.0000 0.0000
# 3 36.4272 12.7948 83.8040 0.0000 0.0000 0.0000
# 4 0.0000 0.0000 0.0000 29.5272 0.0000 0.0000
# 5 0.0000 0.0000 0.0000 0.0000 41.0752 0.0000
# 6 0.0000 0.0000 0.0000 0.0000 0.0000 33.7652
#
#
#
# Elastic Compliance Matrix: (Units=1/GPa)
#
#
# Indices 1 2 3 4 5 6 
#
# 1 0.016536 -0.003645 -0.006631 0.000000 0.000000 0.000000
# 2 -0.003645 0.024157 -0.002104 0.000000 0.000000 0.000000
# 3 -0.006631 -0.002104 0.015136 0.000000 0.000000 0.000000
# 4 0.000000 0.000000 0.000000 0.033867 0.000000 0.000000
# 5 0.000000 0.000000 0.000000 0.000000 0.024346 0.000000
# 6 0.000000 0.000000 0.000000 0.000000 0.000000 0.029616
#
#
# Mechanical properties :
#
#
# Convention : Reuss Voigt Hill
#
# Bulk Modulus (GPa) = 32.18620 37.26775 34.72697
# Shear Modulus (GPa) = 27.96833 30.38986 29.17909
#
# Velocity S-wave (km/s) = 3.61625 3.76955 3.69369
# Velocity P-wave (km/s) = 5.69962 6.03087 5.86758
#
# Compressibility (1/GPa) = 0.03106922
#
# Stress axis : x y z
#
# Youngs Moduli (GPa) = 60.47473 41.39636 66.06672
#
# Poissons Ratio (x) = 0.15088 0.43810
# Poissons Ratio (y) = 0.22041 0.13900
# Poissons Ratio (z) = 0.40102 0.08709
#
# Static dielectric constant tensor:
#      x y z
#    x 3.835100 0.000000 0.000000 
#    y 0.000000 3.640690 0.000000 
#    z 0.000000 0.000000 3.847530 
# 
# 
# High freq. dielectric constant tensor:
#      x y z
#    x 1.843920 0.000000 0.000000 
#    y 0.000000 1.824040 0.000000 
#    z 0.000000 0.000000 1.839600 
# 
# From -- ./inp_files/19214.got.cif
#   From: 2010.03.12/outbox.cif.g09.slc.cpg/sg44_10_cif.got.tgz:19214.got - 2010.04.14 02:36:11.
