data_PCOD8188578
_publ_section_title
;
Structure prediction by ZEFSAII (Michael W. Deem and Ramdas Pophale) SiO2 
 PCOD8188578
Probable space group: I M M 2
;
_chemical_formula_sum "Si O2"
_cell_formula_units_Z 64
_cell_length_a 20.152717
_cell_length_b 8.766938
_cell_length_c 20.237506
_cell_angle_alpha 90.000000
_cell_angle_beta 90.000000
_cell_angle_gamma 90.000000
_cell_volume 3575.514404
_symmetry_space_group_name_H-M "I M M 2"
_symmetry_group_IT_number 44
_symmetry_cell_setting 'orthorhombic'
loop_
_space_group_symop_operation_xyz
x,y,z
-x,-y,z
-x,y,z
x,-y,z
1/2+x,1/2+y,1/2+z
1/2-x,1/2-y,1/2+z
1/2-x,1/2+y,1/2+z
1/2+x,1/2-y,1/2+z
loop_
_atom_site_type_symbol
_atom_site_label
_atom_site_fract_x
_atom_site_fract_y
_atom_site_fract_z
Si Si1 0.574156 0.818280 0.315380
Si Si2 0.822151 0.318970 0.562037
Si Si3 0.318949 0.180985 0.566663
Si Si4 0.678654 0.820202 0.418238
Si Si5 0.077221 0.323775 0.318843
Si Si6 0.926254 0.318746 0.668064
Si Si7 0.327255 0.320656 0.922911
Si Si8 0.926597 0.681068 0.169629
O O1 0.500000 0.761993 0.333939
O O2 0.626647 0.745062 0.367001
O O3 0.593198 0.762272 0.241712
O O4 0.576251 0.000000 0.318302
O O5 0.819593 0.500000 0.561643
O O6 0.751148 0.255236 0.583868
O O7 0.874292 0.253509 0.615337
O O8 0.846550 0.261964 0.490797
O O9 0.340637 0.228986 0.492710
O O10 0.373492 0.246949 0.617609
O O11 0.311410 0.000000 0.572726
O O12 0.753475 0.766267 0.401291
O O13 0.674147 0.000000 0.411418
O O14 0.096204 0.500000 0.329501
O O15 0.120562 0.220131 0.366691
O O16 0.093273 0.271281 0.244009
O O17 0.000000 0.297230 0.334783
O O18 0.925642 0.500000 0.666550
O O19 0.000000 0.259413 0.649901
O O20 0.327913 0.500000 0.936337
O O21 0.928931 0.500000 0.165193
O O22 0.000000 0.745613 0.152420
#
# Coordination Sequence:
#
# PCOD8188578 Si02
#       8
#     8   8   8   8   8   8   8   8
#     4   8  13  23  40  63  91 118 145 182 228 273
#     4  10  19  31  48  68  92 124 161 197 235 284
#     4   9  17  30  47  69  99 128 157 196 235 273
#     4   8  15  26  40  62  92 122 148 181 227 273
#     4   9  18  33  51  70  93 123 161 201 239 287
#     4   8  15  27  42  62  88 116 147 186 228 268
#     4  10  20  33  48  68  96 124 152 194 244 288
#     4   8  15  29  49  71  95 126 163 200 238 283
#
# _framework density 17.899521
#
# number of rings (size 3 to 8) (size 9 to 14) (size 15 to 20)
#    0.000    3.250    0.000    3.000    0.000    2.250 
#    0.000    5.625    0.000    2.250    0.000    0.875 
#    0.000   11.500    0.000    0.000    0.000    0.000 
#
# Total GULP energy -396636.677146 kJ/mol
# GULP energy per Si atom -12394.896161 kJ/mol
# Density = 1.785878 g / cm^3
# Si number density = 17.899521 Si / 1000 Ang^3
#
#
#
# Elastic Constant Matrix: (Units=GPa)
#
#
# Indices 1 2 3 4 5 6 
#
# 1 133.7630 23.6826 113.0007 0.0000 0.0000 0.0000
# 2 23.6826 24.6558 19.7449 0.0000 0.0000 0.0000
# 3 113.0007 19.7449 145.6182 0.0000 0.0000 0.0000
# 4 0.0000 0.0000 0.0000 16.9411 0.0000 0.0000
# 5 0.0000 0.0000 0.0000 0.0000 44.5092 0.0000
# 6 0.0000 0.0000 0.0000 0.0000 0.0000 21.7524
#
#
#
# Elastic Compliance Matrix: (Units=1/GPa)
#
#
# Indices 1 2 3 4 5 6 
#
# 1 0.023314 -0.008868 -0.016889 0.000000 0.000000 0.000000
# 2 -0.008868 0.048872 0.000255 0.000000 0.000000 0.000000
# 3 -0.016889 0.000255 0.019939 0.000000 0.000000 0.000000
# 4 0.000000 0.000000 0.000000 0.059028 0.000000 0.000000
# 5 0.000000 0.000000 0.000000 0.000000 0.022467 0.000000
# 6 0.000000 0.000000 0.000000 0.000000 0.000000 0.045972
#
#
# Mechanical properties :
#
#
# Convention : Reuss Voigt Hill
#
# Bulk Modulus (GPa) = 24.31901 68.54371 46.43136
# Shear Modulus (GPa) = 17.58688 26.48113 22.03400
#
# Velocity S-wave (km/s) = 3.13794 3.85051 3.51234
# Velocity P-wave (km/s) = 5.17154 7.62531 6.51499
#
# Compressibility (1/GPa) = 0.04112009
#
# Stress axis : x y z
#
# Youngs Moduli (GPa) = 42.89350 20.46150 50.15377
#
# Poissons Ratio (x) = 0.18146 0.84705
# Poissons Ratio (y) = 0.38039 -0.01279
# Poissons Ratio (z) = 0.72443 -0.00522
#
# Static dielectric constant tensor:
#      x y z
#    x 3.601600 0.000000 0.000000 
#    y 0.000000 2.816760 0.000000 
#    z 0.000000 0.000000 3.560140 
# 
# 
# High freq. dielectric constant tensor:
#      x y z
#    x 1.698200 0.000000 0.000000 
#    y 0.000000 1.644290 0.000000 
#    z 0.000000 0.000000 1.699420 
# 
# From -- ./inp_files/20781.got.cif
#   From: 2010.03.12/outbox.cif.g09.slc.cpg/sg44_11_cif.got.tgz:20781.got - 2010.04.14 02:36:11.
