data_PCOD8188148
_publ_section_title
;
Structure prediction by ZEFSAII (Michael W. Deem and Ramdas Pophale) SiO2 
 PCOD8188148
Probable space group: I M M 2
;
_chemical_formula_sum "Si O2"
_cell_formula_units_Z 64
_cell_length_a 28.104313
_cell_length_b 8.956406
_cell_length_c 14.655640
_cell_angle_alpha 90.000000
_cell_angle_beta 90.000000
_cell_angle_gamma 90.000000
_cell_volume 3689.024455
_symmetry_space_group_name_H-M "I M M 2"
_symmetry_group_IT_number 44
_symmetry_cell_setting 'orthorhombic'
loop_
_space_group_symop_operation_xyz
x,y,z
-x,-y,z
-x,y,z
x,-y,z
1/2+x,1/2+y,1/2+z
1/2-x,1/2-y,1/2+z
1/2-x,1/2+y,1/2+z
1/2+x,1/2-y,1/2+z
loop_
_atom_site_type_symbol
_atom_site_label
_atom_site_fract_x
_atom_site_fract_y
_atom_site_fract_z
Si Si1 0.447240 0.677721 0.855300
Si Si2 0.866284 0.677114 0.674440
Si Si3 0.321419 0.821981 0.560294
Si Si4 0.281617 0.328577 0.865479
Si Si5 0.673578 0.827423 0.358377
Si Si6 0.136310 0.824886 0.226792
Si Si7 0.444834 0.327798 0.059424
Si Si8 0.221930 0.324015 0.552100
O O1 0.500000 0.734946 0.827865
O O2 0.446698 0.500000 0.858001
O O3 0.409429 0.737608 0.781720
O O4 0.434002 0.733940 0.957243
O O5 0.869278 0.500000 0.675013
O O6 0.859210 0.741322 0.777901
O O7 0.914946 0.738762 0.633817
O O8 0.821133 0.729410 0.615676
O O9 0.336089 0.760350 0.459342
O O10 0.360554 0.762007 0.631193
O O11 0.269519 0.758986 0.585338
O O12 0.319076 0.000000 0.562419
O O13 0.288966 0.500000 0.897232
O O14 0.228372 0.302579 0.829393
O O15 0.316766 0.286874 0.784068
O O16 0.292615 0.221376 0.949967
O O17 0.661587 0.000000 0.364515
O O18 0.131452 0.000000 0.207097
O O19 0.500000 0.304267 0.082972
O O20 0.430362 0.500000 0.065816
O O21 0.231034 0.500000 0.558381
#
# Coordination Sequence:
#
# PCOD8188148 Si02
#       8
#     8   8   8   8   8   8   8   8
#     4   8  15  29  49  72  97 125 154 184 228 288
#     4  10  19  31  49  70  93 124 160 195 232 277
#     4  10  20  33  48  66  93 129 165 201 240 279
#     4   9  17  30  47  67  95 130 161 191 234 285
#     4   8  16  31  46  61  87 124 160 191 228 275
#     4  10  18  29  49  72  94 124 162 200 236 279
#     4   9  18  33  52  74  99 123 149 186 232 283
#     4  10  19  30  46  71 100 126 157 197 236 279
#
# _framework density 17.348759000000001
#
# number of rings (size 3 to 8) (size 9 to 14) (size 15 to 20)
#    0.000    2.750    0.000    3.750    0.000    4.750 
#    0.000    3.750    0.000    1.875    0.000    3.500 
#    0.000    0.000    0.000    0.000    0.000    0.000 
#
# Total GULP energy -396677.903753 kJ/mol
# GULP energy per Si atom -12396.184492 kJ/mol
# Density = 1.730927 g / cm^3
# Si number density = 17.348759 Si / 1000 Ang^3
#
#
#
# Elastic Constant Matrix: (Units=GPa)
#
#
# Indices 1 2 3 4 5 6 
#
# 1 86.4971 19.2194 68.9712 0.0000 0.0000 0.0000
# 2 19.2194 30.5522 22.1715 0.0000 0.0000 0.0000
# 3 68.9712 22.1715 115.9541 0.0000 0.0000 0.0000
# 4 0.0000 0.0000 0.0000 27.1066 0.0000 0.0000
# 5 0.0000 0.0000 0.0000 0.0000 27.5494 0.0000
# 6 0.0000 0.0000 0.0000 0.0000 0.0000 22.4992
#
#
#
# Elastic Compliance Matrix: (Units=1/GPa)
#
#
# Indices 1 2 3 4 5 6 
#
# 1 0.022681 -0.005199 -0.012497 0.000000 0.000000 0.000000
# 2 -0.005199 0.039196 -0.004402 0.000000 0.000000 0.000000
# 3 -0.012497 -0.004402 0.016899 0.000000 0.000000 0.000000
# 4 0.000000 0.000000 0.000000 0.036891 0.000000 0.000000
# 5 0.000000 0.000000 0.000000 0.000000 0.036298 0.000000
# 6 0.000000 0.000000 0.000000 0.000000 0.000000 0.044446
#
#
# Mechanical properties :
#
#
# Convention : Reuss Voigt Hill
#
# Bulk Modulus (GPa) = 28.91843 50.41419 39.66631
# Shear Modulus (GPa) = 19.83061 23.60712 21.71887
#
# Velocity S-wave (km/s) = 3.38458 3.69282 3.54205
# Velocity P-wave (km/s) = 5.65499 6.87786 6.29618
#
# Compressibility (1/GPa) = 0.03458002
#
# Stress axis : x y z
#
# Youngs Moduli (GPa) = 44.08937 25.51278 59.17425
#
# Poissons Ratio (x) = 0.13264 0.73950
# Poissons Ratio (y) = 0.22922 0.26049
# Poissons Ratio (z) = 0.55099 0.11231
#
# Static dielectric constant tensor:
#      x y z
#    x 3.224360 0.000000 0.000000 
#    y 0.000000 2.963430 0.000000 
#    z 0.000000 0.000000 3.492020 
# 
# 
# High freq. dielectric constant tensor:
#      x y z
#    x 1.653300 0.000000 0.000000 
#    y 0.000000 1.643350 0.000000 
#    z 0.000000 0.000000 1.674380 
# 
# From -- ./inp_files/17115.got.cif
#   From: 2010.03.12/outbox.cif.g09.slc.cpg/sg44_9_cif.got.tgz:17115.got - 2010.04.14 02:36:11.
