data_PCOD8188581
_publ_section_title
;
Structure prediction by ZEFSAII (Michael W. Deem and Ramdas Pophale) SiO2 
 PCOD8188581
Probable space group: I M M 2
;
_chemical_formula_sum "Si O2"
_cell_formula_units_Z 48
_cell_length_a 9.115728
_cell_length_b 13.698188
_cell_length_c 23.555175
_cell_angle_alpha 90.000000
_cell_angle_beta 90.000000
_cell_angle_gamma 90.000000
_cell_volume 2941.310108
_symmetry_space_group_name_H-M "I M M 2"
_symmetry_group_IT_number 44
_symmetry_cell_setting 'orthorhombic'
loop_
_space_group_symop_operation_xyz
x,y,z
-x,-y,z
-x,y,z
x,-y,z
1/2+x,1/2+y,1/2+z
1/2-x,1/2-y,1/2+z
1/2-x,1/2+y,1/2+z
1/2+x,1/2-y,1/2+z
loop_
_atom_site_type_symbol
_atom_site_label
_atom_site_fract_x
_atom_site_fract_y
_atom_site_fract_z
Si Si1 0.172900 0.780542 0.326890
Si Si2 0.828134 0.386962 0.725231
Si Si3 0.671294 0.387786 0.384743
Si Si4 0.169526 0.887253 0.110712
Si Si5 0.172227 0.889590 0.441046
Si Si6 0.828647 0.221763 0.998169
O O1 0.246209 0.821487 0.270718
O O2 0.235823 0.672845 0.338867
O O3 0.216065 0.851468 0.378736
O O4 0.000000 0.774250 0.317680
O O5 0.791717 0.500000 0.737325
O O6 0.768737 0.356179 0.663688
O O7 0.000000 0.365762 0.727869
O O8 0.500000 0.371459 0.372559
O O9 0.716673 0.500000 0.378443
O O10 0.712586 0.353398 0.448128
O O11 0.224014 0.824255 0.057284
O O12 0.000000 0.866428 0.125451
O O13 0.192555 0.000000 0.094735
O O14 0.248121 0.824786 0.489420
O O15 0.000000 0.882697 0.450370
O O16 0.229448 0.000000 0.446945
O O17 0.000000 0.242925 0.998968
#
# Coordination Sequence:
#
# PCOD8188581 Si02
#       6
#     8   8   8   8   8   8
#     4  10  19  31  48  69  94 124 157 192 230 274
#     4  10  20  32  47  69  95 122 154 192 233 277
#     4   9  17  30  48  70  97 126 154 187 228 273
#     4   9  17  30  48  69  94 123 152 184 226 275
#     4   9  18  31  46  66  93 124 155 187 227 273
#     4   9  17  29  47  71  95 121 154 188 224 269
#
# _framework density 16.319258999999999
#
# number of rings (size 3 to 8) (size 9 to 14) (size 15 to 20)
#    0.000    2.667    0.000    2.000    0.000    5.667 
#    0.000    0.000    0.000    4.000    0.000    4.667 
#    0.000    0.000    0.000    0.000    0.000    0.000 
#
# Total GULP energy -297652.195248 kJ/mol
# GULP energy per Si atom -12402.174802 kJ/mol
# Density = 1.628212 g / cm^3
# Si number density = 16.319259 Si / 1000 Ang^3
#
#
#
# Elastic Constant Matrix: (Units=GPa)
#
#
# Indices 1 2 3 4 5 6 
#
# 1 61.8482 53.5446 52.8790 0.0000 0.0000 0.0000
# 2 53.5446 131.0213 74.2372 0.0000 0.0000 0.0000
# 3 52.8790 74.2372 116.2346 0.0000 0.0000 0.0000
# 4 0.0000 0.0000 0.0000 29.1414 0.0000 0.0000
# 5 0.0000 0.0000 0.0000 0.0000 28.7026 0.0000
# 6 0.0000 0.0000 0.0000 0.0000 0.0000 28.1406
#
#
#
# Elastic Compliance Matrix: (Units=1/GPa)
#
#
# Indices 1 2 3 4 5 6 
#
# 1 0.030197 -0.007141 -0.009177 0.000000 0.000000 0.000000
# 2 -0.007141 0.013649 -0.005469 0.000000 0.000000 0.000000
# 3 -0.009177 -0.005469 0.016271 0.000000 0.000000 0.000000
# 4 0.000000 0.000000 0.000000 0.034315 0.000000 0.000000
# 5 0.000000 0.000000 0.000000 0.000000 0.034840 0.000000
# 6 0.000000 0.000000 0.000000 0.000000 0.000000 0.035536
#
#
# Mechanical properties :
#
#
# Convention : Reuss Voigt Hill
#
# Bulk Modulus (GPa) = 60.44532 74.49174 67.46853
# Shear Modulus (GPa) = 23.37579 25.75980 24.56779
#
# Velocity S-wave (km/s) = 3.78882 3.97733 3.88422
# Velocity P-wave (km/s) = 7.50066 8.17544 7.84531
#
# Compressibility (1/GPa) = 0.01654388
#
# Stress axis : x y z
#
# Youngs Moduli (GPa) = 33.11613 73.26321 61.45903
#
# Poissons Ratio (x) = 0.52317 0.56399
# Poissons Ratio (y) = 0.23648 0.33612
# Poissons Ratio (z) = 0.30390 0.40067
#
# Static dielectric constant tensor:
#      x y z
#    x 3.064780 0.000000 0.000000 
#    y 0.000000 3.099910 0.000000 
#    z 0.000000 0.000000 3.020940 
# 
# 
# High freq. dielectric constant tensor:
#      x y z
#    x 1.630360 0.000000 0.000000 
#    y 0.000000 1.619700 0.000000 
#    z 0.000000 0.000000 1.618520 
# 
# From -- ./inp_files/22897.got.cif
#   From: 2010.03.12/outbox.cif.g09.slc.cpg/sg44_12_cif.got.tgz:22897.got - 2010.04.14 02:36:11.
