data_PCOD8188190
_publ_section_title
;
Structure prediction by ZEFSAII (Michael W. Deem and Ramdas Pophale) SiO2 
 PCOD8188190
Probable space group: I M M 2
;
_chemical_formula_sum "Si O2"
_cell_formula_units_Z 48
_cell_length_a 10.013522
_cell_length_b 9.123091
_cell_length_c 28.172292
_cell_angle_alpha 90.000000
_cell_angle_beta 90.000000
_cell_angle_gamma 90.000000
_cell_volume 2573.659239
_symmetry_space_group_name_H-M "I M M 2"
_symmetry_group_IT_number 44
_symmetry_cell_setting 'orthorhombic'
loop_
_space_group_symop_operation_xyz
x,y,z
-x,-y,z
-x,y,z
x,-y,z
1/2+x,1/2+y,1/2+z
1/2-x,1/2-y,1/2+z
1/2-x,1/2+y,1/2+z
1/2+x,1/2-y,1/2+z
loop_
_atom_site_type_symbol
_atom_site_label
_atom_site_fract_x
_atom_site_fract_y
_atom_site_fract_z
Si Si1 0.000000 0.160906 0.310400
Si Si2 0.000000 0.672654 0.403554
Si Si3 0.742174 0.825219 0.963601
Si Si4 0.500000 0.325652 0.300775
Si Si5 0.652827 0.825332 0.065948
Si Si6 0.652538 0.325548 0.648697
Si Si7 0.238527 0.332519 0.749037
Si Si8 0.000000 0.825324 0.909822
O O1 0.000000 0.286552 0.349016
O O2 0.872287 0.180715 0.278353
O O3 0.000000 0.000000 0.334446
O O4 0.128035 0.738067 0.429651
O O5 0.000000 0.500000 0.407816
O O6 0.876374 0.763316 0.940053
O O7 0.744346 0.000000 0.964450
O O8 0.715175 0.766374 0.016610
O O9 0.500000 0.500000 0.299965
O O10 0.370833 0.269222 0.273251
O O11 0.500000 0.267232 0.355397
O O12 0.500000 0.767528 0.072896
O O13 0.752873 0.765814 0.106457
O O14 0.649686 0.000000 0.066213
O O15 0.500000 0.263612 0.644383
O O16 0.644390 0.500000 0.647967
O O17 0.725557 0.273149 0.696698
O O18 0.185871 0.500000 0.747059
O O19 0.000000 0.000000 0.908271
#
# Coordination Sequence:
#
# PCOD8188190 Si02
#       8
#     4   4   8   4   8   8   8   4
#     4  10  20  34  53  77 104 135 178 222 259 308
#     4  10  18  30  49  70  98 136 170 206 257 310
#     4   9  16  27  42  65  98 131 164 203 252 307
#     4  11  23  37  52  77 108 139 183 221 254 309
#     4   9  16  25  40  68 100 129 163 203 251 311
#     4   9  17  29  47  72 100 131 168 210 258 313
#     4  10  20  36  55  76 106 140 173 216 268 312
#     4   9  18  29  42  62  94 134 167 203 250 299
#
# _framework density 18.650487999999999
#
# number of rings (size 3 to 8) (size 9 to 14) (size 15 to 20)
#    0.000    2.500    1.667    1.250    2.333    2.000 
#    0.000    0.000    0.000    0.000    0.000    2.333 
#    0.000    0.000    0.000    0.000    0.000    0.000 
#
# Total GULP energy -297478.471019 kJ/mol
# GULP energy per Si atom -12394.936292 kJ/mol
# Density = 1.860804 g / cm^3
# Si number density = 18.650488 Si / 1000 Ang^3
#
#
#
# Elastic Constant Matrix: (Units=GPa)
#
#
# Indices 1 2 3 4 5 6 
#
# 1 174.4203 25.1501 89.2997 0.0000 0.0000 0.0000
# 2 25.1501 18.8369 19.1535 0.0000 0.0000 0.0000
# 3 89.2997 19.1535 169.8858 0.0000 0.0000 0.0000
# 4 0.0000 0.0000 0.0000 18.8308 0.0000 0.0000
# 5 0.0000 0.0000 0.0000 0.0000 11.3477 0.0000
# 6 0.0000 0.0000 0.0000 0.0000 0.0000 13.0931
#
#
#
# Elastic Compliance Matrix: (Units=1/GPa)
#
#
# Indices 1 2 3 4 5 6 
#
# 1 0.008784 -0.007944 -0.003722 0.000000 0.000000 0.000000
# 2 -0.007944 0.067145 -0.003394 0.000000 0.000000 0.000000
# 3 -0.003722 -0.003394 0.008225 0.000000 0.000000 0.000000
# 4 0.000000 0.000000 0.000000 0.053104 0.000000 0.000000
# 5 0.000000 0.000000 0.000000 0.000000 0.088124 0.000000
# 6 0.000000 0.000000 0.000000 0.000000 0.000000 0.076376
#
#
# Mechanical properties :
#
#
# Convention : Reuss Voigt Hill
#
# Bulk Modulus (GPa) = 18.50672 70.03885 44.27278
# Shear Modulus (GPa) = 14.29018 23.95697 19.12357
#
# Velocity S-wave (km/s) = 2.77105 3.58791 3.20561
# Velocity P-wave (km/s) = 4.49252 7.40264 6.12298
#
# Compressibility (1/GPa) = 0.05403444
#
# Stress axis : x y z
#
# Youngs Moduli (GPa) = 113.84081 14.89308 121.57565
#
# Poissons Ratio (x) = 0.11831 0.45247
# Poissons Ratio (y) = 0.90434 0.41269
# Poissons Ratio (z) = 0.42369 0.05055
#
# Static dielectric constant tensor:
#      x y z
#    x 3.596130 0.000000 0.000000 
#    y 0.000000 2.788980 0.000000 
#    z 0.000000 0.000000 3.670590 
# 
# 
# High freq. dielectric constant tensor:
#      x y z
#    x 1.744570 0.000000 0.000000 
#    y 0.000000 1.646720 0.000000 
#    z 0.000000 0.000000 1.740910 
# 
# From -- ./inp_files/26999.got.cif
#   From: 2010.03.12/outbox.cif.g09.slc.cpg/sg44_14_cif.got.tgz:26999.got - 2010.04.14 02:36:11.
