data_PCOD8188106
_publ_section_title
;
Structure prediction by ZEFSAII (Michael W. Deem and Ramdas Pophale) SiO2 
 PCOD8188106
Probable space group: I M M 2
;
_chemical_formula_sum "Si O2"
_cell_formula_units_Z 64
_cell_length_a 14.503289
_cell_length_b 9.013740
_cell_length_c 27.932303
_cell_angle_alpha 90.000000
_cell_angle_beta 90.000000
_cell_angle_gamma 90.000000
_cell_volume 3651.558581
_symmetry_space_group_name_H-M "I M M 2"
_symmetry_group_IT_number 44
_symmetry_cell_setting 'orthorhombic'
loop_
_space_group_symop_operation_xyz
x,y,z
-x,-y,z
-x,y,z
x,-y,z
1/2+x,1/2+y,1/2+z
1/2-x,1/2-y,1/2+z
1/2-x,1/2+y,1/2+z
1/2+x,1/2-y,1/2+z
loop_
_atom_site_type_symbol
_atom_site_label
_atom_site_fract_x
_atom_site_fract_y
_atom_site_fract_z
Si Si1 0.397976 0.176191 0.647410
Si Si2 0.105974 0.673597 0.597935
Si Si3 0.275762 0.176149 0.560480
Si Si4 0.893909 0.826479 0.979608
Si Si5 0.394343 0.171009 0.381226
Si Si6 0.894839 0.325947 0.254640
Si Si7 0.274558 0.175554 0.291228
Si Si8 0.601933 0.823675 0.205569
O O1 0.500000 0.235494 0.633944
O O2 0.326697 0.237322 0.608215
O O3 0.371866 0.230988 0.700744
O O4 0.399235 0.000000 0.647194
O O5 0.125520 0.500000 0.591832
O O6 0.171187 0.763998 0.561699
O O7 0.129195 0.726859 0.652030
O O8 0.000000 0.710072 0.585264
O O9 0.327552 0.237926 0.514576
O O10 0.275706 0.000000 0.557651
O O11 0.871137 0.773513 0.926208
O O12 0.000000 0.789552 0.992445
O O13 0.873361 0.000000 0.983625
O O14 0.500000 0.190978 0.364540
O O15 0.328961 0.225955 0.338423
O O16 0.375041 0.000000 0.394779
O O17 0.878109 0.500000 0.258933
O O18 0.827987 0.243138 0.291860
O O19 0.000000 0.285832 0.267941
O O20 0.327201 0.240602 0.244546
O O21 0.267926 0.000000 0.288842
O O22 0.500000 0.762776 0.217975
O O23 0.599838 0.000000 0.207715
#
# Coordination Sequence:
#
# PCOD8188106 Si02
#       8
#     8   8   8   8   8   8   8   8
#     4   8  15  28  45  67  96 129 163 196 233 281
#     4   9  18  32  48  67  97 136 171 202 237 279
#     4  11  20  30  50  75  98 127 163 203 245 289
#     4  10  21  36  53  74 100 127 156 194 240 291
#     4   9  18  33  52  74 100 127 154 188 236 292
#     4   9  18  32  47  64  93 133 169 198 232 277
#     4  10  18  28  48  75  98 123 159 201 239 277
#     4   8  14  26  45  70 100 132 163 194 232 280
#
# _framework density 17.526762999999999
#
# number of rings (size 3 to 8) (size 9 to 14) (size 15 to 20)
#    0.000    2.750    0.000    3.750    0.000    3.750 
#    0.000    0.625    0.000    4.125    0.000    3.500 
#    0.000    0.000    0.000    0.000    0.000    0.000 
#
# Total GULP energy -396742.246475 kJ/mol
# GULP energy per Si atom -12398.195202 kJ/mol
# Density = 1.748687 g / cm^3
# Si number density = 17.526763 Si / 1000 Ang^3
#
#
#
# Elastic Constant Matrix: (Units=GPa)
#
#
# Indices 1 2 3 4 5 6 
#
# 1 123.8081 46.0998 73.9365 0.0000 0.0000 0.0000
# 2 46.0998 48.4610 39.1995 0.0000 0.0000 0.0000
# 3 73.9365 39.1995 90.4953 0.0000 0.0000 0.0000
# 4 0.0000 0.0000 0.0000 22.1338 0.0000 0.0000
# 5 0.0000 0.0000 0.0000 0.0000 31.2322 0.0000
# 6 0.0000 0.0000 0.0000 0.0000 0.0000 27.0430
#
#
#
# Elastic Compliance Matrix: (Units=1/GPa)
#
#
# Indices 1 2 3 4 5 6 
#
# 1 0.017510 -0.007828 -0.010916 0.000000 0.000000 0.000000
# 2 -0.007828 0.035264 -0.008880 0.000000 0.000000 0.000000
# 3 -0.010916 -0.008880 0.023815 0.000000 0.000000 0.000000
# 4 0.000000 0.000000 0.000000 0.045180 0.000000 0.000000
# 5 0.000000 0.000000 0.000000 0.000000 0.032018 0.000000
# 6 0.000000 0.000000 0.000000 0.000000 0.000000 0.036978
#
#
# Mechanical properties :
#
#
# Convention : Reuss Voigt Hill
#
# Bulk Modulus (GPa) = 46.85317 64.58177 55.71747
# Shear Modulus (GPa) = 19.75296 22.98369 21.36833
#
# Velocity S-wave (km/s) = 3.36075 3.62518 3.49547
# Velocity P-wave (km/s) = 6.46915 7.37903 6.93902
#
# Compressibility (1/GPa) = 0.02134327
#
# Stress axis : x y z
#
# Youngs Moduli (GPa) = 57.10934 28.35728 41.99023
#
# Poissons Ratio (x) = 0.22197 0.45835
# Poissons Ratio (y) = 0.44703 0.37287
# Poissons Ratio (z) = 0.62338 0.25181
#
# Static dielectric constant tensor:
#      x y z
#    x 3.325610 0.000000 0.000000 
#    y 0.000000 2.934890 0.000000 
#    z 0.000000 0.000000 3.178710 
# 
# 
# High freq. dielectric constant tensor:
#      x y z
#    x 1.680130 0.000000 0.000000 
#    y 0.000000 1.654180 0.000000 
#    z 0.000000 0.000000 1.659740 
# 
# From -- ./inp_files/25769.got.cif
#   From: 2010.03.12/outbox.cif.g09.slc.cpg/sg44_13_cif.got.tgz:25769.got - 2010.04.14 02:36:11.
