data_PCOD8188030
_publ_section_title
;
Structure prediction by ZEFSAII (Michael W. Deem and Ramdas Pophale) SiO2 
 PCOD8188030
Probable space group: I M M 2
;
_chemical_formula_sum "Si O2"
_cell_formula_units_Z 56
_cell_length_a 8.553519
_cell_length_b 13.754879
_cell_length_c 29.578252
_cell_angle_alpha 90.000000
_cell_angle_beta 90.000000
_cell_angle_gamma 90.000000
_cell_volume 3479.958809
_symmetry_space_group_name_H-M "I M M 2"
_symmetry_group_IT_number 44
_symmetry_cell_setting 'orthorhombic'
loop_
_space_group_symop_operation_xyz
x,y,z
-x,-y,z
-x,y,z
x,-y,z
1/2+x,1/2+y,1/2+z
1/2-x,1/2-y,1/2+z
1/2-x,1/2+y,1/2+z
1/2+x,1/2-y,1/2+z
loop_
_atom_site_type_symbol
_atom_site_label
_atom_site_fract_x
_atom_site_fract_y
_atom_site_fract_z
Si Si1 0.681895 0.889339 0.035750
Si Si2 0.683889 0.279560 0.618233
Si Si3 0.317323 0.220218 0.483648
Si Si4 0.318000 0.389733 0.066053
Si Si5 0.813365 0.111085 0.399957
Si Si6 0.329205 0.384917 0.802053
Si Si7 0.812724 0.890879 0.205348
O O1 0.500000 0.875247 0.046631
O O2 0.779122 0.858631 0.079828
O O3 0.722391 0.000000 0.023111
O O4 0.729413 0.821585 0.993615
O O5 0.500000 0.261118 0.619461
O O6 0.769618 0.177796 0.608154
O O7 0.747487 0.319090 0.666196
O O8 0.500000 0.240276 0.484614
O O9 0.275434 0.140100 0.521235
O O10 0.266878 0.183227 0.434774
O O11 0.500000 0.376740 0.055301
O O12 0.276019 0.500000 0.078859
O O13 0.746664 0.141553 0.349877
O O14 0.000000 0.121640 0.401653
O O15 0.765923 0.000000 0.411298
O O16 0.500000 0.335612 0.802890
O O17 0.349716 0.500000 0.800450
O O18 0.245292 0.354331 0.754577
O O19 0.000000 0.891390 0.207289
O O20 0.752557 0.000000 0.194598
#
# Coordination Sequence:
#
# PCOD8188030 Si02
#       7
#     8   8   8   8   8   8   8
#     4  10  20  33  47  62  84 114 146 178 208 245
#     4  10  18  27  44  68  91 114 140 174 215 254
#     4  11  21  30  44  65  88 113 140 174 216 258
#     4  10  20  33  46  59  81 114 149 182 212 248
#     4   9  16  27  44  64  87 116 147 177 209 248
#     4   7  11  21  38  60  85 113 143 172 203 243
#     4   8  13  22  38  63  92 116 139 169 206 248
#
# _framework density 16.092144000000001
#
# number of rings (size 3 to 8) (size 9 to 14) (size 15 to 20)
#    0.000    2.714    0.000    6.857    0.000    4.857 
#    0.000    0.000    0.000    1.714    0.000    5.000 
#    0.000    3.429    0.000    0.000    0.000    0.000 
#
# Total GULP energy -346958.663554 kJ/mol
# GULP energy per Si atom -12391.380841 kJ/mol
# Density = 1.605552 g / cm^3
# Si number density = 16.092144 Si / 1000 Ang^3
#
#
#
# Elastic Constant Matrix: (Units=GPa)
#
#
# Indices 1 2 3 4 5 6 
#
# 1 32.2589 17.3353 10.2774 0.0000 0.0000 0.0000
# 2 17.3353 101.3319 55.4089 0.0000 0.0000 0.0000
# 3 10.2774 55.4089 135.6658 0.0000 0.0000 0.0000
# 4 0.0000 0.0000 0.0000 24.8902 0.0000 0.0000
# 5 0.0000 0.0000 0.0000 0.0000 15.7320 0.0000
# 6 0.0000 0.0000 0.0000 0.0000 0.0000 17.2494
#
#
#
# Elastic Compliance Matrix: (Units=1/GPa)
#
#
# Indices 1 2 3 4 5 6 
#
# 1 0.034145 -0.005700 -0.000259 0.000000 0.000000 0.000000
# 2 -0.005700 0.013658 -0.005146 0.000000 0.000000 0.000000
# 3 -0.000259 -0.005146 0.009493 0.000000 0.000000 0.000000
# 4 0.000000 0.000000 0.000000 0.040176 0.000000 0.000000
# 5 0.000000 0.000000 0.000000 0.000000 0.063565 0.000000
# 6 0.000000 0.000000 0.000000 0.000000 0.000000 0.057973
#
#
# Mechanical properties :
#
#
# Convention : Reuss Voigt Hill
#
# Bulk Modulus (GPa) = 28.50211 48.36666 38.43438
# Shear Modulus (GPa) = 19.76959 23.98998 21.87979
#
# Velocity S-wave (km/s) = 3.50883 3.86526 3.69135
# Velocity P-wave (km/s) = 5.84518 7.07401 6.48875
#
# Compressibility (1/GPa) = 0.03508513
#
# Stress axis : x y z
#
# Youngs Moduli (GPa) = 29.28722 73.21887 105.34610
#
# Poissons Ratio (x) = 0.41733 0.02725
# Poissons Ratio (y) = 0.16693 0.54214
# Poissons Ratio (z) = 0.00758 0.37681
#
# Static dielectric constant tensor:
#      x y z
#    x 2.870700 0.000000 0.000000 
#    y 0.000000 2.934180 0.000000 
#    z 0.000000 0.000000 3.438730 
# 
# 
# High freq. dielectric constant tensor:
#      x y z
#    x 1.602490 0.000000 0.000000 
#    y 0.000000 1.588380 0.000000 
#    z 0.000000 0.000000 1.621200 
# 
# From -- ./inp_files/27229.got.cif
#   From: 2010.03.12/outbox.cif.g09.slc.cpg/sg44_14_cif.got.tgz:27229.got - 2010.04.14 02:36:11.
