data_PCOD8188493
_publ_section_title
;
Structure prediction by ZEFSAII (Michael W. Deem and Ramdas Pophale) SiO2 
 PCOD8188493
Probable space group: I M M 2
;
_chemical_formula_sum "Si O2"
_cell_formula_units_Z 56
_cell_length_a 8.739546
_cell_length_b 18.534263
_cell_length_c 20.872984
_cell_angle_alpha 90.000000
_cell_angle_beta 90.000000
_cell_angle_gamma 90.000000
_cell_volume 3381.027741
_symmetry_space_group_name_H-M "I M M 2"
_symmetry_group_IT_number 44
_symmetry_cell_setting 'orthorhombic'
loop_
_space_group_symop_operation_xyz
x,y,z
-x,-y,z
-x,y,z
x,-y,z
1/2+x,1/2+y,1/2+z
1/2-x,1/2-y,1/2+z
1/2-x,1/2+y,1/2+z
1/2+x,1/2-y,1/2+z
loop_
_atom_site_type_symbol
_atom_site_label
_atom_site_fract_x
_atom_site_fract_y
_atom_site_fract_z
Si Si1 0.320876 0.721962 0.875000
Si Si2 0.177795 0.584449 0.559945
Si Si3 0.821784 0.417961 0.315342
Si Si4 0.679650 0.655546 0.438174
Si Si5 0.320178 0.152009 0.192449
Si Si6 0.322454 0.294450 0.253880
Si Si7 0.821320 0.920732 0.315262
O O1 0.500000 0.737169 0.862653
O O2 0.264094 0.765241 0.938061
O O3 0.216097 0.755361 0.820001
O O4 0.287238 0.635692 0.873733
O O5 0.207611 0.500000 0.567831
O O6 0.278288 0.614402 0.502546
O O7 0.236858 0.623680 0.624138
O O8 0.000000 0.600873 0.546605
O O9 0.779487 0.500000 0.298931
O O10 0.732021 0.393530 0.378626
O O11 0.772706 0.369473 0.253454
O O12 0.000000 0.408323 0.329449
O O13 0.500000 0.667821 0.435051
O O14 0.500000 0.141539 0.199930
O O15 0.276714 0.237505 0.198026
O O16 0.246936 0.104970 0.248335
O O17 0.500000 0.314318 0.250640
O O18 0.000000 0.925370 0.303467
O O19 0.755899 0.000000 0.333888
#
# Coordination Sequence:
#
# PCOD8188493 Si02
#       7
#     8   8   8   8   8   8   8
#     4   9  16  28  45  62  85 117 147 176 215 263
#     4  10  20  33  47  63  87 120 153 180 210 254
#     4  10  19  30  45  65  89 117 147 178 217 265
#     4  11  21  31  44  63  88 116 149 187 221 255
#     4   9  18  31  46  65  89 119 151 179 211 254
#     4   9  16  27  44  65  88 112 142 181 219 256
#     4   9  17  28  44  68  94 117 143 178 218 257
#
# _framework density 16.563012000000001
#
# number of rings (size 3 to 8) (size 9 to 14) (size 15 to 20)
#    0.000    2.429    0.000    5.143    0.000    5.714 
#    0.000    0.000    0.000    0.000    0.000    1.000 
#    0.000    3.429    0.000    0.000    0.000    0.000 
#
# Total GULP energy -346943.996930 kJ/mol
# GULP energy per Si atom -12390.857033 kJ/mol
# Density = 1.652531 g / cm^3
# Si number density = 16.563012 Si / 1000 Ang^3
#
#
#
# Elastic Constant Matrix: (Units=GPa)
#
#
# Indices 1 2 3 4 5 6 
#
# 1 51.1760 45.3214 22.0596 0.0000 0.0000 0.0000
# 2 45.3214 158.7720 51.0491 0.0000 0.0000 0.0000
# 3 22.0596 51.0491 54.8826 0.0000 0.0000 0.0000
# 4 0.0000 0.0000 0.0000 27.4805 0.0000 0.0000
# 5 0.0000 0.0000 0.0000 0.0000 23.6993 0.0000
# 6 0.0000 0.0000 0.0000 0.0000 0.0000 17.6299
#
#
#
# Elastic Compliance Matrix: (Units=1/GPa)
#
#
# Indices 1 2 3 4 5 6 
#
# 1 0.027187 -0.006059 -0.005292 0.000000 0.000000 0.000000
# 2 -0.006059 0.010336 -0.007179 0.000000 0.000000 0.000000
# 3 -0.005292 -0.007179 0.027025 0.000000 0.000000 0.000000
# 4 0.000000 0.000000 0.000000 0.036389 0.000000 0.000000
# 5 0.000000 0.000000 0.000000 0.000000 0.042195 0.000000
# 6 0.000000 0.000000 0.000000 0.000000 0.000000 0.056722
#
#
# Mechanical properties :
#
#
# Convention : Reuss Voigt Hill
#
# Bulk Modulus (GPa) = 36.37797 55.74342 46.06070
# Shear Modulus (GPa) = 20.31884 23.52199 21.92042
#
# Velocity S-wave (km/s) = 3.50631 3.77258 3.64188
# Velocity P-wave (km/s) = 6.19705 7.25981 6.74938
#
# Compressibility (1/GPa) = 0.02748916
#
# Stress axis : x y z
#
# Youngs Moduli (GPa) = 36.78166 96.74876 37.00297
#
# Poissons Ratio (x) = 0.58622 0.19581
# Poissons Ratio (y) = 0.22287 0.26563
# Poissons Ratio (z) = 0.19464 0.69452
#
# Static dielectric constant tensor:
#      x y z
#    x 3.119110 0.000000 0.000000 
#    y 0.000000 3.849820 0.000000 
#    z 0.000000 0.000000 2.987940 
# 
# 
# High freq. dielectric constant tensor:
#      x y z
#    x 1.645090 0.000000 0.000000 
#    y 0.000000 1.651070 0.000000 
#    z 0.000000 0.000000 1.588920 
# 
# From -- ./inp_files/23225.got.cif
#   From: 2010.03.12/outbox.cif.g09.slc.cpg/sg44_12_cif.got.tgz:23225.got - 2010.04.14 02:36:11.
