data_PCOD8188724
_publ_section_title
;
Structure prediction by ZEFSAII (Michael W. Deem and Ramdas Pophale) SiO2 
 PCOD8188724
Probable space group: I M M 2
;
_chemical_formula_sum "Si O2"
_cell_formula_units_Z 48
_cell_length_a 8.704495
_cell_length_b 31.112460
_cell_length_c 9.152877
_cell_angle_alpha 90.000000
_cell_angle_beta 90.000000
_cell_angle_gamma 90.000000
_cell_volume 2478.766155
_symmetry_space_group_name_H-M "I M M 2"
_symmetry_group_IT_number 44
_symmetry_cell_setting 'orthorhombic'
loop_
_space_group_symop_operation_xyz
x,y,z
-x,-y,z
-x,y,z
x,-y,z
1/2+x,1/2+y,1/2+z
1/2-x,1/2-y,1/2+z
1/2-x,1/2+y,1/2+z
1/2+x,1/2-y,1/2+z
loop_
_atom_site_type_symbol
_atom_site_label
_atom_site_fract_x
_atom_site_fract_y
_atom_site_fract_z
Si Si1 0.821328 0.206507 0.391900
Si Si2 0.819879 0.709682 0.206583
Si Si3 0.682721 0.952611 0.393287
Si Si4 0.682696 0.047462 0.721415
Si Si5 0.683021 0.128806 0.893886
Si Si6 0.182200 0.628475 0.720696
O O1 0.779982 0.249293 0.303980
O O2 0.773469 0.213610 0.558092
O O3 0.729167 0.167335 0.323551
O O4 0.000000 0.195897 0.383474
O O5 0.759949 0.668076 0.294324
O O6 0.000000 0.706175 0.171298
O O7 0.500000 0.950882 0.393994
O O8 0.743315 0.943854 0.557409
O O9 0.749365 0.916090 0.286258
O O10 0.737554 0.000000 0.340332
O O11 0.500000 0.049445 0.721721
O O12 0.748964 0.084192 0.828001
O O13 0.736959 0.000000 0.774580
O O14 0.500000 0.128208 0.898238
O O15 0.749174 0.134454 0.057539
O O16 0.000000 0.626532 0.716203
#
# Coordination Sequence:
#
# PCOD8188724 Si02
#       6
#     8   8   8   8   8   8
#     4  11  23  37  55  79 104 131 169 213 256 308
#     4  10  21  37  55  74 100 134 170 209 254 305
#     4   8  14  25  44  72 103 136 175 215 254 298
#     4   8  13  22  38  64  99 132 162 204 255 300
#     4   9  17  29  47  72 100 133 171 206 248 303
#     4  10  19  32  52  76 106 141 173 210 257 307
#
# _framework density 19.364473
#
# number of rings (size 3 to 8) (size 9 to 14) (size 15 to 20)
#    0.000    2.667    0.000    3.500    0.000    6.000 
#    0.000    4.167    0.000    0.500    0.000    0.000 
#    0.000    1.333    0.000    0.000    0.000    0.000 
#
# Total GULP energy -297537.899465 kJ/mol
# GULP energy per Si atom -12397.412478 kJ/mol
# Density = 1.932040 g / cm^3
# Si number density = 19.364473 Si / 1000 Ang^3
#
#
#
# Elastic Constant Matrix: (Units=GPa)
#
#
# Indices 1 2 3 4 5 6 
#
# 1 6.3133 11.1544 11.0478 0.0002 0.0002 0.0001
# 2 11.1544 151.3266 68.9371 -0.0010 -0.0003 -0.0003
# 3 11.0478 68.9371 136.0861 -0.0005 -0.0006 -0.0002
# 4 0.0002 -0.0010 -0.0005 40.5483 -0.0004 -0.0002
# 5 0.0002 -0.0003 -0.0006 -0.0004 17.4989 0.0003
# 6 0.0001 -0.0003 -0.0002 -0.0002 0.0003 16.0789
#
#
#
# Elastic Compliance Matrix: (Units=1/GPa)
#
#
# Indices 1 2 3 4 5 6 
#
# 1 0.194137 -0.009269 -0.011065 -0.000001 -0.000003 -0.000002
# 2 -0.009269 0.009033 -0.003823 0.000000 0.000000 0.000000
# 3 -0.011065 -0.003823 0.010183 0.000000 0.000000 0.000000
# 4 -0.000001 0.000000 0.000000 0.024662 0.000001 0.000000
# 5 -0.000003 0.000000 0.000000 0.000001 0.057146 -0.000001
# 6 -0.000002 0.000000 0.000000 0.000000 -0.000001 0.062193
#
#
# Mechanical properties :
#
#
# Convention : Reuss Voigt Hill
#
# Bulk Modulus (GPa) = 6.05921 52.88941 29.47431
# Shear Modulus (GPa) = 10.85344 28.33101 19.59222
#
# Velocity S-wave (km/s) = 2.37002 3.82912 3.18427
# Velocity P-wave (km/s) = 3.25962 6.84992 5.36407
#
# Compressibility (1/GPa) = 0.16503808
#
# Stress axis : x y z
#
# Youngs Moduli (GPa) = 5.15100 110.70195 98.19876
#
# Poissons Ratio (x) = 1.02613 1.08657
# Poissons Ratio (y) = 0.04775 0.37546
# Poissons Ratio (z) = 0.05700 0.42327
#
# Static dielectric constant tensor:
#      x y z
#    x 2.940710 0.000000 0.000000 
#    y 0.000000 3.914970 0.000000 
#    z 0.000000 0.000000 3.755730 
# 
# 
# High freq. dielectric constant tensor:
#      x y z
#    x 1.689530 0.000000 0.000000 
#    y 0.000000 1.774950 0.000000 
#    z 0.000000 0.000000 1.762100 
# 
# From -- ./inp_files/4893.got.cif
#   From: 2010.03.12/outbox.cif.g09.slc.cpg/sg44_3_cif.got.tgz:4893.got - 2010.04.14 02:36:11.
