data_PCOD8188490
_publ_section_title
;
Structure prediction by ZEFSAII (Michael W. Deem and Ramdas Pophale) SiO2 
 PCOD8188490
Probable space group: I M M 2
;
_chemical_formula_sum "Si O2"
_cell_formula_units_Z 64
_cell_length_a 16.401331
_cell_length_b 9.748495
_cell_length_c 22.809857
_cell_angle_alpha 90.000000
_cell_angle_beta 90.000000
_cell_angle_gamma 90.000000
_cell_volume 3647.029105
_symmetry_space_group_name_H-M "I M M 2"
_symmetry_group_IT_number 44
_symmetry_cell_setting 'orthorhombic'
loop_
_space_group_symop_operation_xyz
x,y,z
-x,-y,z
-x,y,z
x,-y,z
1/2+x,1/2+y,1/2+z
1/2-x,1/2-y,1/2+z
1/2-x,1/2+y,1/2+z
1/2+x,1/2-y,1/2+z
loop_
_atom_site_type_symbol
_atom_site_label
_atom_site_fract_x
_atom_site_fract_y
_atom_site_fract_z
Si Si1 0.347672 0.841458 0.576970
Si Si2 0.090681 0.161972 0.428681
Si Si3 0.091744 0.653305 0.202755
Si Si4 0.093653 0.150188 0.561974
Si Si5 0.224620 0.156362 0.246961
Si Si6 0.409620 0.838127 0.450443
Si Si7 0.758313 0.660972 0.875367
Si Si8 0.293533 0.839906 0.122179
O O1 0.404466 0.814632 0.633331
O O2 0.396091 0.800518 0.518508
O O3 0.271063 0.740867 0.582171
O O4 0.318787 0.000000 0.573711
O O5 0.109377 0.199796 0.495796
O O6 0.168751 0.222574 0.392895
O O7 0.000000 0.221324 0.410174
O O8 0.086032 0.000000 0.420367
O O9 0.124196 0.500000 0.214255
O O10 0.143546 0.754530 0.242516
O O11 0.000000 0.671027 0.224115
O O12 0.121691 0.269011 0.606312
O O13 0.000000 0.131104 0.574525
O O14 0.135639 0.000000 0.572704
O O15 0.272976 0.192621 0.306554
O O16 0.281973 0.184670 0.191415
O O17 0.194647 0.000000 0.248346
O O18 0.500000 0.780654 0.432409
O O19 0.335468 0.774716 0.411089
O O20 0.410301 0.000000 0.441434
O O21 0.756057 0.500000 0.888972
O O22 0.291948 0.000000 0.105972
#
# Coordination Sequence:
#
# PCOD8188490 Si02
#       8
#     8   8   8   8   8   8   8   8
#     4   9  16  28  48  71  93 116 145 184 230 280
#     4   8  14  25  44  71  96 115 142 185 233 276
#     4   9  17  29  46  69  95 120 146 181 227 276
#     4   9  17  30  49  72  94 115 146 190 236 281
#     4   9  19  32  44  63  91 123 158 190 220 263
#     4   9  16  26  45  73  96 114 146 196 246 283
#     4   9  16  27  43  64  92 122 152 189 230 271
#     4  10  19  30  44  65  95 126 154 185 224 271
#
# _framework density 17.54853
#
# number of rings (size 3 to 8) (size 9 to 14) (size 15 to 20)
#    0.000    3.000    0.000    2.250    0.000    5.000 
#    0.000    1.875    0.000    6.375    0.000    0.000 
#    0.000    0.000    0.000    0.000    0.000    0.000 
#
# Total GULP energy -396494.840501 kJ/mol
# GULP energy per Si atom -12390.463766 kJ/mol
# Density = 1.750859 g / cm^3
# Si number density = 17.548530 Si / 1000 Ang^3
#
#
#
# Elastic Constant Matrix: (Units=GPa)
#
#
# Indices 1 2 3 4 5 6 
#
# 1 99.6461 24.5706 58.2968 0.0000 0.0000 0.0000
# 2 24.5706 49.3637 30.6529 0.0000 0.0000 0.0000
# 3 58.2968 30.6529 85.4009 0.0000 0.0000 0.0000
# 4 0.0000 0.0000 0.0000 18.2089 0.0000 0.0000
# 5 0.0000 0.0000 0.0000 0.0000 17.2124 0.0000
# 6 0.0000 0.0000 0.0000 0.0000 0.0000 17.5227
#
#
#
# Elastic Compliance Matrix: (Units=1/GPa)
#
#
# Indices 1 2 3 4 5 6 
#
# 1 0.016805 -0.001597 -0.010898 0.000000 0.000000 0.000000
# 2 -0.001597 0.026220 -0.008321 0.000000 0.000000 0.000000
# 3 -0.010898 -0.008321 0.022136 0.000000 0.000000 0.000000
# 4 0.000000 0.000000 0.000000 0.054918 0.000000 0.000000
# 5 0.000000 0.000000 0.000000 0.000000 0.058098 0.000000
# 6 0.000000 0.000000 0.000000 0.000000 0.000000 0.057069
#
#
# Mechanical properties :
#
#
# Convention : Reuss Voigt Hill
#
# Bulk Modulus (GPa) = 42.50293 51.27236 46.88764
# Shear Modulus (GPa) = 17.56107 18.64817 18.10462
#
# Velocity S-wave (km/s) = 3.16684 3.26339 3.21548
# Velocity P-wave (km/s) = 6.13552 6.59397 6.36887
#
# Compressibility (1/GPa) = 0.02352779
#
# Stress axis : x y z
#
# Youngs Moduli (GPa) = 59.50468 38.13934 45.17618
#
# Poissons Ratio (x) = 0.06092 0.49235
# Poissons Ratio (y) = 0.09505 0.37589
# Poissons Ratio (z) = 0.64851 0.31734
#
# Static dielectric constant tensor:
#      x y z
#    x 3.493320 0.000000 0.000000 
#    y 0.000000 3.090970 0.000000 
#    z 0.000000 0.000000 3.266350 
# 
# 
# High freq. dielectric constant tensor:
#      x y z
#    x 1.678240 0.000000 0.000000 
#    y 0.000000 1.632110 0.000000 
#    z 0.000000 0.000000 1.672010 
# 
# From -- ./inp_files/23324.got.cif
#   From: 2010.03.12/outbox.cif.g09.slc.cpg/sg44_12_cif.got.tgz:23324.got - 2010.04.14 02:36:11.
