data_PCOD8188063
_publ_section_title
;
Structure prediction by ZEFSAII (Michael W. Deem and Ramdas Pophale) SiO2 
 PCOD8188063
Probable space group: I M M 2
;
_chemical_formula_sum "Si O2"
_cell_formula_units_Z 64
_cell_length_a 18.120904
_cell_length_b 9.106480
_cell_length_c 26.099266
_cell_angle_alpha 90.000000
_cell_angle_beta 90.000000
_cell_angle_gamma 90.000000
_cell_volume 4306.839538
_symmetry_space_group_name_H-M "I M M 2"
_symmetry_group_IT_number 44
_symmetry_cell_setting 'orthorhombic'
loop_
_space_group_symop_operation_xyz
x,y,z
-x,-y,z
-x,y,z
x,-y,z
1/2+x,1/2+y,1/2+z
1/2-x,1/2-y,1/2+z
1/2-x,1/2+y,1/2+z
1/2+x,1/2-y,1/2+z
loop_
_atom_site_type_symbol
_atom_site_label
_atom_site_fract_x
_atom_site_fract_y
_atom_site_fract_z
Si Si1 0.582522 0.327571 0.753450
Si Si2 0.085111 0.331898 0.556614
Si Si3 0.298620 0.837894 0.699990
Si Si4 0.086015 0.330578 0.741821
Si Si5 0.327394 0.326932 0.853388
Si Si6 0.415031 0.168842 0.938614
Si Si7 0.655737 0.673698 0.147050
Si Si8 0.702703 0.334721 0.301986
O O1 0.500000 0.261826 0.750727
O O2 0.580807 0.500000 0.747493
O O3 0.630720 0.266862 0.705966
O O4 0.617493 0.280691 0.807610
O O5 0.100207 0.500000 0.572438
O O6 0.106021 0.306424 0.497653
O O7 0.135267 0.224241 0.590148
O O8 0.000000 0.292435 0.566138
O O9 0.242191 0.784717 0.655700
O O10 0.251668 0.838187 0.751529
O O11 0.328958 0.000000 0.687838
O O12 0.110957 0.500000 0.738812
O O13 0.103515 0.255108 0.687622
O O14 0.127823 0.252582 0.789087
O O15 0.000000 0.315433 0.753329
O O16 0.314477 0.500000 0.854918
O O17 0.362931 0.274580 0.906214
O O18 0.248170 0.248835 0.846345
O O19 0.500000 0.212016 0.929038
O O20 0.401781 0.000000 0.922773
O O21 0.644052 0.500000 0.153861
O O22 0.683697 0.500000 0.320253
#
# Coordination Sequence:
#
# PCOD8188063 Si02
#       8
#     8   8   8   8   8   8   8   8
#     4   9  17  27  39  58  82 106 134 167 200 236
#     4   9  18  31  44  59  81 109 141 176 212 248
#     4   8  16  28  39  55  78 104 134 166 200 239
#     4  10  19  29  42  61  85 112 141 172 207 248
#     4  10  18  28  43  61  83 111 141 172 208 248
#     4   9  18  31  44  59  82 111 142 176 211 246
#     4  10  19  29  42  60  82 109 142 176 208 246
#     4   9  17  29  43  59  81 108 139 173 206 243
#
# _framework density 14.860085
#
# number of rings (size 3 to 8) (size 9 to 14) (size 15 to 20)
#    0.000    2.750    0.000    3.750    0.000    8.250 
#    0.000    1.250    0.000    0.000    0.000    0.000 
#    0.000    1.000    0.000    7.000    0.000    5.500 
#
# Total GULP energy -396744.327143 kJ/mol
# GULP energy per Si atom -12398.260223 kJ/mol
# Density = 1.482626 g / cm^3
# Si number density = 14.860085 Si / 1000 Ang^3
#
#
#
# Elastic Constant Matrix: (Units=GPa)
#
#
# Indices 1 2 3 4 5 6 
#
# 1 83.3732 47.8410 40.8595 0.0000 0.0000 0.0000
# 2 47.8410 81.7377 36.8270 0.0000 0.0000 0.0000
# 3 40.8595 36.8270 62.2116 0.0000 0.0000 0.0000
# 4 0.0000 0.0000 0.0000 25.1151 0.0000 0.0000
# 5 0.0000 0.0000 0.0000 0.0000 26.5585 0.0000
# 6 0.0000 0.0000 0.0000 0.0000 0.0000 25.9345
#
#
#
# Elastic Compliance Matrix: (Units=1/GPa)
#
#
# Indices 1 2 3 4 5 6 
#
# 1 0.021185 -0.008360 -0.008965 0.000000 0.000000 0.000000
# 2 -0.008360 0.019983 -0.006338 0.000000 0.000000 0.000000
# 3 -0.008965 -0.006338 0.025714 0.000000 0.000000 0.000000
# 4 0.000000 0.000000 0.000000 0.039817 0.000000 0.000000
# 5 0.000000 0.000000 0.000000 0.000000 0.037653 0.000000
# 6 0.000000 0.000000 0.000000 0.000000 0.000000 0.038559
#
#
# Mechanical properties :
#
#
# Convention : Reuss Voigt Hill
#
# Bulk Modulus (GPa) = 51.13736 53.15304 52.14520
# Shear Modulus (GPa) = 21.11866 22.30794 21.71330
#
# Velocity S-wave (km/s) = 3.77393 3.87873 3.82669
# Velocity P-wave (km/s) = 7.31282 7.47704 7.39538
#
# Compressibility (1/GPa) = 0.01955518
#
# Stress axis : x y z
#
# Youngs Moduli (GPa) = 47.20270 50.04149 38.88878
#
# Poissons Ratio (x) = 0.41837 0.34864
# Poissons Ratio (y) = 0.39464 0.24649
# Poissons Ratio (z) = 0.42317 0.31718
#
# Static dielectric constant tensor:
#      x y z
#    x 2.929480 0.000000 0.000000 
#    y 0.000000 2.964580 0.000000 
#    z 0.000000 0.000000 2.663110 
# 
# 
# High freq. dielectric constant tensor:
#      x y z
#    x 1.556050 0.000000 0.000000 
#    y 0.000000 1.580100 0.000000 
#    z 0.000000 0.000000 1.533520 
# 
# From -- ./inp_files/25216.got.cif
#   From: 2010.03.12/outbox.cif.g09.slc.cpg/sg44_13_cif.got.tgz:25216.got - 2010.04.14 02:36:11.
