data_PCOD8188801
_publ_section_title
;
Structure prediction by ZEFSAII (Michael W. Deem and Ramdas Pophale) SiO2 
 PCOD8188801
Probable space group: I M M 2
;
_chemical_formula_sum "Si O2"
_cell_formula_units_Z 64
_cell_length_a 17.297791
_cell_length_b 14.080784
_cell_length_c 13.898855
_cell_angle_alpha 90.000000
_cell_angle_beta 90.000000
_cell_angle_gamma 90.000000
_cell_volume 3385.294893
_symmetry_space_group_name_H-M "I M M 2"
_symmetry_group_IT_number 44
_symmetry_cell_setting 'orthorhombic'
loop_
_space_group_symop_operation_xyz
x,y,z
-x,-y,z
-x,y,z
x,-y,z
1/2+x,1/2+y,1/2+z
1/2-x,1/2-y,1/2+z
1/2-x,1/2+y,1/2+z
1/2+x,1/2-y,1/2+z
loop_
_atom_site_type_symbol
_atom_site_label
_atom_site_fract_x
_atom_site_fract_y
_atom_site_fract_z
Si Si1 0.411059 0.389557 0.253670
Si Si2 0.716049 0.106792 0.074400
Si Si3 0.089261 0.760839 0.572428
Si Si4 0.091728 0.392942 0.248694
Si Si5 0.867033 0.107334 0.184689
Si Si6 0.413594 0.777285 0.566788
Si Si7 0.693837 0.288171 0.411050
Si Si8 0.648508 0.276301 0.865553
O O1 0.500000 0.374380 0.285569
O O2 0.390801 0.500000 0.243903
O O3 0.395246 0.342417 0.150446
O O4 0.356218 0.343811 0.333262
O O5 0.641591 0.170202 0.097938
O O6 0.775587 0.114332 0.163101
O O7 0.686195 0.000000 0.060467
O O8 0.760713 0.137504 0.978025
O O9 0.113450 0.802743 0.468965
O O10 0.000000 0.728830 0.572037
O O11 0.123856 0.500000 0.258522
O O12 0.120885 0.348529 0.147472
O O13 0.122885 0.330710 0.336991
O O14 0.000000 0.390884 0.251018
O O15 0.914687 0.170090 0.108547
O O16 0.883628 0.145993 0.291545
O O17 0.897721 0.000000 0.176574
O O18 0.500000 0.807071 0.537277
O O19 0.360621 0.782068 0.472663
O O20 0.758159 0.220798 0.362846
#
# Coordination Sequence:
#
# PCOD8188801 Si02
#       8
#     8   8   8   8   8   8   8   8
#     4  10  21  36  53  73  99 135 177 215 249 289
#     4   9  18  33  53  76  99 124 159 205 255 304
#     4  10  21  35  50  71 101 135 171 209 247 290
#     4   9  18  34  56  80 104 130 163 206 255 305
#     4   9  18  33  52  73  98 128 162 202 248 297
#     4   9  18  33  53  78 105 129 158 202 255 306
#     4  10  19  33  52  75 102 132 163 205 252 300
#     4  10  20  33  50  74 102 133 168 204 246 297
#
# _framework density 18.905294999999999
#
# number of rings (size 3 to 8) (size 9 to 14) (size 15 to 20)
#    0.000    2.500    0.000    1.875    0.000    5.500 
#    0.000    0.625    0.000    0.750    0.000    1.750 
#    0.000    0.000    0.000    0.000    0.000    0.000 
#
# Total GULP energy -396787.956190 kJ/mol
# GULP energy per Si atom -12399.623631 kJ/mol
# Density = 1.886227 g / cm^3
# Si number density = 18.905295 Si / 1000 Ang^3
#
#
#
# Elastic Constant Matrix: (Units=GPa)
#
#
# Indices 1 2 3 4 5 6 
#
# 1 79.2915 15.3189 32.7413 0.0000 0.0000 0.0000
# 2 15.3189 53.2571 30.0817 0.0000 0.0000 0.0000
# 3 32.7413 30.0817 91.3828 0.0000 0.0000 0.0000
# 4 0.0000 0.0000 0.0000 20.1499 0.0000 0.0000
# 5 0.0000 0.0000 0.0000 0.0000 25.6227 0.0000
# 6 0.0000 0.0000 0.0000 0.0000 0.0000 22.0276
#
#
#
# Elastic Compliance Matrix: (Units=1/GPa)
#
#
# Indices 1 2 3 4 5 6 
#
# 1 0.014906 -0.001561 -0.004827 0.000000 0.000000 0.000000
# 2 -0.001561 0.023229 -0.007087 0.000000 0.000000 0.000000
# 3 -0.004827 -0.007087 0.015005 0.000000 0.000000 0.000000
# 4 0.000000 0.000000 0.000000 0.049628 0.000000 0.000000
# 5 0.000000 0.000000 0.000000 0.000000 0.039028 0.000000
# 6 0.000000 0.000000 0.000000 0.000000 0.000000 0.045398
#
#
# Mechanical properties :
#
#
# Convention : Reuss Voigt Hill
#
# Bulk Modulus (GPa) = 38.18229 42.24614 40.21421
# Shear Modulus (GPa) = 22.43408 23.27934 22.85671
#
# Velocity S-wave (km/s) = 3.44852 3.51289 3.48086
# Velocity P-wave (km/s) = 6.00807 6.23286 6.12150
#
# Compressibility (1/GPa) = 0.02619016
#
# Stress axis : x y z
#
# Youngs Moduli (GPa) = 67.08509 43.04948 66.64283
#
# Poissons Ratio (x) = 0.06721 0.32167
# Poissons Ratio (y) = 0.10474 0.47231
# Poissons Ratio (z) = 0.32381 0.30510
#
# Static dielectric constant tensor:
#      x y z
#    x 3.540530 0.000000 0.000000 
#    y 0.000000 3.380050 0.000000 
#    z 0.000000 0.000000 3.474270 
# 
# 
# High freq. dielectric constant tensor:
#      x y z
#    x 1.737900 0.000000 0.000000 
#    y 0.000000 1.717690 0.000000 
#    z 0.000000 0.000000 1.735270 
# 
# From -- ./inp_files/14002.got.cif
#   From: 2010.03.12/outbox.cif.g09.slc.cpg/sg44_8_cif.got.tgz:14002.got - 2010.04.14 02:36:11.
