data_PCOD8188484
_publ_section_title
;
Structure prediction by ZEFSAII (Michael W. Deem and Ramdas Pophale) SiO2 
 PCOD8188484
Probable space group: I M M 2
;
_chemical_formula_sum "Si O2"
_cell_formula_units_Z 64
_cell_length_a 13.698751
_cell_length_b 8.936142
_cell_length_c 34.348125
_cell_angle_alpha 90.000000
_cell_angle_beta 90.000000
_cell_angle_gamma 90.000000
_cell_volume 4204.690830
_symmetry_space_group_name_H-M "I M M 2"
_symmetry_group_IT_number 44
_symmetry_cell_setting 'orthorhombic'
loop_
_space_group_symop_operation_xyz
x,y,z
-x,-y,z
-x,y,z
x,-y,z
1/2+x,1/2+y,1/2+z
1/2-x,1/2-y,1/2+z
1/2-x,1/2+y,1/2+z
1/2+x,1/2-y,1/2+z
loop_
_atom_site_type_symbol
_atom_site_label
_atom_site_fract_x
_atom_site_fract_y
_atom_site_fract_z
Si Si1 0.114410 0.825847 0.477850
Si Si2 0.390184 0.325978 0.121782
Si Si3 0.613818 0.174831 0.745062
Si Si4 0.384080 0.167985 0.899328
Si Si5 0.883684 0.168624 0.323041
Si Si6 0.711057 0.177150 0.050593
Si Si7 0.295303 0.174975 0.666817
Si Si8 0.388934 0.823290 0.587781
O O1 0.149214 0.768065 0.435752
O O2 0.173941 0.732923 0.509251
O O3 0.000000 0.796164 0.484213
O O4 0.139759 0.000000 0.481429
O O5 0.500000 0.287012 0.134962
O O6 0.378877 0.500000 0.110467
O O7 0.363131 0.232553 0.083733
O O8 0.317968 0.286219 0.157596
O O9 0.500000 0.206747 0.738267
O O10 0.654480 0.256901 0.783296
O O11 0.671331 0.245140 0.707917
O O12 0.634122 0.000000 0.750839
O O13 0.500000 0.164180 0.896842
O O14 0.341272 0.240970 0.859930
O O15 0.342441 0.000000 0.903648
O O16 0.000000 0.172490 0.323827
O O17 0.844148 0.000000 0.325245
O O18 0.819845 0.240691 0.056968
O O19 0.714125 0.000000 0.050993
O O20 0.361935 0.233988 0.631208
O O21 0.313326 0.000000 0.670827
O O22 0.500000 0.780174 0.578367
O O23 0.370413 0.000000 0.584525
#
# Coordination Sequence:
#
# PCOD8188484 Si02
#       8
#     8   8   8   8   8   8   8   8
#     4  10  19  30  44  61  83 112 144 176 208 245
#     4   9  17  30  46  61  80 109 144 180 216 254
#     4   9  15  23  37  56  78 105 136 169 203 241
#     4   9  16  26  40  58  80 106 136 168 203 244
#     4   9  16  25  36  52  77 108 138 165 196 238
#     4  11  21  30  42  62  87 112 140 175 212 251
#     4   8  14  25  42  63  82 103 137 176 211 248
#     4   9  17  31  49  64  81 109 143 177 213 253
#
# _framework density 15.221095999999999
#
# number of rings (size 3 to 8) (size 9 to 14) (size 15 to 20)
#    0.000    2.750    0.000    3.750    0.000    7.250 
#    0.000    2.500    0.000    3.000    0.000    0.000 
#    0.000    1.000    0.000    5.000    0.000    3.375 
#
# Total GULP energy -396723.344963 kJ/mol
# GULP energy per Si atom -12397.604530 kJ/mol
# Density = 1.518645 g / cm^3
# Si number density = 15.221096 Si / 1000 Ang^3
#
#
#
# Elastic Constant Matrix: (Units=GPa)
#
#
# Indices 1 2 3 4 5 6 
#
# 1 74.7612 35.3858 43.9996 0.0000 0.0000 0.0000
# 2 35.3858 78.7053 45.4956 0.0000 0.0000 0.0000
# 3 43.9996 45.4956 120.4142 0.0000 0.0000 0.0000
# 4 0.0000 0.0000 0.0000 23.6694 0.0000 0.0000
# 5 0.0000 0.0000 0.0000 0.0000 17.6050 0.0000
# 6 0.0000 0.0000 0.0000 0.0000 0.0000 11.5140
#
#
#
# Elastic Compliance Matrix: (Units=1/GPa)
#
#
# Indices 1 2 3 4 5 6 
#
# 1 0.018882 -0.005759 -0.004724 0.000000 0.000000 0.000000
# 2 -0.005759 0.018012 -0.004701 0.000000 0.000000 0.000000
# 3 -0.004724 -0.004701 0.011807 0.000000 0.000000 0.000000
# 4 0.000000 0.000000 0.000000 0.042249 0.000000 0.000000
# 5 0.000000 0.000000 0.000000 0.000000 0.056802 0.000000
# 6 0.000000 0.000000 0.000000 0.000000 0.000000 0.086851
#
#
# Mechanical properties :
#
#
# Convention : Reuss Voigt Hill
#
# Bulk Modulus (GPa) = 54.54422 58.18251 56.36337
# Shear Modulus (GPa) = 18.44467 20.49098 19.46783
#
# Velocity S-wave (km/s) = 3.48484 3.67307 3.58019
# Velocity P-wave (km/s) = 7.21835 7.50310 7.36210
#
# Compressibility (1/GPa) = 0.01833375
#
# Stress axis : x y z
#
# Youngs Moduli (GPa) = 52.96162 55.51765 84.69585
#
# Poissons Ratio (x) = 0.31971 0.40007
# Poissons Ratio (y) = 0.30499 0.39818
# Poissons Ratio (z) = 0.25017 0.26100
#
# Static dielectric constant tensor:
#      x y z
#    x 2.713100 0.000000 0.000000 
#    y 0.000000 2.901370 0.000000 
#    z 0.000000 0.000000 3.055950 
# 
# 
# High freq. dielectric constant tensor:
#      x y z
#    x 1.537880 0.000000 0.000000 
#    y 0.000000 1.580490 0.000000 
#    z 0.000000 0.000000 1.584940 
# 
# From -- ./inp_files/27511.got.cif
#   From: 2010.03.12/outbox.cif.g09.slc.cpg/sg44_14_cif.got.tgz:27511.got - 2010.04.14 02:36:11.
