data_PCOD8188561
_publ_section_title
;
Structure prediction by ZEFSAII (Michael W. Deem and Ramdas Pophale) SiO2 
 PCOD8188561
Probable space group: I M M 2
;
_chemical_formula_sum "Si O2"
_cell_formula_units_Z 52
_cell_length_a 7.724572
_cell_length_b 12.823200
_cell_length_c 33.031960
_cell_angle_alpha 90.000000
_cell_angle_beta 90.000000
_cell_angle_gamma 90.000000
_cell_volume 3271.938902
_symmetry_space_group_name_H-M "I M M 2"
_symmetry_group_IT_number 44
_symmetry_cell_setting 'orthorhombic'
loop_
_space_group_symop_operation_xyz
x,y,z
-x,-y,z
-x,y,z
x,-y,z
1/2+x,1/2+y,1/2+z
1/2-x,1/2-y,1/2+z
1/2-x,1/2+y,1/2+z
1/2+x,1/2-y,1/2+z
loop_
_atom_site_type_symbol
_atom_site_label
_atom_site_fract_x
_atom_site_fract_y
_atom_site_fract_z
Si Si1 0.000000 0.377368 0.317420
Si Si2 0.206162 0.384083 0.709648
Si Si3 0.196754 0.621437 0.868002
Si Si4 0.307183 0.124247 0.122170
Si Si5 0.699740 0.757173 0.286894
Si Si6 0.811602 0.123233 0.037329
Si Si7 0.500000 0.124686 0.982284
Si Si8 0.500000 0.754755 0.898833
O O1 0.175027 0.339845 0.295287
O O2 0.000000 0.338933 0.363334
O O3 0.000000 0.500000 0.316771
O O4 0.281203 0.500000 0.717955
O O5 0.272642 0.340742 0.665760
O O6 0.266428 0.307428 0.745083
O O7 0.000000 0.390654 0.708334
O O8 0.241245 0.500000 0.870690
O O9 0.221657 0.655978 0.821596
O O10 0.328007 0.683651 0.896909
O O11 0.000000 0.644189 0.882361
O O12 0.500000 0.168832 0.117297
O O13 0.203014 0.167503 0.083290
O O14 0.310511 0.000000 0.122449
O O15 0.500000 0.718820 0.284353
O O16 0.000000 0.155122 0.020241
O O17 0.788826 0.000000 0.039751
O O18 0.666581 0.165964 0.007009
O O19 0.500000 0.180715 0.939683
O O20 0.500000 0.000000 0.976111
#
# Coordination Sequence:
#
# PCOD8188561 Si02
#       8
#     4   8   8   8   8   8   4   4
#     4  10  21  35  47  62  87 117 156 199 235 261
#     4   8  13  22  40  65  94 125 150 176 211 257
#     4   9  17  30  49  70  94 121 145 175 221 274
#     4   8  12  21  37  57  85 120 148 171 208 258
#     4   9  17  30  47  67  91 121 153 183 217 261
#     4   9  16  26  40  57  80 116 154 182 215 262
#     4  10  19  31  45  60  85 121 158 193 225 257
#     4  10  20  32  48  68  88 116 152 194 226 266
#
# _framework density 15.892718
#
# number of rings (size 3 to 8) (size 9 to 14) (size 15 to 20)
#    0.000    3.077    0.769    1.846    0.000    2.769 
#    1.385    1.154    0.000    2.769    0.000    0.000 
#    0.000    2.462    0.923    0.000    0.000    0.000 
#
# Total GULP energy -322185.829117 kJ/mol
# GULP energy per Si atom -12391.762658 kJ/mol
# Density = 1.585655 g / cm^3
# Si number density = 15.892718 Si / 1000 Ang^3
#
#
#
# Elastic Constant Matrix: (Units=GPa)
#
#
# Indices 1 2 3 4 5 6 
#
# 1 102.9433 40.8873 56.3280 0.0000 0.0000 0.0000
# 2 40.8873 73.0636 41.8435 0.0000 0.0000 0.0000
# 3 56.3280 41.8435 117.2381 0.0000 0.0000 0.0000
# 4 0.0000 0.0000 0.0000 20.4245 0.0000 0.0000
# 5 0.0000 0.0000 0.0000 0.0000 10.1285 0.0000
# 6 0.0000 0.0000 0.0000 0.0000 0.0000 14.1081
#
#
#
# Elastic Compliance Matrix: (Units=1/GPa)
#
#
# Indices 1 2 3 4 5 6 
#
# 1 0.014609 -0.005223 -0.005155 0.000000 0.000000 0.000000
# 2 -0.005223 0.019071 -0.004297 0.000000 0.000000 0.000000
# 3 -0.005155 -0.004297 0.012540 0.000000 0.000000 0.000000
# 4 0.000000 0.000000 0.000000 0.048961 0.000000 0.000000
# 5 0.000000 0.000000 0.000000 0.000000 0.098731 0.000000
# 6 0.000000 0.000000 0.000000 0.000000 0.000000 0.070881
#
#
# Mechanical properties :
#
#
# Convention : Reuss Voigt Hill
#
# Bulk Modulus (GPa) = 59.27823 63.48474 61.38149
# Shear Modulus (GPa) = 16.67962 19.21129 17.94546
#
# Velocity S-wave (km/s) = 3.24313 3.48057 3.36395
# Velocity P-wave (km/s) = 7.16965 7.49566 7.33447
#
# Compressibility (1/GPa) = 0.01686960
#
# Stress axis : x y z
#
# Youngs Moduli (GPa) = 68.44927 52.43676 79.74494
#
# Poissons Ratio (x) = 0.27390 0.41108
# Poissons Ratio (y) = 0.35754 0.34265
# Poissons Ratio (z) = 0.35285 0.22531
#
# Static dielectric constant tensor:
#      x y z
#    x 3.182520 0.000000 0.000000 
#    y 0.000000 2.515280 0.000000 
#    z 0.000000 0.000000 3.160090 
# 
# 
# High freq. dielectric constant tensor:
#      x y z
#    x 1.618660 0.000000 0.000000 
#    y 0.000000 1.544800 0.000000 
#    z 0.000000 0.000000 1.612510 
# 
# From -- ./inp_files/27136.got.cif
#   From: 2010.03.12/outbox.cif.g09.slc.cpg/sg44_14_cif.got.tgz:27136.got - 2010.04.14 02:36:11.
