data_PCOD8188956
_publ_section_title
;
Structure prediction by ZEFSAII (Michael W. Deem and Ramdas Pophale) SiO2 
 PCOD8188956
Probable space group: I M M 2
;
_chemical_formula_sum "Si O2"
_cell_formula_units_Z 64
_cell_length_a 8.549369
_cell_length_b 23.995770
_cell_length_c 15.473930
_cell_angle_alpha 90.000000
_cell_angle_beta 90.000000
_cell_angle_gamma 90.000000
_cell_volume 3174.456502
_symmetry_space_group_name_H-M "I M M 2"
_symmetry_group_IT_number 44
_symmetry_cell_setting 'orthorhombic'
loop_
_space_group_symop_operation_xyz
x,y,z
-x,-y,z
-x,y,z
x,-y,z
1/2+x,1/2+y,1/2+z
1/2-x,1/2-y,1/2+z
1/2-x,1/2+y,1/2+z
1/2+x,1/2-y,1/2+z
loop_
_atom_site_type_symbol
_atom_site_label
_atom_site_fract_x
_atom_site_fract_y
_atom_site_fract_z
Si Si1 0.183043 0.361299 0.519660
Si Si2 0.183365 0.367135 0.200849
Si Si3 0.183176 0.754705 0.765385
Si Si4 0.180770 0.252801 0.966448
Si Si5 0.818849 0.133001 0.519143
Si Si6 0.184773 0.561983 0.866615
Si Si7 0.682550 0.865172 0.212125
Si Si8 0.814029 0.562563 0.364039
O O1 0.277105 0.304104 0.514106
O O2 0.215101 0.386667 0.614945
O O3 0.246550 0.405248 0.449331
O O4 0.000000 0.348638 0.505426
O O5 0.217944 0.302975 0.220801
O O6 0.271656 0.386721 0.114837
O O7 0.246822 0.405420 0.279181
O O8 0.000000 0.375397 0.186947
O O9 0.221221 0.753948 0.866354
O O10 0.247813 0.697259 0.724967
O O11 0.000000 0.764865 0.746911
O O12 0.000000 0.267638 0.980794
O O13 0.282350 0.301844 0.007848
O O14 0.722646 0.096617 0.451633
O O15 0.000000 0.121823 0.503943
O O16 0.257629 0.500000 0.872476
O O17 0.257579 0.592418 0.781749
O O18 0.000000 0.557868 0.857624
O O19 0.500000 0.861476 0.232439
O O20 0.745085 0.500000 0.364762
O O21 0.000000 0.560901 0.364838
#
# Coordination Sequence:
#
# PCOD8188956 Si02
#       8
#     8   8   8   8   8   8   8   8
#     4  10  19  34  59  89 120 154 193 240 292 345
#     4  11  22  37  59  86 117 154 200 243 295 355
#     4  10  19  34  57  84 120 154 187 236 295 354
#     4  11  21  36  60  87 119 155 195 240 293 353
#     4  12  25  40  60  86 118 153 197 247 301 353
#     4  10  21  40  63  86 115 154 199 243 293 352
#     4   9  18  34  57  86 116 147 185 233 289 348
#     4   9  19  35  55  83 118 154 195 240 285 341
#
# _framework density 20.16093
#
# number of rings (size 3 to 8) (size 9 to 14) (size 15 to 20)
#    0.000    1.750    2.500    2.625    0.000    2.750 
#    0.000    4.375    0.000    3.000    0.000    0.000 
#    0.000    0.000    0.000    0.000    0.000    0.000 
#
# Total GULP energy -396884.114523 kJ/mol
# GULP energy per Si atom -12402.628579 kJ/mol
# Density = 2.011504 g / cm^3
# Si number density = 20.160930 Si / 1000 Ang^3
#
#
#
# Elastic Constant Matrix: (Units=GPa)
#
#
# Indices 1 2 3 4 5 6 
#
# 1 28.7674 4.4517 10.6342 0.0001 0.0000 0.0000
# 2 4.4517 147.1656 63.8060 0.0002 0.0000 0.0000
# 3 10.6342 63.8060 146.7643 0.0015 0.0001 0.0000
# 4 0.0001 0.0002 0.0015 12.0221 0.0002 0.0000
# 5 0.0000 0.0000 0.0001 0.0002 19.9025 0.0000
# 6 0.0000 0.0000 0.0000 0.0000 0.0000 22.6764
#
#
#
# Elastic Compliance Matrix: (Units=1/GPa)
#
#
# Indices 1 2 3 4 5 6 
#
# 1 0.035719 0.000051 -0.002610 0.000000 0.000000 0.000000
# 2 0.000051 0.008373 -0.003644 0.000000 0.000000 0.000000
# 3 -0.002610 -0.003644 0.008587 -0.000001 0.000000 0.000000
# 4 0.000000 0.000000 -0.000001 0.083180 -0.000001 0.000000
# 5 0.000000 0.000000 0.000000 -0.000001 0.050245 0.000000
# 6 0.000000 0.000000 0.000000 0.000000 0.000000 0.044099
#
#
# Mechanical properties :
#
#
# Convention : Reuss Voigt Hill
#
# Bulk Modulus (GPa) = 24.83065 53.38678 39.10872
# Shear Modulus (GPa) = 19.52867 27.17388 23.35128
#
# Velocity S-wave (km/s) = 3.11567 3.67529 3.40699
# Velocity P-wave (km/s) = 5.02854 6.67444 5.90907
#
# Compressibility (1/GPa) = 0.04027280
#
# Stress axis : x y z
#
# Youngs Moduli (GPa) = 27.99660 119.42479 116.45417
#
# Poissons Ratio (x) = -0.00613 0.30399
# Poissons Ratio (y) = -0.00144 0.42437
# Poissons Ratio (z) = 0.07308 0.43520
#
# Static dielectric constant tensor:
#      x y z
#    x 3.313420 0.000000 0.000000 
#    y 0.000000 3.796200 0.000000 
#    z 0.000000 0.000000 3.862110 
# 
# 
# High freq. dielectric constant tensor:
#      x y z
#    x 1.752670 0.000000 0.000000 
#    y 0.000000 1.784490 0.000000 
#    z 0.000000 0.000000 1.805550 
# 
# From -- ./inp_files/16857.got.cif
#   From: 2010.03.12/outbox.cif.g09.slc.cpg/sg44_9_cif.got.tgz:16857.got - 2010.04.14 02:36:11.
