data_PCOD8188832
_publ_section_title
;
Structure prediction by ZEFSAII (Michael W. Deem and Ramdas Pophale) SiO2 
 PCOD8188832
Probable space group: I M M 2
;
_chemical_formula_sum "Si O2"
_cell_formula_units_Z 48
_cell_length_a 7.865196
_cell_length_b 9.658300
_cell_length_c 33.735096
_cell_angle_alpha 90.000000
_cell_angle_beta 90.000000
_cell_angle_gamma 90.000000
_cell_volume 2562.667087
_symmetry_space_group_name_H-M "I M M 2"
_symmetry_group_IT_number 44
_symmetry_cell_setting 'orthorhombic'
loop_
_space_group_symop_operation_xyz
x,y,z
-x,-y,z
-x,y,z
x,-y,z
1/2+x,1/2+y,1/2+z
1/2-x,1/2-y,1/2+z
1/2-x,1/2+y,1/2+z
1/2+x,1/2-y,1/2+z
loop_
_atom_site_type_symbol
_atom_site_label
_atom_site_fract_x
_atom_site_fract_y
_atom_site_fract_z
Si Si1 0.300804 0.156557 0.824650
Si Si2 0.194114 0.156488 0.739436
Si Si3 0.693198 0.346453 0.671125
Si Si4 0.305054 0.340175 0.898509
Si Si5 0.312686 0.163974 0.088474
Si Si6 0.000000 0.165554 0.036040
Si Si7 0.000000 0.660115 0.957270
O O1 0.500000 0.165614 0.817632
O O2 0.212616 0.210586 0.784447
O O3 0.243725 0.252950 0.860723
O O4 0.242568 0.000000 0.834476
O O5 0.298227 0.251670 0.709712
O O6 0.000000 0.162841 0.726171
O O7 0.266053 0.000000 0.736963
O O8 0.500000 0.358236 0.657210
O O9 0.764482 0.500000 0.681590
O O10 0.791487 0.279908 0.633493
O O11 0.500000 0.301620 0.911206
O O12 0.294139 0.500000 0.886265
O O13 0.172866 0.306578 0.933351
O O14 0.500000 0.208364 0.072770
O O15 0.167704 0.220303 0.059066
O O16 0.293429 0.000000 0.090745
O O17 0.000000 0.000000 0.030515
O O18 0.000000 0.237211 0.993826
O O19 0.000000 0.500000 0.970867
#
# Coordination Sequence:
#
# PCOD8188832 Si02
#       7
#     8   8   8   8   8   4   4
#     4   9  18  33  52  74 102 136 175 219 267 313
#     4  10  21  34  48  73 109 145 180 221 269 321
#     4  10  19  33  54  78 104 138 183 228 269 317
#     4   9  19  36  56  77 104 139 176 215 262 318
#     4   9  17  32  55  80 108 139 172 219 271 312
#     4  10  20  36  56  82 108 136 178 220 262 322
#     4  10  22  38  56  80 110 140 172 216 272 322
#
# _framework density 18.730485999999999
#
# number of rings (size 3 to 8) (size 9 to 14) (size 15 to 20)
#    0.000    2.500    0.833    1.000    1.167    4.000 
#    0.000    2.500    0.000    1.000    0.000    0.000 
#    0.000    0.000    0.000    0.000    0.000    0.000 
#
# Total GULP energy -297547.289140 kJ/mol
# GULP energy per Si atom -12397.803714 kJ/mol
# Density = 1.868785 g / cm^3
# Si number density = 18.730486 Si / 1000 Ang^3
#
#
#
# Elastic Constant Matrix: (Units=GPa)
#
#
# Indices 1 2 3 4 5 6 
#
# 1 105.1838 30.3178 58.5255 0.0000 0.0000 0.0000
# 2 30.3178 59.1294 62.6552 0.0000 0.0000 0.0000
# 3 58.5255 62.6552 137.0879 0.0000 0.0000 0.0000
# 4 0.0000 0.0000 0.0000 33.9133 0.0000 0.0000
# 5 0.0000 0.0000 0.0000 0.0000 26.0930 0.0000
# 6 0.0000 0.0000 0.0000 0.0000 0.0000 17.8350
#
#
#
# Elastic Compliance Matrix: (Units=1/GPa)
#
#
# Indices 1 2 3 4 5 6 
#
# 1 0.012534 -0.001467 -0.004681 0.000000 0.000000 0.000000
# 2 -0.001467 0.032966 -0.014440 0.000000 0.000000 0.000000
# 3 -0.004681 -0.014440 0.015893 0.000000 0.000000 0.000000
# 4 0.000000 0.000000 0.000000 0.029487 0.000000 0.000000
# 5 0.000000 0.000000 0.000000 0.000000 0.038324 0.000000
# 6 0.000000 0.000000 0.000000 0.000000 0.000000 0.056069
#
#
# Mechanical properties :
#
#
# Convention : Reuss Voigt Hill
#
# Bulk Modulus (GPa) = 49.46447 67.15534 58.30990
# Shear Modulus (GPa) = 21.44181 25.56177 23.50179
#
# Velocity S-wave (km/s) = 3.38709 3.69821 3.54607
# Velocity P-wave (km/s) = 6.46238 7.35983 6.92566
#
# Compressibility (1/GPa) = 0.02021653
#
# Stress axis : x y z
#
# Youngs Moduli (GPa) = 79.78040 30.33444 62.92162
#
# Poissons Ratio (x) = 0.04450 0.29451
# Poissons Ratio (y) = 0.11705 0.90862
# Poissons Ratio (z) = 0.37342 0.43804
#
# Static dielectric constant tensor:
#      x y z
#    x 3.626980 0.000000 0.000000 
#    y 0.000000 3.261730 0.000000 
#    z 0.000000 0.000000 3.293380 
# 
# 
# High freq. dielectric constant tensor:
#      x y z
#    x 1.740550 0.000000 0.000000 
#    y 0.000000 1.699510 0.000000 
#    z 0.000000 0.000000 1.720330 
# 
# From -- ./inp_files/26898.got.cif
#   From: 2010.03.12/outbox.cif.g09.slc.cpg/sg44_14_cif.got.tgz:26898.got - 2010.04.14 02:36:11.
