data_PCOD8188757
_publ_section_title
;
Structure prediction by ZEFSAII (Michael W. Deem and Ramdas Pophale) SiO2 
 PCOD8188757
Probable space group: I M M 2
;
_chemical_formula_sum "Si O2"
_cell_formula_units_Z 64
_cell_length_a 17.561401
_cell_length_b 26.793720
_cell_length_c 6.587013
_cell_angle_alpha 90.000000
_cell_angle_beta 90.000000
_cell_angle_gamma 90.000000
_cell_volume 3099.421882
_symmetry_space_group_name_H-M "I M M 2"
_symmetry_group_IT_number 44
_symmetry_cell_setting 'orthorhombic'
loop_
_space_group_symop_operation_xyz
x,y,z
-x,-y,z
-x,y,z
x,-y,z
1/2+x,1/2+y,1/2+z
1/2-x,1/2-y,1/2+z
1/2-x,1/2+y,1/2+z
1/2+x,1/2-y,1/2+z
loop_
_atom_site_type_symbol
_atom_site_label
_atom_site_fract_x
_atom_site_fract_y
_atom_site_fract_z
Si Si1 0.087647 0.235518 0.420030
Si Si2 0.417479 0.211658 0.298311
Si Si3 0.336638 0.444938 0.529739
Si Si4 0.690545 0.945055 0.294739
Si Si5 0.834820 0.320228 0.189703
Si Si6 0.219409 0.895075 0.629074
Si Si7 0.913301 0.877319 0.332433
Si Si8 0.916087 0.619237 0.507879
O O1 0.101420 0.237891 0.666709
O O2 0.151540 0.270381 0.317752
O O3 0.101317 0.181710 0.320181
O O4 0.000000 0.252372 0.374002
O O5 0.500000 0.217698 0.407667
O O6 0.356188 0.194316 0.460094
O O7 0.422412 0.170942 0.123540
O O8 0.374740 0.500000 0.498885
O O9 0.272268 0.450227 0.695717
O O10 0.296166 0.427841 0.325101
O O11 0.396810 0.404025 0.615255
O O12 0.706785 0.915692 0.504367
O O13 0.633360 0.918372 0.141184
O O14 0.657314 0.000000 0.344373
O O15 0.746102 0.338306 0.187039
O O16 0.880600 0.367458 0.287355
O O17 0.141009 0.898182 0.506825
O O18 0.000000 0.888733 0.396081
O O19 0.000000 0.595690 0.475284
#
# Coordination Sequence:
#
# PCOD8188757 Si02
#       8
#     8   8   8   8   8   8   8   8
#     4   9  20  38  58  86 127 170 210 254 313 379
#     4   9  17  31  55  83 118 163 208 252 295 350
#     4  10  22  42  68  92 119 162 210 264 332 396
#     4  10  20  37  58  82 121 163 207 265 326 383
#     4  11  19  34  58  89 122 165 218 257 302 371
#     4  11  22  39  63  92 122 163 214 269 330 392
#     4  10  24  45  64  92 130 163 204 265 336 404
#     4  10  19  32  53  83 120 163 215 263 304 363
#
# _framework density 20.649011999999999
#
# number of rings (size 3 to 8) (size 9 to 14) (size 15 to 20)
#    0.000    2.000    2.500    2.250    0.000    2.500 
#    4.500    2.500    0.000    0.000    0.000    0.000 
#    0.000    0.000    0.000    0.000    0.000    0.000 
#
# Total GULP energy -396449.356674 kJ/mol
# GULP energy per Si atom -12389.042396 kJ/mol
# Density = 2.060201 g / cm^3
# Si number density = 20.649012 Si / 1000 Ang^3
#
#
#
# Elastic Constant Matrix: (Units=GPa)
#
#
# Indices 1 2 3 4 5 6 
#
# 1 80.1629 41.8539 34.7271 0.0000 0.0001 0.0000
# 2 41.8539 121.6591 48.8711 0.0000 0.0000 0.0000
# 3 34.7271 48.8711 109.7855 0.0001 0.0007 0.0000
# 4 0.0000 0.0000 0.0001 21.2370 0.0000 0.0000
# 5 0.0001 0.0000 0.0007 0.0000 27.8661 0.0000
# 6 0.0000 0.0000 0.0000 0.0000 0.0000 24.9966
#
#
#
# Elastic Compliance Matrix: (Units=1/GPa)
#
#
# Indices 1 2 3 4 5 6 
#
# 1 0.016076 -0.004247 -0.003194 0.000000 0.000000 0.000000
# 2 -0.004247 0.011132 -0.003612 0.000000 0.000000 0.000000
# 3 -0.003194 -0.003612 0.011727 0.000000 0.000000 0.000000
# 4 0.000000 0.000000 0.000000 0.047088 0.000000 0.000000
# 5 0.000000 0.000000 0.000000 0.000000 0.035886 0.000000
# 6 0.000000 0.000000 0.000000 0.000000 0.000000 0.040005
#
#
# Mechanical properties :
#
#
# Convention : Reuss Voigt Hill
#
# Bulk Modulus (GPa) = 59.42631 62.50129 60.96380
# Shear Modulus (GPa) = 26.36711 27.23028 26.79870
#
# Velocity S-wave (km/s) = 3.57728 3.63536 3.60644
# Velocity P-wave (km/s) = 6.77527 6.92497 6.85053
#
# Compressibility (1/GPa) = 0.01682756
#
# Stress axis : x y z
#
# Youngs Moduli (GPa) = 62.20433 89.83298 85.27386
#
# Poissons Ratio (x) = 0.38155 0.27240
# Poissons Ratio (y) = 0.26420 0.30799
# Poissons Ratio (z) = 0.19871 0.32446
#
# Static dielectric constant tensor:
#      x y z
#    x 3.702500 0.000000 0.000000 
#    y 0.000000 3.965410 0.000000 
#    z 0.000000 0.000000 3.782370 
# 
# 
# High freq. dielectric constant tensor:
#      x y z
#    x 1.792450 0.000000 0.000000 
#    y 0.000000 1.799730 0.000000 
#    z 0.000000 0.000000 1.809420 
# 
# From -- ./inp_files/2169.got.cif
#   From: 2010.03.12/outbox.cif.g09.slc.cpg/sg44_2_cif.got.tgz:2169.got - 2010.04.14 02:36:11.
