data_PCOD8188740
_publ_section_title
;
Structure prediction by ZEFSAII (Michael W. Deem and Ramdas Pophale) SiO2 
 PCOD8188740
Probable space group: I M M 2
;
_chemical_formula_sum "Si O2"
_cell_formula_units_Z 64
_cell_length_a 9.329741
_cell_length_b 24.660655
_cell_length_c 14.875239
_cell_angle_alpha 90.000000
_cell_angle_beta 90.000000
_cell_angle_gamma 90.000000
_cell_volume 3422.458159
_symmetry_space_group_name_H-M "I M M 2"
_symmetry_group_IT_number 44
_symmetry_cell_setting 'orthorhombic'
loop_
_space_group_symop_operation_xyz
x,y,z
-x,-y,z
-x,y,z
x,-y,z
1/2+x,1/2+y,1/2+z
1/2-x,1/2-y,1/2+z
1/2-x,1/2+y,1/2+z
1/2+x,1/2-y,1/2+z
loop_
_atom_site_type_symbol
_atom_site_label
_atom_site_fract_x
_atom_site_fract_y
_atom_site_fract_z
Si Si1 0.663552 0.755705 0.595410
Si Si2 0.169490 0.938296 0.639329
Si Si3 0.334857 0.222769 0.801434
Si Si4 0.335639 0.437667 0.507448
Si Si5 0.663337 0.172929 0.317794
Si Si6 0.167973 0.350149 0.616493
Si Si7 0.336543 0.866099 0.505122
Si Si8 0.165537 0.882156 0.822312
O O1 0.500000 0.736671 0.581019
O O2 0.688119 0.778586 0.694853
O O3 0.764034 0.704394 0.574678
O O4 0.706463 0.804443 0.529604
O O5 0.235962 0.909315 0.552831
O O6 0.221906 0.910048 0.731039
O O7 0.000000 0.935069 0.630499
O O8 0.223310 0.000000 0.640517
O O9 0.500000 0.221139 0.829613
O O10 0.265367 0.276891 0.841052
O O11 0.257173 0.171035 0.844275
O O12 0.500000 0.426304 0.534328
O O13 0.294369 0.500000 0.522304
O O14 0.234234 0.402829 0.571145
O O15 0.310939 0.424168 0.402940
O O16 0.500000 0.194527 0.315119
O O17 0.703671 0.145813 0.222719
O O18 0.682367 0.128563 0.397140
O O19 0.000000 0.348684 0.597014
O O20 0.500000 0.877301 0.535097
O O21 0.000000 0.865224 0.812528
#
# Coordination Sequence:
#
# PCOD8188740 Si02
#       8
#     8   8   8   8   8   8   8   8
#     4   9  18  33  53  79 112 146 179 218 267 327
#     4  10  21  37  57  82 113 147 184 228 276 326
#     4  10  19  32  52  82 115 144 179 222 270 321
#     4  10  22  40  60  80 105 144 192 232 274 333
#     4   9  20  37  56  79 111 150 187 222 269 330
#     4  10  21  37  57  82 111 142 183 234 282 324
#     4  10  20  36  57  81 111 148 188 226 268 324
#     4  10  20  35  56  80 110 147 183 221 270 332
#
# _framework density 18.700009999999999
#
# number of rings (size 3 to 8) (size 9 to 14) (size 15 to 20)
#    0.000    2.250    1.250    1.125    1.750    4.500 
#    0.000    0.625    0.000    6.000    0.000    0.000 
#    0.000    0.000    0.000    0.000    0.000    0.000 
#
# Total GULP energy -396895.580287 kJ/mol
# GULP energy per Si atom -12402.986884 kJ/mol
# Density = 1.865745 g / cm^3
# Si number density = 18.700010 Si / 1000 Ang^3
#
#
#
# Elastic Constant Matrix: (Units=GPa)
#
#
# Indices 1 2 3 4 5 6 
#
# 1 80.4815 59.4193 33.3119 0.0000 0.0000 0.0000
# 2 59.4193 112.6948 41.5904 0.0000 0.0000 0.0000
# 3 33.3119 41.5904 75.1782 0.0000 0.0000 0.0001
# 4 0.0000 0.0000 0.0000 27.6095 0.0000 0.0000
# 5 0.0000 0.0000 0.0000 0.0000 28.7372 0.0000
# 6 0.0000 0.0000 0.0001 0.0000 0.0000 31.2007
#
#
#
# Elastic Compliance Matrix: (Units=1/GPa)
#
#
# Indices 1 2 3 4 5 6 
#
# 1 0.021283 -0.009727 -0.004049 0.000000 0.000000 0.000000
# 2 -0.009727 0.015596 -0.004318 0.000000 0.000000 0.000000
# 3 -0.004049 -0.004318 0.017485 0.000000 0.000000 0.000000
# 4 0.000000 0.000000 0.000000 0.036219 0.000000 0.000000
# 5 0.000000 0.000000 0.000000 0.000000 0.034798 0.000000
# 6 0.000000 0.000000 0.000000 0.000000 0.000000 0.032051
#
#
# Mechanical properties :
#
#
# Convention : Reuss Voigt Hill
#
# Bulk Modulus (GPa) = 55.02106 59.66642 57.34374
# Shear Modulus (GPa) = 25.04033 26.44500 25.74267
#
# Velocity S-wave (km/s) = 3.66328 3.76463 3.71430
# Velocity P-wave (km/s) = 6.88329 7.13253 7.00902
#
# Compressibility (1/GPa) = 0.01817486
#
# Stress axis : x y z
#
# Youngs Moduli (GPa) = 46.98639 64.12004 57.19298
#
# Poissons Ratio (x) = 0.62371 0.23159
# Poissons Ratio (y) = 0.45704 0.24695
# Poissons Ratio (z) = 0.19026 0.27686
#
# Static dielectric constant tensor:
#      x y z
#    x 3.398390 0.000000 0.000000 
#    y 0.000000 3.269780 0.000000 
#    z 0.000000 0.000000 3.478310 
# 
# 
# High freq. dielectric constant tensor:
#      x y z
#    x 1.723500 0.000000 0.000000 
#    y 0.000000 1.711930 0.000000 
#    z 0.000000 0.000000 1.730140 
# 
# From -- ./inp_files/16772.got.cif
#   From: 2010.03.12/outbox.cif.g09.slc.cpg/sg44_9_cif.got.tgz:16772.got - 2010.04.14 02:36:11.
