data_PCOD8188629
_publ_section_title
;
Structure prediction by ZEFSAII (Michael W. Deem and Ramdas Pophale) SiO2 
 PCOD8188629
Probable space group: I M M 2
;
_chemical_formula_sum "Si O2"
_cell_formula_units_Z 64
_cell_length_a 8.948428
_cell_length_b 24.884439
_cell_length_c 15.334246
_cell_angle_alpha 90.000000
_cell_angle_beta 90.000000
_cell_angle_gamma 90.000000
_cell_volume 3414.577927
_symmetry_space_group_name_H-M "I M M 2"
_symmetry_group_IT_number 44
_symmetry_cell_setting 'orthorhombic'
loop_
_space_group_symop_operation_xyz
x,y,z
-x,-y,z
-x,y,z
x,-y,z
1/2+x,1/2+y,1/2+z
1/2-x,1/2-y,1/2+z
1/2-x,1/2+y,1/2+z
1/2+x,1/2-y,1/2+z
loop_
_atom_site_type_symbol
_atom_site_label
_atom_site_fract_x
_atom_site_fract_y
_atom_site_fract_z
Si Si1 0.324933 0.354802 0.544540
Si Si2 0.327035 0.604074 0.226283
Si Si3 0.330256 0.279837 0.176240
Si Si4 0.826903 0.661867 0.725023
Si Si5 0.676834 0.354917 0.899819
Si Si6 0.827229 0.264749 0.001462
Si Si7 0.822373 0.060216 0.905353
Si Si8 0.677844 0.560831 0.043685
O O1 0.500000 0.360523 0.565256
O O2 0.236906 0.360381 0.634603
O O3 0.291760 0.298574 0.495979
O O4 0.262416 0.401208 0.481461
O O5 0.500000 0.588242 0.224096
O O6 0.305341 0.668242 0.236686
O O7 0.252965 0.576911 0.311451
O O8 0.255669 0.581529 0.136366
O O9 0.500000 0.279310 0.138648
O O10 0.300094 0.226199 0.231807
O O11 0.215902 0.285426 0.097052
O O12 0.742698 0.632853 0.804406
O O13 0.000000 0.647044 0.730473
O O14 0.500000 0.355161 0.893910
O O15 0.731517 0.296181 0.929774
O O16 0.736910 0.400612 0.966370
O O17 0.000000 0.277018 0.983669
O O18 0.000000 0.065845 0.900795
O O19 0.771255 0.000000 0.927709
O O20 0.500000 0.563955 0.045795
O O21 0.733026 0.500000 0.026405
#
# Coordination Sequence:
#
# PCOD8188629 Si02
#       8
#     8   8   8   8   8   8   8   8
#     4   9  19  35  54  77 108 141 177 223 271 314
#     4   9  15  26  48  78 109 136 165 208 262 312
#     4   9  17  31  51  76 106 139 174 212 258 310
#     4  10  21  35  54  77 106 141 181 223 270 321
#     4  11  21  34  53  79 110 141 178 221 268 316
#     4  10  19  31  50  76 108 142 175 211 259 316
#     4   9  17  29  50  80 108 136 176 224 268 310
#     4   9  17  30  50  77 107 138 174 217 262 310
#
# _framework density 18.743165000000001
#
# number of rings (size 3 to 8) (size 9 to 14) (size 15 to 20)
#    0.000    2.500    1.250    1.500    1.750    2.500 
#    0.000    0.625    0.000    5.625    0.000    0.000 
#    0.000    0.000    0.000    0.000    0.000    0.000 
#
# Total GULP energy -396753.953754 kJ/mol
# GULP energy per Si atom -12398.561055 kJ/mol
# Density = 1.870050 g / cm^3
# Si number density = 18.743165 Si / 1000 Ang^3
#
#
#
# Elastic Constant Matrix: (Units=GPa)
#
#
# Indices 1 2 3 4 5 6 
#
# 1 47.1963 27.9241 42.7503 -0.0001 0.0000 0.0000
# 2 27.9241 124.9292 84.4774 -0.0001 0.0000 0.0000
# 3 42.7503 84.4774 148.4989 -0.0008 0.0002 0.0000
# 4 -0.0001 -0.0001 -0.0008 31.2374 0.0001 0.0000
# 5 0.0000 0.0000 0.0002 0.0001 24.3269 0.0000
# 6 0.0000 0.0000 0.0000 0.0000 0.0000 17.0405
#
#
#
# Elastic Compliance Matrix: (Units=1/GPa)
#
#
# Indices 1 2 3 4 5 6 
#
# 1 0.028802 -0.001351 -0.007523 0.000000 0.000000 0.000000
# 2 -0.001351 0.013072 -0.007048 0.000000 0.000000 0.000000
# 3 -0.007523 -0.007048 0.012909 0.000000 0.000000 0.000000
# 4 0.000000 0.000000 0.000000 0.032013 0.000000 0.000000
# 5 0.000000 0.000000 0.000000 0.000000 0.041107 0.000000
# 6 0.000000 0.000000 0.000000 0.000000 0.000000 0.058684
#
#
# Mechanical properties :
#
#
# Convention : Reuss Voigt Hill
#
# Bulk Modulus (GPa) = 43.59176 70.10310 56.84743
# Shear Modulus (GPa) = 22.11655 25.55249 23.83452
#
# Velocity S-wave (km/s) = 3.43881 3.69629 3.56987
# Velocity P-wave (km/s) = 6.25101 7.46324 6.88386
#
# Compressibility (1/GPa) = 0.02294011
#
# Stress axis : x y z
#
# Youngs Moduli (GPa) = 34.72021 76.49969 77.46516
#
# Poissons Ratio (x) = 0.10331 0.58279
# Poissons Ratio (y) = 0.04689 0.54594
# Poissons Ratio (z) = 0.26121 0.53913
#
# Static dielectric constant tensor:
#      x y z
#    x 3.083390 0.000000 0.000000 
#    y 0.000000 3.518540 0.000000 
#    z 0.000000 0.000000 3.479790 
# 
# 
# High freq. dielectric constant tensor:
#      x y z
#    x 1.686520 0.000000 0.000000 
#    y 0.000000 1.723840 0.000000 
#    z 0.000000 0.000000 1.729140 
# 
# From -- ./inp_files/16823.got.cif
#   From: 2010.03.12/outbox.cif.g09.slc.cpg/sg44_9_cif.got.tgz:16823.got - 2010.04.14 02:36:11.
