data_PCOD8188109
_publ_section_title
;
Structure prediction by ZEFSAII (Michael W. Deem and Ramdas Pophale) SiO2 
 PCOD8188109
Probable space group: I M M 2
;
_chemical_formula_sum "Si O2"
_cell_formula_units_Z 40
_cell_length_a 10.773301
_cell_length_b 9.238877
_cell_length_c 19.692946
_cell_angle_alpha 90.000000
_cell_angle_beta 90.000000
_cell_angle_gamma 90.000000
_cell_volume 1960.101988
_symmetry_space_group_name_H-M "I M M 2"
_symmetry_group_IT_number 44
_symmetry_cell_setting 'orthorhombic'
loop_
_space_group_symop_operation_xyz
x,y,z
-x,-y,z
-x,y,z
x,-y,z
1/2+x,1/2+y,1/2+z
1/2-x,1/2-y,1/2+z
1/2-x,1/2+y,1/2+z
1/2+x,1/2-y,1/2+z
loop_
_atom_site_type_symbol
_atom_site_label
_atom_site_fract_x
_atom_site_fract_y
_atom_site_fract_z
Si Si1 0.500000 0.170787 0.766600
Si Si2 0.500000 0.662375 0.632130
Si Si3 0.364395 0.169595 0.406818
Si Si4 0.137483 0.829638 0.495285
Si Si5 0.240100 0.832154 0.271994
Si Si6 0.229504 0.335823 0.617219
O O1 0.500000 0.212124 0.687602
O O2 0.623171 0.239915 0.799185
O O3 0.500000 0.000000 0.777240
O O4 0.500000 0.500000 0.665801
O O5 0.627370 0.679481 0.590013
O O6 0.500000 0.234764 0.427844
O O7 0.247892 0.237339 0.448518
O O8 0.348614 0.198118 0.326153
O O9 0.365280 0.000000 0.421583
O O10 0.145027 0.765336 0.571075
O O11 0.000000 0.790932 0.465892
O O12 0.152806 0.000000 0.501450
O O13 0.281856 0.786176 0.196071
O O14 0.200633 0.000000 0.271753
O O15 0.182378 0.500000 0.609622
#
# Coordination Sequence:
#
# PCOD8188109 Si02
#       6
#     4   4   8   8   8   8
#     4  10  18  28  48  82 118 146 177 218 273 332
#     4   8  16  32  52  78 110 144 185 224 267 322
#     4   9  19  36  59  84 106 138 191 241 273 319
#     4  10  22  37  54  81 114 147 182 225 282 336
#     4   9  18  34  58  82 108 144 188 234 278 323
#     4   9  18  33  55  83 110 141 182 227 276 330
#
# _framework density 20.407101000000001
#
# number of rings (size 3 to 8) (size 9 to 14) (size 15 to 20)
#    0.000    2.800    0.000    2.100    2.800    4.400 
#    0.000    3.000    0.000    1.800    0.000    0.000 
#    0.000    0.000    0.000    0.000    0.000    0.000 
#
# Total GULP energy -247776.922733 kJ/mol
# GULP energy per Si atom -12388.846137 kJ/mol
# Density = 2.036065 g / cm^3
# Si number density = 20.407101 Si / 1000 Ang^3
#
#
#
# Elastic Constant Matrix: (Units=GPa)
#
#
# Indices 1 2 3 4 5 6 
#
# 1 154.3613 30.9578 64.9448 0.0000 0.0000 0.0000
# 2 30.9578 37.2386 14.8967 0.0000 0.0000 0.0000
# 3 64.9448 14.8967 91.9597 0.0000 0.0000 0.0000
# 4 0.0000 0.0000 0.0000 21.1989 0.0000 0.0000
# 5 0.0000 0.0000 0.0000 0.0000 32.6164 0.0000
# 6 0.0000 0.0000 0.0000 0.0000 0.0000 19.9749
#
#
#
# Elastic Compliance Matrix: (Units=1/GPa)
#
#
# Indices 1 2 3 4 5 6 
#
# 1 0.010363 -0.006081 -0.006333 0.000000 0.000000 0.000000
# 2 -0.006081 0.032283 -0.000935 0.000000 0.000000 0.000000
# 3 -0.006333 -0.000935 0.015498 0.000000 0.000000 0.000000
# 4 0.000000 0.000000 0.000000 0.047172 0.000000 0.000000
# 5 0.000000 0.000000 0.000000 0.000000 0.030659 0.000000
# 6 0.000000 0.000000 0.000000 0.000000 0.000000 0.050063
#
#
# Mechanical properties :
#
#
# Convention : Reuss Voigt Hill
#
# Bulk Modulus (GPa) = 31.80085 56.12870 43.96477
# Shear Modulus (GPa) = 22.39949 26.27541 24.33745
#
# Velocity S-wave (km/s) = 3.31665 3.59215 3.45715
# Velocity P-wave (km/s) = 5.50308 6.69096 6.12588
#
# Compressibility (1/GPa) = 0.03144570
#
# Stress axis : x y z
#
# Youngs Moduli (GPa) = 96.50166 30.97571 64.52241
#
# Poissons Ratio (x) = 0.18837 0.40863
# Poissons Ratio (y) = 0.58685 0.06032
# Poissons Ratio (z) = 0.61117 0.02896
#
# Static dielectric constant tensor:
#      x y z
#    x 4.074040 0.000000 0.000000 
#    y 0.000000 3.263780 0.000000 
#    z 0.000000 0.000000 3.508320 
# 
# 
# High freq. dielectric constant tensor:
#      x y z
#    x 1.807070 0.000000 0.000000 
#    y 0.000000 1.753290 0.000000 
#    z 0.000000 0.000000 1.780710 
# 
# From -- ./inp_files/23609.got.cif
#   From: 2010.03.12/outbox.cif.g09.slc.cpg/sg44_12_cif.got.tgz:23609.got - 2010.04.14 02:36:11.
