data_PCOD8188987
_publ_section_title
;
Structure prediction by ZEFSAII (Michael W. Deem and Ramdas Pophale) SiO2 
 PCOD8188987
Probable space group: I M M 2
;
_chemical_formula_sum "Si O2"
_cell_formula_units_Z 64
_cell_length_a 9.227833
_cell_length_b 27.261054
_cell_length_c 13.016912
_cell_angle_alpha 90.000000
_cell_angle_beta 90.000000
_cell_angle_gamma 90.000000
_cell_volume 3274.540289
_symmetry_space_group_name_H-M "I M M 2"
_symmetry_group_IT_number 44
_symmetry_cell_setting 'orthorhombic'
loop_
_space_group_symop_operation_xyz
x,y,z
-x,-y,z
-x,y,z
x,-y,z
1/2+x,1/2+y,1/2+z
1/2-x,1/2-y,1/2+z
1/2-x,1/2+y,1/2+z
1/2+x,1/2-y,1/2+z
loop_
_atom_site_type_symbol
_atom_site_label
_atom_site_fract_x
_atom_site_fract_y
_atom_site_fract_z
Si Si1 0.330672 0.622131 0.278350
Si Si2 0.168346 0.557148 0.871292
Si Si3 0.660996 0.284415 0.960755
Si Si4 0.167594 0.056632 0.971172
Si Si5 0.660936 0.217303 0.139990
Si Si6 0.671955 0.614327 0.045114
Si Si7 0.171631 0.606529 0.658978
Si Si8 0.327775 0.778869 0.783976
O O1 0.500000 0.635780 0.277692
O O2 0.292580 0.580688 0.361572
O O3 0.283221 0.604602 0.163932
O O4 0.241982 0.669592 0.313325
O O5 0.198161 0.500000 0.854280
O O6 0.223088 0.584746 0.768333
O O7 0.000000 0.568216 0.890486
O O8 0.255536 0.574330 0.971431
O O9 0.500000 0.303367 0.936662
O O10 0.733776 0.265787 0.855696
O O11 0.651885 0.233006 0.021966
O O12 0.735860 0.331773 0.013292
O O13 0.000000 0.065386 0.997399
O O14 0.206350 0.000000 0.959013
O O15 0.258685 0.077668 0.065087
O O16 0.500000 0.220952 0.190580
O O17 0.724273 0.162847 0.152839
O O18 0.770147 0.259974 0.175781
O O19 0.500000 0.609902 0.034126
O O20 0.000000 0.602161 0.646245
O O21 0.500000 0.784176 0.787172
#
# Coordination Sequence:
#
# PCOD8188987 Si02
#       8
#     8   8   8   8   8   8   8   8
#     4  10  21  39  60  82 116 157 194 238 293 350
#     4  10  22  39  57  82 117 151 188 241 298 346
#     4   9  18  33  52  77 111 146 180 224 274 324
#     4  10  22  39  60  87 117 151 197 254 303 345
#     4  10  19  35  56  79 111 149 185 221 276 341
#     4  10  20  37  60  82 111 153 198 239 281 339
#     4  10  21  38  62  88 117 155 194 237 295 363
#     4  11  21  33  54  84 115 148 189 235 278 334
#
# _framework density 19.544730000000001
#
# number of rings (size 3 to 8) (size 9 to 14) (size 15 to 20)
#    0.000    2.000    1.250    2.250    0.000    4.500 
#    0.000    3.125    0.000    0.000    0.000    0.000 
#    0.000    0.000    0.000    0.000    0.000    0.000 
#
# Total GULP energy -396602.617591 kJ/mol
# GULP energy per Si atom -12393.831800 kJ/mol
# Density = 1.950025 g / cm^3
# Si number density = 19.544730 Si / 1000 Ang^3
#
#
#
# Elastic Constant Matrix: (Units=GPa)
#
#
# Indices 1 2 3 4 5 6 
#
# 1 45.4279 29.6066 29.3652 -0.0001 -0.0001 0.0000
# 2 29.6066 102.1379 25.7020 0.0002 0.0001 0.0001
# 3 29.3652 25.7020 88.9855 0.0010 0.0007 0.0002
# 4 -0.0001 0.0002 0.0010 38.3137 0.0002 0.0001
# 5 -0.0001 0.0001 0.0007 0.0002 27.9414 0.0001
# 6 0.0000 0.0001 0.0002 0.0001 0.0001 30.7012
#
#
#
# Elastic Compliance Matrix: (Units=1/GPa)
#
#
# Indices 1 2 3 4 5 6 
#
# 1 0.032231 -0.007189 -0.008560 0.000000 0.000000 0.000000
# 2 -0.007189 0.012161 -0.001140 0.000000 0.000000 0.000000
# 3 -0.008560 -0.001140 0.014392 0.000000 0.000000 0.000000
# 4 0.000000 0.000000 0.000000 0.026100 0.000000 0.000000
# 5 0.000000 0.000000 0.000000 0.000000 0.035789 0.000000
# 6 0.000000 0.000000 0.000000 0.000000 0.000000 0.032572
#
#
# Mechanical properties :
#
#
# Convention : Reuss Voigt Hill
#
# Bulk Modulus (GPa) = 39.98960 45.09987 42.54474
# Shear Modulus (GPa) = 25.59378 29.51643 27.55510
#
# Velocity S-wave (km/s) = 3.62262 3.89034 3.75887
# Velocity P-wave (km/s) = 6.16464 6.58065 6.37604
#
# Compressibility (1/GPa) = 0.02500650
#
# Stress axis : x y z
#
# Youngs Moduli (GPa) = 31.02572 82.22695 69.48339
#
# Poissons Ratio (x) = 0.59112 0.59477
# Poissons Ratio (y) = 0.22304 0.07923
# Poissons Ratio (z) = 0.26558 0.09377
#
# Static dielectric constant tensor:
#      x y z
#    x 3.376140 0.000000 0.000000 
#    y 0.000000 3.646880 0.000000 
#    z 0.000000 0.000000 3.657290 
# 
# 
# High freq. dielectric constant tensor:
#      x y z
#    x 1.738930 0.000000 0.000000 
#    y 0.000000 1.767310 0.000000 
#    z 0.000000 0.000000 1.772430 
# 
# From -- ./inp_files/11499.got.cif
#   From: 2010.03.12/outbox.cif.g09.slc.cpg/sg44_6_cif.got.tgz:11499.got - 2010.04.14 02:36:11.
