data_PCOD8188948
_publ_section_title
;
Structure prediction by ZEFSAII (Michael W. Deem and Ramdas Pophale) SiO2 
 PCOD8188948
Probable space group: I M M 2
;
_chemical_formula_sum "Si O2"
_cell_formula_units_Z 64
_cell_length_a 28.669255
_cell_length_b 8.917065
_cell_length_c 12.789147
_cell_angle_alpha 90.000000
_cell_angle_beta 90.000000
_cell_angle_gamma 90.000000
_cell_volume 3269.489290
_symmetry_space_group_name_H-M "I M M 2"
_symmetry_group_IT_number 44
_symmetry_cell_setting 'orthorhombic'
loop_
_space_group_symop_operation_xyz
x,y,z
-x,-y,z
-x,y,z
x,-y,z
1/2+x,1/2+y,1/2+z
1/2-x,1/2-y,1/2+z
1/2-x,1/2+y,1/2+z
1/2+x,1/2-y,1/2+z
loop_
_atom_site_type_symbol
_atom_site_label
_atom_site_fract_x
_atom_site_fract_y
_atom_site_fract_z
Si Si1 0.946403 0.322484 0.561740
Si Si2 0.701889 0.823555 0.343743
Si Si3 0.926359 0.167303 0.982869
Si Si4 0.105815 0.176787 0.367719
Si Si5 0.448140 0.168749 0.685982
Si Si6 0.320221 0.333413 0.544887
Si Si7 0.300155 0.321824 0.771934
Si Si8 0.899599 0.677864 0.778494
O O1 0.945206 0.500000 0.551676
O O2 0.917438 0.256868 0.465808
O O3 0.921230 0.270015 0.668395
O O4 0.000000 0.264751 0.560438
O O5 0.704587 0.776084 0.463977
O O6 0.748937 0.753926 0.294356
O O7 0.654626 0.766730 0.285823
O O8 0.703600 0.000000 0.336839
O O9 0.930146 0.246148 0.869715
O O10 0.948135 0.000000 0.975456
O O11 0.952708 0.266006 0.068922
O O12 0.873833 0.156329 0.019036
O O13 0.082082 0.224423 0.259353
O O14 0.160586 0.223981 0.357950
O O15 0.099546 0.000000 0.381301
O O16 0.500000 0.163048 0.733761
O O17 0.427023 0.000000 0.682710
O O18 0.297741 0.500000 0.538546
O O19 0.314516 0.259648 0.658574
O O20 0.298672 0.500000 0.767776
O O21 0.902817 0.500000 0.793280
#
# Coordination Sequence:
#
# PCOD8188948 Si02
#       8
#     8   8   8   8   8   8   8   8
#     4  10  22  40  59  81 114 154 194 240 292 344
#     4   9  18  33  54  80 108 144 189 233 278 332
#     4  10  19  34  57  83 110 143 182 228 281 335
#     4  11  22  38  58  81 110 147 190 236 289 343
#     4  11  23  37  55  81 112 144 180 226 281 340
#     4   9  17  33  53  74 107 145 177 220 279 332
#     4   9  18  34  54  77 109 147 182 228 287 338
#     4   9  19  36  57  81 112 152 193 233 282 339
#
# _framework density 19.574922999999998
#
# number of rings (size 3 to 8) (size 9 to 14) (size 15 to 20)
#    0.000    2.250    1.250    1.500    0.000    5.250 
#    0.000    4.375    0.000    0.000    0.000    0.000 
#    0.000    0.000    0.000    0.000    0.000    0.000 
#
# Total GULP energy -396660.403397 kJ/mol
# GULP energy per Si atom -12395.637606 kJ/mol
# Density = 1.953037 g / cm^3
# Si number density = 19.574923 Si / 1000 Ang^3
#
#
#
# Elastic Constant Matrix: (Units=GPa)
#
#
# Indices 1 2 3 4 5 6 
#
# 1 101.4879 18.9027 60.5852 0.0000 0.0000 0.0000
# 2 18.9027 27.3946 19.5014 0.0000 0.0000 0.0000
# 3 60.5852 19.5014 140.3603 0.0000 0.0000 0.0000
# 4 0.0000 0.0000 0.0000 35.3441 0.0000 0.0000
# 5 0.0000 0.0000 0.0000 0.0000 24.5888 0.0000
# 6 0.0000 0.0000 0.0000 0.0000 0.0000 17.6283
#
#
#
# Elastic Compliance Matrix: (Units=1/GPa)
#
#
# Indices 1 2 3 4 5 6 
#
# 1 0.014108 -0.005992 -0.005257 0.000000 0.000000 0.000000
# 2 -0.005992 0.043056 -0.003396 0.000000 0.000000 0.000000
# 3 -0.005257 -0.003396 0.009865 0.000000 0.000000 0.000000
# 4 0.000000 0.000000 0.000000 0.028293 0.000000 0.000000
# 5 0.000000 0.000000 0.000000 0.000000 0.040669 0.000000
# 6 0.000000 0.000000 0.000000 0.000000 0.000000 0.056727
#
#
# Mechanical properties :
#
#
# Convention : Reuss Voigt Hill
#
# Bulk Modulus (GPa) = 26.49770 51.91348 39.20559
# Shear Modulus (GPa) = 21.31407 26.86247 24.08827
#
# Velocity S-wave (km/s) = 3.30335 3.70846 3.51175
# Velocity P-wave (km/s) = 5.30240 6.70186 6.04278
#
# Compressibility (1/GPa) = 0.03773912
#
# Stress axis : x y z
#
# Youngs Moduli (GPa) = 70.88326 23.22583 101.36458
#
# Poissons Ratio (x) = 0.13918 0.53286
# Poissons Ratio (y) = 0.42475 0.34419
# Poissons Ratio (z) = 0.37263 0.07886
#
# Static dielectric constant tensor:
#      x y z
#    x 3.824540 0.000000 0.000000 
#    y 0.000000 3.523720 0.000000 
#    z 0.000000 0.000000 3.695150 
# 
# 
# High freq. dielectric constant tensor:
#      x y z
#    x 1.765140 0.000000 0.000000 
#    y 0.000000 1.746310 0.000000 
#    z 0.000000 0.000000 1.763440 
# 
# From -- ./inp_files/11527.got.cif
#   From: 2010.03.12/outbox.cif.g09.slc.cpg/sg44_6_cif.got.tgz:11527.got - 2010.04.14 02:36:11.
