data_PCOD8188685
_publ_section_title
;
Structure prediction by ZEFSAII (Michael W. Deem and Ramdas Pophale) SiO2 
 PCOD8188685
Probable space group: I M M 2
;
_chemical_formula_sum "Si O2"
_cell_formula_units_Z 64
_cell_length_a 9.156229
_cell_length_b 15.814774
_cell_length_c 23.159074
_cell_angle_alpha 90.000000
_cell_angle_beta 90.000000
_cell_angle_gamma 90.000000
_cell_volume 3353.519426
_symmetry_space_group_name_H-M "I M M 2"
_symmetry_group_IT_number 44
_symmetry_cell_setting 'orthorhombic'
loop_
_space_group_symop_operation_xyz
x,y,z
-x,-y,z
-x,y,z
x,-y,z
1/2+x,1/2+y,1/2+z
1/2-x,1/2-y,1/2+z
1/2-x,1/2+y,1/2+z
1/2+x,1/2-y,1/2+z
loop_
_atom_site_type_symbol
_atom_site_label
_atom_site_fract_x
_atom_site_fract_y
_atom_site_fract_z
Si Si1 0.830385 0.159294 0.891120
Si Si2 0.159703 0.596274 0.932825
Si Si3 0.832402 0.746623 0.225241
Si Si4 0.829155 0.245178 0.096323
Si Si5 0.827697 0.182680 0.344106
Si Si6 0.673092 0.401110 0.045487
Si Si7 0.667354 0.593164 0.268203
Si Si8 0.672626 0.594016 0.515329
O O1 0.727970 0.240577 0.884145
O O2 0.800742 0.099098 0.836559
O O3 0.000000 0.186619 0.894110
O O4 0.782379 0.111584 0.949238
O O5 0.129653 0.500000 0.944940
O O6 0.243183 0.603315 0.871394
O O7 0.000000 0.642578 0.932813
O O8 0.262278 0.630072 0.984205
O O9 0.805655 0.786764 0.162384
O O10 0.776823 0.807421 0.277245
O O11 0.756645 0.656343 0.228727
O O12 0.000000 0.728139 0.237301
O O13 0.743617 0.334317 0.090214
O O14 0.765613 0.169034 0.056527
O O15 0.000000 0.262196 0.083526
O O16 0.000000 0.170718 0.350039
O O17 0.500000 0.389424 0.044557
O O18 0.711886 0.500000 0.060102
O O19 0.500000 0.612934 0.255495
O O20 0.711096 0.500000 0.247576
O O21 0.500000 0.592917 0.522280
O O22 0.733365 0.500000 0.532245
#
# Coordination Sequence:
#
# PCOD8188685 Si02
#       8
#     8   8   8   8   8   8   8   8
#     4   9  16  28  49  75 100 125 156 199 253 310
#     4  10  20  34  53  77 103 130 164 208 259 317
#     4   9  20  35  48  68  99 135 174 212 252 299
#     4  10  20  35  54  75 103 140 180 219 257 302
#     4  10  19  32  50  72 101 134 168 209 256 305
#     4  10  21  36  55  81 111 140 171 211 262 319
#     4   9  17  29  47  72  99 126 159 202 252 306
#     4   9  17  30  51  77 100 125 163 210 255 300
#
# _framework density 19.084427000000002
#
# number of rings (size 3 to 8) (size 9 to 14) (size 15 to 20)
#    0.000    2.500    0.000    2.250    0.000    5.750 
#    0.000    3.125    0.000    4.500    0.000    0.000 
#    0.000    0.000    0.000    0.000    0.000    0.000 
#
# Total GULP energy -396556.147779 kJ/mol
# GULP energy per Si atom -12392.379618 kJ/mol
# Density = 1.904099 g / cm^3
# Si number density = 19.084427 Si / 1000 Ang^3
#
#
#
# Elastic Constant Matrix: (Units=GPa)
#
#
# Indices 1 2 3 4 5 6 
#
# 1 60.7534 19.1696 28.1296 0.0000 0.0000 0.0000
# 2 19.1696 64.7837 32.0435 0.0000 0.0000 0.0000
# 3 28.1296 32.0435 89.1823 0.0000 0.0000 0.0000
# 4 0.0000 0.0000 0.0000 20.4784 0.0000 0.0000
# 5 0.0000 0.0000 0.0000 0.0000 23.2891 0.0000
# 6 0.0000 0.0000 0.0000 0.0000 0.0000 23.3448
#
#
#
# Elastic Compliance Matrix: (Units=1/GPa)
#
#
# Indices 1 2 3 4 5 6 
#
# 1 0.019865 -0.003380 -0.005052 0.000000 0.000000 0.000000
# 2 -0.003380 0.019347 -0.005886 0.000000 0.000000 0.000000
# 3 -0.005052 -0.005886 0.014921 0.000000 0.000000 0.000000
# 4 0.000000 0.000000 0.000000 0.048832 0.000000 0.000000
# 5 0.000000 0.000000 0.000000 0.000000 0.042939 0.000000
# 6 0.000000 0.000000 0.000000 0.000000 0.000000 0.042836
#
#
# Mechanical properties :
#
#
# Convention : Reuss Voigt Hill
#
# Bulk Modulus (GPa) = 39.21546 41.48943 40.35244
# Shear Modulus (GPa) = 22.13631 22.44758 22.29194
#
# Velocity S-wave (km/s) = 3.40945 3.43333 3.42141
# Velocity P-wave (km/s) = 6.00767 6.12407 6.06615
#
# Compressibility (1/GPa) = 0.02550015
#
# Stress axis : x y z
#
# Youngs Moduli (GPa) = 50.33911 51.68732 67.01958
#
# Poissons Ratio (x) = 0.17468 0.33855
# Poissons Ratio (y) = 0.17012 0.39445
# Poissons Ratio (z) = 0.25429 0.30421
#
# Static dielectric constant tensor:
#      x y z
#    x 3.412120 0.000000 0.000000 
#    y 0.000000 3.652790 0.000000 
#    z 0.000000 0.000000 3.603380 
# 
# 
# High freq. dielectric constant tensor:
#      x y z
#    x 1.725270 0.000000 0.000000 
#    y 0.000000 1.730030 0.000000 
#    z 0.000000 0.000000 1.741140 
# 
# From -- ./inp_files/23300.got.cif
#   From: 2010.03.12/outbox.cif.g09.slc.cpg/sg44_12_cif.got.tgz:23300.got - 2010.04.14 02:36:11.
