data_PCOD8188953
_publ_section_title
;
Structure prediction by ZEFSAII (Michael W. Deem and Ramdas Pophale) SiO2 
 PCOD8188953
Probable space group: I M M 2
;
_chemical_formula_sum "Si O2"
_cell_formula_units_Z 64
_cell_length_a 28.160660
_cell_length_b 8.986282
_cell_length_c 12.734760
_cell_angle_alpha 90.000000
_cell_angle_beta 90.000000
_cell_angle_gamma 90.000000
_cell_volume 3222.653680
_symmetry_space_group_name_H-M "I M M 2"
_symmetry_group_IT_number 44
_symmetry_cell_setting 'orthorhombic'
loop_
_space_group_symop_operation_xyz
x,y,z
-x,-y,z
-x,y,z
x,-y,z
1/2+x,1/2+y,1/2+z
1/2-x,1/2-y,1/2+z
1/2-x,1/2+y,1/2+z
1/2+x,1/2-y,1/2+z
loop_
_atom_site_type_symbol
_atom_site_label
_atom_site_fract_x
_atom_site_fract_y
_atom_site_fract_z
Si Si1 0.555619 0.823474 0.971630
Si Si2 0.317493 0.836250 0.491902
Si Si3 0.424076 0.165144 0.564674
Si Si4 0.195067 0.325779 0.761342
Si Si5 0.552461 0.665409 0.362481
Si Si6 0.389022 0.322962 0.163628
Si Si7 0.900140 0.176629 0.266724
Si Si8 0.797994 0.828769 0.188865
O O1 0.500000 0.779946 0.977541
O O2 0.579052 0.757305 0.867641
O O3 0.562320 0.000000 0.972171
O O4 0.583587 0.753934 0.068945
O O5 0.369514 0.845390 0.537378
O O6 0.318774 0.763584 0.376552
O O7 0.287691 0.742406 0.575122
O O8 0.294285 0.000000 0.482669
O O9 0.450586 0.233118 0.465139
O O10 0.431043 0.269018 0.666702
O O11 0.444563 0.000000 0.587753
O O12 0.183265 0.500000 0.747505
O O13 0.165252 0.235594 0.673274
O O14 0.251155 0.294094 0.755143
O O15 0.500000 0.659505 0.313079
O O16 0.569738 0.500000 0.395304
O O17 0.586196 0.729591 0.271839
O O18 0.390143 0.500000 0.147358
O O19 0.844935 0.227581 0.251083
O O20 0.905269 0.000000 0.279769
O O21 0.805881 0.000000 0.165528
#
# Coordination Sequence:
#
# PCOD8188953 Si02
#       8
#     8   8   8   8   8   8   8   8
#     4  11  25  44  65  89 121 163 209 258 312 372
#     4   9  18  33  54  78 112 151 188 237 295 352
#     4  10  19  34  57  84 112 149 192 237 293 354
#     4  10  20  37  58  84 119 158 200 248 303 362
#     4  10  21  36  55  82 115 148 185 235 293 351
#     4  11  23  39  61  88 119 156 201 251 302 362
#     4  10  21  39  62  88 121 158 201 252 305 362
#     4   9  20  36  57  86 119 156 199 249 304 361
#
# _framework density 19.859408999999999
#
# number of rings (size 3 to 8) (size 9 to 14) (size 15 to 20)
#    0.000    2.000    1.250    1.875    0.000    5.750 
#    0.000    1.250    0.000    0.000    0.000    0.000 
#    0.000    0.000    0.000    0.000    0.000    0.000 
#
# Total GULP energy -396710.700013 kJ/mol
# GULP energy per Si atom -12397.209375 kJ/mol
# Density = 1.981421 g / cm^3
# Si number density = 19.859409 Si / 1000 Ang^3
#
#
#
# Elastic Constant Matrix: (Units=GPa)
#
#
# Indices 1 2 3 4 5 6 
#
# 1 74.6708 38.2231 49.4804 0.0000 0.0000 0.0000
# 2 38.2231 80.4074 53.5462 0.0000 0.0000 0.0000
# 3 49.4804 53.5462 139.3797 0.0000 0.0000 0.0000
# 4 0.0000 0.0000 0.0000 38.6292 0.0000 0.0000
# 5 0.0000 0.0000 0.0000 0.0000 24.4606 0.0000
# 6 0.0000 0.0000 0.0000 0.0000 0.0000 24.1757
#
#
#
# Elastic Compliance Matrix: (Units=1/GPa)
#
#
# Indices 1 2 3 4 5 6 
#
# 1 0.019633 -0.006304 -0.004548 0.000000 0.000000 0.000000
# 2 -0.006304 0.018737 -0.004960 0.000000 0.000000 0.000000
# 3 -0.004548 -0.004960 0.010695 0.000000 0.000000 0.000000
# 4 0.000000 0.000000 0.000000 0.025887 0.000000 0.000000
# 5 0.000000 0.000000 0.000000 0.000000 0.040882 0.000000
# 6 0.000000 0.000000 0.000000 0.000000 0.000000 0.041364
#
#
# Mechanical properties :
#
#
# Convention : Reuss Voigt Hill
#
# Bulk Modulus (GPa) = 57.34019 64.10638 60.72329
# Shear Modulus (GPa) = 25.68914 27.66697 26.67806
#
# Velocity S-wave (km/s) = 3.60050 3.73653 3.66914
# Velocity P-wave (km/s) = 6.79857 7.13903 6.97088
#
# Compressibility (1/GPa) = 0.01743977
#
# Stress axis : x y z
#
# Youngs Moduli (GPa) = 50.93528 53.37139 93.50449
#
# Poissons Ratio (x) = 0.33647 0.42524
# Poissons Ratio (y) = 0.32111 0.46379
# Poissons Ratio (z) = 0.23164 0.26473
#
# Static dielectric constant tensor:
#      x y z
#    x 3.612960 0.000000 0.000000 
#    y 0.000000 3.826110 0.000000 
#    z 0.000000 0.000000 3.703950 
# 
# 
# High freq. dielectric constant tensor:
#      x y z
#    x 1.772460 0.000000 0.000000 
#    y 0.000000 1.774960 0.000000 
#    z 0.000000 0.000000 1.775760 
# 
# From -- ./inp_files/11440.got.cif
#   From: 2010.03.12/outbox.cif.g09.slc.cpg/sg44_6_cif.got.tgz:11440.got - 2010.04.14 02:36:11.
