data_PCOD8188523
_publ_section_title
;
Structure prediction by ZEFSAII (Michael W. Deem and Ramdas Pophale) SiO2 
 PCOD8188523
Probable space group: I M M 2
;
_chemical_formula_sum "Si O2"
_cell_formula_units_Z 64
_cell_length_a 20.072253
_cell_length_b 8.912597
_cell_length_c 20.308824
_cell_angle_alpha 90.000000
_cell_angle_beta 90.000000
_cell_angle_gamma 90.000000
_cell_volume 3633.165385
_symmetry_space_group_name_H-M "I M M 2"
_symmetry_group_IT_number 44
_symmetry_cell_setting 'orthorhombic'
loop_
_space_group_symop_operation_xyz
x,y,z
-x,-y,z
-x,y,z
x,-y,z
1/2+x,1/2+y,1/2+z
1/2-x,1/2-y,1/2+z
1/2-x,1/2+y,1/2+z
1/2+x,1/2-y,1/2+z
loop_
_atom_site_type_symbol
_atom_site_label
_atom_site_fract_x
_atom_site_fract_y
_atom_site_fract_z
Si Si1 0.925477 0.678694 0.080620
Si Si2 0.823332 0.323729 0.185430
Si Si3 0.425902 0.178244 0.433962
Si Si4 0.923884 0.823858 0.576543
Si Si5 0.819354 0.678514 0.829399
Si Si6 0.826711 0.822935 0.691388
Si Si7 0.320268 0.821932 0.832769
Si Si8 0.924574 0.323005 0.441466
O O1 0.921949 0.500000 0.082329
O O2 0.873665 0.751325 0.132845
O O3 0.000000 0.731823 0.099506
O O4 0.906849 0.735501 0.007294
O O5 0.832743 0.500000 0.181686
O O6 0.747573 0.279859 0.167418
O O7 0.841066 0.269562 0.259321
O O8 0.500000 0.236070 0.415194
O O9 0.372954 0.240525 0.381790
O O10 0.425360 0.000000 0.433284
O O11 0.878378 0.766165 0.636417
O O12 0.898850 0.747304 0.509547
O O13 0.000000 0.778573 0.592238
O O14 0.915689 0.000000 0.567006
O O15 0.815528 0.500000 0.827841
O O16 0.843034 0.737840 0.758683
O O17 0.748601 0.743521 0.852272
O O18 0.832843 0.000000 0.704487
O O19 0.377573 0.766816 0.882391
O O20 0.309396 0.000000 0.835395
O O21 0.921003 0.500000 0.448731
O O22 0.000000 0.269698 0.426108
#
# Coordination Sequence:
#
# PCOD8188523 Si02
#       8
#     8   8   8   8   8   8   8   8
#     4   8  13  22  38  61  87 111 138 177 222 263
#     4   8  14  25  41  60  83 114 147 177 214 262
#     4   8  15  27  41  62  93 120 143 182 232 271
#     4   9  18  32  49  69  93 121 154 194 239 286
#     4  10  19  30  47  69  92 121 158 195 230 275
#     4   9  18  32  47  64  91 122 150 186 232 278
#     4   9  18  32  47  66  97 128 153 189 234 276
#     4   9  18  32  49  69  94 125 159 195 237 284
#
# _framework density 17.615494000000002
#
# number of rings (size 3 to 8) (size 9 to 14) (size 15 to 20)
#    0.000    3.250    0.000    1.875    0.000    3.000 
#    0.000    5.000    0.000    1.125    0.000    0.875 
#    0.000    8.000    0.000    0.000    0.000    0.000 
#
# Total GULP energy -396669.434382 kJ/mol
# GULP energy per Si atom -12395.919824 kJ/mol
# Density = 1.757540 g / cm^3
# Si number density = 17.615494 Si / 1000 Ang^3
#
#
#
# Elastic Constant Matrix: (Units=GPa)
#
#
# Indices 1 2 3 4 5 6 
#
# 1 138.1473 23.7629 118.2894 0.0000 0.0000 0.0000
# 2 23.7629 20.2054 26.7426 0.0000 0.0000 0.0000
# 3 118.2894 26.7426 152.3637 0.0000 0.0000 0.0000
# 4 0.0000 0.0000 0.0000 22.5693 0.0000 0.0000
# 5 0.0000 0.0000 0.0000 0.0000 45.4159 0.0000
# 6 0.0000 0.0000 0.0000 0.0000 0.0000 18.8760
#
#
#
# Elastic Compliance Matrix: (Units=1/GPa)
#
#
# Indices 1 2 3 4 5 6 
#
# 1 0.021867 -0.004230 -0.016234 0.000000 0.000000 0.000000
# 2 -0.004230 0.065286 -0.008175 0.000000 0.000000 0.000000
# 3 -0.016234 -0.008175 0.020602 0.000000 0.000000 0.000000
# 4 0.000000 0.000000 0.000000 0.044308 0.000000 0.000000
# 5 0.000000 0.000000 0.000000 0.000000 0.022019 0.000000
# 6 0.000000 0.000000 0.000000 0.000000 0.000000 0.052977
#
#
# Mechanical properties :
#
#
# Convention : Reuss Voigt Hill
#
# Bulk Modulus (GPa) = 19.81121 72.03400 45.92260
# Shear Modulus (GPa) = 16.60234 26.83367 21.71800
#
# Velocity S-wave (km/s) = 3.07332 3.90718 3.51507
# Velocity P-wave (km/s) = 4.88514 7.83173 6.52689
#
# Compressibility (1/GPa) = 0.05047647
#
# Stress axis : x y z
#
# Youngs Moduli (GPa) = 45.73130 15.31717 48.54003
#
# Poissons Ratio (x) = 0.06480 0.78800
# Poissons Ratio (y) = 0.19346 0.39679
# Poissons Ratio (z) = 0.74241 0.12521
#
# Static dielectric constant tensor:
#      x y z
#    x 3.517600 0.000000 0.000000 
#    y 0.000000 2.845220 0.000000 
#    z 0.000000 0.000000 3.543470 
# 
# 
# High freq. dielectric constant tensor:
#      x y z
#    x 1.685260 0.000000 0.000000 
#    y 0.000000 1.638110 0.000000 
#    z 0.000000 0.000000 1.687790 
# 
# From -- ./inp_files/22279.got.cif
#   From: 2010.03.12/outbox.cif.g09.slc.cpg/sg44_12_cif.got.tgz:22279.got - 2010.04.14 02:36:11.
