data_PCOD8188327
_publ_section_title
;
Structure prediction by ZEFSAII (Michael W. Deem and Ramdas Pophale) SiO2 
 PCOD8188327
Probable space group: I M M 2
;
_chemical_formula_sum "Si O2"
_cell_formula_units_Z 48
_cell_length_a 8.962371
_cell_length_b 18.338932
_cell_length_c 15.022518
_cell_angle_alpha 90.000000
_cell_angle_beta 90.000000
_cell_angle_gamma 90.000000
_cell_volume 2469.105750
_symmetry_space_group_name_H-M "I M M 2"
_symmetry_group_IT_number 44
_symmetry_cell_setting 'orthorhombic'
loop_
_space_group_symop_operation_xyz
x,y,z
-x,-y,z
-x,y,z
x,-y,z
1/2+x,1/2+y,1/2+z
1/2-x,1/2-y,1/2+z
1/2-x,1/2+y,1/2+z
1/2+x,1/2-y,1/2+z
loop_
_atom_site_type_symbol
_atom_site_label
_atom_site_fract_x
_atom_site_fract_y
_atom_site_fract_z
Si Si1 0.176418 0.725400 0.919710
Si Si2 0.677030 0.500000 0.535469
Si Si3 0.830243 0.123242 0.163157
Si Si4 0.168916 0.919061 0.360499
Si Si5 0.824251 0.844247 0.777178
Si Si6 0.678159 0.500000 0.336821
Si Si7 0.673254 0.259260 0.107863
O O1 0.225604 0.643166 0.898915
O O2 0.241607 0.784704 0.848361
O O3 0.000000 0.728300 0.919107
O O4 0.231512 0.743257 0.018524
O O5 0.500000 0.500000 0.537958
O O6 0.732749 0.427761 0.584840
O O7 0.740991 0.500000 0.436660
O O8 0.823243 0.079036 0.254294
O O9 0.716235 0.189998 0.167825
O O10 0.000000 0.149781 0.144322
O O11 0.000000 0.902734 0.392550
O O12 0.218100 0.000000 0.394071
O O13 0.759180 0.925820 0.791989
O O14 0.786752 0.826060 0.674218
O O15 0.000000 0.844328 0.793157
O O16 0.500000 0.500000 0.334410
O O17 0.500000 0.259171 0.082734
#
# Coordination Sequence:
#
# PCOD8188327 Si02
#       7
#     8   4   8   8   8   4   8
#     4  11  22  39  60  85 114 151 198 245 294 350
#     4   9  16  28  53  86 113 138 184 237 283 342
#     4  10  18  32  56  85 114 148 186 232 289 350
#     4  10  20  36  58  86 119 152 190 237 290 349
#     4   9  19  35  56  81 112 146 187 238 289 342
#     4   9  16  30  52  78 107 142 184 233 281 328
#     4  11  22  37  55  83 116 151 194 242 292 347
#
# _framework density 19.440235999999999
#
# number of rings (size 3 to 8) (size 9 to 14) (size 15 to 20)
#    0.000    2.000    2.500    2.000    0.000    3.000 
#    1.500    0.417    0.000    0.000    0.000    6.417 
#    0.000    0.000    0.000    0.000    0.000    0.000 
#
# Total GULP energy -297482.886555 kJ/mol
# GULP energy per Si atom -12395.120273 kJ/mol
# Density = 1.939599 g / cm^3
# Si number density = 19.440236 Si / 1000 Ang^3
#
#
#
# Elastic Constant Matrix: (Units=GPa)
#
#
# Indices 1 2 3 4 5 6 
#
# 1 42.7008 28.7593 22.9145 0.0000 0.0000 0.0000
# 2 28.7593 135.8159 34.2872 0.0000 0.0000 0.0000
# 3 22.9145 34.2872 71.6474 0.0000 0.0000 0.0000
# 4 0.0000 0.0000 0.0000 34.9295 0.0000 0.0000
# 5 0.0000 0.0000 0.0000 0.0000 26.5433 0.0000
# 6 0.0000 0.0000 0.0000 0.0000 0.0000 26.7396
#
#
#
# Elastic Compliance Matrix: (Units=1/GPa)
#
#
# Indices 1 2 3 4 5 6 
#
# 1 0.030562 -0.004554 -0.007595 0.000000 0.000000 0.000000
# 2 -0.004554 0.009053 -0.002876 0.000000 0.000000 0.000000
# 3 -0.007595 -0.002876 0.017763 0.000000 0.000000 0.000000
# 4 0.000000 0.000000 0.000000 0.028629 0.000000 0.000000
# 5 0.000000 0.000000 0.000000 0.000000 0.037674 0.000000
# 6 0.000000 0.000000 0.000000 0.000000 0.000000 0.037398
#
#
# Mechanical properties :
#
#
# Convention : Reuss Voigt Hill
#
# Bulk Modulus (GPa) = 36.59322 46.89846 41.74584
# Shear Modulus (GPa) = 24.97029 28.58935 26.77982
#
# Velocity S-wave (km/s) = 3.58783 3.83904 3.71556
# Velocity P-wave (km/s) = 6.00231 6.62025 6.31884
#
# Compressibility (1/GPa) = 0.02732746
#
# Stress axis : x y z
#
# Youngs Moduli (GPa) = 32.72073 110.45689 56.29810
#
# Poissons Ratio (x) = 0.50303 0.42758
# Poissons Ratio (y) = 0.14901 0.16191
# Poissons Ratio (z) = 0.24851 0.31767
#
# Static dielectric constant tensor:
#      x y z
#    x 3.179240 0.000000 0.000000 
#    y 0.000000 3.781990 0.000000 
#    z 0.000000 0.000000 3.590920 
# 
# 
# High freq. dielectric constant tensor:
#      x y z
#    x 1.715250 0.000000 0.000000 
#    y 0.000000 1.767920 0.000000 
#    z 0.000000 0.000000 1.758020 
# 
# From -- ./inp_files/16142.got.cif
#   From: 2010.03.12/outbox.cif.g09.slc.cpg/sg44_9_cif.got.tgz:16142.got - 2010.04.14 02:36:11.
