data_PCOD8188483
_publ_section_title
;
Structure prediction by ZEFSAII (Michael W. Deem and Ramdas Pophale) SiO2 
 PCOD8188483
Probable space group: I M M 2
;
_chemical_formula_sum "Si O2"
_cell_formula_units_Z 56
_cell_length_a 8.880158
_cell_length_b 13.791983
_cell_length_c 29.244994
_cell_angle_alpha 90.000000
_cell_angle_beta 90.000000
_cell_angle_gamma 90.000000
_cell_volume 3581.780294
_symmetry_space_group_name_H-M "I M M 2"
_symmetry_group_IT_number 44
_symmetry_cell_setting 'orthorhombic'
loop_
_space_group_symop_operation_xyz
x,y,z
-x,-y,z
-x,y,z
x,-y,z
1/2+x,1/2+y,1/2+z
1/2-x,1/2-y,1/2+z
1/2-x,1/2+y,1/2+z
1/2+x,1/2-y,1/2+z
loop_
_atom_site_type_symbol
_atom_site_label
_atom_site_fract_x
_atom_site_fract_y
_atom_site_fract_z
Si Si1 0.678069 0.110058 0.852340
Si Si2 0.323605 0.391032 0.891091
Si Si3 0.674647 0.613292 0.723775
Si Si4 0.322243 0.787626 0.307832
Si Si5 0.179744 0.608649 0.533417
Si Si6 0.667492 0.115040 0.132845
Si Si7 0.822735 0.291100 0.444425
O O1 0.500000 0.123838 0.847712
O O2 0.757063 0.180009 0.815767
O O3 0.732044 0.139053 0.903371
O O4 0.727466 0.000000 0.842338
O O5 0.500000 0.379609 0.880152
O O6 0.281871 0.500000 0.905876
O O7 0.237114 0.363823 0.845077
O O8 0.275650 0.319572 0.932497
O O9 0.500000 0.634747 0.731811
O O10 0.712138 0.500000 0.730705
O O11 0.772454 0.676094 0.758346
O O12 0.719351 0.647793 0.672742
O O13 0.500000 0.783234 0.310419
O O14 0.242665 0.500000 0.525853
O O15 0.228735 0.651216 0.583153
O O16 0.248577 0.675810 0.492833
O O17 0.000000 0.606373 0.531933
O O18 0.500000 0.156654 0.142960
O O19 0.657800 0.000000 0.129726
O O20 0.000000 0.300207 0.449036
#
# Coordination Sequence:
#
# PCOD8188483 Si02
#       7
#     8   8   8   8   8   8   8
#     4   9  17  30  47  65  87 115 145 175 205 242
#     4   9  17  29  43  60  85 115 147 182 214 247
#     4  10  19  30  44  61  83 111 142 177 215 256
#     4  11  21  30  43  63  86 112 142 176 214 255
#     4   8  12  19  35  60  86 108 133 169 209 249
#     4   8  14  24  38  58  83 108 135 169 210 255
#     4   8  13  22  39  63  86 110 142 174 204 241
#
# _framework density 15.634683000000001
#
# number of rings (size 3 to 8) (size 9 to 14) (size 15 to 20)
#    0.000    3.000    0.000    4.286    0.000    4.857 
#    0.000    0.000    0.000    3.429    0.000    5.000 
#    0.000    3.429    0.000    0.000    0.000    0.000 
#
# Total GULP energy -347030.125384 kJ/mol
# GULP energy per Si atom -12393.933049 kJ/mol
# Density = 1.559910 g / cm^3
# Si number density = 15.634683 Si / 1000 Ang^3
#
#
#
# Elastic Constant Matrix: (Units=GPa)
#
#
# Indices 1 2 3 4 5 6 
#
# 1 46.6309 31.7832 28.2487 0.0000 0.0000 0.0000
# 2 31.7832 103.9859 57.9718 0.0000 0.0000 0.0000
# 3 28.2487 57.9718 122.4721 0.0000 0.0000 0.0000
# 4 0.0000 0.0000 0.0000 22.6483 0.0000 0.0000
# 5 0.0000 0.0000 0.0000 0.0000 17.9927 0.0000
# 6 0.0000 0.0000 0.0000 0.0000 0.0000 11.7988
#
#
#
# Elastic Compliance Matrix: (Units=1/GPa)
#
#
# Indices 1 2 3 4 5 6 
#
# 1 0.028022 -0.006740 -0.003273 0.000000 0.000000 0.000000
# 2 -0.006740 0.014685 -0.005397 0.000000 0.000000 0.000000
# 3 -0.003273 -0.005397 0.011475 0.000000 0.000000 0.000000
# 4 0.000000 0.000000 0.000000 0.044153 0.000000 0.000000
# 5 0.000000 0.000000 0.000000 0.000000 0.055578 0.000000
# 6 0.000000 0.000000 0.000000 0.000000 0.000000 0.084755
#
#
# Mechanical properties :
#
#
# Convention : Reuss Voigt Hill
#
# Bulk Modulus (GPa) = 42.80413 56.56626 49.68519
# Shear Modulus (GPa) = 18.03266 20.82697 19.42982
#
# Velocity S-wave (km/s) = 3.39982 3.65376 3.52907
# Velocity P-wave (km/s) = 6.54590 7.35244 6.96086
#
# Compressibility (1/GPa) = 0.02336223
#
# Stress axis : x y z
#
# Youngs Moduli (GPa) = 35.68656 68.09473 87.14966
#
# Poissons Ratio (x) = 0.45897 0.28523
# Poissons Ratio (y) = 0.24053 0.47032
# Poissons Ratio (z) = 0.11680 0.36748
#
# Static dielectric constant tensor:
#      x y z
#    x 2.737600 0.000000 0.000000 
#    y 0.000000 2.938590 0.000000 
#    z 0.000000 0.000000 3.281240 
# 
# 
# High freq. dielectric constant tensor:
#      x y z
#    x 1.574900 0.000000 0.000000 
#    y 0.000000 1.572350 0.000000 
#    z 0.000000 0.000000 1.599720 
# 
# From -- ./inp_files/27209.got.cif
#   From: 2010.03.12/outbox.cif.g09.slc.cpg/sg44_14_cif.got.tgz:27209.got - 2010.04.14 02:36:11.
