data_PCOD8188654
_publ_section_title
;
Structure prediction by ZEFSAII (Michael W. Deem and Ramdas Pophale) SiO2 
 PCOD8188654
Probable space group: I M M 2
;
_chemical_formula_sum "Si O2"
_cell_formula_units_Z 40
_cell_length_a 9.259276
_cell_length_b 7.611507
_cell_length_c 29.229248
_cell_angle_alpha 90.000000
_cell_angle_beta 90.000000
_cell_angle_gamma 90.000000
_cell_volume 2059.991000
_symmetry_space_group_name_H-M "I M M 2"
_symmetry_group_IT_number 44
_symmetry_cell_setting 'orthorhombic'
loop_
_space_group_symop_operation_xyz
x,y,z
-x,-y,z
-x,y,z
x,-y,z
1/2+x,1/2+y,1/2+z
1/2-x,1/2-y,1/2+z
1/2-x,1/2+y,1/2+z
1/2+x,1/2-y,1/2+z
loop_
_atom_site_type_symbol
_atom_site_label
_atom_site_fract_x
_atom_site_fract_y
_atom_site_fract_z
Si Si1 0.340845 0.208021 0.324020
Si Si2 0.335258 0.292010 0.738333
Si Si3 0.827249 0.500000 0.481647
Si Si4 0.164953 0.195950 0.650112
Si Si5 0.169621 0.703881 0.926607
Si Si6 0.328957 0.000000 0.085189
O O1 0.500000 0.286729 0.314268
O O2 0.231287 0.280370 0.285842
O O3 0.289425 0.261162 0.374831
O O4 0.349636 0.000000 0.321650
O O5 0.500000 0.231516 0.737140
O O6 0.318064 0.500000 0.734463
O O7 0.254696 0.203159 0.696423
O O8 0.765286 0.323205 0.459503
O O9 0.770038 0.500000 0.533789
O O10 0.000000 0.500000 0.477729
O O11 0.228442 0.328058 0.612043
O O12 0.000000 0.246690 0.661981
O O13 0.175566 0.000000 0.629639
O O14 0.208534 0.500000 0.935577
O O15 0.000000 0.736470 0.935322
O O16 0.500000 0.000000 0.083273
#
# Coordination Sequence:
#
# PCOD8188654 Si02
#       6
#     8   8   4   8   8   4
#     4   8  15  30  54  80 107 147 194 232 269 321
#     4  10  19  31  51  81 116 150 180 221 282 338
#     4  11  23  37  59  91 119 149 189 241 306 353
#     4  10  20  36  59  81 103 141 191 234 274 326
#     4   9  19  38  61  84 114 153 197 242 283 336
#     4   9  20  39  59  81 111 145 187 239 284 335
#
# _framework density 19.417560999999999
#
# number of rings (size 3 to 8) (size 9 to 14) (size 15 to 20)
#    0.000    2.600    1.000    2.100    0.000    3.200 
#    1.800    6.000    0.000    0.000    0.000    0.000 
#    0.000    0.000    0.000    0.000    0.000    0.000 
#
# Total GULP energy -247962.810986 kJ/mol
# GULP energy per Si atom -12398.140549 kJ/mol
# Density = 1.937337 g / cm^3
# Si number density = 19.417561 Si / 1000 Ang^3
#
#
#
# Elastic Constant Matrix: (Units=GPa)
#
#
# Indices 1 2 3 4 5 6 
#
# 1 90.7955 44.6633 67.0504 0.0000 0.0000 0.0000
# 2 44.6633 99.6318 64.6520 0.0000 0.0000 0.0000
# 3 67.0504 64.6520 166.2638 0.0000 0.0000 0.0000
# 4 0.0000 0.0000 0.0000 10.3594 0.0000 0.0000
# 5 0.0000 0.0000 0.0000 0.0000 28.6654 0.0000
# 6 0.0000 0.0000 0.0000 0.0000 0.0000 22.7251
#
#
#
# Elastic Compliance Matrix: (Units=1/GPa)
#
#
# Indices 1 2 3 4 5 6 
#
# 1 0.016916 -0.004222 -0.005180 0.000000 0.000000 0.000000
# 2 -0.004222 0.014478 -0.003927 0.000000 0.000000 0.000000
# 3 -0.005180 -0.003927 0.009631 0.000000 0.000000 0.000000
# 4 0.000000 0.000000 0.000000 0.096531 0.000000 0.000000
# 5 0.000000 0.000000 0.000000 0.000000 0.034885 0.000000
# 6 0.000000 0.000000 0.000000 0.000000 0.000000 0.044004
#
#
# Mechanical properties :
#
#
# Convention : Reuss Voigt Hill
#
# Bulk Modulus (GPa) = 69.60740 78.82473 74.21606
# Shear Modulus (GPa) = 20.17011 24.37167 22.27089
#
# Velocity S-wave (km/s) = 3.22647 3.54663 3.39033
# Velocity P-wave (km/s) = 7.05731 7.57985 7.32324
#
# Compressibility (1/GPa) = 0.01436629
#
# Stress axis : x y z
#
# Youngs Moduli (GPa) = 59.11607 69.07092 103.83450
#
# Poissons Ratio (x) = 0.29159 0.53788
# Poissons Ratio (y) = 0.24957 0.40779
# Poissons Ratio (z) = 0.30623 0.27126
#
# Static dielectric constant tensor:
#      x y z
#    x 3.474830 0.000000 0.000000 
#    y 0.000000 3.465050 0.000000 
#    z 0.000000 0.000000 3.686610 
# 
# 
# High freq. dielectric constant tensor:
#      x y z
#    x 1.738810 0.000000 0.000000 
#    y 0.000000 1.754540 0.000000 
#    z 0.000000 0.000000 1.753840 
# 
# From -- ./inp_files/25942.got.cif
#   From: 2010.03.12/outbox.cif.g09.slc.cpg/sg44_13_cif.got.tgz:25942.got - 2010.04.14 02:36:11.
