data_PCOD8188249
_publ_section_title
;
Structure prediction by ZEFSAII (Michael W. Deem and Ramdas Pophale) SiO2 
 PCOD8188249
Probable space group: I M M 2
;
_chemical_formula_sum "Si O2"
_cell_formula_units_Z 64
_cell_length_a 27.516916
_cell_length_b 8.994328
_cell_length_c 13.095682
_cell_angle_alpha 90.000000
_cell_angle_beta 90.000000
_cell_angle_gamma 90.000000
_cell_volume 3241.131113
_symmetry_space_group_name_H-M "I M M 2"
_symmetry_group_IT_number 44
_symmetry_cell_setting 'orthorhombic'
loop_
_space_group_symop_operation_xyz
x,y,z
-x,-y,z
-x,y,z
x,-y,z
1/2+x,1/2+y,1/2+z
1/2-x,1/2-y,1/2+z
1/2-x,1/2+y,1/2+z
1/2+x,1/2-y,1/2+z
loop_
_atom_site_type_symbol
_atom_site_label
_atom_site_fract_x
_atom_site_fract_y
_atom_site_fract_z
Si Si1 0.054801 0.323365 0.856980
Si Si2 0.376393 0.822567 0.172769
Si Si3 0.700224 0.823801 0.610987
Si Si4 0.771007 0.167028 0.447450
Si Si5 0.621317 0.677022 0.959041
Si Si6 0.906768 0.676665 0.073191
Si Si7 0.944087 0.328744 0.290537
Si Si8 0.769796 0.666039 0.736050
O O1 0.057306 0.500000 0.861618
O O2 0.089386 0.265981 0.765584
O O3 0.000000 0.268787 0.834766
O O4 0.071117 0.258289 0.967800
O O5 0.321328 0.769377 0.197497
O O6 0.379473 0.000000 0.162018
O O7 0.394280 0.746586 0.068096
O O8 0.741180 0.751481 0.536657
O O9 0.647464 0.757745 0.587044
O O10 0.721951 0.767633 0.717380
O O11 0.697427 0.000000 0.605718
O O12 0.824395 0.237211 0.430380
O O13 0.731453 0.165191 0.357753
O O14 0.782266 0.000000 0.483345
O O15 0.616859 0.500000 0.964833
O O16 0.586510 0.732186 0.869391
O O17 0.906409 0.500000 0.065662
O O18 0.936796 0.726699 0.173504
O O19 0.927332 0.500000 0.299705
O O20 0.000000 0.309264 0.320032
O O21 0.762281 0.500000 0.692506
#
# Coordination Sequence:
#
# PCOD8188249 Si02
#       8
#     8   8   8   8   8   8   8   8
#     4   9  17  31  54  83 110 138 177 226 281 333
#     4  10  20  34  54  81 112 145 184 229 274 322
#     4  10  18  31  51  76 105 136 172 208 256 316
#     4   9  18  32  50  73 104 141 175 214 263 314
#     4  11  22  37  56  78 111 151 191 227 269 329
#     4   9  17  31  55  85 112 139 176 227 281 335
#     4  10  21  37  57  82 111 142 182 235 287 328
#     4  10  19  32  50  73 104 140 178 217 259 312
#
# _framework density 19.746193000000002
#
# number of rings (size 3 to 8) (size 9 to 14) (size 15 to 20)
#    0.000    2.250    1.250    2.250    0.000    5.250 
#    0.000    2.500    0.000    3.000    0.000    0.000 
#    0.000    0.000    0.000    0.000    0.000    0.000 
#
# Total GULP energy -396538.717645 kJ/mol
# GULP energy per Si atom -12391.834926 kJ/mol
# Density = 1.970125 g / cm^3
# Si number density = 19.746193 Si / 1000 Ang^3
#
#
#
# Elastic Constant Matrix: (Units=GPa)
#
#
# Indices 1 2 3 4 5 6 
#
# 1 115.6715 21.1818 42.5774 0.0000 0.0000 0.0000
# 2 21.1818 29.7858 26.9146 0.0000 0.0000 0.0000
# 3 42.5774 26.9146 116.9320 0.0000 0.0000 0.0000
# 4 0.0000 0.0000 0.0000 18.4338 0.0000 0.0000
# 5 0.0000 0.0000 0.0000 0.0000 39.8242 0.0000
# 6 0.0000 0.0000 0.0000 0.0000 0.0000 21.0011
#
#
#
# Elastic Compliance Matrix: (Units=1/GPa)
#
#
# Indices 1 2 3 4 5 6 
#
# 1 0.010562 -0.005096 -0.002673 0.000000 0.000000 0.000000
# 2 -0.005096 0.044848 -0.008467 0.000000 0.000000 0.000000
# 3 -0.002673 -0.008467 0.011474 0.000000 0.000000 0.000000
# 4 0.000000 0.000000 0.000000 0.054248 0.000000 0.000000
# 5 0.000000 0.000000 0.000000 0.000000 0.025110 0.000000
# 6 0.000000 0.000000 0.000000 0.000000 0.000000 0.047616
#
#
# Mechanical properties :
#
#
# Convention : Reuss Voigt Hill
#
# Bulk Modulus (GPa) = 29.05953 49.30410 39.18182
# Shear Modulus (GPa) = 21.02587 27.29953 24.16270
#
# Velocity S-wave (km/s) = 3.26668 3.72226 3.50189
# Velocity P-wave (km/s) = 5.38300 6.59521 6.01970
#
# Compressibility (1/GPa) = 0.03441211
#
# Stress axis : x y z
#
# Youngs Moduli (GPa) = 94.67700 22.29756 87.15197
#
# Poissons Ratio (x) = 0.11363 0.23296
# Poissons Ratio (y) = 0.48246 0.73794
# Poissons Ratio (z) = 0.25307 0.18880
#
# Static dielectric constant tensor:
#      x y z
#    x 3.806040 0.000000 0.000000 
#    y 0.000000 3.145410 0.000000 
#    z 0.000000 0.000000 3.698030 
# 
# 
# High freq. dielectric constant tensor:
#      x y z
#    x 1.780140 0.000000 0.000000 
#    y 0.000000 1.715820 0.000000 
#    z 0.000000 0.000000 1.782540 
# 
# From -- ./inp_files/15047.got.cif
#   From: 2010.03.12/outbox.cif.g09.slc.cpg/sg44_8_cif.got.tgz:15047.got - 2010.04.14 02:36:11.
