data_PCOD8188877
_publ_section_title
;
Structure prediction by ZEFSAII (Michael W. Deem and Ramdas Pophale) SiO2 
 PCOD8188877
Probable space group: I M M 2
;
_chemical_formula_sum "Si O2"
_cell_formula_units_Z 64
_cell_length_a 29.060748
_cell_length_b 8.834367
_cell_length_c 12.628868
_cell_angle_alpha 90.000000
_cell_angle_beta 90.000000
_cell_angle_gamma 90.000000
_cell_volume 3242.251123
_symmetry_space_group_name_H-M "I M M 2"
_symmetry_group_IT_number 44
_symmetry_cell_setting 'orthorhombic'
loop_
_space_group_symop_operation_xyz
x,y,z
-x,-y,z
-x,y,z
x,-y,z
1/2+x,1/2+y,1/2+z
1/2-x,1/2-y,1/2+z
1/2-x,1/2+y,1/2+z
1/2+x,1/2-y,1/2+z
loop_
_atom_site_type_symbol
_atom_site_label
_atom_site_fract_x
_atom_site_fract_y
_atom_site_fract_z
Si Si1 0.049660 0.670549 0.121190
Si Si2 0.446787 0.680312 0.005619
Si Si3 0.392454 0.324995 0.210462
Si Si4 0.086490 0.173168 0.941607
Si Si5 0.700681 0.824873 0.282380
Si Si6 0.674974 0.827378 0.514270
Si Si7 0.198942 0.822240 0.226403
Si Si8 0.388714 0.179060 0.815630
O O1 0.060473 0.500000 0.083732
O O2 0.087569 0.725918 0.205093
O O3 0.000000 0.677315 0.178450
O O4 0.044692 0.782720 0.018889
O O5 0.500000 0.737550 0.002117
O O6 0.445976 0.500000 0.000997
O O7 0.422176 0.741470 0.113139
O O8 0.417112 0.744555 0.909425
O O9 0.383658 0.500000 0.189852
O O10 0.422653 0.297604 0.317194
O O11 0.341709 0.254810 0.222813
O O12 0.102316 0.000000 0.958122
O O13 0.122800 0.294287 0.984798
O O14 0.703530 0.796337 0.408036
O O15 0.749427 0.760686 0.243612
O O16 0.694732 0.000000 0.255326
O O17 0.689946 0.711993 0.604188
O O18 0.679863 0.000000 0.554740
O O19 0.163573 0.739647 0.306923
O O20 0.195185 0.000000 0.248917
O O21 0.388733 0.000000 0.833830
#
# Coordination Sequence:
#
# PCOD8188877 Si02
#       8
#     8   8   8   8   8   8   8   8
#     4  10  21  36  54  79 113 148 183 230 288 346
#     4  10  22  41  63  86 119 163 205 250 304 360
#     4   9  20  38  60  86 117 153 197 245 295 351
#     4  10  19  33  56  84 111 144 186 235 287 343
#     4   9  21  38  57  84 118 155 196 245 298 353
#     4  10  19  35  56  78 110 151 187 230 290 348
#     4  11  22  37  58  86 117 152 198 247 296 354
#     4  11  23  39  59  84 115 154 199 247 297 353
#
# _framework density 19.739371999999999
#
# number of rings (size 3 to 8) (size 9 to 14) (size 15 to 20)
#    0.000    2.000    1.250    1.875    0.000    5.500 
#    0.000    5.000    0.000    0.000    0.000    0.000 
#    0.000    0.000    0.000    0.000    0.000    0.000 
#
# Total GULP energy -396604.604800 kJ/mol
# GULP energy per Si atom -12393.893900 kJ/mol
# Density = 1.969444 g / cm^3
# Si number density = 19.739372 Si / 1000 Ang^3
#
#
#
# Elastic Constant Matrix: (Units=GPa)
#
#
# Indices 1 2 3 4 5 6 
#
# 1 115.5224 28.8405 54.9551 0.0000 0.0000 0.0000
# 2 28.8405 44.9050 37.6553 0.0000 0.0000 0.0000
# 3 54.9551 37.6553 115.8340 0.0000 0.0000 0.0000
# 4 0.0000 0.0000 0.0000 29.6455 0.0000 0.0000
# 5 0.0000 0.0000 0.0000 0.0000 22.4941 0.0000
# 6 0.0000 0.0000 0.0000 0.0000 0.0000 26.2525
#
#
#
# Elastic Compliance Matrix: (Units=1/GPa)
#
#
# Indices 1 2 3 4 5 6 
#
# 1 0.011660 -0.003918 -0.004258 0.000000 0.000000 0.000000
# 2 -0.003918 0.031931 -0.008521 0.000000 0.000000 0.000000
# 3 -0.004258 -0.008521 0.013423 0.000000 0.000000 0.000000
# 4 0.000000 0.000000 0.000000 0.033732 0.000000 0.000000
# 5 0.000000 0.000000 0.000000 0.000000 0.044456 0.000000
# 6 0.000000 0.000000 0.000000 0.000000 0.000000 0.038092
#
#
# Mechanical properties :
#
#
# Convention : Reuss Voigt Hill
#
# Bulk Modulus (GPa) = 42.33787 57.68479 50.01133
# Shear Modulus (GPa) = 23.30319 25.99913 24.65116
#
# Velocity S-wave (km/s) = 3.43963 3.63315 3.53772
# Velocity P-wave (km/s) = 6.10490 6.84736 6.48676
#
# Compressibility (1/GPa) = 0.02361951
#
# Stress axis : x y z
#
# Youngs Moduli (GPa) = 85.76209 31.31730 74.49674
#
# Poissons Ratio (x) = 0.12270 0.31723
# Poissons Ratio (y) = 0.33602 0.63481
# Poissons Ratio (z) = 0.36520 0.26687
#
# Static dielectric constant tensor:
#      x y z
#    x 3.731400 0.000000 0.000000 
#    y 0.000000 3.493210 0.000000 
#    z 0.000000 0.000000 3.852650 
# 
# 
# High freq. dielectric constant tensor:
#      x y z
#    x 1.771470 0.000000 0.000000 
#    y 0.000000 1.765080 0.000000 
#    z 0.000000 0.000000 1.771520 
# 
# From -- ./inp_files/11561.got.cif
#   From: 2010.03.12/outbox.cif.g09.slc.cpg/sg44_6_cif.got.tgz:11561.got - 2010.04.14 02:36:11.
