data_PCOD8188189
_publ_section_title
;
Structure prediction by ZEFSAII (Michael W. Deem and Ramdas Pophale) SiO2 
 PCOD8188189
Probable space group: I M M 2
;
_chemical_formula_sum "Si O2"
_cell_formula_units_Z 48
_cell_length_a 8.660078
_cell_length_b 18.305858
_cell_length_c 17.230289
_cell_angle_alpha 90.000000
_cell_angle_beta 90.000000
_cell_angle_gamma 90.000000
_cell_volume 2731.520440
_symmetry_space_group_name_H-M "I M M 2"
_symmetry_group_IT_number 44
_symmetry_cell_setting 'orthorhombic'
loop_
_space_group_symop_operation_xyz
x,y,z
-x,-y,z
-x,y,z
x,-y,z
1/2+x,1/2+y,1/2+z
1/2-x,1/2-y,1/2+z
1/2-x,1/2+y,1/2+z
1/2+x,1/2-y,1/2+z
loop_
_atom_site_type_symbol
_atom_site_label
_atom_site_fract_x
_atom_site_fract_y
_atom_site_fract_z
Si Si1 0.678290 0.202211 0.438620
Si Si2 0.822927 0.180607 0.055373
Si Si3 0.317948 0.583547 0.850398
Si Si4 0.320753 0.800663 0.810587
Si Si5 0.818404 0.917279 0.909342
Si Si6 0.179811 0.682113 0.717742
O O1 0.500000 0.211527 0.412425
O O2 0.698629 0.235407 0.524971
O O3 0.733990 0.118645 0.426910
O O4 0.789119 0.247589 0.382423
O O5 0.715044 0.165264 0.128319
O O6 0.000000 0.166700 0.079465
O O7 0.771208 0.124885 0.987808
O O8 0.500000 0.590321 0.860901
O O9 0.264241 0.500000 0.845019
O O10 0.268136 0.624043 0.771571
O O11 0.500000 0.805457 0.790967
O O12 0.258608 0.880887 0.833204
O O13 0.234661 0.765169 0.736268
O O14 0.000000 0.912911 0.897183
O O15 0.758724 0.000000 0.915929
O O16 0.000000 0.673599 0.733572
#
# Coordination Sequence:
#
# PCOD8188189 Si02
#       6
#     8   8   8   8   8   8
#     4   9  17  31  51  71  93 124 162 200 237 282
#     4   9  18  32  49  72 100 129 160 195 240 289
#     4  10  20  33  50  72  99 130 161 196 240 288
#     4  10  18  30  49  70  95 126 162 202 238 280
#     4   9  18  33  52  73  99 130 161 195 238 288
#     4  11  21  32  49  72  98 129 164 202 241 282
#
# _framework density 17.572628999999999
#
# number of rings (size 3 to 8) (size 9 to 14) (size 15 to 20)
#    0.000    2.333    0.000    7.000    0.000    5.667 
#    0.000    1.667    0.000    1.000    0.000    4.667 
#    0.000    0.000    0.000    0.000    0.000    0.000 
#
# Total GULP energy -297471.270173 kJ/mol
# GULP energy per Si atom -12394.636257 kJ/mol
# Density = 1.753263 g / cm^3
# Si number density = 17.572629 Si / 1000 Ang^3
#
#
#
# Elastic Constant Matrix: (Units=GPa)
#
#
# Indices 1 2 3 4 5 6 
#
# 1 56.0831 32.0726 11.8600 0.0000 0.0000 0.0000
# 2 32.0726 128.7160 48.8409 0.0000 0.0000 0.0000
# 3 11.8600 48.8409 27.8032 0.0000 0.0000 0.0000
# 4 0.0000 0.0000 0.0000 18.8135 0.0000 0.0000
# 5 0.0000 0.0000 0.0000 0.0000 27.4679 0.0000
# 6 0.0000 0.0000 0.0000 0.0000 0.0000 27.2064
#
#
#
# Elastic Compliance Matrix: (Units=1/GPa)
#
#
# Indices 1 2 3 4 5 6 
#
# 1 0.020798 -0.005446 0.000695 0.000000 0.000000 0.000000
# 2 -0.005446 0.024726 -0.041111 0.000000 0.000000 0.000000
# 3 0.000695 -0.041111 0.107889 0.000000 0.000000 0.000000
# 4 0.000000 0.000000 0.000000 0.053153 0.000000 0.000000
# 5 0.000000 0.000000 0.000000 0.000000 0.036406 0.000000
# 6 0.000000 0.000000 0.000000 0.000000 0.000000 0.036756
#
#
# Mechanical properties :
#
#
# Convention : Reuss Voigt Hill
#
# Bulk Modulus (GPa) = 16.21055 44.23881 30.22468
# Shear Modulus (GPa) = 12.75456 22.68614 17.72035
#
# Velocity S-wave (km/s) = 2.69703 3.59694 3.17899
# Velocity P-wave (km/s) = 4.35241 6.51768 5.54182
#
# Compressibility (1/GPa) = 0.06168821
#
# Stress axis : x y z
#
# Youngs Moduli (GPa) = 48.08111 40.44380 9.26875
#
# Poissons Ratio (x) = 0.22026 -0.00644
# Poissons Ratio (y) = 0.26185 0.38105
# Poissons Ratio (z) = -0.03342 1.66270
#
# Static dielectric constant tensor:
#      x y z
#    x 3.232000 0.000000 0.000000 
#    y 0.000000 3.583800 0.000000 
#    z 0.000000 0.000000 3.153570 
# 
# 
# High freq. dielectric constant tensor:
#      x y z
#    x 1.686360 0.000000 0.000000 
#    y 0.000000 1.670730 0.000000 
#    z 0.000000 0.000000 1.652250 
# 
# From -- ./inp_files/20459.got.cif
#   From: 2010.03.12/outbox.cif.g09.slc.cpg/sg44_11_cif.got.tgz:20459.got - 2010.04.14 02:36:11.
