data_PCOD8188369
_publ_section_title
;
Structure prediction by ZEFSAII (Michael W. Deem and Ramdas Pophale) SiO2 
 PCOD8188369
Probable space group: I M M 2
;
_chemical_formula_sum "Si O2"
_cell_formula_units_Z 40
_cell_length_a 18.623045
_cell_length_b 8.402418
_cell_length_c 13.497406
_cell_angle_alpha 90.000000
_cell_angle_beta 90.000000
_cell_angle_gamma 90.000000
_cell_volume 2112.055310
_symmetry_space_group_name_H-M "I M M 2"
_symmetry_group_IT_number 44
_symmetry_cell_setting 'orthorhombic'
loop_
_space_group_symop_operation_xyz
x,y,z
-x,-y,z
-x,y,z
x,-y,z
1/2+x,1/2+y,1/2+z
1/2-x,1/2-y,1/2+z
1/2-x,1/2+y,1/2+z
1/2+x,1/2-y,1/2+z
loop_
_atom_site_type_symbol
_atom_site_label
_atom_site_fract_x
_atom_site_fract_y
_atom_site_fract_z
Si Si1 0.000000 0.813682 0.722880
Si Si2 0.645174 0.312978 0.310511
Si Si3 0.780294 0.187551 0.007752
Si Si4 0.208324 0.688538 0.219239
Si Si5 0.000000 0.317312 0.507883
Si Si6 0.139222 0.185567 0.410194
O O1 0.070800 0.734353 0.773082
O O2 0.000000 0.788944 0.605997
O O3 0.000000 0.000000 0.745232
O O4 0.640080 0.500000 0.296167
O O5 0.660280 0.269155 0.424892
O O6 0.711023 0.250835 0.243177
O O7 0.811994 0.255065 0.109615
O O8 0.766905 0.000000 0.013360
O O9 0.705269 0.270342 0.981533
O O10 0.201451 0.500000 0.230783
O O11 0.154237 0.769581 0.296350
O O12 0.930321 0.281768 0.443018
O O13 0.000000 0.500000 0.540312
O O14 0.123210 0.000000 0.419972
#
# Coordination Sequence:
#
# PCOD8188369 Si02
#       6
#     4   8   8   8   4   8
#     4  10  18  34  57  80 107 144 181 216 262 322
#     4   8  17  31  51  77 106 137 177 222 265 313
#     4  10  19  34  54  80 111 145 183 227 273 321
#     4  10  19  34  54  79 108 142 183 230 276 322
#     4  12  24  38  55  80 111 140 171 222 282 336
#     4  11  22  37  56  80 107 142 185 228 272 327
#
# _framework density 18.938897999999998
#
# number of rings (size 3 to 8) (size 9 to 14) (size 15 to 20)
#    0.000    2.000    0.000    6.300    0.000    1.600 
#    0.000    6.000    0.000    2.400    0.000    0.000 
#    0.000    0.000    0.000    0.000    0.000    0.000 
#
# Total GULP energy -248025.249517 kJ/mol
# GULP energy per Si atom -12401.262476 kJ/mol
# Density = 1.889579 g / cm^3
# Si number density = 18.938898 Si / 1000 Ang^3
#
#
#
# Elastic Constant Matrix: (Units=GPa)
#
#
# Indices 1 2 3 4 5 6 
#
# 1 114.9092 3.9286 47.8863 0.0000 0.0000 0.0000
# 2 3.9286 54.9583 3.8306 0.0000 0.0000 0.0000
# 3 47.8863 3.8306 122.9123 0.0000 0.0000 0.0000
# 4 0.0000 0.0000 0.0000 30.7652 0.0000 0.0000
# 5 0.0000 0.0000 0.0000 0.0000 20.3556 0.0000
# 6 0.0000 0.0000 0.0000 0.0000 0.0000 20.9074
#
#
#
# Elastic Compliance Matrix: (Units=1/GPa)
#
#
# Indices 1 2 3 4 5 6 
#
# 1 0.010401 -0.000462 -0.004038 0.000000 0.000000 0.000000
# 2 -0.000462 0.018256 -0.000389 0.000000 0.000000 0.000000
# 3 -0.004038 -0.000389 0.009721 0.000000 0.000000 0.000000
# 4 0.000000 0.000000 0.000000 0.032504 0.000000 0.000000
# 5 0.000000 0.000000 0.000000 0.000000 0.049127 0.000000
# 6 0.000000 0.000000 0.000000 0.000000 0.000000 0.047830
#
#
# Mechanical properties :
#
#
# Convention : Reuss Voigt Hill
#
# Bulk Modulus (GPa) = 34.96468 44.89676 39.93072
# Shear Modulus (GPa) = 26.71661 30.21461 28.46561
#
# Velocity S-wave (km/s) = 3.75997 3.99855 3.88109
# Velocity P-wave (km/s) = 6.11161 6.71382 6.41978
#
# Compressibility (1/GPa) = 0.02860029
#
# Stress axis : x y z
#
# Youngs Moduli (GPa) = 96.14458 54.77726 102.86879
#
# Poissons Ratio (x) = 0.02531 0.41536
# Poissons Ratio (y) = 0.04442 0.04001
# Poissons Ratio (z) = 0.38821 0.02130
#
# Static dielectric constant tensor:
#      x y z
#    x 3.809130 0.000000 0.000000 
#    y 0.000000 3.319180 0.000000 
#    z 0.000000 0.000000 3.698070 
# 
# 
# High freq. dielectric constant tensor:
#      x y z
#    x 1.725930 0.000000 0.000000 
#    y 0.000000 1.728140 0.000000 
#    z 0.000000 0.000000 1.744270 
# 
# From -- ./inp_files/14212.got.cif
#   From: 2010.03.12/outbox.cif.g09.slc.cpg/sg44_8_cif.got.tgz:14212.got - 2010.04.14 02:36:11.
