data_PCOD8188689
_publ_section_title
;
Structure prediction by ZEFSAII (Michael W. Deem and Ramdas Pophale) SiO2 
 PCOD8188689
Probable space group: I M M 2
;
_chemical_formula_sum "Si O2"
_cell_formula_units_Z 48
_cell_length_a 7.885475
_cell_length_b 9.119113
_cell_length_c 34.195575
_cell_angle_alpha 90.000000
_cell_angle_beta 90.000000
_cell_angle_gamma 90.000000
_cell_volume 2458.953790
_symmetry_space_group_name_H-M "I M M 2"
_symmetry_group_IT_number 44
_symmetry_cell_setting 'orthorhombic'
loop_
_space_group_symop_operation_xyz
x,y,z
-x,-y,z
-x,y,z
x,-y,z
1/2+x,1/2+y,1/2+z
1/2-x,1/2-y,1/2+z
1/2-x,1/2+y,1/2+z
1/2+x,1/2-y,1/2+z
loop_
_atom_site_type_symbol
_atom_site_label
_atom_site_fract_x
_atom_site_fract_y
_atom_site_fract_z
Si Si1 0.690097 0.169310 0.173150
Si Si2 0.000000 0.826155 0.120599
Si Si3 0.693810 0.336580 0.400752
Si Si4 0.302495 0.828746 0.748344
Si Si5 0.686611 0.174072 0.982907
Si Si6 0.000000 0.175516 0.032852
Si Si7 0.698742 0.331593 0.826070
O O1 0.500000 0.187344 0.155482
O O2 0.698501 0.261284 0.212757
O O3 0.829754 0.229437 0.142514
O O4 0.728526 0.000000 0.183150
O O5 0.000000 0.761218 0.076884
O O6 0.000000 0.000000 0.118488
O O7 0.500000 0.346255 0.413779
O O8 0.761423 0.500000 0.389749
O O9 0.792318 0.270605 0.438228
O O10 0.710822 0.229735 0.364254
O O11 0.500000 0.793699 0.741815
O O12 0.235934 0.755981 0.788255
O O13 0.265024 0.000000 0.750875
O O14 0.500000 0.222894 0.998057
O O15 0.831734 0.238144 0.011388
O O16 0.704193 0.000000 0.982407
O O17 0.000000 0.000000 0.033055
O O18 0.500000 0.309504 0.831649
O O19 0.749722 0.500000 0.820552
#
# Coordination Sequence:
#
# PCOD8188689 Si02
#       7
#     8   4   8   8   8   4   8
#     4  10  20  34  54  79 108 146 184 219 270 328
#     4   9  18  32  51  75 111 147 179 227 273 321
#     4  10  19  32  50  73 104 141 183 227 269 317
#     4  10  20  35  56  79 104 139 182 226 274 324
#     4   9  16  27  46  72 105 143 179 221 270 317
#     4   9  16  28  46  75 109 141 179 221 271 327
#     4  10  21  35  52  76 106 141 180 224 272 323
#
# _framework density 19.520495
#
# number of rings (size 3 to 8) (size 9 to 14) (size 15 to 20)
#    0.000    2.333    1.667    1.500    0.000    4.333 
#    0.000    3.333    0.000    0.000    0.000    2.333 
#    0.000    0.000    0.000    0.000    0.000    0.000 
#
# Total GULP energy -297590.921277 kJ/mol
# GULP energy per Si atom -12399.621720 kJ/mol
# Density = 1.947607 g / cm^3
# Si number density = 19.520495 Si / 1000 Ang^3
#
#
#
# Elastic Constant Matrix: (Units=GPa)
#
#
# Indices 1 2 3 4 5 6 
#
# 1 125.3348 26.3911 69.9414 0.0000 0.0000 0.0000
# 2 26.3911 56.0910 32.6124 0.0000 0.0000 0.0000
# 3 69.9414 32.6124 148.9794 0.0000 0.0000 0.0000
# 4 0.0000 0.0000 0.0000 17.8782 0.0000 0.0000
# 5 0.0000 0.0000 0.0000 0.0000 27.0369 0.0000
# 6 0.0000 0.0000 0.0000 0.0000 0.0000 16.0637
#
#
#
# Elastic Compliance Matrix: (Units=1/GPa)
#
#
# Indices 1 2 3 4 5 6 
#
# 1 0.011112 -0.002515 -0.004666 0.000000 0.000000 0.000000
# 2 -0.002515 0.020998 -0.003416 0.000000 0.000000 0.000000
# 3 -0.004666 -0.003416 0.009651 0.000000 0.000000 0.000000
# 4 0.000000 0.000000 0.000000 0.055934 0.000000 0.000000
# 5 0.000000 0.000000 0.000000 0.000000 0.036986 0.000000
# 6 0.000000 0.000000 0.000000 0.000000 0.000000 0.062252
#
#
# Mechanical properties :
#
#
# Convention : Reuss Voigt Hill
#
# Bulk Modulus (GPa) = 48.62367 65.36613 56.99490
# Shear Modulus (GPa) = 22.22390 25.62643 23.92516
#
# Velocity S-wave (km/s) = 3.37781 3.62718 3.50472
# Velocity P-wave (km/s) = 6.33845 7.14846 6.75561
#
# Compressibility (1/GPa) = 0.02056612
#
# Stress axis : x y z
#
# Youngs Moduli (GPa) = 89.99119 47.62461 103.61948
#
# Poissons Ratio (x) = 0.11979 0.48351
# Poissons Ratio (y) = 0.22636 0.35392
# Poissons Ratio (z) = 0.41992 0.16267
#
# Static dielectric constant tensor:
#      x y z
#    x 3.652310 0.000000 0.000000 
#    y 0.000000 3.138450 0.000000 
#    z 0.000000 0.000000 3.582800 
# 
# 
# High freq. dielectric constant tensor:
#      x y z
#    x 1.768360 0.000000 0.000000 
#    y 0.000000 1.713650 0.000000 
#    z 0.000000 0.000000 1.758490 
# 
# From -- ./inp_files/26972.got.cif
#   From: 2010.03.12/outbox.cif.g09.slc.cpg/sg44_14_cif.got.tgz:26972.got - 2010.04.14 02:36:11.
