data_PCOD8188971
_publ_section_title
;
Structure prediction by ZEFSAII (Michael W. Deem and Ramdas Pophale) SiO2 
 PCOD8188971
Probable space group: I M M 2
;
_chemical_formula_sum "Si O2"
_cell_formula_units_Z 56
_cell_length_a 18.414712
_cell_length_b 8.573635
_cell_length_c 17.221759
_cell_angle_alpha 90.000000
_cell_angle_beta 90.000000
_cell_angle_gamma 90.000000
_cell_volume 2718.988865
_symmetry_space_group_name_H-M "I M M 2"
_symmetry_group_IT_number 44
_symmetry_cell_setting 'orthorhombic'
loop_
_space_group_symop_operation_xyz
x,y,z
-x,-y,z
-x,y,z
x,-y,z
1/2+x,1/2+y,1/2+z
1/2-x,1/2-y,1/2+z
1/2-x,1/2+y,1/2+z
1/2+x,1/2-y,1/2+z
loop_
_atom_site_type_symbol
_atom_site_label
_atom_site_fract_x
_atom_site_fract_y
_atom_site_fract_z
Si Si1 0.821380 0.816338 0.530600
Si Si2 0.416108 0.182181 0.906434
Si Si3 0.583859 0.183871 0.323309
Si Si4 0.810562 0.182761 0.708845
Si Si5 0.334375 0.184551 0.475377
Si Si6 0.580372 0.815841 0.621809
Si Si7 0.835351 0.818590 0.263247
O O1 0.889179 0.725208 0.493095
O O2 0.811632 0.762419 0.619479
O O3 0.749757 0.767943 0.481877
O O4 0.836290 0.000000 0.526581
O O5 0.500000 0.231615 0.897762
O O6 0.366337 0.279835 0.847793
O O7 0.406355 0.000000 0.890286
O O8 0.500000 0.226857 0.336081
O O9 0.612436 0.272955 0.247070
O O10 0.629635 0.248615 0.396702
O O11 0.594517 0.000000 0.312127
O O12 0.749093 0.273910 0.757186
O O13 0.794744 0.000000 0.714060
O O14 0.376658 0.257234 0.549064
O O15 0.342699 0.000000 0.477874
O O16 0.500000 0.742793 0.623422
O O17 0.620045 0.779152 0.701285
O O18 0.576277 0.000000 0.613175
O O19 0.844854 0.000000 0.246893
#
# Coordination Sequence:
#
# PCOD8188971 Si02
#       7
#     8   8   8   8   8   8   8
#     4  10  21  39  64  90 119 156 205 256 302 361
#     4  11  25  43  63  89 123 162 204 253 311 371
#     4  10  21  37  60  91 124 160 203 251 304 361
#     4  11  23  41  64  90 121 162 209 253 303 364
#     4   9  17  35  60  87 118 154 200 245 294 355
#     4  10  19  34  59  88 121 160 199 244 301 364
#     4  12  24  39  61  89 123 160 203 253 306 365
#
# _framework density 20.595891000000002
#
# number of rings (size 3 to 8) (size 9 to 14) (size 15 to 20)
#    0.000    1.571    1.429    3.857    0.000    8.000 
#    0.000    3.571    0.000    1.714    0.000    0.000 
#    0.000    0.000    0.000    0.000    0.000    0.000 
#
# Total GULP energy -347312.536196 kJ/mol
# GULP energy per Si atom -12404.019150 kJ/mol
# Density = 2.054901 g / cm^3
# Si number density = 20.595891 Si / 1000 Ang^3
#
#
#
# Elastic Constant Matrix: (Units=GPa)
#
#
# Indices 1 2 3 4 5 6 
#
# 1 101.0353 21.2427 63.2603 0.0000 0.0000 0.0000
# 2 21.2427 29.2162 20.6740 0.0000 0.0000 0.0000
# 3 63.2603 20.6740 113.9614 0.0000 0.0000 0.0000
# 4 0.0000 0.0000 0.0000 25.9502 0.0000 0.0000
# 5 0.0000 0.0000 0.0000 0.0000 32.9505 0.0000
# 6 0.0000 0.0000 0.0000 0.0000 0.0000 28.7365
#
#
#
# Elastic Compliance Matrix: (Units=1/GPa)
#
#
# Indices 1 2 3 4 5 6 
#
# 1 0.016084 -0.006168 -0.007809 0.000000 0.000000 0.000000
# 2 -0.006168 0.041634 -0.004129 0.000000 0.000000 0.000000
# 3 -0.007809 -0.004129 0.013859 0.000000 0.000000 0.000000
# 4 0.000000 0.000000 0.000000 0.038535 0.000000 0.000000
# 5 0.000000 0.000000 0.000000 0.000000 0.030349 0.000000
# 6 0.000000 0.000000 0.000000 0.000000 0.000000 0.034799
#
#
# Mechanical properties :
#
#
# Convention : Reuss Voigt Hill
#
# Bulk Modulus (GPa) = 28.27730 50.50741 39.39236
# Shear Modulus (GPa) = 22.39532 26.79650 24.59591
#
# Velocity S-wave (km/s) = 3.30110 3.61094 3.45949
# Velocity P-wave (km/s) = 5.31875 6.47776 5.92666
#
# Compressibility (1/GPa) = 0.03536405
#
# Stress axis : x y z
#
# Youngs Moduli (GPa) = 62.17378 24.01869 72.15618
#
# Poissons Ratio (x) = 0.14816 0.56348
# Poissons Ratio (y) = 0.38352 0.29792
# Poissons Ratio (z) = 0.48553 0.09917
#
# Static dielectric constant tensor:
#      x y z
#    x 3.893470 0.000000 0.000000 
#    y 0.000000 3.384060 0.000000 
#    z 0.000000 0.000000 3.848510 
# 
# 
# High freq. dielectric constant tensor:
#      x y z
#    x 1.815620 0.000000 0.000000 
#    y 0.000000 1.779250 0.000000 
#    z 0.000000 0.000000 1.816280 
# 
# From -- ./inp_files/19193.got.cif
#   From: 2010.03.12/outbox.cif.g09.slc.cpg/sg44_10_cif.got.tgz:19193.got - 2010.04.14 02:36:11.
