data_PCOD8188336
_publ_section_title
;
Structure prediction by ZEFSAII (Michael W. Deem and Ramdas Pophale) SiO2 
 PCOD8188336
Probable space group: I M M 2
;
_chemical_formula_sum "Si O2"
_cell_formula_units_Z 40
_cell_length_a 9.096073
_cell_length_b 11.434974
_cell_length_c 19.741220
_cell_angle_alpha 90.000000
_cell_angle_beta 90.000000
_cell_angle_gamma 90.000000
_cell_volume 2053.350588
_symmetry_space_group_name_H-M "I M M 2"
_symmetry_group_IT_number 44
_symmetry_cell_setting 'orthorhombic'
loop_
_space_group_symop_operation_xyz
x,y,z
-x,-y,z
-x,y,z
x,-y,z
1/2+x,1/2+y,1/2+z
1/2-x,1/2-y,1/2+z
1/2-x,1/2+y,1/2+z
1/2+x,1/2-y,1/2+z
loop_
_atom_site_type_symbol
_atom_site_label
_atom_site_fract_x
_atom_site_fract_y
_atom_site_fract_z
Si Si1 0.829586 0.756696 0.723680
Si Si2 0.670502 0.134390 0.846920
Si Si3 0.666108 0.000000 0.252300
Si Si4 0.827451 0.634904 0.098427
Si Si5 0.173001 0.000000 0.390293
Si Si6 0.170822 0.778921 0.472644
O O1 0.770362 0.786088 0.798624
O O2 0.807087 0.617914 0.708568
O O3 0.739836 0.833203 0.670647
O O4 0.000000 0.791540 0.719227
O O5 0.500000 0.160035 0.829834
O O6 0.700078 0.165107 0.926101
O O7 0.711588 0.000000 0.835510
O O8 0.775338 0.000000 0.314168
O O9 0.500000 0.000000 0.280738
O O10 0.788003 0.500000 0.081625
O O11 0.000000 0.654603 0.102491
O O12 0.761395 0.722953 0.042356
O O13 0.231500 0.112949 0.429162
O O14 0.000000 0.000000 0.387855
O O15 0.000000 0.791529 0.492043
#
# Coordination Sequence:
#
# PCOD8188336 Si02
#       6
#     8   8   4   8   4   8
#     4  11  23  39  60  85 115 151 191 236 285 338
#     4  10  21  38  60  87 119 153 189 231 281 337
#     4  10  22  38  58  86 116 147 186 235 286 336
#     4  11  24  40  59  84 115 151 191 237 287 338
#     4  10  18  32  60  90 112 141 186 233 278 336
#     4  10  20  36  59  86 115 149 189 234 282 336
#
# _framework density 19.480356
#
# number of rings (size 3 to 8) (size 9 to 14) (size 15 to 20)
#    0.000    1.600    3.000    1.800    0.000    6.400 
#    1.800    0.000    0.000    0.000    0.000    0.000 
#    0.000    0.000    0.000    0.000    0.000    0.000 
#
# Total GULP energy -248020.022350 kJ/mol
# GULP energy per Si atom -12401.001118 kJ/mol
# Density = 1.943602 g / cm^3
# Si number density = 19.480356 Si / 1000 Ang^3
#
#
#
# Elastic Constant Matrix: (Units=GPa)
#
#
# Indices 1 2 3 4 5 6 
#
# 1 80.3642 39.9535 48.7961 0.0000 0.0000 0.0000
# 2 39.9535 87.8448 22.5925 0.0000 0.0000 0.0000
# 3 48.7961 22.5925 98.6996 0.0000 0.0000 0.0000
# 4 0.0000 0.0000 0.0000 31.5061 0.0000 0.0000
# 5 0.0000 0.0000 0.0000 0.0000 38.5340 0.0000
# 6 0.0000 0.0000 0.0000 0.0000 0.0000 20.3243
#
#
#
# Elastic Compliance Matrix: (Units=1/GPa)
#
#
# Indices 1 2 3 4 5 6 
#
# 1 0.021636 -0.007533 -0.008973 0.000000 0.000000 0.000000
# 2 -0.007533 0.014719 0.000355 0.000000 0.000000 0.000000
# 3 -0.008973 0.000355 0.014486 0.000000 0.000000 0.000000
# 4 0.000000 0.000000 0.000000 0.031740 0.000000 0.000000
# 5 0.000000 0.000000 0.000000 0.000000 0.025951 0.000000
# 6 0.000000 0.000000 0.000000 0.000000 0.000000 0.049202
#
#
# Mechanical properties :
#
#
# Convention : Reuss Voigt Hill
#
# Bulk Modulus (GPa) = 53.93580 54.39921 54.16751
# Shear Modulus (GPa) = 25.48216 28.44397 26.96307
#
# Velocity S-wave (km/s) = 3.62068 3.82532 3.72441
# Velocity P-wave (km/s) = 6.72507 6.89177 6.80893
#
# Compressibility (1/GPa) = 0.01854056
#
# Stress axis : x y z
#
# Youngs Moduli (GPa) = 46.21827 67.94152 69.03029
#
# Poissons Ratio (x) = 0.51181 0.61938
# Poissons Ratio (y) = 0.34817 -0.02452
# Poissons Ratio (z) = 0.41470 -0.02413
#
# Static dielectric constant tensor:
#      x y z
#    x 3.485390 0.000000 0.000000 
#    y 0.000000 3.716760 0.000000 
#    z 0.000000 0.000000 3.398480 
# 
# 
# High freq. dielectric constant tensor:
#      x y z
#    x 1.756090 0.000000 0.000000 
#    y 0.000000 1.759460 0.000000 
#    z 0.000000 0.000000 1.752420 
# 
# From -- ./inp_files/21047.got.cif
#   From: 2010.03.12/outbox.cif.g09.slc.cpg/sg44_11_cif.got.tgz:21047.got - 2010.04.14 02:36:11.
