data_PCOD8188852
_publ_section_title
;
Structure prediction by ZEFSAII (Michael W. Deem and Ramdas Pophale) SiO2 
 PCOD8188852
Probable space group: I M M 2
;
_chemical_formula_sum "Si O2"
_cell_formula_units_Z 64
_cell_length_a 9.087703
_cell_length_b 33.100588
_cell_length_c 11.370863
_cell_angle_alpha 90.000000
_cell_angle_beta 90.000000
_cell_angle_gamma 90.000000
_cell_volume 3420.450115
_symmetry_space_group_name_H-M "I M M 2"
_symmetry_group_IT_number 44
_symmetry_cell_setting 'orthorhombic'
loop_
_space_group_symop_operation_xyz
x,y,z
-x,-y,z
-x,y,z
x,-y,z
1/2+x,1/2+y,1/2+z
1/2-x,1/2-y,1/2+z
1/2-x,1/2+y,1/2+z
1/2+x,1/2-y,1/2+z
loop_
_atom_site_type_symbol
_atom_site_label
_atom_site_fract_x
_atom_site_fract_y
_atom_site_fract_z
Si Si1 0.827286 0.547132 0.034650
Si Si2 0.338879 0.827193 0.241638
Si Si3 0.827364 0.844265 0.897322
Si Si4 0.170186 0.892532 0.123799
Si Si5 0.325550 0.378198 0.141956
Si Si6 0.171704 0.545039 0.769339
Si Si7 0.666271 0.226652 0.017137
Si Si8 0.830258 0.692051 0.003951
O O1 0.782596 0.500000 0.055025
O O2 0.736585 0.576499 0.121578
O O3 0.000000 0.552418 0.060010
O O4 0.791244 0.561209 0.900748
O O5 0.500000 0.848918 0.239735
O O6 0.211034 0.859507 0.221894
O O7 0.333386 0.793409 0.143595
O O8 0.313171 0.805858 0.364533
O O9 0.784028 0.863338 0.772763
O O10 0.000000 0.834766 0.907022
O O11 0.778943 0.877051 0.995559
O O12 0.743217 0.801999 0.919458
O O13 0.252262 0.932936 0.160438
O O14 0.000000 0.901659 0.127221
O O15 0.500000 0.378611 0.122946
O O16 0.250941 0.347503 0.051664
O O17 0.231825 0.500000 0.762469
O O18 0.000000 0.547101 0.747533
O O19 0.500000 0.235664 0.973917
O O20 0.753136 0.267359 0.046368
O O21 0.000000 0.691126 0.044747
#
# Coordination Sequence:
#
# PCOD8188852 Si02
#       8
#     8   8   8   8   8   8   8   8
#     4   9  19  37  59  83 114 149 184 227 283 340
#     4   9  20  37  54  73 103 139 171 211 268 324
#     4   9  21  40  56  74 109 151 184 224 280 331
#     4  10  19  33  55  79 103 135 177 222 266 316
#     4  11  23  38  57  82 112 148 191 235 277 330
#     4   9  18  33  54  80 111 144 174 214 273 333
#     4  10  21  37  57  81 105 138 184 228 271 326
#     4  11  23  37  55  80 111 145 178 222 280 332
#
# _framework density 18.710989000000001
#
# number of rings (size 3 to 8) (size 9 to 14) (size 15 to 20)
#    0.000    2.250    0.000    3.000    1.750    7.000 
#    0.000    1.875    0.000    3.750    0.000    0.000 
#    0.000    0.000    0.000    0.000    0.000    0.000 
#
# Total GULP energy -396730.766459 kJ/mol
# GULP energy per Si atom -12397.836452 kJ/mol
# Density = 1.866840 g / cm^3
# Si number density = 18.710989 Si / 1000 Ang^3
#
#
#
# Elastic Constant Matrix: (Units=GPa)
#
#
# Indices 1 2 3 4 5 6 
#
# 1 77.6537 49.4380 37.3863 -0.0009 0.0003 0.0001
# 2 49.4380 105.0982 38.1473 -0.0026 0.0000 -0.0001
# 3 37.3863 38.1473 70.6286 -0.0050 -0.0003 -0.0004
# 4 -0.0009 -0.0026 -0.0050 24.1691 -0.0003 -0.0003
# 5 0.0003 0.0000 -0.0003 -0.0003 28.1354 -0.0007
# 6 0.0001 -0.0001 -0.0004 -0.0003 -0.0007 39.0049
#
#
#
# Elastic Compliance Matrix: (Units=1/GPa)
#
#
# Indices 1 2 3 4 5 6 
#
# 1 0.020946 -0.007250 -0.007172 -0.000001 0.000000 0.000000
# 2 -0.007250 0.014344 -0.003910 0.000000 0.000000 0.000000
# 3 -0.007172 -0.003910 0.020067 0.000003 0.000000 0.000000
# 4 -0.000001 0.000000 0.000003 0.041375 0.000000 0.000000
# 5 0.000000 0.000000 0.000000 0.000000 0.035542 0.000001
# 6 0.000000 0.000000 0.000000 0.000000 0.000001 0.025638
#
#
# Mechanical properties :
#
#
# Convention : Reuss Voigt Hill
#
# Bulk Modulus (GPa) = 53.49324 55.92484 54.70904
# Shear Modulus (GPa) = 24.89948 26.82247 25.86097
#
# Velocity S-wave (km/s) = 3.65189 3.79029 3.72173
# Velocity P-wave (km/s) = 6.81418 7.00776 6.91165
#
# Compressibility (1/GPa) = 0.01869395
#
# Stress axis : x y z
#
# Youngs Moduli (GPa) = 47.74134 69.71342 49.83382
#
# Poissons Ratio (x) = 0.50542 0.35740
# Poissons Ratio (y) = 0.34612 0.19485
# Poissons Ratio (z) = 0.34239 0.27258
#
# Static dielectric constant tensor:
#      x y z
#    x 3.530950 0.000000 0.000000 
#    y 0.000000 3.445990 0.000000 
#    z 0.000000 0.000000 3.422480 
# 
# 
# High freq. dielectric constant tensor:
#      x y z
#    x 1.730330 0.000000 0.000000 
#    y 0.000000 1.727940 0.000000 
#    z 0.000000 0.000000 1.720950 
# 
# From -- ./inp_files/11514.got.cif
#   From: 2010.03.12/outbox.cif.g09.slc.cpg/sg44_6_cif.got.tgz:11514.got - 2010.04.14 02:36:11.
