data_PCOD8188081
_publ_section_title
;
Structure prediction by ZEFSAII (Michael W. Deem and Ramdas Pophale) SiO2 
 PCOD8188081
Probable space group: I M M 2
;
_chemical_formula_sum "Si O2"
_cell_formula_units_Z 56
_cell_length_a 14.027563
_cell_length_b 9.078417
_cell_length_c 23.969864
_cell_angle_alpha 90.000000
_cell_angle_beta 90.000000
_cell_angle_gamma 90.000000
_cell_volume 3052.515832
_symmetry_space_group_name_H-M "I M M 2"
_symmetry_group_IT_number 44
_symmetry_cell_setting 'orthorhombic'
loop_
_space_group_symop_operation_xyz
x,y,z
-x,-y,z
-x,y,z
x,-y,z
1/2+x,1/2+y,1/2+z
1/2-x,1/2-y,1/2+z
1/2-x,1/2+y,1/2+z
1/2+x,1/2-y,1/2+z
loop_
_atom_site_type_symbol
_atom_site_label
_atom_site_fract_x
_atom_site_fract_y
_atom_site_fract_z
Si Si1 0.275268 0.828751 0.474580
Si Si2 0.308149 0.174066 0.743826
Si Si3 0.391911 0.329281 0.562638
Si Si4 0.292496 0.165998 0.872854
Si Si5 0.274857 0.827060 0.145621
Si Si6 0.000000 0.664972 0.359120
Si Si7 0.500000 0.326353 0.748682
Si Si8 0.608559 0.670223 0.057246
O O1 0.364083 0.757953 0.506794
O O2 0.272078 0.768996 0.411370
O O3 0.176264 0.788304 0.505413
O O4 0.294031 0.000000 0.471392
O O5 0.285043 0.214027 0.808123
O O6 0.225656 0.242069 0.704835
O O7 0.405673 0.251892 0.723249
O O8 0.316413 0.000000 0.735407
O O9 0.500000 0.289623 0.580018
O O10 0.380530 0.500000 0.548306
O O11 0.322322 0.284996 0.613045
O O12 0.402831 0.179544 0.894285
O O13 0.255497 0.000000 0.880116
O O14 0.364990 0.769553 0.110537
O O15 0.285470 0.000000 0.156115
O O16 0.000000 0.500000 0.329936
O O17 0.000000 0.795819 0.314522
O O18 0.500000 0.500000 0.735327
O O19 0.500000 0.703876 0.039676
O O20 0.622677 0.500000 0.073899
#
# Coordination Sequence:
#
# PCOD8188081 Si02
#       8
#     8   8   8   8   8   4   4   8
#     4  10  20  32  51  79 106 133 171 214 256 301
#     4  10  20  34  50  71 103 141 175 207 254 313
#     4   9  19  36  55  74 101 136 171 210 257 308
#     4   9  18  32  49  70 101 138 173 207 248 305
#     4  10  20  33  53  81 106 131 171 217 260 305
#     4   8  16  30  44  64  96 134 172 204 243 300
#     4  10  18  28  44  68  98 132 170 210 249 292
#     4   9  19  36  54  73 103 140 174 210 255 309
#
# _framework density 18.345523
#
# number of rings (size 3 to 8) (size 9 to 14) (size 15 to 20)
#    0.000    2.571    0.000    2.786    2.000    4.571 
#    0.000    0.000    0.000    0.857    0.000    6.000 
#    0.000    0.000    0.000    0.000    0.000    0.000 
#
# Total GULP energy -347126.758919 kJ/mol
# GULP energy per Si atom -12397.384247 kJ/mol
# Density = 1.830377 g / cm^3
# Si number density = 18.345523 Si / 1000 Ang^3
#
#
#
# Elastic Constant Matrix: (Units=GPa)
#
#
# Indices 1 2 3 4 5 6 
#
# 1 49.8956 17.1628 13.0126 0.0000 0.0000 0.0000
# 2 17.1628 76.2508 38.0212 0.0000 0.0000 0.0000
# 3 13.0126 38.0212 80.9616 0.0000 0.0000 0.0000
# 4 0.0000 0.0000 0.0000 30.5215 0.0000 0.0000
# 5 0.0000 0.0000 0.0000 0.0000 22.5978 0.0000
# 6 0.0000 0.0000 0.0000 0.0000 0.0000 25.4757
#
#
#
# Elastic Compliance Matrix: (Units=1/GPa)
#
#
# Indices 1 2 3 4 5 6 
#
# 1 0.021876 -0.004140 -0.001572 0.000000 0.000000 0.000000
# 2 -0.004140 0.017908 -0.007745 0.000000 0.000000 0.000000
# 3 -0.001572 -0.007745 0.016241 0.000000 0.000000 0.000000
# 4 0.000000 0.000000 0.000000 0.032764 0.000000 0.000000
# 5 0.000000 0.000000 0.000000 0.000000 0.044252 0.000000
# 6 0.000000 0.000000 0.000000 0.000000 0.000000 0.039253
#
#
# Mechanical properties :
#
#
# Convention : Reuss Voigt Hill
#
# Bulk Modulus (GPa) = 34.34981 38.16680 36.25830
# Shear Modulus (GPa) = 23.93359 24.97977 24.45668
#
# Velocity S-wave (km/s) = 3.61585 3.69403 3.65514
# Velocity P-wave (km/s) = 6.01639 6.24852 6.13355
#
# Compressibility (1/GPa) = 0.02911224
#
# Stress axis : x y z
#
# Youngs Moduli (GPa) = 45.71251 55.84015 61.57178
#
# Poissons Ratio (x) = 0.23119 0.09677
# Poissons Ratio (y) = 0.18926 0.47685
# Poissons Ratio (z) = 0.07185 0.43246
#
# Static dielectric constant tensor:
#      x y z
#    x 3.248180 0.000000 0.000000 
#    y 0.000000 3.329120 0.000000 
#    z 0.000000 0.000000 3.212980 
# 
# 
# High freq. dielectric constant tensor:
#      x y z
#    x 1.682540 0.000000 0.000000 
#    y 0.000000 1.716590 0.000000 
#    z 0.000000 0.000000 1.699030 
# 
# From -- ./inp_files/24158.got.cif
#   From: 2010.03.12/outbox.cif.g09.slc.cpg/sg44_13_cif.got.tgz:24158.got - 2010.04.14 02:36:11.
