data_PCOD8188780
_publ_section_title
;
Structure prediction by ZEFSAII (Michael W. Deem and Ramdas Pophale) SiO2 
 PCOD8188780
Probable space group: I M M 2
;
_chemical_formula_sum "Si O2"
_cell_formula_units_Z 56
_cell_length_a 25.044918
_cell_length_b 20.492867
_cell_length_c 5.363267
_cell_angle_alpha 90.000000
_cell_angle_beta 90.000000
_cell_angle_gamma 90.000000
_cell_volume 2752.654813
_symmetry_space_group_name_H-M "I M M 2"
_symmetry_group_IT_number 44
_symmetry_cell_setting 'orthorhombic'
loop_
_space_group_symop_operation_xyz
x,y,z
-x,-y,z
-x,y,z
x,-y,z
1/2+x,1/2+y,1/2+z
1/2-x,1/2-y,1/2+z
1/2-x,1/2+y,1/2+z
1/2+x,1/2-y,1/2+z
loop_
_atom_site_type_symbol
_atom_site_label
_atom_site_fract_x
_atom_site_fract_y
_atom_site_fract_z
Si Si1 0.613934 0.322959 0.702680
Si Si2 0.060621 0.628165 0.720154
Si Si3 0.885346 0.577225 0.220031
Si Si4 0.000000 0.879819 0.702231
Si Si5 0.735435 0.922765 0.705829
Si Si6 0.295320 0.422613 0.705175
Si Si7 0.091835 0.774122 0.702464
Si Si8 0.500000 0.616426 0.702235
O O1 0.646371 0.390480 0.704984
O O2 0.627864 0.281020 0.453530
O O3 0.550582 0.335649 0.702043
O O4 0.627765 0.280672 0.950997
O O5 0.091932 0.596559 0.489688
O O6 0.061478 0.705954 0.699655
O O7 0.000000 0.603628 0.704060
O O8 0.083229 0.607773 0.988601
O O9 0.887984 0.500000 0.192645
O O10 0.824853 0.603651 0.206383
O O11 0.051785 0.834970 0.702154
O O12 0.000000 0.926098 0.456237
O O13 0.000000 0.926103 0.948219
O O14 0.764170 0.898493 0.452772
O O15 0.735183 0.000000 0.708891
O O16 0.764502 0.898066 0.957494
O O17 0.303678 0.500000 0.705278
#
# Coordination Sequence:
#
# PCOD8188780 Si02
#       8
#     8   8   8   4   8   8   8   4
#     4  10  19  32  55  81 115 150 187 235 280 329
#     4  12  24  38  61  88 117 150 190 232 270 341
#     4  11  24  41  61  86 116 150 183 229 297 342
#     4   8  14  28  46  66  94 134 182 222 234 302
#     4   9  19  37  60  81 107 146 194 239 274 334
#     4  10  19  34  59  88 110 142 196 243 283 330
#     4  10  19  34  52  78 112 146 192 226 267 321
#     4   8  16  26  45  72 102 142 173 214 268 318
#
# _framework density 20.343995
#
# number of rings (size 3 to 8) (size 9 to 14) (size 15 to 20)
#    0.000    2.000    0.714    3.429    0.000    4.000 
#    0.000    0.357    0.000   17.143    0.000    9.000 
#    0.000    0.000    0.000    0.000    0.000    0.000 
#
# Total GULP energy -346874.723187 kJ/mol
# GULP energy per Si atom -12388.382971 kJ/mol
# Density = 2.029769 g / cm^3
# Si number density = 20.343995 Si / 1000 Ang^3
#
#
#
# Elastic Constant Matrix: (Units=GPa)
#
#
# Indices 1 2 3 4 5 6 
#
# 1 100.3369 31.8731 33.4357 0.0000 0.0000 0.0000
# 2 31.8731 39.5028 18.2971 0.0000 0.0000 0.0000
# 3 33.4357 18.2971 227.2481 0.0000 0.0000 0.0000
# 4 0.0000 0.0000 0.0000 18.9570 0.0000 0.0000
# 5 0.0000 0.0000 0.0000 0.0000 23.8547 0.0000
# 6 0.0000 0.0000 0.0000 0.0000 0.0000 14.8720
#
#
#
# Elastic Compliance Matrix: (Units=1/GPa)
#
#
# Indices 1 2 3 4 5 6 
#
# 1 0.013694 -0.010508 -0.001169 0.000000 0.000000 0.000000
# 2 -0.010508 0.034358 -0.001220 0.000000 0.000000 0.000000
# 3 -0.001169 -0.001220 0.004671 0.000000 0.000000 0.000000
# 4 0.000000 0.000000 0.000000 0.052751 0.000000 0.000000
# 5 0.000000 0.000000 0.000000 0.000000 0.041920 0.000000
# 6 0.000000 0.000000 0.000000 0.000000 0.000000 0.067240
#
#
# Mechanical properties :
#
#
# Convention : Reuss Voigt Hill
#
# Bulk Modulus (GPa) = 37.13458 59.36663 48.25061
# Shear Modulus (GPa) = 20.04781 30.43555 25.24168
#
# Velocity S-wave (km/s) = 3.14258 3.87207 3.52624
# Velocity P-wave (km/s) = 5.60898 7.01679 6.35201
#
# Compressibility (1/GPa) = 0.02692908
#
# Stress axis : x y z
#
# Youngs Moduli (GPa) = 73.02612 29.10533 214.10060
#
# Poissons Ratio (x) = 0.30582 0.25024
# Poissons Ratio (y) = 0.76732 0.26128
# Poissons Ratio (z) = 0.08535 0.03552
#
# Static dielectric constant tensor:
#      x y z
#    x 3.646930 0.000000 0.000000 
#    y 0.000000 3.189940 0.000000 
#    z 0.000000 0.000000 5.101720 
# 
# 
# High freq. dielectric constant tensor:
#      x y z
#    x 1.781190 0.000000 0.000000 
#    y 0.000000 1.750950 0.000000 
#    z 0.000000 0.000000 1.841370 
# 
# From -- ./inp_files/2801.got.cif
#   From: 2010.03.12/outbox.cif.g09.slc.cpg/sg44_2_cif.got.tgz:2801.got - 2010.04.14 02:36:11.
