data_PCOD8188651
_publ_section_title
;
Structure prediction by ZEFSAII (Michael W. Deem and Ramdas Pophale) SiO2 
 PCOD8188651
Probable space group: I M M 2
;
_chemical_formula_sum "Si O2"
_cell_formula_units_Z 48
_cell_length_a 9.166615
_cell_length_b 7.641246
_cell_length_c 34.347082
_cell_angle_alpha 90.000000
_cell_angle_beta 90.000000
_cell_angle_gamma 90.000000
_cell_volume 2405.819384
_symmetry_space_group_name_H-M "I M M 2"
_symmetry_group_IT_number 44
_symmetry_cell_setting 'orthorhombic'
loop_
_space_group_symop_operation_xyz
x,y,z
-x,-y,z
-x,y,z
x,-y,z
1/2+x,1/2+y,1/2+z
1/2-x,1/2-y,1/2+z
1/2-x,1/2+y,1/2+z
1/2+x,1/2-y,1/2+z
loop_
_atom_site_type_symbol
_atom_site_label
_atom_site_fract_x
_atom_site_fract_y
_atom_site_fract_z
Si Si1 0.169875 0.200501 0.993220
Si Si2 0.665947 0.804635 0.190057
Si Si3 0.335248 0.291494 0.341681
Si Si4 0.831715 0.705969 0.265493
Si Si5 0.171476 0.000000 0.633699
Si Si6 0.830140 0.500000 0.052356
Si Si7 0.836022 0.292231 0.416234
O O1 0.258248 0.267470 0.955815
O O2 0.000000 0.218617 0.982872
O O3 0.209447 0.000000 0.004255
O O4 0.213810 0.325109 0.028888
O O5 0.500000 0.755419 0.201947
O O6 0.766096 0.798539 0.227910
O O7 0.723364 0.671308 0.157339
O O8 0.674414 0.000000 0.172473
O O9 0.500000 0.218878 0.341290
O O10 0.334672 0.500000 0.342709
O O11 0.252180 0.223226 0.303420
O O12 0.252668 0.215689 0.379520
O O13 0.810428 0.500000 0.260700
O O14 0.000000 0.758173 0.269754
O O15 0.245145 0.000000 0.592234
O O16 0.000000 0.000000 0.626892
O O17 0.000000 0.500000 0.061941
O O18 0.838358 0.500000 0.413712
O O19 0.000000 0.216605 0.415497
#
# Coordination Sequence:
#
# PCOD8188651 Si02
#       7
#     8   8   8   8   4   4   8
#     4   9  18  34  55  78 107 144 182 222 272 329
#     4  10  21  38  60  83 109 146 188 228 277 339
#     4   9  16  26  45  74 108 149 192 231 274 327
#     4  10  19  31  51  80 113 148 188 234 283 332
#     4  10  22  40  60  84 114 144 180 230 282 336
#     4  10  22  38  58  84 112 142 182 228 274 334
#     4   9  16  27  46  75 109 143 184 231 276 324
#
# _framework density 19.951619999999998
#
# number of rings (size 3 to 8) (size 9 to 14) (size 15 to 20)
#    0.000    2.500    0.833    1.500    0.000    7.000 
#    0.000    0.000    1.833    0.000    0.000    0.000 
#    0.000    0.000    0.000    0.000    0.000    0.000 
#
# Total GULP energy -297634.894791 kJ/mol
# GULP energy per Si atom -12401.453950 kJ/mol
# Density = 1.990621 g / cm^3
# Si number density = 19.951620 Si / 1000 Ang^3
#
#
#
# Elastic Constant Matrix: (Units=GPa)
#
#
# Indices 1 2 3 4 5 6 
#
# 1 120.5202 36.3025 83.9887 0.0000 0.0000 0.0000
# 2 36.3025 83.0869 59.3469 -0.0001 0.0000 0.0000
# 3 83.9887 59.3469 182.9871 0.0000 0.0000 0.0000
# 4 0.0000 -0.0001 0.0000 -3.9989 0.0000 0.0000
# 5 0.0000 0.0000 0.0000 0.0000 45.3939 0.0000
# 6 0.0000 0.0000 0.0000 0.0000 0.0000 10.9914
#
#
#
# Elastic Compliance Matrix: (Units=1/GPa)
#
#
# Indices 1 2 3 4 5 6 
#
# 1 0.012394 -0.001760 -0.005118 0.000000 0.000000 0.000000
# 2 -0.001760 0.015914 -0.004354 0.000000 0.000000 0.000000
# 3 -0.005118 -0.004354 0.009226 0.000000 0.000000 0.000000
# 4 0.000000 0.000000 0.000000 -0.250066 0.000000 0.000000
# 5 0.000000 0.000000 0.000000 0.000000 0.022029 0.000000
# 6 0.000000 0.000000 0.000000 0.000000 0.000000 0.090980
#
#
# Mechanical properties :
#
#
# Convention : Reuss Voigt Hill
#
# Bulk Modulus (GPa) = 66.35008 82.87449 74.61228
# Shear Modulus (GPa) = -69.40996 24.27434 -22.56781
#
# Velocity S-wave (km/s) = -5.90463 3.49185 -3.36687
# Velocity P-wave (km/s) = 3.62747 7.60824 4.72899
#
# Compressibility (1/GPa) = 0.01507157
#
# Stress axis : x y z
#
# Youngs Moduli (GPa) = 80.68379 62.83728 108.38939
#
# Poissons Ratio (x) = 0.11056 0.55474
# Poissons Ratio (y) = 0.14197 0.47190
# Poissons Ratio (z) = 0.41294 0.27358
#
# Static dielectric constant tensor:
#      x y z
#    x 3.697140 0.000000 0.000000 
#    y 0.000000 3.531650 0.000000 
#    z 0.000000 0.000000 3.533220 
# 
# 
# High freq. dielectric constant tensor:
#      x y z
#    x 1.780010 0.000000 0.000000 
#    y 0.000000 1.765190 0.000000 
#    z 0.000000 0.000000 1.772690 
# 
# From -- ./inp_files/26912.got.cif
#   From: 2010.03.12/outbox.cif.g09.slc.cpg/sg44_14_cif.got.tgz:26912.got - 2010.04.14 02:36:11.
