data_PCOD8188375
_publ_section_title
;
Structure prediction by ZEFSAII (Michael W. Deem and Ramdas Pophale) SiO2 
 PCOD8188375
Probable space group: I M M 2
;
_chemical_formula_sum "Si O2"
_cell_formula_units_Z 56
_cell_length_a 20.005157
_cell_length_b 9.174325
_cell_length_c 15.156421
_cell_angle_alpha 90.000000
_cell_angle_beta 90.000000
_cell_angle_gamma 90.000000
_cell_volume 2781.715722
_symmetry_space_group_name_H-M "I M M 2"
_symmetry_group_IT_number 44
_symmetry_cell_setting 'orthorhombic'
loop_
_space_group_symop_operation_xyz
x,y,z
-x,-y,z
-x,y,z
x,-y,z
1/2+x,1/2+y,1/2+z
1/2-x,1/2-y,1/2+z
1/2-x,1/2+y,1/2+z
1/2+x,1/2-y,1/2+z
loop_
_atom_site_type_symbol
_atom_site_label
_atom_site_fract_x
_atom_site_fract_y
_atom_site_fract_z
Si Si1 0.425776 0.329478 0.825410
Si Si2 0.422253 0.170271 0.175136
Si Si3 0.359621 0.338193 0.325541
Si Si4 0.123494 0.166817 0.143001
Si Si5 0.500000 0.653661 0.411002
Si Si6 0.728064 0.329993 0.494927
Si Si7 0.500000 0.832985 0.570618
Si Si8 0.133102 0.825760 0.506940
O O1 0.500000 0.265578 0.802699
O O2 0.432602 0.500000 0.838727
O O3 0.371437 0.296194 0.747733
O O4 0.399411 0.264277 0.916856
O O5 0.500000 0.195831 0.204463
O O6 0.364581 0.225885 0.243809
O O7 0.408483 0.000000 0.160491
O O8 0.409952 0.256114 0.084817
O O9 0.334599 0.500000 0.295638
O O10 0.435925 0.349003 0.351239
O O11 0.314847 0.282552 0.408266
O O12 0.066004 0.267838 0.109277
O O13 0.101726 0.000000 0.129581
O O14 0.189319 0.199741 0.086765
O O15 0.500000 0.500000 0.467298
O O16 0.500000 0.800535 0.466973
O O17 0.747553 0.500000 0.487652
O O18 0.791080 0.227284 0.504482
O O19 0.500000 0.000000 0.591050
O O20 0.131589 0.000000 0.515687
#
# Coordination Sequence:
#
# PCOD8188375 Si02
#       8
#     8   8   8   8   4   8   4   8
#     4   9  18  35  64  91 108 139 198 256 294 341
#     4  11  24  41  63  91 121 158 203 257 315 359
#     4  10  20  36  62  92 120 155 201 249 301 363
#     4  10  19  37  63  86 115 156 200 242 295 363
#     4  10  18  34  58  85 118 159 198 235 296 366
#     4  10  22  39  60  89 124 163 199 236 296 367
#     4  12  22  30  50  89 128 155 190 243 302 352
#     4  11  24  41  61  87 120 162 208 252 298 357
#
# _framework density 20.131461000000002
#
# number of rings (size 3 to 8) (size 9 to 14) (size 15 to 20)
#    0.000    1.714    2.857    1.929    0.000    4.286 
#    0.000    2.857    0.000    0.000    0.000    0.000 
#    0.000    0.000    0.000    0.000    0.000    0.000 
#
# Total GULP energy -346930.374789 kJ/mol
# GULP energy per Si atom -12390.370528 kJ/mol
# Density = 2.008564 g / cm^3
# Si number density = 20.131461 Si / 1000 Ang^3
#
#
#
# Elastic Constant Matrix: (Units=GPa)
#
#
# Indices 1 2 3 4 5 6 
#
# 1 69.4522 33.0330 31.8618 0.0000 0.0000 0.0000
# 2 33.0330 79.6529 38.8947 0.0000 0.0000 0.0000
# 3 31.8618 38.8947 134.6438 0.0000 0.0000 0.0000
# 4 0.0000 0.0000 0.0000 16.5681 0.0000 0.0000
# 5 0.0000 0.0000 0.0000 0.0000 12.8430 0.0000
# 6 0.0000 0.0000 0.0000 0.0000 0.0000 34.8824
#
#
#
# Elastic Compliance Matrix: (Units=1/GPa)
#
#
# Indices 1 2 3 4 5 6 
#
# 1 0.018652 -0.006496 -0.002537 0.000000 0.000000 0.000000
# 2 -0.006496 0.016879 -0.003339 0.000000 0.000000 0.000000
# 3 -0.002537 -0.003339 0.008992 0.000000 0.000000 0.000000
# 4 0.000000 0.000000 0.000000 0.060357 0.000000 0.000000
# 5 0.000000 0.000000 0.000000 0.000000 0.077864 0.000000
# 6 0.000000 0.000000 0.000000 0.000000 0.000000 0.028668
#
#
# Mechanical properties :
#
#
# Convention : Reuss Voigt Hill
#
# Bulk Modulus (GPa) = 50.55962 54.59198 52.57580
# Shear Modulus (GPa) = 20.59749 24.85598 22.72674
#
# Velocity S-wave (km/s) = 3.20214 3.51762 3.36358
# Velocity P-wave (km/s) = 6.23224 6.60869 6.42323
#
# Compressibility (1/GPa) = 0.01977863
#
# Stress axis : x y z
#
# Youngs Moduli (GPa) = 53.61303 59.24594 111.21241
#
# Poissons Ratio (x) = 0.38488 0.28217
# Poissons Ratio (y) = 0.34829 0.37128
# Poissons Ratio (z) = 0.13603 0.19779
#
# Static dielectric constant tensor:
#      x y z
#    x 3.636740 0.000000 0.000000 
#    y 0.000000 3.674090 0.000000 
#    z 0.000000 0.000000 4.056900 
# 
# 
# High freq. dielectric constant tensor:
#      x y z
#    x 1.776680 0.000000 0.000000 
#    y 0.000000 1.768020 0.000000 
#    z 0.000000 0.000000 1.797990 
# 
# From -- ./inp_files/19269.got.cif
#   From: 2010.03.12/outbox.cif.g09.slc.cpg/sg44_10_cif.got.tgz:19269.got - 2010.04.14 02:36:11.
