data_PCOD8188460
_publ_section_title
;
Structure prediction by ZEFSAII (Michael W. Deem and Ramdas Pophale) SiO2 
 PCOD8188460
Probable space group: I M M 2
;
_chemical_formula_sum "Si O2"
_cell_formula_units_Z 56
_cell_length_a 7.672066
_cell_length_b 13.862462
_cell_length_c 32.622275
_cell_angle_alpha 90.000000
_cell_angle_beta 90.000000
_cell_angle_gamma 90.000000
_cell_volume 3469.500412
_symmetry_space_group_name_H-M "I M M 2"
_symmetry_group_IT_number 44
_symmetry_cell_setting 'orthorhombic'
loop_
_space_group_symop_operation_xyz
x,y,z
-x,-y,z
-x,y,z
x,-y,z
1/2+x,1/2+y,1/2+z
1/2-x,1/2-y,1/2+z
1/2-x,1/2+y,1/2+z
1/2+x,1/2-y,1/2+z
loop_
_atom_site_type_symbol
_atom_site_label
_atom_site_fract_x
_atom_site_fract_y
_atom_site_fract_z
Si Si1 0.500000 0.614081 0.092788
Si Si2 0.706944 0.206779 0.736837
Si Si3 0.500000 0.614481 0.001656
Si Si4 0.793105 0.393914 0.317641
Si Si5 0.794536 0.793434 0.362314
Si Si6 0.194137 0.610198 0.943876
Si Si7 0.799297 0.613396 0.153234
Si Si8 0.292990 0.393811 0.779634
O O1 0.500000 0.500000 0.089476
O O2 0.676107 0.647337 0.115983
O O3 0.500000 0.660141 0.047269
O O4 0.500000 0.202000 0.737402
O O5 0.780116 0.138991 0.773274
O O6 0.773413 0.169408 0.693105
O O7 0.771479 0.316790 0.745426
O O8 0.500000 0.500000 0.005186
O O9 0.328165 0.650683 0.977700
O O10 0.717903 0.500000 0.328505
O O11 0.738421 0.316999 0.352475
O O12 0.000000 0.396547 0.314978
O O13 0.698113 0.825835 0.403174
O O14 0.731893 0.860390 0.324697
O O15 0.000000 0.803206 0.369230
O O16 0.243167 0.500000 0.932358
O O17 0.000000 0.616355 0.962664
O O18 0.781288 0.500000 0.162037
O O19 0.000000 0.640084 0.142782
O O20 0.500000 0.396885 0.779233
O O21 0.215016 0.500000 0.770000
#
# Coordination Sequence:
#
# PCOD8188460 Si02
#       8
#     4   8   4   8   8   8   8   8
#     4   9  18  30  44  64  87 111 139 173 216 260
#     4   8  13  21  35  57  83 113 148 180 210 246
#     4   9  18  32  46  62  87 113 139 175 216 262
#     4   8  13  21  36  59  85 116 152 183 213 251
#     4   9  15  24  40  60  84 115 149 183 215 249
#     4  10  19  29  44  64  85 113 145 176 212 258
#     4   9  16  26  42  62  84 111 141 173 208 252
#     4   8  13  20  34  57  83 114 150 182 211 246
#
# _framework density 16.140651999999999
#
# number of rings (size 3 to 8) (size 9 to 14) (size 15 to 20)
#    0.000    3.286    0.714    2.571    0.000    2.857 
#    0.000    2.857    6.286    0.429    0.000    0.000 
#    0.000    2.286    0.000    3.286    0.000    0.286 
#
# Total GULP energy -346984.018060 kJ/mol
# GULP energy per Si atom -12392.286359 kJ/mol
# Density = 1.610392 g / cm^3
# Si number density = 16.140652 Si / 1000 Ang^3
#
#
#
# Elastic Constant Matrix: (Units=GPa)
#
#
# Indices 1 2 3 4 5 6 
#
# 1 63.6619 17.8176 43.5752 0.0000 0.0000 0.0000
# 2 17.8176 97.2181 45.5859 -0.0001 0.0000 0.0000
# 3 43.5752 45.5859 126.0930 0.0000 0.0000 0.0000
# 4 0.0000 -0.0001 0.0000 17.1530 0.0000 0.0000
# 5 0.0000 0.0000 0.0000 0.0000 4.5556 0.0000
# 6 0.0000 0.0000 0.0000 0.0000 0.0000 5.0494
#
#
#
# Elastic Compliance Matrix: (Units=1/GPa)
#
#
# Indices 1 2 3 4 5 6 
#
# 1 0.020597 -0.000527 -0.006928 0.000000 0.000000 0.000000
# 2 -0.000527 0.012399 -0.004301 0.000000 0.000000 0.000000
# 3 -0.006928 -0.004301 0.011880 0.000000 0.000000 0.000000
# 4 0.000000 0.000000 0.000000 0.058299 0.000000 0.000000
# 5 0.000000 0.000000 0.000000 0.000000 0.219512 0.000000
# 6 0.000000 0.000000 0.000000 0.000000 0.000000 0.198045
#
#
# Mechanical properties :
#
#
# Convention : Reuss Voigt Hill
#
# Bulk Modulus (GPa) = 46.80282 55.65893 51.23087
# Shear Modulus (GPa) = 9.06843 17.35120 13.20982
#
# Velocity S-wave (km/s) = 2.37288 3.28228 2.86391
# Velocity P-wave (km/s) = 6.04709 6.99450 6.53798
#
# Compressibility (1/GPa) = 0.02136623
#
# Stress axis : x y z
#
# Youngs Moduli (GPa) = 48.55040 80.64992 84.17854
#
# Poissons Ratio (x) = 0.04247 0.58316
# Poissons Ratio (y) = 0.02556 0.36203
# Poissons Ratio (z) = 0.33634 0.34685
#
# Static dielectric constant tensor:
#      x y z
#    x 2.881200 0.000000 0.000000 
#    y 0.000000 3.226040 0.000000 
#    z 0.000000 0.000000 3.053790 
# 
# 
# High freq. dielectric constant tensor:
#      x y z
#    x 1.611500 0.000000 0.000000 
#    y 0.000000 1.592060 0.000000 
#    z 0.000000 0.000000 1.595390 
# 
# From -- ./inp_files/27247.got.cif
#   From: 2010.03.12/outbox.cif.g09.slc.cpg/sg44_14_cif.got.tgz:27247.got - 2010.04.14 02:36:11.
