data_PCOD8188283
_publ_section_title
;
Structure prediction by ZEFSAII (Michael W. Deem and Ramdas Pophale) SiO2 
 PCOD8188283
Probable space group: I M M 2
;
_chemical_formula_sum "Si O2"
_cell_formula_units_Z 64
_cell_length_a 9.327884
_cell_length_b 22.951677
_cell_length_c 18.883546
_cell_angle_alpha 90.000000
_cell_angle_beta 90.000000
_cell_angle_gamma 90.000000
_cell_volume 4042.789328
_symmetry_space_group_name_H-M "I M M 2"
_symmetry_group_IT_number 44
_symmetry_cell_setting 'orthorhombic'
loop_
_space_group_symop_operation_xyz
x,y,z
-x,-y,z
-x,y,z
x,-y,z
1/2+x,1/2+y,1/2+z
1/2-x,1/2-y,1/2+z
1/2-x,1/2+y,1/2+z
1/2+x,1/2-y,1/2+z
loop_
_atom_site_type_symbol
_atom_site_label
_atom_site_fract_x
_atom_site_fract_y
_atom_site_fract_z
Si Si1 0.834156 0.567946 0.635650
Si Si2 0.168232 0.844086 0.225883
Si Si3 0.334616 0.228248 0.642696
Si Si4 0.834712 0.066486 0.857302
Si Si5 0.330575 0.880579 0.984161
Si Si6 0.337022 0.216945 0.339053
Si Si7 0.335088 0.667014 0.255413
Si Si8 0.834700 0.761686 0.988248
O O1 0.800197 0.500000 0.637231
O O2 0.739280 0.597511 0.696307
O O3 0.788972 0.592730 0.559644
O O4 0.000000 0.581179 0.651269
O O5 0.208770 0.791431 0.173119
O O6 0.232194 0.830128 0.303431
O O7 0.000000 0.853971 0.233035
O O8 0.500000 0.215834 0.656485
O O9 0.249787 0.177021 0.682387
O O10 0.295105 0.227147 0.559808
O O11 0.784416 0.107077 0.792054
O O12 0.000000 0.080792 0.876624
O O13 0.815432 0.000000 0.832903
O O14 0.737809 0.077674 0.925546
O O15 0.500000 0.878286 0.972306
O O16 0.267973 0.816243 0.977891
O O17 0.500000 0.199606 0.320542
O O18 0.302311 0.281572 0.310841
O O19 0.311080 0.217097 0.423411
O O20 0.500000 0.664319 0.234050
O O21 0.000000 0.783580 0.990772
#
# Coordination Sequence:
#
# PCOD8188283 Si02
#       8
#     8   8   8   8   8   8   8   8
#     4  10  21  35  48  65  94 131 167 197 231 279
#     4  10  19  31  48  70  95 121 156 200 241 279
#     4   9  18  30  47  69  95 122 153 196 240 279
#     4  10  20  34  50  67  92 130 170 200 229 274
#     4  11  21  31  46  69  99 129 161 198 234 271
#     4   9  17  30  49  67  92 124 155 192 237 286
#     4   9  17  30  47  67  91 122 158 194 235 281
#     4  10  18  32  50  70  96 128 162 192 232 285
#
# _framework density 15.830655
#
# number of rings (size 3 to 8) (size 9 to 14) (size 15 to 20)
#    0.000    2.250    2.500    1.125    0.000    3.500 
#    0.000    0.000    0.000    0.000    0.000    0.875 
#    0.000    5.000    0.000    0.000    0.000    0.000 
#
# Total GULP energy -396871.149437 kJ/mol
# GULP energy per Si atom -12402.223420 kJ/mol
# Density = 1.579462 g / cm^3
# Si number density = 15.830655 Si / 1000 Ang^3
#
#
#
# Elastic Constant Matrix: (Units=GPa)
#
#
# Indices 1 2 3 4 5 6 
#
# 1 61.9914 36.5408 41.7068 0.0000 0.0000 0.0000
# 2 36.5408 64.1192 40.1090 0.0000 0.0000 0.0000
# 3 41.7068 40.1090 103.6045 0.0000 0.0000 0.0000
# 4 0.0000 0.0000 0.0000 21.3407 0.0000 0.0000
# 5 0.0000 0.0000 0.0000 0.0000 27.1767 0.0000
# 6 0.0000 0.0000 0.0000 0.0000 0.0000 21.2390
#
#
#
# Elastic Compliance Matrix: (Units=1/GPa)
#
#
# Indices 1 2 3 4 5 6 
#
# 1 0.027291 -0.011454 -0.006552 0.000000 0.000000 0.000000
# 2 -0.011454 0.025387 -0.005217 0.000000 0.000000 0.000000
# 3 -0.006552 -0.005217 0.014309 0.000000 0.000000 0.000000
# 4 0.000000 0.000000 0.000000 0.046859 0.000000 0.000000
# 5 0.000000 0.000000 0.000000 0.000000 0.036796 0.000000
# 6 0.000000 0.000000 0.000000 0.000000 0.000000 0.047083
#
#
# Mechanical properties :
#
#
# Convention : Reuss Voigt Hill
#
# Bulk Modulus (GPa) = 48.68384 51.82536 50.25460
# Shear Modulus (GPa) = 19.91876 21.37520 20.64698
#
# Velocity S-wave (km/s) = 3.55102 3.67855 3.61534
# Velocity P-wave (km/s) = 6.90164 7.13097 7.01724
#
# Compressibility (1/GPa) = 0.02054070
#
# Stress axis : x y z
#
# Youngs Moduli (GPa) = 36.64215 39.38978 69.88447
#
# Poissons Ratio (x) = 0.45119 0.45787
# Poissons Ratio (y) = 0.41972 0.36461
# Poissons Ratio (z) = 0.24007 0.20551
#
# Static dielectric constant tensor:
#      x y z
#    x 3.036120 0.000000 0.000000 
#    y 0.000000 2.800860 0.000000 
#    z 0.000000 0.000000 3.070620 
# 
# 
# High freq. dielectric constant tensor:
#      x y z
#    x 1.612600 0.000000 0.000000 
#    y 0.000000 1.578800 0.000000 
#    z 0.000000 0.000000 1.603160 
# 
# From -- ./inp_files/20784.got.cif
#   From: 2010.03.12/outbox.cif.g09.slc.cpg/sg44_11_cif.got.tgz:20784.got - 2010.04.14 02:36:11.
