data_PCOD8188253
_publ_section_title
;
Structure prediction by ZEFSAII (Michael W. Deem and Ramdas Pophale) SiO2 
 PCOD8188253
Probable space group: I M M 2
;
_chemical_formula_sum "Si O2"
_cell_formula_units_Z 64
_cell_length_a 9.281367
_cell_length_b 28.847407
_cell_length_c 12.718877
_cell_angle_alpha 90.000000
_cell_angle_beta 90.000000
_cell_angle_gamma 90.000000
_cell_volume 3405.395008
_symmetry_space_group_name_H-M "I M M 2"
_symmetry_group_IT_number 44
_symmetry_cell_setting 'orthorhombic'
loop_
_space_group_symop_operation_xyz
x,y,z
-x,-y,z
-x,y,z
x,-y,z
1/2+x,1/2+y,1/2+z
1/2-x,1/2-y,1/2+z
1/2-x,1/2+y,1/2+z
1/2+x,1/2-y,1/2+z
loop_
_atom_site_type_symbol
_atom_site_label
_atom_site_fract_x
_atom_site_fract_y
_atom_site_fract_z
Si Si1 0.669565 0.200191 0.088460
Si Si2 0.669883 0.325601 0.784375
Si Si3 0.670920 0.553801 0.315007
Si Si4 0.838383 0.413274 0.736674
Si Si5 0.170355 0.797899 0.510854
Si Si6 0.661639 0.949017 0.454585
Si Si7 0.830022 0.110204 0.612307
Si Si8 0.835514 0.598831 0.506856
O O1 0.500000 0.201895 0.108483
O O2 0.749771 0.205640 0.199034
O O3 0.726043 0.245778 0.028417
O O4 0.710366 0.152748 0.026617
O O5 0.500000 0.318489 0.774417
O O6 0.711455 0.378153 0.762500
O O7 0.732362 0.312607 0.898286
O O8 0.500000 0.557292 0.323577
O O9 0.718743 0.500000 0.300474
O O10 0.729799 0.585102 0.217492
O O11 0.735450 0.575138 0.420821
O O12 0.816253 0.430347 0.616134
O O13 0.000000 0.390331 0.740596
O O14 0.824744 0.451935 0.826957
O O15 0.216951 0.835450 0.601498
O O16 0.000000 0.798459 0.505190
O O17 0.500000 0.933582 0.485616
O O18 0.772581 0.914287 0.507392
O O19 0.695177 0.000000 0.498119
O O20 0.000000 0.104630 0.609957
O O21 0.000000 0.596512 0.466935
#
# Coordination Sequence:
#
# PCOD8188253 Si02
#       8
#     8   8   8   8   8   8   8   8
#     4   9  19  36  54  77 110 147 181 221 278 333
#     4  10  18  31  52  78 105 135 175 223 268 317
#     4  10  22  38  55  77 109 147 186 232 279 326
#     4   9  18  34  54  76 104 139 173 213 272 330
#     4   9  18  33  55  79 106 142 181 221 270 330
#     4  10  20  33  52  80 110 137 172 221 271 322
#     4  10  20  37  57  78 106 145 185 222 275 335
#     4   9  19  35  56  78 104 142 184 223 270 327
#
# _framework density 18.793707999999999
#
# number of rings (size 3 to 8) (size 9 to 14) (size 15 to 20)
#    0.000    2.500    1.250    1.500    0.000    5.000 
#    0.000    3.125    0.000    0.000    0.000    0.000 
#    0.000    0.000    0.000    0.000    0.000    0.000 
#
# Total GULP energy -396461.653965 kJ/mol
# GULP energy per Si atom -12389.426686 kJ/mol
# Density = 1.875093 g / cm^3
# Si number density = 18.793708 Si / 1000 Ang^3
#
#
#
# Elastic Constant Matrix: (Units=GPa)
#
#
# Indices 1 2 3 4 5 6 
#
# 1 31.9199 23.2900 29.4246 0.0000 0.0000 0.0000
# 2 23.2900 86.7917 46.7715 -0.0001 0.0000 -0.0001
# 3 29.4246 46.7715 117.3781 0.0001 -0.0002 -0.0002
# 4 0.0000 -0.0001 0.0001 26.1813 0.0000 0.0000
# 5 0.0000 0.0000 -0.0002 0.0000 31.3793 0.0001
# 6 0.0000 -0.0001 -0.0002 0.0000 0.0001 20.5948
#
#
#
# Elastic Compliance Matrix: (Units=1/GPa)
#
#
# Indices 1 2 3 4 5 6 
#
# 1 0.044285 -0.007515 -0.008107 0.000000 0.000000 0.000000
# 2 -0.007515 0.015948 -0.004471 0.000000 0.000000 0.000000
# 3 -0.008107 -0.004471 0.012333 0.000000 0.000000 0.000000
# 4 0.000000 0.000000 0.000000 0.038195 0.000000 0.000000
# 5 0.000000 0.000000 0.000000 0.000000 0.031868 0.000000
# 6 0.000000 0.000000 0.000000 0.000000 0.000000 0.048556
#
#
# Mechanical properties :
#
#
# Convention : Reuss Voigt Hill
#
# Bulk Modulus (GPa) = 30.88277 48.34020 39.61148
# Shear Modulus (GPa) = 20.64722 24.73800 22.69261
#
# Velocity S-wave (km/s) = 3.31815 3.63201 3.47862
# Velocity P-wave (km/s) = 5.58107 6.58528 6.10386
#
# Compressibility (1/GPa) = 0.03238051
#
# Stress axis : x y z
#
# Youngs Moduli (GPa) = 22.58118 62.70510 81.08160
#
# Poissons Ratio (x) = 0.47121 0.65733
# Poissons Ratio (y) = 0.16969 0.36250
# Poissons Ratio (z) = 0.18307 0.28035
#
# Static dielectric constant tensor:
#      x y z
#    x 3.221250 0.000000 0.000000 
#    y 0.000000 3.667970 0.000000 
#    z 0.000000 0.000000 3.629650 
# 
# 
# High freq. dielectric constant tensor:
#      x y z
#    x 1.710820 0.000000 0.000000 
#    y 0.000000 1.724220 0.000000 
#    z 0.000000 0.000000 1.734030 
# 
# From -- ./inp_files/11521.got.cif
#   From: 2010.03.12/outbox.cif.g09.slc.cpg/sg44_6_cif.got.tgz:11521.got - 2010.04.14 02:36:11.
