data_PCOD8188192
_publ_section_title
;
Structure prediction by ZEFSAII (Michael W. Deem and Ramdas Pophale) SiO2 
 PCOD8188192
Probable space group: I M M 2
;
_chemical_formula_sum "Si O2"
_cell_formula_units_Z 52
_cell_length_a 12.128430
_cell_length_b 9.399502
_cell_length_c 25.084054
_cell_angle_alpha 90.000000
_cell_angle_beta 90.000000
_cell_angle_gamma 90.000000
_cell_volume 2859.612308
_symmetry_space_group_name_H-M "I M M 2"
_symmetry_group_IT_number 44
_symmetry_cell_setting 'orthorhombic'
loop_
_space_group_symop_operation_xyz
x,y,z
-x,-y,z
-x,y,z
x,-y,z
1/2+x,1/2+y,1/2+z
1/2-x,1/2-y,1/2+z
1/2-x,1/2+y,1/2+z
1/2+x,1/2-y,1/2+z
loop_
_atom_site_type_symbol
_atom_site_label
_atom_site_fract_x
_atom_site_fract_y
_atom_site_fract_z
Si Si1 0.877512 0.667616 0.812880
Si Si2 0.759578 0.838235 0.413807
Si Si3 0.376563 0.667922 0.618193
Si Si4 0.500000 0.840456 0.782832
Si Si5 0.804252 0.833166 0.232839
Si Si6 0.000000 0.741682 0.399367
Si Si7 0.738185 0.828801 0.018681
Si Si8 0.000000 0.344927 0.514677
O O1 0.887701 0.500000 0.818209
O O2 0.807843 0.724286 0.863329
O O3 0.814839 0.705527 0.757620
O O4 0.000000 0.736653 0.811596
O O5 0.723108 0.740245 0.463404
O O6 0.889965 0.837919 0.401192
O O7 0.725091 0.000000 0.426421
O O8 0.500000 0.732526 0.622236
O O9 0.384137 0.500000 0.613077
O O10 0.306606 0.709988 0.670555
O O11 0.316695 0.727914 0.565676
O O12 0.606440 0.756197 0.764294
O O13 0.500000 0.853054 0.846582
O O14 0.500000 0.000000 0.759154
O O15 0.832266 0.000000 0.240303
O O16 0.000000 0.638889 0.450442
O O17 0.614175 0.770256 0.032668
O O18 0.738572 0.000000 0.012687
O O19 0.000000 0.500000 0.540915
#
# Coordination Sequence:
#
# PCOD8188192 Si02
#       8
#     8   8   8   4   8   4   8   4
#     4   9  18  32  50  76 106 134 171 215 255 302
#     4  10  19  31  51  76 102 133 171 213 254 306
#     4   9  17  31  53  75  97 128 173 217 252 301
#     4  12  22  31  52  85 112 133 165 218 276 319
#     4  10  19  35  56  76 103 141 177 214 261 315
#     4  10  18  30  49  75 101 135 169 207 253 315
#     4   9  18  32  49  71 100 133 166 208 258 306
#     4   8  15  29  45  66  99 128 156 197 251 300
#
# _framework density 18.184284000000002
#
# number of rings (size 3 to 8) (size 9 to 14) (size 15 to 20)
#    0.000    2.462    2.308    0.692    0.000    1.846 
#    1.385    0.769    0.000    1.385    0.000    0.000 
#    0.000    0.000    0.000    0.000    0.000    0.000 
#
# Total GULP energy -322212.954918 kJ/mol
# GULP energy per Si atom -12392.805958 kJ/mol
# Density = 1.814290 g / cm^3
# Si number density = 18.184284 Si / 1000 Ang^3
#
#
#
# Elastic Constant Matrix: (Units=GPa)
#
#
# Indices 1 2 3 4 5 6 
#
# 1 143.2424 18.6699 83.9642 0.0000 0.0000 0.0000
# 2 18.6699 40.5247 22.2141 0.0000 0.0000 0.0000
# 3 83.9642 22.2141 146.8696 0.0000 0.0000 0.0000
# 4 0.0000 0.0000 0.0000 20.8734 0.0000 0.0000
# 5 0.0000 0.0000 0.0000 0.0000 28.9471 0.0000
# 6 0.0000 0.0000 0.0000 0.0000 0.0000 10.1173
#
#
#
# Elastic Compliance Matrix: (Units=1/GPa)
#
#
# Indices 1 2 3 4 5 6 
#
# 1 0.010607 -0.001704 -0.005806 0.000000 0.000000 0.000000
# 2 -0.001704 0.027181 -0.003137 0.000000 0.000000 0.000000
# 3 -0.005806 -0.003137 0.010602 0.000000 0.000000 0.000000
# 4 0.000000 0.000000 0.000000 0.047908 0.000000 0.000000
# 5 0.000000 0.000000 0.000000 0.000000 0.034546 0.000000
# 6 0.000000 0.000000 0.000000 0.000000 0.000000 0.098841
#
#
# Mechanical properties :
#
#
# Convention : Reuss Voigt Hill
#
# Bulk Modulus (GPa) = 36.90558 64.48146 50.69352
# Shear Modulus (GPa) = 19.23003 25.70678 22.46840
#
# Velocity S-wave (km/s) = 3.25546 3.76397 3.51892
# Velocity P-wave (km/s) = 5.87112 7.37746 6.66697
#
# Compressibility (1/GPa) = 0.02709618
#
# Stress axis : x y z
#
# Youngs Moduli (GPa) = 94.28153 36.79050 94.31769
#
# Poissons Ratio (x) = 0.06269 0.54760
# Poissons Ratio (y) = 0.16064 0.29588
# Poissons Ratio (z) = 0.54740 0.11541
#
# Static dielectric constant tensor:
#      x y z
#    x 3.843080 0.000000 0.000000 
#    y 0.000000 2.887110 0.000000 
#    z 0.000000 0.000000 3.451260 
# 
# 
# High freq. dielectric constant tensor:
#      x y z
#    x 1.707850 0.000000 0.000000 
#    y 0.000000 1.655570 0.000000 
#    z 0.000000 0.000000 1.705330 
# 
# From -- ./inp_files/26378.got.cif
#   From: 2010.03.12/outbox.cif.g09.slc.cpg/sg44_14_cif.got.tgz:26378.got - 2010.04.14 02:36:11.
