data_PCOD8188044
_publ_section_title
;
Structure prediction by ZEFSAII (Michael W. Deem and Ramdas Pophale) SiO2 
 PCOD8188044
Probable space group: I M M 2
;
_chemical_formula_sum "Si O2"
_cell_formula_units_Z 56
_cell_length_a 18.422483
_cell_length_b 8.816991
_cell_length_c 21.280507
_cell_angle_alpha 90.000000
_cell_angle_beta 90.000000
_cell_angle_gamma 90.000000
_cell_volume 3456.611198
_symmetry_space_group_name_H-M "I M M 2"
_symmetry_group_IT_number 44
_symmetry_cell_setting 'orthorhombic'
loop_
_space_group_symop_operation_xyz
x,y,z
-x,-y,z
-x,y,z
x,-y,z
1/2+x,1/2+y,1/2+z
1/2-x,1/2-y,1/2+z
1/2-x,1/2+y,1/2+z
1/2+x,1/2-y,1/2+z
loop_
_atom_site_type_symbol
_atom_site_label
_atom_site_fract_x
_atom_site_fract_y
_atom_site_fract_z
Si Si1 0.917969 0.180840 0.856720
Si Si2 0.418478 0.819922 0.598619
Si Si3 0.646059 0.817871 0.729035
Si Si4 0.707034 0.831846 0.917354
Si Si5 0.916879 0.174646 0.350372
Si Si6 0.659796 0.179775 0.473132
Si Si7 0.712742 0.334064 0.285256
O O1 0.896354 0.256932 0.922039
O O2 0.865474 0.244222 0.799942
O O3 0.000000 0.225409 0.839524
O O4 0.907687 0.000000 0.863729
O O5 0.500000 0.754559 0.592106
O O6 0.382956 0.756898 0.662717
O O7 0.369938 0.764981 0.540467
O O8 0.421251 0.000000 0.601316
O O9 0.594357 0.757877 0.783951
O O10 0.729369 0.753467 0.738510
O O11 0.646667 0.000000 0.733369
O O12 0.631468 0.744139 0.906606
O O13 0.758627 0.743002 0.966112
O O14 0.748096 0.844909 0.851979
O O15 0.690711 0.000000 0.943989
O O16 0.000000 0.194778 0.370957
O O17 0.895297 0.000000 0.341630
O O18 0.661837 0.000000 0.467300
O O19 0.696604 0.500000 0.257360
#
# Coordination Sequence:
#
# PCOD8188044 Si02
#       7
#     8   8   8   8   8   8   8
#     4   9  16  26  40  59  84 111 139 176 223 272
#     4   9  17  27  40  61  87 117 154 188 216 252
#     4   9  16  28  45  61  83 119 157 185 209 250
#     4   9  17  30  46  62  82 111 147 179 212 264
#     4  10  19  29  43  67  95 116 138 176 224 264
#     4  10  18  28  42  60  85 114 145 184 224 260
#     4   7  12  23  39  58  76  99 136 178 213 246
#
# _framework density 16.200838999999998
#
# number of rings (size 3 to 8) (size 9 to 14) (size 15 to 20)
#    0.000    3.000    0.000    3.857    0.000    2.571 
#    0.000    1.429    0.000    3.429    0.000    1.000 
#    0.000    5.714    0.000    0.000    0.000    0.714 
#
# Total GULP energy -346910.843545 kJ/mol
# GULP energy per Si atom -12389.672984 kJ/mol
# Density = 1.616396 g / cm^3
# Si number density = 16.200839 Si / 1000 Ang^3
#
#
#
# Elastic Constant Matrix: (Units=GPa)
#
#
# Indices 1 2 3 4 5 6 
#
# 1 143.5415 36.2798 65.1588 0.0000 0.0000 0.0000
# 2 36.2798 51.2688 20.8638 0.0000 0.0000 0.0000
# 3 65.1588 20.8638 78.9943 0.0000 0.0000 0.0000
# 4 0.0000 0.0000 0.0000 15.2118 0.0000 0.0000
# 5 0.0000 0.0000 0.0000 0.0000 27.3481 0.0000
# 6 0.0000 0.0000 0.0000 0.0000 0.0000 21.0183
#
#
#
# Elastic Compliance Matrix: (Units=1/GPa)
#
#
# Indices 1 2 3 4 5 6 
#
# 1 0.012218 -0.005092 -0.008733 0.000000 0.000000 0.000000
# 2 -0.005092 0.023976 -0.002132 0.000000 0.000000 0.000000
# 3 -0.008733 -0.002132 0.020426 0.000000 0.000000 0.000000
# 4 0.000000 0.000000 0.000000 0.065738 0.000000 0.000000
# 5 0.000000 0.000000 0.000000 0.000000 0.036566 0.000000
# 6 0.000000 0.000000 0.000000 0.000000 0.000000 0.047578
#
#
# Mechanical properties :
#
#
# Convention : Reuss Voigt Hill
#
# Bulk Modulus (GPa) = 40.47769 57.60105 49.03937
# Shear Modulus (GPa) = 20.27152 22.81578 21.54365
#
# Velocity S-wave (km/s) = 3.54116 3.75681 3.65058
# Velocity P-wave (km/s) = 6.46211 7.37901 6.93573
#
# Compressibility (1/GPa) = 0.02470497
#
# Stress axis : x y z
#
# Youngs Moduli (GPa) = 81.84724 41.70823 48.95745
#
# Poissons Ratio (x) = 0.21237 0.42755
# Poissons Ratio (y) = 0.41676 0.10440
# Poissons Ratio (z) = 0.71478 0.08894
#
# Static dielectric constant tensor:
#      x y z
#    x 3.456080 0.000000 0.000000 
#    y 0.000000 2.929960 0.000000 
#    z 0.000000 0.000000 2.937240 
# 
# 
# High freq. dielectric constant tensor:
#      x y z
#    x 1.632930 0.000000 0.000000 
#    y 0.000000 1.604890 0.000000 
#    z 0.000000 0.000000 1.582150 
# 
# From -- ./inp_files/23226.got.cif
#   From: 2010.03.12/outbox.cif.g09.slc.cpg/sg44_12_cif.got.tgz:23226.got - 2010.04.14 02:36:11.
