data_PCOD8188452
_publ_section_title
;
Structure prediction by ZEFSAII (Michael W. Deem and Ramdas Pophale) SiO2 
 PCOD8188452
Probable space group: I M M 2
;
_chemical_formula_sum "Si O2"
_cell_formula_units_Z 56
_cell_length_a 13.693454
_cell_length_b 9.183165
_cell_length_c 28.970705
_cell_angle_alpha 90.000000
_cell_angle_beta 90.000000
_cell_angle_gamma 90.000000
_cell_volume 3643.044353
_symmetry_space_group_name_H-M "I M M 2"
_symmetry_group_IT_number 44
_symmetry_cell_setting 'orthorhombic'
loop_
_space_group_symop_operation_xyz
x,y,z
-x,-y,z
-x,y,z
x,-y,z
1/2+x,1/2+y,1/2+z
1/2-x,1/2-y,1/2+z
1/2-x,1/2+y,1/2+z
1/2+x,1/2-y,1/2+z
loop_
_atom_site_type_symbol
_atom_site_label
_atom_site_fract_x
_atom_site_fract_y
_atom_site_fract_z
Si Si1 0.389302 0.170197 0.951240
Si Si2 0.387516 0.830610 0.405357
Si Si3 0.279789 0.171249 0.858249
Si Si4 0.885749 0.169855 0.275975
Si Si5 0.615880 0.838185 0.686671
Si Si6 0.891333 0.326949 0.085725
Si Si7 0.723294 0.170230 0.498056
O O1 0.500000 0.225276 0.955266
O O2 0.351534 0.210052 0.900322
O O3 0.326321 0.251649 0.989839
O O4 0.380317 0.000000 0.960538
O O5 0.500000 0.785091 0.401058
O O6 0.327038 0.736766 0.368347
O O7 0.352342 0.794286 0.457064
O O8 0.371651 0.000000 0.394114
O O9 0.323685 0.243810 0.813116
O O10 0.270355 0.000000 0.850079
O O11 0.850486 0.225014 0.225732
O O12 0.000000 0.203557 0.283553
O O13 0.862929 0.000000 0.279909
O O14 0.500000 0.846814 0.683746
O O15 0.652686 0.784386 0.636110
O O16 0.656955 0.000000 0.698164
O O17 0.898140 0.500000 0.081739
O O18 0.000000 0.260802 0.079009
O O19 0.821563 0.266006 0.045438
O O20 0.744298 0.000000 0.501695
#
# Coordination Sequence:
#
# PCOD8188452 Si02
#       7
#     8   8   8   8   8   8   8
#     4   9  18  31  43  57  82 114 144 175 211 249
#     4   9  17  29  44  63  89 117 142 172 210 249
#     4  10  19  30  45  63  83 111 147 180 210 249
#     4  10  19  29  42  62  88 114 140 174 215 257
#     4   8  14  25  41  60  83 112 142 169 202 248
#     4   8  13  23  41  64  88 113 140 169 202 244
#     4   9  16  26  43  66  87 110 143 176 205 241
#
# _framework density 15.37176
#
# number of rings (size 3 to 8) (size 9 to 14) (size 15 to 20)
#    0.000    3.000    0.000    2.571    0.000    4.286 
#    0.000    0.714    0.000    2.143    0.000    1.000 
#    0.000    5.714    0.000    0.000    0.000    0.000 
#
# Total GULP energy -347130.529771 kJ/mol
# GULP energy per Si atom -12397.518920 kJ/mol
# Density = 1.533677 g / cm^3
# Si number density = 15.371760 Si / 1000 Ang^3
#
#
#
# Elastic Constant Matrix: (Units=GPa)
#
#
# Indices 1 2 3 4 5 6 
#
# 1 102.7467 42.3452 59.2507 0.0000 0.0000 0.0000
# 2 42.3452 55.1153 47.9549 0.0000 0.0000 0.0000
# 3 59.2507 47.9549 123.0413 0.0000 0.0000 0.0000
# 4 0.0000 0.0000 0.0000 22.2551 0.0000 0.0000
# 5 0.0000 0.0000 0.0000 0.0000 24.0811 0.0000
# 6 0.0000 0.0000 0.0000 0.0000 0.0000 21.7309
#
#
#
# Elastic Compliance Matrix: (Units=1/GPa)
#
#
# Indices 1 2 3 4 5 6 
#
# 1 0.015616 -0.008254 -0.004303 0.000000 0.000000 0.000000
# 2 -0.008254 0.031816 -0.008426 0.000000 0.000000 0.000000
# 3 -0.004303 -0.008426 0.013483 0.000000 0.000000 0.000000
# 4 0.000000 0.000000 0.000000 0.044933 0.000000 0.000000
# 5 0.000000 0.000000 0.000000 0.000000 0.041526 0.000000
# 6 0.000000 0.000000 0.000000 0.000000 0.000000 0.046018
#
#
# Mechanical properties :
#
#
# Convention : Reuss Voigt Hill
#
# Bulk Modulus (GPa) = 52.76874 64.44498 58.60686
# Shear Modulus (GPa) = 20.68907 22.37025 21.52966
#
# Velocity S-wave (km/s) = 3.67265 3.81895 3.74652
# Velocity P-wave (km/s) = 7.23791 7.83972 7.54482
#
# Compressibility (1/GPa) = 0.01895061
#
# Stress axis : x y z
#
# Youngs Moduli (GPa) = 64.03855 31.43069 74.16596
#
# Poissons Ratio (x) = 0.25942 0.31913
# Poissons Ratio (y) = 0.52855 0.62490
# Poissons Ratio (z) = 0.27555 0.26482
#
# Static dielectric constant tensor:
#      x y z
#    x 2.833340 0.000000 0.000000 
#    y 0.000000 2.854680 0.000000 
#    z 0.000000 0.000000 3.107110 
# 
# 
# High freq. dielectric constant tensor:
#      x y z
#    x 1.561130 0.000000 0.000000 
#    y 0.000000 1.580170 0.000000 
#    z 0.000000 0.000000 1.587560 
# 
# From -- ./inp_files/27219.got.cif
#   From: 2010.03.12/outbox.cif.g09.slc.cpg/sg44_14_cif.got.tgz:27219.got - 2010.04.14 02:36:11.
