data_PCOD8188319
_publ_section_title
;
Structure prediction by ZEFSAII (Michael W. Deem and Ramdas Pophale) SiO2 
 PCOD8188319
Probable space group: I M M 2
;
_chemical_formula_sum "Si O2"
_cell_formula_units_Z 48
_cell_length_a 8.297440
_cell_length_b 10.045279
_cell_length_c 28.020770
_cell_angle_alpha 90.000000
_cell_angle_beta 90.000000
_cell_angle_gamma 90.000000
_cell_volume 2335.533976
_symmetry_space_group_name_H-M "I M M 2"
_symmetry_group_IT_number 44
_symmetry_cell_setting 'orthorhombic'
loop_
_space_group_symop_operation_xyz
x,y,z
-x,-y,z
-x,y,z
x,-y,z
1/2+x,1/2+y,1/2+z
1/2-x,1/2-y,1/2+z
1/2-x,1/2+y,1/2+z
1/2+x,1/2-y,1/2+z
loop_
_atom_site_type_symbol
_atom_site_label
_atom_site_fract_x
_atom_site_fract_y
_atom_site_fract_z
Si Si1 0.691285 0.847842 0.936830
Si Si2 0.190695 0.844401 0.522014
Si Si3 0.307906 0.243730 0.834458
Si Si4 0.679255 0.500000 0.178399
Si Si5 0.184370 0.500000 0.277652
Si Si6 0.307889 0.500000 0.778957
Si Si7 0.313889 0.763985 0.621765
Si Si8 0.690322 0.000000 0.170604
O O1 0.500000 0.854562 0.935220
O O2 0.758215 0.784749 0.887559
O O3 0.756915 0.000000 0.944480
O O4 0.748559 0.744746 0.977342
O O5 0.280776 0.773661 0.565655
O O6 0.000000 0.834653 0.529574
O O7 0.241803 0.000000 0.515566
O O8 0.500000 0.248098 0.835289
O O9 0.243507 0.378123 0.810685
O O10 0.235381 0.130221 0.800118
O O11 0.500000 0.500000 0.199902
O O12 0.805562 0.500000 0.221023
O O13 0.700963 0.371665 0.146261
O O14 0.000000 0.500000 0.293537
O O15 0.500000 0.500000 0.771865
O O16 0.229141 0.500000 0.726721
O O17 0.500000 0.795308 0.632193
O O18 0.269108 0.623358 0.643760
O O19 0.500000 0.000000 0.162904
#
# Coordination Sequence:
#
# PCOD8188319 Si02
#       8
#     8   8   8   4   4   4   8   4
#     4   9  17  31  53  86 122 157 200 250 303 359
#     4  10  21  36  58  89 123 158 202 255 310 366
#     4   9  17  30  52  83 119 154 197 250 298 353
#     4  12  24  40  63  92 123 161 206 255 311 372
#     4  10  18  32  55  82 113 155 200 247 299 356
#     4  10  20  34  55  86 121 157 202 251 301 360
#     4  12  25  43  65  90 123 163 207 256 311 375
#     4  12  26  44  65  90 125 165 208 259 313 372
#
# _framework density 20.552045
#
# number of rings (size 3 to 8) (size 9 to 14) (size 15 to 20)
#    0.000    1.667    1.667    4.000    2.333    1.333 
#    0.000    0.000    0.000    2.000    0.000    0.000 
#    0.000    0.000    0.000    0.000    0.000    0.000 
#
# Total GULP energy -297539.456339 kJ/mol
# GULP energy per Si atom -12397.477347 kJ/mol
# Density = 2.050527 g / cm^3
# Si number density = 20.552045 Si / 1000 Ang^3
#
#
#
# Elastic Constant Matrix: (Units=GPa)
#
#
# Indices 1 2 3 4 5 6 
#
# 1 44.9842 15.6630 12.1681 0.0000 0.0000 0.0000
# 2 15.6630 190.2402 91.4146 0.0000 0.0000 0.0000
# 3 12.1681 91.4146 169.1177 0.0000 0.0000 0.0000
# 4 0.0000 0.0000 0.0000 48.0338 0.0000 0.0000
# 5 0.0000 0.0000 0.0000 0.0000 25.0552 0.0000
# 6 0.0000 0.0000 0.0000 0.0000 0.0000 16.1524
#
#
#
# Elastic Compliance Matrix: (Units=1/GPa)
#
#
# Indices 1 2 3 4 5 6 
#
# 1 0.022977 -0.001482 -0.000852 0.000000 0.000000 0.000000
# 2 -0.001482 0.007197 -0.003783 0.000000 0.000000 0.000000
# 3 -0.000852 -0.003783 0.008019 0.000000 0.000000 0.000000
# 4 0.000000 0.000000 0.000000 0.020819 0.000000 0.000000
# 5 0.000000 0.000000 0.000000 0.000000 0.039912 0.000000
# 6 0.000000 0.000000 0.000000 0.000000 0.000000 0.061910
#
#
# Mechanical properties :
#
#
# Convention : Reuss Voigt Hill
#
# Bulk Modulus (GPa) = 38.52480 71.42596 54.97538
# Shear Modulus (GPa) = 27.51469 36.85470 32.18470
#
# Velocity S-wave (km/s) = 3.66291 4.23926 3.96158
# Velocity P-wave (km/s) = 6.05598 7.66752 6.90890
#
# Compressibility (1/GPa) = 0.02595730
#
# Stress axis : x y z
#
# Youngs Moduli (GPa) = 43.52249 138.95558 124.69788
#
# Poissons Ratio (x) = 0.20598 0.10623
# Poissons Ratio (y) = 0.06452 0.47178
# Poissons Ratio (z) = 0.03708 0.52572
#
# Static dielectric constant tensor:
#      x y z
#    x 3.288490 0.000000 0.000000 
#    y 0.000000 4.039500 0.000000 
#    z 0.000000 0.000000 3.853590 
# 
# 
# High freq. dielectric constant tensor:
#      x y z
#    x 1.763740 0.000000 0.000000 
#    y 0.000000 1.822120 0.000000 
#    z 0.000000 0.000000 1.817220 
# 
# From -- ./inp_files/27056.got.cif
#   From: 2010.03.12/outbox.cif.g09.slc.cpg/sg44_14_cif.got.tgz:27056.got - 2010.04.14 02:36:11.
