data_PCOD8188758
_publ_section_title
;
Structure prediction by ZEFSAII (Michael W. Deem and Ramdas Pophale) SiO2 
 PCOD8188758
Probable space group: I M M 2
;
_chemical_formula_sum "Si O2"
_cell_formula_units_Z 56
_cell_length_a 21.858557
_cell_length_b 9.037454
_cell_length_c 14.344064
_cell_angle_alpha 90.000000
_cell_angle_beta 90.000000
_cell_angle_gamma 90.000000
_cell_volume 2833.608212
_symmetry_space_group_name_H-M "I M M 2"
_symmetry_group_IT_number 44
_symmetry_cell_setting 'orthorhombic'
loop_
_space_group_symop_operation_xyz
x,y,z
-x,-y,z
-x,y,z
x,-y,z
1/2+x,1/2+y,1/2+z
1/2-x,1/2-y,1/2+z
1/2-x,1/2+y,1/2+z
1/2+x,1/2-y,1/2+z
loop_
_atom_site_type_symbol
_atom_site_label
_atom_site_fract_x
_atom_site_fract_y
_atom_site_fract_z
Si Si1 0.286513 0.327546 0.038400
Si Si2 0.000000 0.825841 0.336670
Si Si3 0.216653 0.331332 0.354445
Si Si4 0.384334 0.174548 0.159352
Si Si5 0.000000 0.673349 0.535701
Si Si6 0.395100 0.168900 0.727806
Si Si7 0.145535 0.670748 0.027055
Si Si8 0.643002 0.327377 0.341021
O O1 0.301007 0.500000 0.049470
O O2 0.322190 0.240178 0.117886
O O3 0.215409 0.289938 0.051061
O O4 0.308301 0.273152 0.936718
O O5 0.000000 0.757436 0.438724
O O6 0.940298 0.777817 0.280189
O O7 0.000000 0.000000 0.347182
O O8 0.214152 0.500000 0.391046
O O9 0.173759 0.308421 0.265149
O O10 0.285463 0.289431 0.325687
O O11 0.440645 0.220584 0.094004
O O12 0.395243 0.243341 0.261558
O O13 0.378460 0.000000 0.169181
O O14 0.000000 0.500000 0.513872
O O15 0.395242 0.205576 0.617872
O O16 0.416436 0.000000 0.744863
O O17 0.140343 0.500000 0.997488
O O18 0.121032 0.769820 0.942037
O O19 0.629099 0.500000 0.333997
#
# Coordination Sequence:
#
# PCOD8188758 Si02
#       8
#     8   4   8   8   4   8   8   8
#     4  10  19  32  53  84 117 144 176 223 276 324
#     4  12  26  40  57  84 113 138 175 230 280 318
#     4   9  18  33  54  82 114 147 181 217 265 327
#     4  11  22  37  57  79 106 145 190 229 268 321
#     4  10  24  44  61  78 105 144 187 224 262 320
#     4  10  20  37  59  78 105 149 191 222 261 321
#     4   9  19  36  57  82 112 146 183 221 265 324
#     4  10  20  35  56  84 116 144 175 223 277 324
#
# _framework density 19.762789000000001
#
# number of rings (size 3 to 8) (size 9 to 14) (size 15 to 20)
#    0.000    2.000    0.000    3.643    0.000    9.143 
#    0.000    2.143    0.000    1.714    0.000    0.000 
#    0.000    0.000    0.000    0.000    0.000    0.000 
#
# Total GULP energy -347312.517623 kJ/mol
# GULP energy per Si atom -12404.018487 kJ/mol
# Density = 1.971781 g / cm^3
# Si number density = 19.762789 Si / 1000 Ang^3
#
#
#
# Elastic Constant Matrix: (Units=GPa)
#
#
# Indices 1 2 3 4 5 6 
#
# 1 55.6792 38.1373 48.8922 0.0000 0.0000 0.0000
# 2 38.1373 87.0151 68.3629 0.0000 0.0000 0.0000
# 3 48.8922 68.3629 152.4956 0.0000 0.0000 0.0000
# 4 0.0000 0.0000 0.0000 38.1507 0.0000 0.0000
# 5 0.0000 0.0000 0.0000 0.0000 28.5338 0.0000
# 6 0.0000 0.0000 0.0000 0.0000 0.0000 24.7288
#
#
#
# Elastic Compliance Matrix: (Units=1/GPa)
#
#
# Indices 1 2 3 4 5 6 
#
# 1 0.028299 -0.008143 -0.005423 0.000000 0.000000 0.000000
# 2 -0.008143 0.020083 -0.006393 0.000000 0.000000 0.000000
# 3 -0.005423 -0.006393 0.011162 0.000000 0.000000 0.000000
# 4 0.000000 0.000000 0.000000 0.026212 0.000000 0.000000
# 5 0.000000 0.000000 0.000000 0.000000 0.035046 0.000000
# 6 0.000000 0.000000 0.000000 0.000000 0.000000 0.040439
#
#
# Mechanical properties :
#
#
# Convention : Reuss Voigt Hill
#
# Bulk Modulus (GPa) = 50.94678 67.33054 59.13866
# Shear Modulus (GPa) = 24.07317 27.60248 25.83783
#
# Velocity S-wave (km/s) = 3.49392 3.74129 3.61972
# Velocity P-wave (km/s) = 6.48936 7.26679 6.88905
#
# Compressibility (1/GPa) = 0.01962833
#
# Stress axis : x y z
#
# Youngs Moduli (GPa) = 35.33677 49.79242 89.59014
#
# Poissons Ratio (x) = 0.40544 0.48583
# Poissons Ratio (y) = 0.28774 0.57271
# Poissons Ratio (z) = 0.19162 0.31830
#
# Static dielectric constant tensor:
#      x y z
#    x 3.411300 0.000000 0.000000 
#    y 0.000000 3.585790 0.000000 
#    z 0.000000 0.000000 3.713150 
# 
# 
# High freq. dielectric constant tensor:
#      x y z
#    x 1.749170 0.000000 0.000000 
#    y 0.000000 1.769010 0.000000 
#    z 0.000000 0.000000 1.783350 
# 
# From -- ./inp_files/19241.got.cif
#   From: 2010.03.12/outbox.cif.g09.slc.cpg/sg44_10_cif.got.tgz:19241.got - 2010.04.14 02:36:11.
