data_PCOD8188175
_publ_section_title
;
Structure prediction by ZEFSAII (Michael W. Deem and Ramdas Pophale) SiO2 
 PCOD8188175
Probable space group: I M M 2
;
_chemical_formula_sum "Si O2"
_cell_formula_units_Z 64
_cell_length_a 30.140225
_cell_length_b 9.190082
_cell_length_c 14.257622
_cell_angle_alpha 90.000000
_cell_angle_beta 90.000000
_cell_angle_gamma 90.000000
_cell_volume 3949.234961
_symmetry_space_group_name_H-M "I M M 2"
_symmetry_group_IT_number 44
_symmetry_cell_setting 'orthorhombic'
loop_
_space_group_symop_operation_xyz
x,y,z
-x,-y,z
-x,y,z
x,-y,z
1/2+x,1/2+y,1/2+z
1/2-x,1/2-y,1/2+z
1/2-x,1/2+y,1/2+z
1/2+x,1/2-y,1/2+z
loop_
_atom_site_type_symbol
_atom_site_label
_atom_site_fract_x
_atom_site_fract_y
_atom_site_fract_z
Si Si1 0.323482 0.661368 0.500000
Si Si2 0.787042 0.328261 0.697530
Si Si3 0.801471 0.827080 0.305140
Si Si4 0.049180 0.829705 0.879420
Si Si5 0.637675 0.830064 0.666908
Si Si6 0.549457 0.168444 0.570789
Si Si7 0.362920 0.663389 0.300216
Si Si8 0.222657 0.667218 0.484750
O O1 0.326749 0.500000 0.547296
O O2 0.335488 0.784511 0.574221
O O3 0.354598 0.672366 0.410819
O O4 0.274201 0.686717 0.462314
O O5 0.787701 0.500000 0.704312
O O6 0.743051 0.271380 0.751330
O O7 0.832356 0.271192 0.742373
O O8 0.786495 0.276322 0.589981
O O9 0.844746 0.762040 0.254566
O O10 0.803251 0.767731 0.411133
O O11 0.804482 0.000000 0.306343
O O12 0.084795 0.791010 0.796782
O O13 0.000000 0.782395 0.844827
O O14 0.051337 0.000000 0.900708
O O15 0.061395 0.753519 0.976827
O O16 0.585448 0.794068 0.651471
O O17 0.645926 0.000000 0.685485
O O18 0.500000 0.208870 0.607740
O O19 0.552725 0.000000 0.544212
O O20 0.354843 0.500000 0.262080
O O21 0.207437 0.500000 0.472593
#
# Coordination Sequence:
#
# PCOD8188175 Si02
#       8
#     8   8   8   8   8   8   8   8
#     4  10  18  30  47  69 100 131 161 199 238 277
#     4  10  21  34  49  69  96 128 163 199 238 283
#     4  11  22  35  50  71  97 127 163 201 240 285
#     4   9  17  29  46  69  97 129 162 196 239 288
#     4  11  21  31  48  72  97 132 168 197 237 288
#     4   9  18  31  46  68  98 128 160 198 237 282
#     4  10  19  30  47  70  97 130 164 198 236 281
#     4  10  20  36  50  66  96 130 162 202 241 277
#
# _framework density 16.205670999999999
#
# number of rings (size 3 to 8) (size 9 to 14) (size 15 to 20)
#    0.000    2.000    3.750    0.750    0.000    3.000 
#    0.000    0.000    0.000    0.000    0.000    0.875 
#    0.000    1.000    0.000    0.000    0.000    0.000 
#
# Total GULP energy -396703.258230 kJ/mol
# GULP energy per Si atom -12396.976820 kJ/mol
# Density = 1.616879 g / cm^3
# Si number density = 16.205671 Si / 1000 Ang^3
#
#
#
# Elastic Constant Matrix: (Units=GPa)
#
#
# Indices 1 2 3 4 5 6 
#
# 1 94.9494 31.3565 37.2473 0.0000 0.0000 0.0000
# 2 31.3565 47.0081 31.9674 0.0000 0.0000 0.0000
# 3 37.2473 31.9674 72.4655 0.0000 0.0000 0.0000
# 4 0.0000 0.0000 0.0000 27.8114 0.0000 0.0000
# 5 0.0000 0.0000 0.0000 0.0000 21.7447 0.0000
# 6 0.0000 0.0000 0.0000 0.0000 0.0000 22.8514
#
#
#
# Elastic Compliance Matrix: (Units=1/GPa)
#
#
# Indices 1 2 3 4 5 6 
#
# 1 0.014486 -0.006570 -0.004547 0.000000 0.000000 0.000000
# 2 -0.006570 0.033370 -0.011344 0.000000 0.000000 0.000000
# 3 -0.004547 -0.011344 0.021141 0.000000 0.000000 0.000000
# 4 0.000000 0.000000 0.000000 0.035956 0.000000 0.000000
# 5 0.000000 0.000000 0.000000 0.000000 0.045988 0.000000
# 6 0.000000 0.000000 0.000000 0.000000 0.000000 0.043761
#
#
# Mechanical properties :
#
#
# Convention : Reuss Voigt Hill
#
# Bulk Modulus (GPa) = 41.53818 46.17393 43.85605
# Shear Modulus (GPa) = 20.18991 22.07162 21.13077
#
# Velocity S-wave (km/s) = 3.53350 3.69449 3.61489
# Velocity P-wave (km/s) = 6.50653 6.83764 6.67414
#
# Compressibility (1/GPa) = 0.02407424
#
# Stress axis : x y z
#
# Youngs Moduli (GPa) = 69.03454 29.96736 47.30148
#
# Poissons Ratio (x) = 0.19689 0.21509
# Poissons Ratio (y) = 0.45357 0.53657
# Poissons Ratio (z) = 0.31391 0.33994
#
# Static dielectric constant tensor:
#      x y z
#    x 3.309570 0.000000 0.000000 
#    y 0.000000 3.060970 0.000000 
#    z 0.000000 0.000000 2.830610 
# 
# 
# High freq. dielectric constant tensor:
#      x y z
#    x 1.622520 0.000000 0.000000 
#    y 0.000000 1.625090 0.000000 
#    z 0.000000 0.000000 1.591060 
# 
# From -- ./inp_files/17086.got.cif
#   From: 2010.03.12/outbox.cif.g09.slc.cpg/sg44_9_cif.got.tgz:17086.got - 2010.04.14 02:36:11.
