data_PCOD8188233
_publ_section_title
;
Structure prediction by ZEFSAII (Michael W. Deem and Ramdas Pophale) SiO2 
 PCOD8188233
Probable space group: I M M 2
;
_chemical_formula_sum "Si O2"
_cell_formula_units_Z 64
_cell_length_a 16.969505
_cell_length_b 18.382058
_cell_length_c 11.962547
_cell_angle_alpha 90.000000
_cell_angle_beta 90.000000
_cell_angle_gamma 90.000000
_cell_volume 3731.530222
_symmetry_space_group_name_H-M "I M M 2"
_symmetry_group_IT_number 44
_symmetry_cell_setting 'orthorhombic'
loop_
_space_group_symop_operation_xyz
x,y,z
-x,-y,z
-x,y,z
x,-y,z
1/2+x,1/2+y,1/2+z
1/2-x,1/2-y,1/2+z
1/2-x,1/2+y,1/2+z
1/2+x,1/2-y,1/2+z
loop_
_atom_site_type_symbol
_atom_site_label
_atom_site_fract_x
_atom_site_fract_y
_atom_site_fract_z
Si Si1 0.090448 0.720498 0.260670
Si Si2 0.586671 0.855352 0.375522
Si Si3 0.823934 0.223101 0.455153
Si Si4 0.687097 0.918554 0.748641
Si Si5 0.809274 0.830565 0.863832
Si Si6 0.769212 0.581234 0.992403
Si Si7 0.912042 0.216408 0.035856
Si Si8 0.407465 0.248236 0.184361
O O1 0.104915 0.772413 0.366285
O O2 0.121382 0.639355 0.283720
O O3 0.129457 0.758385 0.151287
O O4 0.000000 0.711678 0.232864
O O5 0.500000 0.892223 0.389157
O O6 0.654766 0.910567 0.411949
O O7 0.589904 0.783912 0.451678
O O8 0.598356 0.829955 0.246692
O O9 0.751549 0.267058 0.400581
O O10 0.799098 0.139086 0.466717
O O11 0.857561 0.256464 0.569950
O O12 0.764467 0.902747 0.823455
O O13 0.704032 0.908049 0.618891
O O14 0.657558 0.000000 0.775124
O O15 0.865848 0.808449 0.761474
O O16 0.861268 0.847029 0.975127
O O17 0.735167 0.500000 0.973636
O O18 0.000000 0.186764 0.056050
O O19 0.500000 0.268583 0.163823
#
# Coordination Sequence:
#
# PCOD8188233 Si02
#       8
#     8   8   8   8   8   8   8   8
#     4  10  20  33  53  78 103 133 170 212 258 311
#     4   9  17  31  50  73 104 134 167 215 263 312
#     4  11  20  32  52  76 105 135 180 216 256 308
#     4  10  20  32  49  77 109 137 163 205 264 322
#     4  10  18  30  54  73 100 134 170 218 262 300
#     4  11  20  31  49  75 110 142 167 208 266 315
#     4   9  16  29  50  76  99 124 167 216 260 296
#     4  10  19  32  52  76 102 135 177 223 266 305
#
# _framework density 17.151140999999999
#
# number of rings (size 3 to 8) (size 9 to 14) (size 15 to 20)
#    0.000    2.000    5.000    1.500    1.750    0.500 
#    0.000    1.250    0.000   10.500    0.000    5.250 
#    0.000    0.000    0.000    0.000    0.000    0.000 
#
# Total GULP energy -396540.445154 kJ/mol
# GULP energy per Si atom -12391.888911 kJ/mol
# Density = 1.711210 g / cm^3
# Si number density = 17.151141 Si / 1000 Ang^3
#
#
#
# Elastic Constant Matrix: (Units=GPa)
#
#
# Indices 1 2 3 4 5 6 
#
# 1 74.4462 29.7908 38.6365 0.0000 0.0000 0.0000
# 2 29.7908 67.4013 36.2583 0.0000 0.0000 0.0000
# 3 38.6365 36.2583 103.8753 0.0000 0.0000 0.0000
# 4 0.0000 0.0000 0.0000 13.8738 0.0000 0.0000
# 5 0.0000 0.0000 0.0000 0.0000 29.4871 0.0000
# 6 0.0000 0.0000 0.0000 0.0000 0.0000 17.9530
#
#
#
# Elastic Compliance Matrix: (Units=1/GPa)
#
#
# Indices 1 2 3 4 5 6 
#
# 1 0.018110 -0.005393 -0.004853 0.000000 0.000000 0.000000
# 2 -0.005393 0.019873 -0.004931 0.000000 0.000000 0.000000
# 3 -0.004853 -0.004931 0.013153 0.000000 0.000000 0.000000
# 4 0.000000 0.000000 0.000000 0.072078 0.000000 0.000000
# 5 0.000000 0.000000 0.000000 0.000000 0.033913 0.000000
# 6 0.000000 0.000000 0.000000 0.000000 0.000000 0.055701
#
#
# Mechanical properties :
#
#
# Convention : Reuss Voigt Hill
#
# Bulk Modulus (GPa) = 48.12123 50.56598 49.34361
# Shear Modulus (GPa) = 19.99126 21.66527 20.82826
#
# Velocity S-wave (km/s) = 3.41778 3.55800 3.48860
# Velocity P-wave (km/s) = 6.61007 6.81365 6.71263
#
# Compressibility (1/GPa) = 0.02078085
#
# Stress axis : x y z
#
# Youngs Moduli (GPa) = 55.21950 50.32003 76.02741
#
# Poissons Ratio (x) = 0.27140 0.36898
# Poissons Ratio (y) = 0.29783 0.37486
# Poissons Ratio (z) = 0.26799 0.24811
#
# Static dielectric constant tensor:
#      x y z
#    x 3.441140 0.000000 0.000000 
#    y 0.000000 2.901580 0.000000 
#    z 0.000000 0.000000 3.491600 
# 
# 
# High freq. dielectric constant tensor:
#      x y z
#    x 1.667500 0.000000 0.000000 
#    y 0.000000 1.612300 0.000000 
#    z 0.000000 0.000000 1.670470 
# 
# From -- ./inp_files/14068.got.cif
#   From: 2010.03.12/outbox.cif.g09.slc.cpg/sg44_8_cif.got.tgz:14068.got - 2010.04.14 02:36:11.
