data_PCOD8188512
_publ_section_title
;
Structure prediction by ZEFSAII (Michael W. Deem and Ramdas Pophale) SiO2 
 PCOD8188512
Probable space group: I M M 2
;
_chemical_formula_sum "Si O2"
_cell_formula_units_Z 48
_cell_length_a 8.804112
_cell_length_b 17.906340
_cell_length_c 18.195107
_cell_angle_alpha 90.000000
_cell_angle_beta 90.000000
_cell_angle_gamma 90.000000
_cell_volume 2868.448118
_symmetry_space_group_name_H-M "I M M 2"
_symmetry_group_IT_number 44
_symmetry_cell_setting 'orthorhombic'
loop_
_space_group_symop_operation_xyz
x,y,z
-x,-y,z
-x,y,z
x,-y,z
1/2+x,1/2+y,1/2+z
1/2-x,1/2-y,1/2+z
1/2-x,1/2+y,1/2+z
1/2+x,1/2-y,1/2+z
loop_
_atom_site_type_symbol
_atom_site_label
_atom_site_fract_x
_atom_site_fract_y
_atom_site_fract_z
Si Si1 0.679559 0.294742 0.426420
Si Si2 0.667923 0.314410 0.822010
Si Si3 0.834484 0.314065 0.202516
Si Si4 0.181404 0.197640 0.094831
Si Si5 0.681926 0.915217 0.823329
Si Si6 0.822093 0.586862 0.706772
O O1 0.500000 0.294641 0.417519
O O2 0.742987 0.217436 0.392909
O O3 0.731360 0.300195 0.510805
O O4 0.746301 0.368710 0.389276
O O5 0.500000 0.341729 0.846346
O O6 0.651138 0.248240 0.764742
O O7 0.756630 0.382618 0.783943
O O8 0.752139 0.274292 0.133218
O O9 0.755072 0.384362 0.243765
O O10 0.000000 0.340836 0.175684
O O11 0.249677 0.125569 0.135107
O O12 0.000000 0.194892 0.105108
O O13 0.500000 0.906587 0.826131
O O14 0.735327 0.000000 0.832110
O O15 0.782479 0.500000 0.701459
O O16 0.000000 0.602545 0.706083
#
# Coordination Sequence:
#
# PCOD8188512 Si02
#       6
#     8   8   8   8   8   8
#     4  10  19  30  46  69  96 125 157 194 235 279
#     4   9  17  31  50  68  89 122 161 196 233 281
#     4   7  12  26  45  62  81 110 151 190 220 259
#     4   9  18  31  47  67  93 126 160 192 229 279
#     4   9  17  29  46  67  90 118 153 192 234 281
#     4  10  20  32  48  72  99 125 156 197 241 283
#
# _framework density 16.733787
#
# number of rings (size 3 to 8) (size 9 to 14) (size 15 to 20)
#    0.000    3.000    0.000    3.500    0.000    3.667 
#    0.000    3.333    0.000    1.000    0.000    4.667 
#    0.000    0.000    0.000    0.000    0.000    0.000 
#
# Total GULP energy -297332.085168 kJ/mol
# GULP energy per Si atom -12388.836882 kJ/mol
# Density = 1.669570 g / cm^3
# Si number density = 16.733787 Si / 1000 Ang^3
#
#
#
# Elastic Constant Matrix: (Units=GPa)
#
#
# Indices 1 2 3 4 5 6 
#
# 1 60.7628 38.2882 45.2115 0.0000 0.0000 0.0000
# 2 38.2882 77.1437 95.3271 0.0000 0.0000 0.0000
# 3 45.2115 95.3271 128.6456 0.0000 0.0000 0.0000
# 4 0.0000 0.0000 0.0000 21.0634 0.0000 0.0000
# 5 0.0000 0.0000 0.0000 0.0000 23.7246 0.0000
# 6 0.0000 0.0000 0.0000 0.0000 0.0000 22.8977
#
#
#
# Elastic Compliance Matrix: (Units=1/GPa)
#
#
# Indices 1 2 3 4 5 6 
#
# 1 0.024182 -0.017791 0.004684 0.000000 0.000000 0.000000
# 2 -0.017791 0.166797 -0.117345 0.000000 0.000000 0.000000
# 3 0.004684 -0.117345 0.093080 0.000000 0.000000 0.000000
# 4 0.000000 0.000000 0.000000 0.047476 0.000000 0.000000
# 5 0.000000 0.000000 0.000000 0.000000 0.042150 0.000000
# 6 0.000000 0.000000 0.000000 0.000000 0.000000 0.043673
#
#
# Mechanical properties :
#
#
# Convention : Reuss Voigt Hill
#
# Bulk Modulus (GPa) = 43.18390 69.35618 56.27004
# Shear Modulus (GPa) = 7.28885 19.38548 13.33717
#
# Velocity S-wave (km/s) = 2.08931 3.40731 2.82622
# Velocity P-wave (km/s) = 5.62874 7.55093 6.65955
#
# Compressibility (1/GPa) = 0.02315678
#
# Stress axis : x y z
#
# Youngs Moduli (GPa) = 41.35240 5.99533 10.74344
#
# Poissons Ratio (x) = 0.10666 -0.05033
# Poissons Ratio (y) = 0.73569 1.26069
# Poissons Ratio (z) = -0.19371 0.70352
#
# Static dielectric constant tensor:
#      x y z
#    x 3.082190 0.000000 0.000000 
#    y 0.000000 3.245320 0.000000 
#    z 0.000000 0.000000 3.279890 
# 
# 
# High freq. dielectric constant tensor:
#      x y z
#    x 1.635500 0.000000 0.000000 
#    y 0.000000 1.631070 0.000000 
#    z 0.000000 0.000000 1.634960 
# 
# From -- ./inp_files/19077.got.cif
#   From: 2010.03.12/outbox.cif.g09.slc.cpg/sg44_10_cif.got.tgz:19077.got - 2010.04.14 02:36:11.
