data_PCOD8188623
_publ_section_title
;
Structure prediction by ZEFSAII (Michael W. Deem and Ramdas Pophale) SiO2 
 PCOD8188623
Probable space group: I M M 2
;
_chemical_formula_sum "Si O2"
_cell_formula_units_Z 64
_cell_length_a 9.216939
_cell_length_b 33.517094
_cell_length_c 11.757887
_cell_angle_alpha 90.000000
_cell_angle_beta 90.000000
_cell_angle_gamma 90.000000
_cell_volume 3632.305369
_symmetry_space_group_name_H-M "I M M 2"
_symmetry_group_IT_number 44
_symmetry_cell_setting 'orthorhombic'
loop_
_space_group_symop_operation_xyz
x,y,z
-x,-y,z
-x,y,z
x,-y,z
1/2+x,1/2+y,1/2+z
1/2-x,1/2-y,1/2+z
1/2-x,1/2+y,1/2+z
1/2+x,1/2-y,1/2+z
loop_
_atom_site_type_symbol
_atom_site_label
_atom_site_fract_x
_atom_site_fract_y
_atom_site_fract_z
Si Si1 0.666022 0.887761 0.433330
Si Si2 0.830436 0.230888 0.501597
Si Si3 0.831461 0.668885 0.145922
Si Si4 0.163074 0.045343 0.534562
Si Si5 0.667482 0.691229 0.541257
Si Si6 0.167393 0.826754 0.295875
Si Si7 0.831445 0.129086 0.852860
Si Si8 0.671779 0.543293 0.290919
O O1 0.500000 0.893168 0.401407
O O2 0.690379 0.864352 0.550395
O O3 0.737225 0.930907 0.446808
O O4 0.740786 0.865338 0.329041
O O5 0.748661 0.209142 0.605689
O O6 0.767246 0.275005 0.485371
O O7 0.800211 0.209217 0.382180
O O8 0.000000 0.232412 0.530786
O O9 0.761411 0.653143 0.261275
O O10 0.000000 0.678848 0.167011
O O11 0.227093 0.049212 0.661935
O O12 0.000000 0.062867 0.530660
O O13 0.164555 0.000000 0.493173
O O14 0.500000 0.704597 0.533004
O O15 0.717060 0.686091 0.670927
O O16 0.692541 0.649620 0.474884
O O17 0.000000 0.839206 0.298083
O O18 0.779009 0.082496 0.862308
O O19 0.000000 0.130623 0.815413
O O20 0.500000 0.540052 0.289049
O O21 0.731883 0.500000 0.337856
#
# Coordination Sequence:
#
# PCOD8188623 Si02
#       8
#     8   8   8   8   8   8   8   8
#     4  10  19  31  50  75 101 133 170 214 257 299
#     4  10  21  36  55  75  96 133 175 213 259 313
#     4  10  20  33  50  74 105 135 167 210 260 311
#     4   9  16  27  47  75 106 138 169 204 253 314
#     4  10  22  37  53  77 105 135 171 221 266 306
#     4   9  20  38  54  69  98 137 174 209 257 312
#     4  10  19  32  53  79 107 139 177 217 263 315
#     4   8  14  26  47  75 106 138 172 211 255 308
#
# _framework density 17.619662999999999
#
# number of rings (size 3 to 8) (size 9 to 14) (size 15 to 20)
#    0.000    2.500    1.250    1.875    1.750    2.750 
#    0.000    0.000    0.000    1.125    0.000    3.500 
#    0.000    0.000    0.000    0.000    0.000    0.000 
#
# Total GULP energy -396753.097912 kJ/mol
# GULP energy per Si atom -12398.534310 kJ/mol
# Density = 1.757956 g / cm^3
# Si number density = 17.619663 Si / 1000 Ang^3
#
#
#
# Elastic Constant Matrix: (Units=GPa)
#
#
# Indices 1 2 3 4 5 6 
#
# 1 75.3112 50.5542 38.9713 0.0001 -0.0002 -0.0002
# 2 50.5542 133.8600 49.9412 0.0010 0.0000 0.0000
# 3 38.9713 49.9412 84.2293 0.0039 -0.0001 -0.0001
# 4 0.0001 0.0010 0.0039 23.1490 -0.0001 -0.0001
# 5 -0.0002 0.0000 -0.0001 -0.0001 19.0348 0.0004
# 6 -0.0002 0.0000 -0.0001 -0.0001 0.0004 26.7503
#
#
#
# Elastic Compliance Matrix: (Units=1/GPa)
#
#
# Indices 1 2 3 4 5 6 
#
# 1 0.019979 -0.005260 -0.006125 0.000001 0.000000 0.000000
# 2 -0.005260 0.010977 -0.004075 0.000000 0.000000 0.000000
# 3 -0.006125 -0.004075 0.017122 -0.000003 0.000000 0.000000
# 4 0.000001 0.000000 -0.000003 0.043198 0.000000 0.000000
# 5 0.000000 0.000000 0.000000 0.000000 0.052535 -0.000001
# 6 0.000000 0.000000 0.000000 0.000000 -0.000001 0.037383
#
#
# Mechanical properties :
#
#
# Convention : Reuss Voigt Hill
#
# Bulk Modulus (GPa) = 58.28041 63.59264 60.93652
# Shear Modulus (GPa) = 22.95322 24.04906 23.50114
#
# Velocity S-wave (km/s) = 3.61322 3.69846 3.65609
# Velocity P-wave (km/s) = 7.11026 7.37620 7.24445
#
# Compressibility (1/GPa) = 0.01715843
#
# Stress axis : x y z
#
# Youngs Moduli (GPa) = 50.05336 91.09673 58.40323
#
# Poissons Ratio (x) = 0.47918 0.35772
# Poissons Ratio (y) = 0.26329 0.23799
# Poissons Ratio (z) = 0.30657 0.37121
#
# Static dielectric constant tensor:
#      x y z
#    x 3.165040 0.000000 0.000000 
#    y 0.000000 3.472460 0.000000 
#    z 0.000000 0.000000 3.057250 
# 
# 
# High freq. dielectric constant tensor:
#      x y z
#    x 1.670770 0.000000 0.000000 
#    y 0.000000 1.686830 0.000000 
#    z 0.000000 0.000000 1.651670 
# 
# From -- ./inp_files/11487.got.cif
#   From: 2010.03.12/outbox.cif.g09.slc.cpg/sg44_6_cif.got.tgz:11487.got - 2010.04.14 02:36:11.
