data_PCOD8188563
_publ_section_title
;
Structure prediction by ZEFSAII (Michael W. Deem and Ramdas Pophale) SiO2 
 PCOD8188563
Probable space group: I M M 2
;
_chemical_formula_sum "Si O2"
_cell_formula_units_Z 64
_cell_length_a 26.348430
_cell_length_b 8.744239
_cell_length_c 18.115154
_cell_angle_alpha 90.000000
_cell_angle_beta 90.000000
_cell_angle_gamma 90.000000
_cell_volume 4173.676578
_symmetry_space_group_name_H-M "I M M 2"
_symmetry_group_IT_number 44
_symmetry_cell_setting 'orthorhombic'
loop_
_space_group_symop_operation_xyz
x,y,z
-x,-y,z
-x,y,z
x,-y,z
1/2+x,1/2+y,1/2+z
1/2-x,1/2-y,1/2+z
1/2-x,1/2+y,1/2+z
1/2+x,1/2-y,1/2+z
loop_
_atom_site_type_symbol
_atom_site_label
_atom_site_fract_x
_atom_site_fract_y
_atom_site_fract_z
Si Si1 0.798539 0.832005 0.977530
Si Si2 0.855570 0.680869 0.441348
Si Si3 0.738526 0.678344 0.859249
Si Si4 0.941623 0.678759 0.199062
Si Si5 0.259034 0.821312 0.703063
Si Si6 0.558196 0.322481 0.853747
Si Si7 0.201426 0.331270 0.580791
Si Si8 0.647852 0.680227 0.618291
O O1 0.787335 0.715098 0.911080
O O2 0.810140 0.000000 0.943711
O O3 0.750523 0.844236 0.030337
O O4 0.844321 0.777400 0.031400
O O5 0.861350 0.500000 0.433303
O O6 0.811220 0.733027 0.386246
O O7 0.907950 0.763682 0.421340
O O8 0.843570 0.726808 0.526603
O O9 0.726893 0.500000 0.861926
O O10 0.752228 0.729745 0.777358
O O11 0.931189 0.500000 0.191410
O O12 0.925716 0.730573 0.280821
O O13 0.908780 0.769594 0.139036
O O14 0.000000 0.721043 0.183721
O O15 0.212260 0.785102 0.647527
O O16 0.312751 0.770045 0.669878
O O17 0.260529 0.000000 0.719690
O O18 0.500000 0.290459 0.875077
O O19 0.568255 0.500000 0.838475
O O20 0.188797 0.500000 0.612994
O O21 0.655991 0.500000 0.630908
#
# Coordination Sequence:
#
# PCOD8188563 Si02
#       8
#     8   8   8   8   8   8   8   8
#     4   8  16  30  44  60  83 109 138 173 211 249
#     4  10  19  31  46  62  84 113 143 176 213 253
#     4  11  20  29  43  62  86 114 144 176 209 249
#     4  10  20  32  45  62  85 112 144 181 215 248
#     4  11  20  29  43  62  86 114 144 176 209 249
#     4  10  20  32  45  62  85 112 144 181 215 248
#     4   8  16  30  44  60  83 109 138 173 211 249
#     4  10  19  31  46  62  84 113 143 176 213 253
#
# _framework density 15.334201999999999
#
# number of rings (size 3 to 8) (size 9 to 14) (size 15 to 20)
#    0.000    2.250    0.000    6.000    0.000    7.000 
#    0.000    0.000    0.000    0.000    0.000    0.000 
#    0.000    1.000    0.000    3.250    0.000    4.750 
#
# Total GULP energy -396733.916841 kJ/mol
# GULP energy per Si atom -12397.934901 kJ/mol
# Density = 1.529930 g / cm^3
# Si number density = 15.334202 Si / 1000 Ang^3
#
#
#
# Elastic Constant Matrix: (Units=GPa)
#
#
# Indices 1 2 3 4 5 6 
#
# 1 65.7805 17.7181 35.3827 0.0000 0.0000 0.0000
# 2 17.7181 47.7504 17.4285 0.0000 0.0000 0.0000
# 3 35.3827 17.4285 70.5209 0.0000 0.0000 0.0000
# 4 0.0000 0.0000 0.0000 25.2686 0.0000 0.0000
# 5 0.0000 0.0000 0.0000 0.0000 28.0108 0.0000
# 6 0.0000 0.0000 0.0000 0.0000 0.0000 20.3241
#
#
#
# Elastic Compliance Matrix: (Units=1/GPa)
#
#
# Indices 1 2 3 4 5 6 
#
# 1 0.021657 -0.004474 -0.009761 0.000000 0.000000 0.000000
# 2 -0.004474 0.023943 -0.003673 0.000000 0.000000 0.000000
# 3 -0.009761 -0.003673 0.019985 0.000000 0.000000 0.000000
# 4 0.000000 0.000000 0.000000 0.039575 0.000000 0.000000
# 5 0.000000 0.000000 0.000000 0.000000 0.035701 0.000000
# 6 0.000000 0.000000 0.000000 0.000000 0.000000 0.049203
#
#
# Mechanical properties :
#
#
# Convention : Reuss Voigt Hill
#
# Bulk Modulus (GPa) = 33.58925 36.12337 34.85631
# Shear Modulus (GPa) = 21.20441 22.28885 21.74663
#
# Velocity S-wave (km/s) = 3.72266 3.81667 3.76996
# Velocity P-wave (km/s) = 6.35845 6.55981 6.45992
#
# Compressibility (1/GPa) = 0.02977143
#
# Stress axis : x y z
#
# Youngs Moduli (GPa) = 46.17420 41.76644 50.03744
#
# Poissons Ratio (x) = 0.18684 0.48839
# Poissons Ratio (y) = 0.20656 0.18377
# Poissons Ratio (z) = 0.45068 0.15339
#
# Static dielectric constant tensor:
#      x y z
#    x 2.909170 0.000000 0.000000 
#    y 0.000000 3.015760 0.000000 
#    z 0.000000 0.000000 3.077420 
# 
# 
# High freq. dielectric constant tensor:
#      x y z
#    x 1.554130 0.000000 0.000000 
#    y 0.000000 1.602220 0.000000 
#    z 0.000000 0.000000 1.574180 
# 
# From -- ./inp_files/17170.got.cif
#   From: 2010.03.12/outbox.cif.g09.slc.cpg/sg44_9_cif.got.tgz:17170.got - 2010.04.14 02:36:11.
