data_PCOD8188846
_publ_section_title
;
Structure prediction by ZEFSAII (Michael W. Deem and Ramdas Pophale) SiO2 
 PCOD8188846
Probable space group: I M M 2
;
_chemical_formula_sum "Si O2"
_cell_formula_units_Z 64
_cell_length_a 8.814543
_cell_length_b 24.758281
_cell_length_c 15.258817
_cell_angle_alpha 90.000000
_cell_angle_beta 90.000000
_cell_angle_gamma 90.000000
_cell_volume 3329.976380
_symmetry_space_group_name_H-M "I M M 2"
_symmetry_group_IT_number 44
_symmetry_cell_setting 'orthorhombic'
loop_
_space_group_symop_operation_xyz
x,y,z
-x,-y,z
-x,y,z
x,-y,z
1/2+x,1/2+y,1/2+z
1/2-x,1/2-y,1/2+z
1/2-x,1/2+y,1/2+z
1/2+x,1/2-y,1/2+z
loop_
_atom_site_type_symbol
_atom_site_label
_atom_site_fract_x
_atom_site_fract_y
_atom_site_fract_z
Si Si1 0.823594 0.329811 0.024200
Si Si2 0.676494 0.937871 0.860212
Si Si3 0.678735 0.609208 0.532406
Si Si4 0.321349 0.781706 0.000321
Si Si5 0.324377 0.732627 0.317927
Si Si6 0.176327 0.561183 0.697318
Si Si7 0.174375 0.355221 0.212735
Si Si8 0.676035 0.854746 0.335647
O O1 0.798221 0.367761 0.109256
O O2 0.000000 0.316418 0.008138
O O3 0.741301 0.273172 0.041872
O O4 0.758200 0.357966 0.935561
O O5 0.500000 0.930696 0.884000
O O6 0.718675 0.907459 0.769668
O O7 0.719679 0.000000 0.845628
O O8 0.774354 0.913288 0.937949
O O9 0.500000 0.614533 0.535530
O O10 0.752012 0.667510 0.551975
O O11 0.734918 0.568190 0.606615
O O12 0.500000 0.783277 0.011101
O O13 0.276695 0.787289 0.898760
O O14 0.500000 0.723966 0.341904
O O15 0.277832 0.696317 0.235689
O O16 0.292122 0.795308 0.296159
O O17 0.198147 0.500000 0.730024
O O18 0.249449 0.600409 0.771823
O O19 0.000000 0.574524 0.680105
O O20 0.000000 0.339088 0.228722
O O21 0.500000 0.868403 0.339780
#
# Coordination Sequence:
#
# PCOD8188846 Si02
#       8
#     8   8   8   8   8   8   8   8
#     4   9  19  36  56  82 117 151 187 233 282 332
#     4  10  21  38  58  81 113 153 191 230 276 332
#     4  12  24  37  55  82 113 148 187 233 288 341
#     4  11  21  35  55  81 113 149 187 227 283 341
#     4  10  19  33  54  81 113 148 186 230 278 332
#     4  10  21  38  59  82 109 147 194 239 282 333
#     4  10  20  34  55  83 116 152 190 230 276 333
#     4   8  17  35  56  79 110 146 185 232 283 329
#
# _framework density 19.219353999999999
#
# number of rings (size 3 to 8) (size 9 to 14) (size 15 to 20)
#    0.000    2.000    1.250    3.750    1.750    2.500 
#    0.000    3.125    0.000    3.750    0.000    0.000 
#    0.000    6.000    0.000    0.000    0.000    0.000 
#
# Total GULP energy -396790.563125 kJ/mol
# GULP energy per Si atom -12399.705098 kJ/mol
# Density = 1.917561 g / cm^3
# Si number density = 19.219354 Si / 1000 Ang^3
#
#
#
# Elastic Constant Matrix: (Units=GPa)
#
#
# Indices 1 2 3 4 5 6 
#
# 1 83.5506 39.5654 32.1594 -0.0006 -0.0002 0.0000
# 2 39.5654 109.6708 57.4626 0.0005 0.0001 0.0000
# 3 32.1594 57.4626 109.2582 -0.0027 -0.0008 -0.0001
# 4 -0.0006 0.0005 -0.0027 31.0517 -0.0005 0.0000
# 5 -0.0002 0.0001 -0.0008 -0.0005 17.5190 -0.0003
# 6 0.0000 0.0000 -0.0001 0.0000 -0.0003 21.4000
#
#
#
# Elastic Compliance Matrix: (Units=1/GPa)
#
#
# Indices 1 2 3 4 5 6 
#
# 1 0.014787 -0.004216 -0.002135 0.000000 0.000000 0.000000
# 2 -0.004216 0.013789 -0.006011 -0.000001 0.000000 0.000000
# 3 -0.002135 -0.006011 0.012942 0.000001 0.000001 0.000000
# 4 0.000000 -0.000001 0.000001 0.032204 0.000001 0.000000
# 5 0.000000 0.000000 0.000001 0.000001 0.057081 0.000001
# 6 0.000000 0.000000 0.000000 0.000000 0.000001 0.046729
#
#
# Mechanical properties :
#
#
# Convention : Reuss Voigt Hill
#
# Bulk Modulus (GPa) = 59.54492 62.31714 60.93103
# Shear Modulus (GPa) = 24.05526 25.54694 24.80110
#
# Velocity S-wave (km/s) = 3.54166 3.64982 3.59614
# Velocity P-wave (km/s) = 6.91183 7.08915 7.00106
#
# Compressibility (1/GPa) = 0.01679404
#
# Stress axis : x y z
#
# Youngs Moduli (GPa) = 67.62650 72.52343 77.26494
#
# Poissons Ratio (x) = 0.30575 0.16497
# Poissons Ratio (y) = 0.28511 0.46444
# Poissons Ratio (z) = 0.14439 0.43594
#
# Static dielectric constant tensor:
#      x y z
#    x 3.323030 0.000000 0.000000 
#    y 0.000000 3.536670 0.000000 
#    z 0.000000 0.000000 3.629650 
# 
# 
# High freq. dielectric constant tensor:
#      x y z
#    x 1.729740 0.000000 0.000000 
#    y 0.000000 1.738200 0.000000 
#    z 0.000000 0.000000 1.749810 
# 
# From -- ./inp_files/16887.got.cif
#   From: 2010.03.12/outbox.cif.g09.slc.cpg/sg44_9_cif.got.tgz:16887.got - 2010.04.14 02:36:11.
