data_PCOD8188039
_publ_section_title
;
Structure prediction by ZEFSAII (Michael W. Deem and Ramdas Pophale) SiO2 
 PCOD8188039
Probable space group: I M M 2
;
_chemical_formula_sum "Si O2"
_cell_formula_units_Z 64
_cell_length_a 8.943832
_cell_length_b 26.128524
_cell_length_c 18.539597
_cell_angle_alpha 90.000000
_cell_angle_beta 90.000000
_cell_angle_gamma 90.000000
_cell_volume 4332.502276
_symmetry_space_group_name_H-M "I M M 2"
_symmetry_group_IT_number 44
_symmetry_cell_setting 'orthorhombic'
loop_
_space_group_symop_operation_xyz
x,y,z
-x,-y,z
-x,y,z
x,-y,z
1/2+x,1/2+y,1/2+z
1/2-x,1/2-y,1/2+z
1/2-x,1/2+y,1/2+z
1/2+x,1/2-y,1/2+z
loop_
_atom_site_type_symbol
_atom_site_label
_atom_site_fract_x
_atom_site_fract_y
_atom_site_fract_z
Si Si1 0.162976 0.304103 0.454090
Si Si2 0.322158 0.853290 0.091115
Si Si3 0.176380 0.253092 0.673450
Si Si4 0.179190 0.756152 0.324323
Si Si5 0.171828 0.058541 0.173022
Si Si6 0.175733 0.348209 0.906079
Si Si7 0.326272 0.441339 0.838166
Si Si8 0.836328 0.197430 0.534306
O O1 0.244562 0.343720 0.509326
O O2 0.242374 0.288724 0.378496
O O3 0.144837 0.252336 0.498832
O O4 0.000000 0.326505 0.434712
O O5 0.500000 0.851827 0.085500
O O6 0.268260 0.808407 0.144798
O O7 0.269709 0.907718 0.119427
O O8 0.267107 0.240940 0.745488
O O9 0.217373 0.207880 0.616567
O O10 0.000000 0.253814 0.689469
O O11 0.243680 0.810741 0.349271
O O12 0.000000 0.759570 0.328308
O O13 0.221346 0.067607 0.255285
O O14 0.000000 0.073953 0.163413
O O15 0.198642 0.000000 0.150888
O O16 0.224661 0.405943 0.888495
O O17 0.000000 0.341918 0.897052
O O18 0.220160 0.336869 0.989191
O O19 0.500000 0.427661 0.848770
O O20 0.296093 0.500000 0.860178
O O21 0.000000 0.170423 0.534117
#
# Coordination Sequence:
#
# PCOD8188039 Si02
#       8
#     8   8   8   8   8   8   8   8
#     4   7  13  26  40  54  74 103 135 163 192 231
#     4   9  16  27  42  57  76 104 136 166 198 234
#     4   9  17  28  42  62  85 106 133 172 208 238
#     4  10  18  28  42  58  81 113 142 166 200 246
#     4   9  18  30  41  56  79 104 132 167 202 236
#     4  11  20  28  41  61  84 108 139 176 206 235
#     4   9  18  32  46  58  77 108 141 169 203 249
#     4   8  15  29  44  56  78 110 136 161 201 248
#
# _framework density 14.772064
#
# number of rings (size 3 to 8) (size 9 to 14) (size 15 to 20)
#    0.000    3.000    0.000    5.250    0.000    4.000 
#    0.000    6.875    0.000    0.000    0.000    0.000 
#    0.000    1.000    0.000    6.500    0.000    4.875 
#
# Total GULP energy -396486.190612 kJ/mol
# GULP energy per Si atom -12390.193457 kJ/mol
# Density = 1.473844 g / cm^3
# Si number density = 14.772064 Si / 1000 Ang^3
#
#
#
# Elastic Constant Matrix: (Units=GPa)
#
#
# Indices 1 2 3 4 5 6 
#
# 1 55.5583 27.5315 38.3656 0.0000 0.0000 0.0000
# 2 27.5315 59.1694 43.9024 0.0000 0.0000 0.0000
# 3 38.3656 43.9024 110.7456 -0.0002 0.0000 0.0000
# 4 0.0000 0.0000 -0.0002 24.9553 0.0000 0.0000
# 5 0.0000 0.0000 0.0000 0.0000 21.6516 0.0000
# 6 0.0000 0.0000 0.0000 0.0000 0.0000 18.4205
#
#
#
# Elastic Compliance Matrix: (Units=1/GPa)
#
#
# Indices 1 2 3 4 5 6 
#
# 1 0.025885 -0.007637 -0.005940 0.000000 0.000000 0.000000
# 2 -0.007637 0.026197 -0.007739 0.000000 0.000000 0.000000
# 3 -0.005940 -0.007739 0.014155 0.000000 0.000000 0.000000
# 4 0.000000 0.000000 0.000000 0.040072 0.000000 0.000000
# 5 0.000000 0.000000 0.000000 0.000000 0.046186 0.000000
# 6 0.000000 0.000000 0.000000 0.000000 0.000000 0.054287
#
#
# Mechanical properties :
#
#
# Convention : Reuss Voigt Hill
#
# Bulk Modulus (GPa) = 42.36426 49.45248 45.90837
# Shear Modulus (GPa) = 19.43384 20.71709 20.07546
#
# Velocity S-wave (km/s) = 3.63103 3.74899 3.69048
# Velocity P-wave (km/s) = 6.80588 7.23116 7.02174
#
# Compressibility (1/GPa) = 0.02360480
#
# Stress axis : x y z
#
# Youngs Moduli (GPa) = 38.63171 38.17300 70.64404
#
# Poissons Ratio (x) = 0.29154 0.41962
# Poissons Ratio (y) = 0.29504 0.54673
# Poissons Ratio (z) = 0.22947 0.29543
#
# Static dielectric constant tensor:
#      x y z
#    x 2.698240 0.000000 0.000000 
#    y 0.000000 2.659730 0.000000 
#    z 0.000000 0.000000 3.094240 
# 
# 
# High freq. dielectric constant tensor:
#      x y z
#    x 1.554340 0.000000 0.000000 
#    y 0.000000 1.529820 0.000000 
#    z 0.000000 0.000000 1.561310 
# 
# From -- ./inp_files/20913.got.cif
#   From: 2010.03.12/outbox.cif.g09.slc.cpg/sg44_11_cif.got.tgz:20913.got - 2010.04.14 02:36:11.
