data_PCOD8188576
_publ_section_title
;
Structure prediction by ZEFSAII (Michael W. Deem and Ramdas Pophale) SiO2 
 PCOD8188576
Probable space group: I M M 2
;
_chemical_formula_sum "Si O2"
_cell_formula_units_Z 56
_cell_length_a 24.178247
_cell_length_b 8.991612
_cell_length_c 13.977448
_cell_angle_alpha 90.000000
_cell_angle_beta 90.000000
_cell_angle_gamma 90.000000
_cell_volume 3038.716985
_symmetry_space_group_name_H-M "I M M 2"
_symmetry_group_IT_number 44
_symmetry_cell_setting 'orthorhombic'
loop_
_space_group_symop_operation_xyz
x,y,z
-x,-y,z
-x,y,z
x,-y,z
1/2+x,1/2+y,1/2+z
1/2-x,1/2-y,1/2+z
1/2-x,1/2+y,1/2+z
1/2+x,1/2-y,1/2+z
loop_
_atom_site_type_symbol
_atom_site_label
_atom_site_fract_x
_atom_site_fract_y
_atom_site_fract_z
Si Si1 0.061244 0.676713 0.077540
Si Si2 0.937989 0.676574 0.865153
Si Si3 0.169740 0.323379 0.180109
Si Si4 0.731047 0.176021 0.078534
Si Si5 0.332754 0.176576 0.893201
Si Si6 0.560940 0.177174 0.998475
Si Si7 0.622923 0.176635 0.183326
O O1 0.059359 0.500000 0.074647
O O2 0.108036 0.731157 0.151344
O O3 0.000000 0.735742 0.108049
O O4 0.076692 0.736388 0.971127
O O5 0.934125 0.500000 0.864016
O O6 0.895220 0.742932 0.786489
O O7 0.000000 0.726455 0.837380
O O8 0.174398 0.500000 0.174321
O O9 0.212160 0.255361 0.104563
O O10 0.182279 0.263620 0.287410
O O11 0.684580 0.228970 0.154899
O O12 0.739450 0.000000 0.082068
O O13 0.712529 0.227876 0.971749
O O14 0.393934 0.235892 0.921868
O O15 0.334940 0.000000 0.892287
O O16 0.500000 0.242044 0.974493
O O17 0.559350 0.000000 0.996171
O O18 0.579352 0.232123 0.103640
O O19 0.621957 0.000000 0.185313
#
# Coordination Sequence:
#
# PCOD8188576 Si02
#       7
#     8   8   8   8   8   8   8
#     4   8  15  26  39  59  86 111 137 174 218 259
#     4   8  12  19  33  56  87 115 136 169 220 263
#     4  10  19  31  48  67  87 114 148 182 217 259
#     4   9  18  32  46  62  89 120 148 179 217 259
#     4   8  16  29  42  60  89 119 143 177 224 263
#     4   8  12  19  34  57  83 111 143 175 210 257
#     4   8  13  21  35  56  83 114 143 173 212 256
#
# _framework density 18.428830999999999
#
# number of rings (size 3 to 8) (size 9 to 14) (size 15 to 20)
#    0.000    3.571    0.000    3.000    0.000    3.429 
#    0.000    5.000    0.000    0.429    0.000    0.000 
#    0.000   20.000    0.000    0.000    0.000    0.000 
#
# Total GULP energy -346886.125122 kJ/mol
# GULP energy per Si atom -12388.790183 kJ/mol
# Density = 1.838689 g / cm^3
# Si number density = 18.428831 Si / 1000 Ang^3
#
#
#
# Elastic Constant Matrix: (Units=GPa)
#
#
# Indices 1 2 3 4 5 6 
#
# 1 139.2338 17.5932 77.7369 0.0000 0.0000 0.0000
# 2 17.5932 8.1545 14.6110 0.0000 0.0000 0.0000
# 3 77.7369 14.6110 136.4662 0.0000 0.0000 0.0000
# 4 0.0000 0.0000 0.0000 10.0584 0.0000 0.0000
# 5 0.0000 0.0000 0.0000 0.0000 29.4307 0.0000
# 6 0.0000 0.0000 0.0000 0.0000 0.0000 14.9308
#
#
#
# Elastic Compliance Matrix: (Units=1/GPa)
#
#
# Indices 1 2 3 4 5 6 
#
# 1 0.012208 -0.017173 -0.005116 0.000000 0.000000 0.000000
# 2 -0.017173 0.175899 -0.009050 0.000000 0.000000 0.000000
# 3 -0.005116 -0.009050 0.011211 0.000000 0.000000 0.000000
# 4 0.000000 0.000000 0.000000 0.099420 0.000000 0.000000
# 5 0.000000 0.000000 0.000000 0.000000 0.033978 0.000000
# 6 0.000000 0.000000 0.000000 0.000000 0.000000 0.066976
#
#
# Mechanical properties :
#
#
# Convention : Reuss Voigt Hill
#
# Bulk Modulus (GPa) = 7.31850 55.97074 31.64462
# Shear Modulus (GPa) = 9.84412 22.47820 16.16116
#
# Velocity S-wave (km/s) = 2.31372 3.49625 2.96455
# Velocity P-wave (km/s) = 3.33430 6.83634 5.37834
#
# Compressibility (1/GPa) = 0.13664008
#
# Stress axis : x y z
#
# Youngs Moduli (GPa) = 81.91151 5.68507 89.19861
#
# Poissons Ratio (x) = 0.09763 0.45631
# Poissons Ratio (y) = 1.40667 0.80729
# Poissons Ratio (z) = 0.41903 0.05145
#
# Static dielectric constant tensor:
#      x y z
#    x 3.590470 0.000000 0.000000 
#    y 0.000000 2.570050 0.000000 
#    z 0.000000 0.000000 3.809950 
# 
# 
# High freq. dielectric constant tensor:
#      x y z
#    x 1.719720 0.000000 0.000000 
#    y 0.000000 1.626140 0.000000 
#    z 0.000000 0.000000 1.721090 
# 
# From -- ./inp_files/12680.got.cif
#   From: 2010.03.12/outbox.cif.g09.slc.cpg/sg44_7_cif.got.tgz:12680.got - 2010.04.14 02:36:11.
