data_PCOD8188309
_publ_section_title
;
Structure prediction by ZEFSAII (Michael W. Deem and Ramdas Pophale) SiO2 
 PCOD8188309
Probable space group: I M M 2
;
_chemical_formula_sum "Si O2"
_cell_formula_units_Z 56
_cell_length_a 17.796878
_cell_length_b 18.232366
_cell_length_c 8.733812
_cell_angle_alpha 90.000000
_cell_angle_beta 90.000000
_cell_angle_gamma 90.000000
_cell_volume 2833.940273
_symmetry_space_group_name_H-M "I M M 2"
_symmetry_group_IT_number 44
_symmetry_cell_setting 'orthorhombic'
loop_
_space_group_symop_operation_xyz
x,y,z
-x,-y,z
-x,y,z
x,-y,z
1/2+x,1/2+y,1/2+z
1/2-x,1/2-y,1/2+z
1/2-x,1/2+y,1/2+z
1/2+x,1/2-y,1/2+z
loop_
_atom_site_type_symbol
_atom_site_label
_atom_site_fract_x
_atom_site_fract_y
_atom_site_fract_z
Si Si1 0.682857 0.196271 0.925040
Si Si2 0.412424 0.915006 0.731925
Si Si3 0.086129 0.078132 0.665380
Si Si4 0.416990 0.417483 0.804625
Si Si5 0.588712 0.736133 0.178881
Si Si6 0.810567 0.196835 0.162482
Si Si7 0.586367 0.196344 0.483017
O O1 0.642006 0.125471 0.852216
O O2 0.720585 0.249821 0.797984
O O3 0.620262 0.243161 0.013678
O O4 0.745020 0.171726 0.047761
O O5 0.500000 0.903961 0.778838
O O6 0.398226 0.883112 0.559809
O O7 0.390284 0.000000 0.728926
O O8 0.095033 0.084456 0.484736
O O9 0.120073 0.154720 0.732420
O O10 0.000000 0.072682 0.714632
O O11 0.124751 0.000000 0.719790
O O12 0.500000 0.384942 0.764831
O O13 0.412485 0.500000 0.742406
O O14 0.348649 0.375535 0.726547
O O15 0.500000 0.730136 0.156510
O O16 0.611840 0.797908 0.304915
O O17 0.874275 0.241501 0.078477
O O18 0.500000 0.217107 0.491575
#
# Coordination Sequence:
#
# PCOD8188309 Si02
#       7
#     8   8   8   8   8   8   8
#     4  11  22  34  55  80 111 151 192 234 281 336
#     4   9  19  38  61  83 109 145 190 240 295 349
#     4   8  14  26  48  78 110 143 177 215 263 320
#     4   9  17  31  54  82 109 141 180 220 270 329
#     4  10  18  32  54  82 111 142 189 241 282 332
#     4  11  21  35  52  77 113 150 187 232 276 330
#     4   9  19  34  56  82 108 141 185 235 290 341
#
# _framework density 19.760473000000001
#
# number of rings (size 3 to 8) (size 9 to 14) (size 15 to 20)
#    0.000    2.429    1.429    2.571    0.000    1.714 
#    0.000    1.429    0.000   18.857    0.000    0.000 
#    0.000    0.000    0.000    0.000    0.000    0.000 
#
# Total GULP energy -346876.639157 kJ/mol
# GULP energy per Si atom -12388.451398 kJ/mol
# Density = 1.971550 g / cm^3
# Si number density = 19.760473 Si / 1000 Ang^3
#
#
#
# Elastic Constant Matrix: (Units=GPa)
#
#
# Indices 1 2 3 4 5 6 
#
# 1 56.7474 45.4179 33.9475 0.0000 0.0000 0.0000
# 2 45.4179 137.8392 48.9069 0.0000 0.0000 0.0000
# 3 33.9475 48.9069 82.0296 0.0000 0.0000 0.0000
# 4 0.0000 0.0000 0.0000 34.8759 0.0000 0.0000
# 5 0.0000 0.0000 0.0000 0.0000 27.3866 0.0000
# 6 0.0000 0.0000 0.0000 0.0000 0.0000 15.2870
#
#
#
# Elastic Compliance Matrix: (Units=1/GPa)
#
#
# Indices 1 2 3 4 5 6 
#
# 1 0.027126 -0.006284 -0.007479 0.000000 0.000000 0.000000
# 2 -0.006284 0.010657 -0.003753 0.000000 0.000000 0.000000
# 3 -0.007479 -0.003753 0.017524 0.000000 0.000000 0.000000
# 4 0.000000 0.000000 0.000000 0.028673 0.000000 0.000000
# 5 0.000000 0.000000 0.000000 0.000000 0.036514 0.000000
# 6 0.000000 0.000000 0.000000 0.000000 0.000000 0.065415
#
#
# Mechanical properties :
#
#
# Convention : Reuss Voigt Hill
#
# Bulk Modulus (GPa) = 49.32574 59.24008 54.28291
# Shear Modulus (GPa) = 21.95875 25.39950 23.67912
#
# Velocity S-wave (km/s) = 3.33715 3.58909 3.46541
# Velocity P-wave (km/s) = 6.31386 6.87165 6.59865
#
# Compressibility (1/GPa) = 0.02027339
#
# Stress axis : x y z
#
# Youngs Moduli (GPa) = 36.86538 93.83365 57.06587
#
# Poissons Ratio (x) = 0.58967 0.42680
# Poissons Ratio (y) = 0.23167 0.21418
# Poissons Ratio (z) = 0.27572 0.35218
#
# Static dielectric constant tensor:
#      x y z
#    x 3.395870 0.000000 0.000000 
#    y 0.000000 3.754470 0.000000 
#    z 0.000000 0.000000 3.696030 
# 
# 
# High freq. dielectric constant tensor:
#      x y z
#    x 1.754880 0.000000 0.000000 
#    y 0.000000 1.765900 0.000000 
#    z 0.000000 0.000000 1.761820 
# 
# From -- ./inp_files/8998.got.cif
#   From: 2010.03.12/outbox.cif.g09.slc.cpg/sg44_5_cif.got.tgz:8998.got - 2010.04.14 02:36:11.
