data_PCOD8188204
_publ_section_title
;
Structure prediction by ZEFSAII (Michael W. Deem and Ramdas Pophale) SiO2 
 PCOD8188204
Probable space group: I M M 2
;
_chemical_formula_sum "Si O2"
_cell_formula_units_Z 64
_cell_length_a 22.460485
_cell_length_b 18.725220
_cell_length_c 9.301244
_cell_angle_alpha 90.000000
_cell_angle_beta 90.000000
_cell_angle_gamma 90.000000
_cell_volume 3911.894162
_symmetry_space_group_name_H-M "I M M 2"
_symmetry_group_IT_number 44
_symmetry_cell_setting 'orthorhombic'
loop_
_space_group_symop_operation_xyz
x,y,z
-x,-y,z
-x,y,z
x,-y,z
1/2+x,1/2+y,1/2+z
1/2-x,1/2-y,1/2+z
1/2-x,1/2+y,1/2+z
1/2+x,1/2-y,1/2+z
loop_
_atom_site_type_symbol
_atom_site_label
_atom_site_fract_x
_atom_site_fract_y
_atom_site_fract_z
Si Si1 0.637028 0.581948 0.463140
Si Si2 0.159943 0.863705 0.269513
Si Si3 0.823400 0.725464 0.732273
Si Si4 0.734224 0.076332 0.899725
Si Si5 0.290406 0.770300 0.899874
Si Si6 0.568580 0.326504 0.254634
Si Si7 0.067301 0.079821 0.482214
Si Si8 0.783117 0.422788 0.735290
O O1 0.622151 0.500000 0.505635
O O2 0.647910 0.631597 0.601113
O O3 0.695687 0.585499 0.360691
O O4 0.581649 0.616516 0.379662
O O5 0.162921 0.780226 0.316601
O O6 0.107357 0.905327 0.345501
O O7 0.222223 0.900295 0.316152
O O8 0.777260 0.754333 0.851299
O O9 0.797169 0.740171 0.572059
O O10 0.888123 0.758283 0.761103
O O11 0.831668 0.639846 0.756173
O O12 0.696682 0.146489 0.853368
O O13 0.710298 0.000000 0.833659
O O14 0.733401 0.068935 0.070143
O O15 0.500000 0.301375 0.266784
O O16 0.582525 0.364381 0.105118
O O17 0.000000 0.088707 0.428919
O O18 0.078760 0.000000 0.541308
O O19 0.805905 0.500000 0.794756
#
# Coordination Sequence:
#
# PCOD8188204 Si02
#       8
#     8   8   8   8   8   8   8   8
#     4  10  19  32  49  67  92 133 179 212 242 288
#     4  10  18  30  50  74  98 126 166 212 252 295
#     4  10  19  32  51  76  98 131 167 205 255 303
#     4   8  14  26  44  68  97 124 155 196 243 295
#     4  10  18  30  51  75  99 128 166 205 255 303
#     4  11  22  35  48  68 101 137 174 209 249 299
#     4  10  20  33  47  65  96 134 167 200 243 295
#     4   8  15  27  47  72  97 123 153 197 252 299
#
# _framework density 16.360361000000001
#
# number of rings (size 3 to 8) (size 9 to 14) (size 15 to 20)
#    0.000    2.375    2.500    3.000    0.000    1.250 
#    0.000    0.000    0.000    0.375    0.000    0.000 
#    0.000    0.500    0.000    0.000    0.000    0.000 
#
# Total GULP energy -396493.210590 kJ/mol
# GULP energy per Si atom -12390.412831 kJ/mol
# Density = 1.632312 g / cm^3
# Si number density = 16.360361 Si / 1000 Ang^3
#
#
#
# Elastic Constant Matrix: (Units=GPa)
#
#
# Indices 1 2 3 4 5 6 
#
# 1 71.9381 44.9188 23.5497 0.0000 0.0000 0.0000
# 2 44.9188 139.5625 29.3540 0.0000 0.0000 0.0000
# 3 23.5497 29.3540 44.7594 0.0000 0.0000 0.0000
# 4 0.0000 0.0000 0.0000 19.5056 0.0000 0.0000
# 5 0.0000 0.0000 0.0000 0.0000 20.4240 0.0000
# 6 0.0000 0.0000 0.0000 0.0000 0.0000 22.8881
#
#
#
# Elastic Compliance Matrix: (Units=1/GPa)
#
#
# Indices 1 2 3 4 5 6 
#
# 1 0.019111 -0.004682 -0.006984 0.000000 0.000000 0.000000
# 2 -0.004682 0.009459 -0.003740 0.000000 0.000000 0.000000
# 3 -0.006984 -0.003740 0.028469 0.000000 0.000000 0.000000
# 4 0.000000 0.000000 0.000000 0.051267 0.000000 0.000000
# 5 0.000000 0.000000 0.000000 0.000000 0.048962 0.000000
# 6 0.000000 0.000000 0.000000 0.000000 0.000000 0.043691
#
#
# Mechanical properties :
#
#
# Convention : Reuss Voigt Hill
#
# Bulk Modulus (GPa) = 38.12983 50.21168 44.17075
# Shear Modulus (GPa) = 20.78888 23.12604 21.95746
#
# Velocity S-wave (km/s) = 3.56854 3.76379 3.66746
# Velocity P-wave (km/s) = 6.35107 7.04598 6.70753
#
# Compressibility (1/GPa) = 0.02622619
#
# Stress axis : x y z
#
# Youngs Moduli (GPa) = 52.32686 105.72247 35.12567
#
# Poissons Ratio (x) = 0.49497 0.24533
# Poissons Ratio (y) = 0.24498 0.13137
# Poissons Ratio (z) = 0.36548 0.39539
#
# Static dielectric constant tensor:
#      x y z
#    x 2.823170 0.000000 0.000000 
#    y 0.000000 3.537320 0.000000 
#    z 0.000000 0.000000 2.887760 
# 
# 
# High freq. dielectric constant tensor:
#      x y z
#    x 1.589130 0.000000 0.000000 
#    y 0.000000 1.643600 0.000000 
#    z 0.000000 0.000000 1.610810 
# 
# From -- ./inp_files/9516.got.cif
#   From: 2010.03.12/outbox.cif.g09.slc.cpg/sg44_5_cif.got.tgz:9516.got - 2010.04.14 02:36:11.
