data_PCOD8188021
_publ_section_title
;
Structure prediction by ZEFSAII (Michael W. Deem and Ramdas Pophale) SiO2 
 PCOD8188021
Probable space group: I M M 2
;
_chemical_formula_sum "Si O2"
_cell_formula_units_Z 56
_cell_length_a 8.939386
_cell_length_b 18.558313
_cell_length_c 20.921005
_cell_angle_alpha 90.000000
_cell_angle_beta 90.000000
_cell_angle_gamma 90.000000
_cell_volume 3470.793127
_symmetry_space_group_name_H-M "I M M 2"
_symmetry_group_IT_number 44
_symmetry_cell_setting 'orthorhombic'
loop_
_space_group_symop_operation_xyz
x,y,z
-x,-y,z
-x,y,z
x,-y,z
1/2+x,1/2+y,1/2+z
1/2-x,1/2-y,1/2+z
1/2-x,1/2+y,1/2+z
1/2+x,1/2-y,1/2+z
loop_
_atom_site_type_symbol
_atom_site_label
_atom_site_fract_x
_atom_site_fract_y
_atom_site_fract_z
Si Si1 0.823149 0.580977 0.179070
Si Si2 0.175353 0.710858 0.492062
Si Si3 0.677590 0.837779 0.553848
Si Si4 0.825693 0.578380 0.928475
Si Si5 0.170171 0.147471 0.798602
Si Si6 0.675194 0.581738 0.435704
Si Si7 0.671895 0.779307 0.374100
O O1 0.756315 0.500000 0.178662
O O2 0.761621 0.624568 0.118067
O O3 0.778085 0.622057 0.243092
O O4 0.000000 0.577282 0.175954
O O5 0.249917 0.758148 0.548664
O O6 0.240450 0.629640 0.489087
O O7 0.213325 0.747778 0.424952
O O8 0.000000 0.707424 0.503800
O O9 0.500000 0.829122 0.554365
O O10 0.733384 0.886924 0.494517
O O11 0.748904 0.500000 0.915712
O O12 0.794655 0.634495 0.869484
O O13 0.000000 0.565308 0.936204
O O14 0.214673 0.107229 0.863953
O O15 0.191442 0.234516 0.808366
O O16 0.000000 0.129199 0.779485
O O17 0.500000 0.589651 0.447930
O O18 0.730220 0.500000 0.443941
O O19 0.500000 0.768055 0.399126
#
# Coordination Sequence:
#
# PCOD8188021 Si02
#       7
#     8   8   8   8   8   8   8
#     4  10  20  31  44  64  87 113 148 186 218 249
#     4  10  18  27  42  64  87 110 140 179 218 253
#     4   9  17  30  44  58  83 116 145 172 208 261
#     4   8  12  21  42  66  81  99 134 178 215 247
#     4   9  17  29  43  60  86 119 149 175 208 254
#     4   9  17  30  47  65  87 117 148 175 211 262
#     4   8  15  28  43  59  83 115 146 174 211 264
#
# _framework density 16.134640999999998
#
# number of rings (size 3 to 8) (size 9 to 14) (size 15 to 20)
#    0.000    3.000    0.000    3.857    0.000    5.714 
#    0.000    0.000    0.000   10.286    0.000    1.000 
#    0.000    3.429    0.000    0.000    0.000    0.000 
#
# Total GULP energy -346919.202682 kJ/mol
# GULP energy per Si atom -12389.971524 kJ/mol
# Density = 1.609792 g / cm^3
# Si number density = 16.134641 Si / 1000 Ang^3
#
#
#
# Elastic Constant Matrix: (Units=GPa)
#
#
# Indices 1 2 3 4 5 6 
#
# 1 37.2014 32.0479 20.0313 0.0000 0.0000 0.0000
# 2 32.0479 164.7433 59.1337 0.0000 0.0000 0.0000
# 3 20.0313 59.1337 65.8041 0.0000 0.0000 0.0000
# 4 0.0000 0.0000 0.0000 25.3713 0.0000 0.0000
# 5 0.0000 0.0000 0.0000 0.0000 20.0597 0.0000
# 6 0.0000 0.0000 0.0000 0.0000 0.0000 14.6136
#
#
#
# Elastic Compliance Matrix: (Units=1/GPa)
#
#
# Indices 1 2 3 4 5 6 
#
# 1 0.034088 -0.004291 -0.006521 0.000000 0.000000 0.000000
# 2 -0.004291 0.009500 -0.007231 0.000000 0.000000 0.000000
# 3 -0.006521 -0.007231 0.023680 0.000000 0.000000 0.000000
# 4 0.000000 0.000000 0.000000 0.039415 0.000000 0.000000
# 5 0.000000 0.000000 0.000000 0.000000 0.049851 0.000000
# 6 0.000000 0.000000 0.000000 0.000000 0.000000 0.068430
#
#
# Mechanical properties :
#
#
# Convention : Reuss Voigt Hill
#
# Bulk Modulus (GPa) = 32.06907 54.46384 43.26646
# Shear Modulus (GPa) = 18.42004 22.44466 20.43235
#
# Velocity S-wave (km/s) = 3.38249 3.73377 3.56246
# Velocity P-wave (km/s) = 5.93077 7.23997 6.61783
#
# Compressibility (1/GPa) = 0.03118269
#
# Stress axis : x y z
#
# Youngs Moduli (GPa) = 29.33570 105.25991 42.23001
#
# Poissons Ratio (x) = 0.45162 0.27538
# Poissons Ratio (y) = 0.12587 0.30537
# Poissons Ratio (z) = 0.19130 0.76115
#
# Static dielectric constant tensor:
#      x y z
#    x 2.776900 0.000000 0.000000 
#    y 0.000000 3.604090 0.000000 
#    z 0.000000 0.000000 2.791400 
# 
# 
# High freq. dielectric constant tensor:
#      x y z
#    x 1.598460 0.000000 0.000000 
#    y 0.000000 1.634190 0.000000 
#    z 0.000000 0.000000 1.573720 
# 
# From -- ./inp_files/22256.got.cif
#   From: 2010.03.12/outbox.cif.g09.slc.cpg/sg44_12_cif.got.tgz:22256.got - 2010.04.14 02:36:11.
