data_PCOD8188820
_publ_section_title
;
Structure prediction by ZEFSAII (Michael W. Deem and Ramdas Pophale) SiO2 
 PCOD8188820
Probable space group: I M M 2
;
_chemical_formula_sum "Si O2"
_cell_formula_units_Z 48
_cell_length_a 8.956501
_cell_length_b 7.901985
_cell_length_c 34.470699
_cell_angle_alpha 90.000000
_cell_angle_beta 90.000000
_cell_angle_gamma 90.000000
_cell_volume 2439.633958
_symmetry_space_group_name_H-M "I M M 2"
_symmetry_group_IT_number 44
_symmetry_cell_setting 'orthorhombic'
loop_
_space_group_symop_operation_xyz
x,y,z
-x,-y,z
-x,y,z
x,-y,z
1/2+x,1/2+y,1/2+z
1/2-x,1/2-y,1/2+z
1/2-x,1/2+y,1/2+z
1/2+x,1/2-y,1/2+z
loop_
_atom_site_type_symbol
_atom_site_label
_atom_site_fract_x
_atom_site_fract_y
_atom_site_fract_z
Si Si1 0.321754 0.804698 0.824300
Si Si2 0.833949 0.302563 0.238707
Si Si3 0.828287 0.191560 0.158608
Si Si4 0.823084 0.313167 0.505654
Si Si5 0.835244 0.808235 0.585733
Si Si6 0.821945 0.500000 0.870783
Si Si7 0.678452 0.500000 0.954153
O O1 0.500000 0.779811 0.826626
O O2 0.259852 0.765797 0.780626
O O3 0.240287 0.672167 0.851887
O O4 0.282910 0.000000 0.835729
O O5 0.839129 0.500000 0.230997
O O6 0.751728 0.220008 0.201191
O O7 0.000000 0.225635 0.240980
O O8 0.757482 0.303753 0.125166
O O9 0.000000 0.246443 0.162036
O O10 0.807245 0.000000 0.145479
O O11 0.776018 0.500000 0.490213
O O12 0.759385 0.290677 0.549524
O O13 0.000000 0.294997 0.508697
O O14 0.765477 0.167908 0.476764
O O15 0.000000 0.734493 0.594658
O O16 0.846428 0.000000 0.571500
O O17 0.766885 0.500000 0.914456
O O18 0.000000 0.500000 0.868313
O O19 0.500000 0.500000 0.947141
#
# Coordination Sequence:
#
# PCOD8188820 Si02
#       7
#     8   8   8   8   8   4   4
#     4   9  19  38  65  91 112 147 202 254 293 338
#     4   8  15  30  53  79 105 136 182 238 289 327
#     4  10  20  31  47  77 112 146 184 229 279 332
#     4   9  17  32  57  84 108 137 179 236 290 328
#     4  10  19  33  53  77 107 145 187 230 278 331
#     4  12  26  40  58  88 126 162 188 228 302 376
#     4  10  20  38  60  84 108 140 194 246 280 338
#
# _framework density 19.675082
#
# number of rings (size 3 to 8) (size 9 to 14) (size 15 to 20)
#    0.000    2.500    0.833    2.750    1.167    3.000 
#    0.000    3.333    0.000    2.000    0.000    0.000 
#    0.000    0.000    0.000    0.000    0.000    0.000 
#
# Total GULP energy -297381.942926 kJ/mol
# GULP energy per Si atom -12390.914289 kJ/mol
# Density = 1.963030 g / cm^3
# Si number density = 19.675082 Si / 1000 Ang^3
#
#
#
# Elastic Constant Matrix: (Units=GPa)
#
#
# Indices 1 2 3 4 5 6 
#
# 1 46.4454 32.8167 39.5467 0.0000 0.0000 0.0000
# 2 32.8167 123.4874 76.6715 0.0000 0.0000 0.0000
# 3 39.5467 76.6715 161.4259 0.0000 0.0000 0.0000
# 4 0.0000 0.0000 0.0000 29.8475 0.0000 0.0000
# 5 0.0000 0.0000 0.0000 0.0000 23.3391 0.0000
# 6 0.0000 0.0000 0.0000 0.0000 0.0000 16.8550
#
#
#
# Elastic Compliance Matrix: (Units=1/GPa)
#
#
# Indices 1 2 3 4 5 6 
#
# 1 0.028989 -0.004672 -0.004883 0.000000 0.000000 0.000000
# 2 -0.004672 0.012238 -0.004668 0.000000 0.000000 0.000000
# 3 -0.004883 -0.004668 0.009608 0.000000 0.000000 0.000000
# 4 0.000000 0.000000 0.000000 0.033504 0.000000 0.000000
# 5 0.000000 0.000000 0.000000 0.000000 0.042847 0.000000
# 6 0.000000 0.000000 0.000000 0.000000 0.000000 0.059330
#
#
# Mechanical properties :
#
#
# Convention : Reuss Voigt Hill
#
# Bulk Modulus (GPa) = 44.66387 69.93650 57.30019
# Shear Modulus (GPa) = 22.47954 26.16323 24.32138
#
# Velocity S-wave (km/s) = 3.38381 3.65055 3.51971
# Velocity P-wave (km/s) = 6.16579 7.30695 6.76049
#
# Compressibility (1/GPa) = 0.02238946
#
# Stress axis : x y z
#
# Youngs Moduli (GPa) = 34.49529 81.71333 104.07890
#
# Poissons Ratio (x) = 0.38179 0.50819
# Poissons Ratio (y) = 0.16117 0.48583
# Poissons Ratio (z) = 0.16843 0.38143
#
# Static dielectric constant tensor:
#      x y z
#    x 3.077590 0.000000 0.000000 
#    y 0.000000 3.659050 0.000000 
#    z 0.000000 0.000000 3.701840 
# 
# 
# High freq. dielectric constant tensor:
#      x y z
#    x 1.703790 0.000000 0.000000 
#    y 0.000000 1.778230 0.000000 
#    z 0.000000 0.000000 1.778640 
# 
# From -- ./inp_files/26901.got.cif
#   From: 2010.03.12/outbox.cif.g09.slc.cpg/sg44_14_cif.got.tgz:26901.got - 2010.04.14 02:36:11.
