data_PCOD8188394
_publ_section_title
;
Structure prediction by ZEFSAII (Michael W. Deem and Ramdas Pophale) SiO2 
 PCOD8188394
Probable space group: I M M 2
;
_chemical_formula_sum "Si O2"
_cell_formula_units_Z 46
_cell_length_a 11.226847
_cell_length_b 12.159835
_cell_length_c 18.408009
_cell_angle_alpha 90.000000
_cell_angle_beta 90.000000
_cell_angle_gamma 90.000000
_cell_volume 2512.998932
_symmetry_space_group_name_H-M "I M M 2"
_symmetry_group_IT_number 44
_symmetry_cell_setting 'orthorhombic'
loop_
_space_group_symop_operation_xyz
x,y,z
-x,-y,z
-x,y,z
x,-y,z
1/2+x,1/2+y,1/2+z
1/2-x,1/2-y,1/2+z
1/2-x,1/2+y,1/2+z
1/2+x,1/2-y,1/2+z
loop_
_atom_site_type_symbol
_atom_site_label
_atom_site_fract_x
_atom_site_fract_y
_atom_site_fract_z
Si Si1 0.638723 0.813600 0.720790
Si Si2 0.130028 0.628187 0.505250
Si Si3 0.224391 0.127933 0.866269
Si Si4 0.000000 0.500000 0.976870
Si Si5 0.257399 0.874479 0.146846
Si Si6 0.000000 0.377482 0.730236
Si Si7 0.000000 0.724857 0.881972
Si Si8 0.631161 0.000000 0.618642
O O1 0.500000 0.828963 0.741847
O O2 0.723076 0.835092 0.789370
O O3 0.656895 0.690888 0.690903
O O4 0.687825 0.890975 0.654622
O O5 0.115827 0.500000 0.522501
O O6 0.171519 0.648704 0.423712
O O7 0.226583 0.671304 0.564282
O O8 0.000000 0.684886 0.513860
O O9 0.116135 0.201707 0.896144
O O10 0.185190 0.000000 0.863288
O O11 0.000000 0.611592 0.929108
O O12 0.881424 0.500000 0.029912
O O13 0.385447 0.855859 0.182143
O O14 0.214378 0.000000 0.149311
O O15 0.000000 0.500000 0.762359
O O16 0.000000 0.296025 0.796958
O O17 0.500000 0.000000 0.653105
#
# Coordination Sequence:
#
# PCOD8188394 Si02
#       8
#     8   8   8   2   8   4   4   4
#     4  11  21  36  60  84 116 155 201 243 298 363
#     4   9  18  34  56  82 111 148 191 238 295 354
#     4  11  23  37  57  87 120 151 190 252 307 361
#     4  10  24  42  60  82 120 160 204 246 282 370
#     4  10  20  35  58  85 115 148 193 251 296 357
#     4  10  18  35  57  81 110 144 195 233 287 349
#     4  12  23  38  59  88 115 159 191 243 302 357
#     4   8  20  38  58  81 106 156 200 239 273 352
#
# _framework density 18.304822000000001
#
# number of rings (size 3 to 8) (size 9 to 14) (size 15 to 20)
#    0.261    1.565    3.913    0.783    2.435    1.043 
#    0.000    0.000    0.000    0.000    0.000    1.217 
#    0.000    0.000    0.000    0.000    0.000    0.000 
#
# Total GULP energy -284954.298275 kJ/mol
# GULP energy per Si atom -12389.317316 kJ/mol
# Density = 1.826316 g / cm^3
# Si number density = 18.304822 Si / 1000 Ang^3
#
#
#
# Elastic Constant Matrix: (Units=GPa)
#
#
# Indices 1 2 3 4 5 6 
#
# 1 63.4250 35.3642 20.3642 0.0000 0.0000 0.0000
# 2 35.3642 99.2455 48.4060 0.0000 0.0000 0.0000
# 3 20.3642 48.4060 109.0293 0.0000 0.0000 0.0000
# 4 0.0000 0.0000 0.0000 25.7163 0.0000 0.0000
# 5 0.0000 0.0000 0.0000 0.0000 61.5219 0.0000
# 6 0.0000 0.0000 0.0000 0.0000 0.0000 31.3679
#
#
#
# Elastic Compliance Matrix: (Units=1/GPa)
#
#
# Indices 1 2 3 4 5 6 
#
# 1 0.019720 -0.006676 -0.000719 0.000000 0.000000 0.000000
# 2 -0.006676 0.015121 -0.005466 0.000000 0.000000 0.000000
# 3 -0.000719 -0.005466 0.011733 0.000000 0.000000 0.000000
# 4 0.000000 0.000000 0.000000 0.038886 0.000000 0.000000
# 5 0.000000 0.000000 0.000000 0.000000 0.016254 0.000000
# 6 0.000000 0.000000 0.000000 0.000000 0.000000 0.031880
#
#
# Mechanical properties :
#
#
# Convention : Reuss Voigt Hill
#
# Bulk Modulus (GPa) = 47.95985 53.32985 50.64485
# Shear Modulus (GPa) = 30.07195 34.89223 32.48209
#
# Velocity S-wave (km/s) = 4.05760 4.37072 4.21706
# Velocity P-wave (km/s) = 6.94332 7.39381 7.17210
#
# Compressibility (1/GPa) = 0.02085077
#
# Stress axis : x y z
#
# Youngs Moduli (GPa) = 50.71003 66.13284 85.22875
#
# Poissons Ratio (x) = 0.44150 0.06130
# Poissons Ratio (y) = 0.33854 0.46590
# Poissons Ratio (z) = 0.03647 0.36151
#
# Static dielectric constant tensor:
#      x y z
#    x 3.131730 0.000000 0.000000 
#    y 0.000000 3.343160 0.000000 
#    z 0.000000 0.000000 3.409360 
# 
# 
# High freq. dielectric constant tensor:
#      x y z
#    x 1.691750 0.000000 0.000000 
#    y 0.000000 1.695220 0.000000 
#    z 0.000000 0.000000 1.722970 
# 
# From -- ./inp_files/21280.got.cif
#   From: 2010.03.12/outbox.cif.g09.slc.cpg/sg44_11_cif.got.tgz:21280.got - 2010.04.14 02:36:11.
