data_PCOD8188909
_publ_section_title
;
Structure prediction by ZEFSAII (Michael W. Deem and Ramdas Pophale) SiO2 
 PCOD8188909
Probable space group: I M M 2
;
_chemical_formula_sum "Si O2"
_cell_formula_units_Z 64
_cell_length_a 18.448923
_cell_length_b 26.577121
_cell_length_c 6.611645
_cell_angle_alpha 90.000000
_cell_angle_beta 90.000000
_cell_angle_gamma 90.000000
_cell_volume 3241.816876
_symmetry_space_group_name_H-M "I M M 2"
_symmetry_group_IT_number 44
_symmetry_cell_setting 'orthorhombic'
loop_
_space_group_symop_operation_xyz
x,y,z
-x,-y,z
-x,y,z
x,-y,z
1/2+x,1/2+y,1/2+z
1/2-x,1/2-y,1/2+z
1/2-x,1/2+y,1/2+z
1/2+x,1/2-y,1/2+z
loop_
_atom_site_type_symbol
_atom_site_label
_atom_site_fract_x
_atom_site_fract_y
_atom_site_fract_z
Si Si1 0.922278 0.055601 0.186410
Si Si2 0.319665 0.866443 0.097436
Si Si3 0.676157 0.443624 0.042352
Si Si4 0.706070 0.685617 0.337804
Si Si5 0.661750 0.058494 0.441388
Si Si6 0.585961 0.140724 0.710780
Si Si7 0.579172 0.623955 0.312127
Si Si8 0.193347 0.703310 0.980182
O O1 0.853872 0.070344 0.321768
O O2 0.000000 0.054750 0.306811
O O3 0.909374 0.000000 0.089857
O O4 0.931231 0.098666 0.025223
O O5 0.327185 0.920003 0.213279
O O6 0.319477 0.823018 0.266126
O O7 0.245745 0.858050 0.970551
O O8 0.387459 0.863744 0.943048
O O9 0.652577 0.500000 0.095920
O O10 0.761881 0.436930 0.055675
O O11 0.637898 0.408068 0.196707
O O12 0.619166 0.677424 0.332539
O O13 0.713328 0.738932 0.447043
O O14 0.738481 0.682640 0.110369
O O15 0.606203 0.091408 0.575363
O O16 0.636400 0.000000 0.427569
O O17 0.500000 0.146889 0.710937
O O18 0.621642 0.191262 0.614509
O O19 0.500000 0.630543 0.207602
#
# Coordination Sequence:
#
# PCOD8188909 Si02
#       8
#     8   8   8   8   8   8   8   8
#     4   9  18  32  50  75 111 156 195 225 269 333
#     4  10  20  38  64  90 118 158 201 257 310 367
#     4  10  19  34  55  78 110 152 194 234 278 333
#     4  11  21  38  62  88 116 154 200 250 304 363
#     4  10  22  39  62  92 121 157 208 260 309 367
#     4  10  23  41  61  90 124 161 202 250 313 385
#     4  11  22  33  50  81 116 147 183 232 288 339
#     4  10  21  39  67  89 113 153 202 250 306 371
#
# _framework density 19.742014999999999
#
# number of rings (size 3 to 8) (size 9 to 14) (size 15 to 20)
#    0.000    1.875    1.250    3.750    0.000    4.500 
#    0.000    3.125    0.000    0.000    0.000    0.000 
#    0.000    0.000    0.000    0.000    0.000    0.000 
#
# Total GULP energy -396462.029568 kJ/mol
# GULP energy per Si atom -12389.438424 kJ/mol
# Density = 1.969708 g / cm^3
# Si number density = 19.742015 Si / 1000 Ang^3
#
#
#
# Elastic Constant Matrix: (Units=GPa)
#
#
# Indices 1 2 3 4 5 6 
#
# 1 104.3793 11.6235 28.5165 0.0000 0.0000 0.0000
# 2 11.6235 54.2744 33.5177 0.0000 0.0000 0.0000
# 3 28.5165 33.5177 85.9415 0.0000 0.0000 0.0000
# 4 0.0000 0.0000 0.0000 30.4309 0.0000 0.0000
# 5 0.0000 0.0000 0.0000 0.0000 26.3382 0.0000
# 6 0.0000 0.0000 0.0000 0.0000 0.0000 24.2936
#
#
#
# Elastic Compliance Matrix: (Units=1/GPa)
#
#
# Indices 1 2 3 4 5 6 
#
# 1 0.010536 -0.000128 -0.003446 0.000000 0.000000 0.000000
# 2 -0.000128 0.024272 -0.009424 0.000000 0.000000 0.000000
# 3 -0.003446 -0.009424 0.016455 0.000000 0.000000 0.000000
# 4 0.000000 0.000000 0.000000 0.032861 0.000000 0.000000
# 5 0.000000 0.000000 0.000000 0.000000 0.037968 0.000000
# 6 0.000000 0.000000 0.000000 0.000000 0.000000 0.041163
#
#
# Mechanical properties :
#
#
# Convention : Reuss Voigt Hill
#
# Bulk Modulus (GPa) = 39.57763 43.54561 41.56162
# Shear Modulus (GPa) = 25.29430 27.60838 26.45134
#
# Velocity S-wave (km/s) = 3.58333 3.74365 3.66437
# Velocity P-wave (km/s) = 6.10010 6.38685 6.24512
#
# Compressibility (1/GPa) = 0.02526680
#
# Stress axis : x y z
#
# Youngs Moduli (GPa) = 94.91104 41.19965 60.77356
#
# Poissons Ratio (x) = 0.00529 0.20943
# Poissons Ratio (y) = 0.01218 0.57271
# Poissons Ratio (z) = 0.32706 0.38825
#
# Static dielectric constant tensor:
#      x y z
#    x 3.441220 0.000000 0.000000 
#    y 0.000000 3.638950 0.000000 
#    z 0.000000 0.000000 3.653700 
# 
# 
# High freq. dielectric constant tensor:
#      x y z
#    x 1.764530 0.000000 0.000000 
#    y 0.000000 1.763690 0.000000 
#    z 0.000000 0.000000 1.769210 
# 
# From -- ./inp_files/2163.got.cif
#   From: 2010.03.12/outbox.cif.g09.slc.cpg/sg44_2_cif.got.tgz:2163.got - 2010.04.14 02:36:11.
