data_PCOD8188815
_publ_section_title
;
Structure prediction by ZEFSAII (Michael W. Deem and Ramdas Pophale) SiO2 
 PCOD8188815
Probable space group: I M M 2
;
_chemical_formula_sum "Si O2"
_cell_formula_units_Z 56
_cell_length_a 18.992244
_cell_length_b 8.940569
_cell_length_c 17.436424
_cell_angle_alpha 90.000000
_cell_angle_beta 90.000000
_cell_angle_gamma 90.000000
_cell_volume 2960.730391
_symmetry_space_group_name_H-M "I M M 2"
_symmetry_group_IT_number 44
_symmetry_cell_setting 'orthorhombic'
loop_
_space_group_symop_operation_xyz
x,y,z
-x,-y,z
-x,y,z
x,-y,z
1/2+x,1/2+y,1/2+z
1/2-x,1/2-y,1/2+z
1/2-x,1/2+y,1/2+z
1/2+x,1/2-y,1/2+z
loop_
_atom_site_type_symbol
_atom_site_label
_atom_site_fract_x
_atom_site_fract_y
_atom_site_fract_z
Si Si1 0.159548 0.165516 0.459810
Si Si2 0.791238 0.665245 0.064123
Si Si3 0.305007 0.173572 0.806466
Si Si4 0.707611 0.177252 0.193864
Si Si5 0.923664 0.833190 0.043962
Si Si6 0.418786 0.676862 0.109386
Si Si7 0.922524 0.164928 0.224909
O O1 0.235129 0.155504 0.497714
O O2 0.166812 0.276838 0.389276
O O3 0.103467 0.226312 0.523084
O O4 0.136251 0.000000 0.431373
O O5 0.803167 0.500000 0.100129
O O6 0.766080 0.777513 0.130751
O O7 0.861384 0.721744 0.020489
O O8 0.234946 0.260071 0.776090
O O9 0.369583 0.205526 0.749589
O O10 0.286640 0.000000 0.808450
O O11 0.630904 0.243549 0.172365
O O12 0.701694 0.000000 0.197979
O O13 0.928412 0.833187 0.134661
O O14 0.000000 0.780468 0.010975
O O15 0.906924 0.000000 0.013300
O O16 0.500000 0.721833 0.124086
O O17 0.406415 0.500000 0.117749
O O18 0.000000 0.195717 0.260402
O O19 0.895602 0.000000 0.251953
#
# Coordination Sequence:
#
# PCOD8188815 Si02
#       7
#     8   8   8   8   8   8   8
#     4   9  20  36  53  76 108 144 178 214 269 331
#     4  10  19  33  53  77 102 132 175 222 263 311
#     4  12  23  34  51  78 109 142 184 228 270 316
#     4  11  21  34  55  79 107 143 181 224 272 322
#     4   9  17  29  48  74 102 134 168 202 248 305
#     4   9  19  38  62  86 112 143 182 228 277 331
#     4   9  18  32  49  71 102 139 172 203 248 306
#
# _framework density 18.914252000000001
#
# number of rings (size 3 to 8) (size 9 to 14) (size 15 to 20)
#    0.000    2.143    1.429    4.714    0.000    4.286 
#    0.000    2.857    0.000    0.857    0.000    4.000 
#    0.000    0.000    0.000    0.000    0.000    0.000 
#
# Total GULP energy -347025.461601 kJ/mol
# GULP energy per Si atom -12393.766486 kJ/mol
# Density = 1.887120 g / cm^3
# Si number density = 18.914252 Si / 1000 Ang^3
#
#
#
# Elastic Constant Matrix: (Units=GPa)
#
#
# Indices 1 2 3 4 5 6 
#
# 1 121.7463 43.3584 11.5580 0.0000 0.0000 0.0000
# 2 43.3584 106.4832 19.3513 0.0000 0.0000 0.0000
# 3 11.5580 19.3513 36.3161 0.0000 0.0000 0.0000
# 4 0.0000 0.0000 0.0000 22.5440 0.0000 0.0000
# 5 0.0000 0.0000 0.0000 0.0000 12.6360 0.0000
# 6 0.0000 0.0000 0.0000 0.0000 0.0000 31.8619
#
#
#
# Elastic Compliance Matrix: (Units=1/GPa)
#
#
# Indices 1 2 3 4 5 6 
#
# 1 0.009645 -0.003731 -0.001082 0.000000 0.000000 0.000000
# 2 -0.003731 0.011841 -0.005122 0.000000 0.000000 0.000000
# 3 -0.001082 -0.005122 0.030610 0.000000 0.000000 0.000000
# 4 0.000000 0.000000 0.000000 0.044358 0.000000 0.000000
# 5 0.000000 0.000000 0.000000 0.000000 0.079139 0.000000
# 6 0.000000 0.000000 0.000000 0.000000 0.000000 0.031385
#
#
# Mechanical properties :
#
#
# Convention : Reuss Voigt Hill
#
# Bulk Modulus (GPa) = 31.03036 45.89788 38.46412
# Shear Modulus (GPa) = 21.04469 26.09357 23.56913
#
# Velocity S-wave (km/s) = 3.33924 3.71829 3.53385
# Velocity P-wave (km/s) = 5.59543 6.53859 6.08531
#
# Compressibility (1/GPa) = 0.03222650
#
# Stress axis : x y z
#
# Youngs Moduli (GPa) = 103.67881 84.45124 32.66935
#
# Poissons Ratio (x) = 0.31507 0.03534
# Poissons Ratio (y) = 0.38680 0.16734
# Poissons Ratio (z) = 0.11215 0.43258
#
# Static dielectric constant tensor:
#      x y z
#    x 3.984310 0.000000 0.000000 
#    y 0.000000 3.543100 0.000000 
#    z 0.000000 0.000000 3.202990 
# 
# 
# High freq. dielectric constant tensor:
#      x y z
#    x 1.741730 0.000000 0.000000 
#    y 0.000000 1.730750 0.000000 
#    z 0.000000 0.000000 1.695160 
# 
# From -- ./inp_files/20695.got.cif
#   From: 2010.03.12/outbox.cif.g09.slc.cpg/sg44_11_cif.got.tgz:20695.got - 2010.04.14 02:36:11.
