data_PCOD8188012
_publ_section_title
;
Structure prediction by ZEFSAII (Michael W. Deem and Ramdas Pophale) SiO2 
 PCOD8188012
Probable space group: I M M 2
;
_chemical_formula_sum "Si O2"
_cell_formula_units_Z 64
_cell_length_a 8.834247
_cell_length_b 18.479848
_cell_length_c 26.265019
_cell_angle_alpha 90.000000
_cell_angle_beta 90.000000
_cell_angle_gamma 90.000000
_cell_volume 4287.909906
_symmetry_space_group_name_H-M "I M M 2"
_symmetry_group_IT_number 44
_symmetry_cell_setting 'orthorhombic'
loop_
_space_group_symop_operation_xyz
x,y,z
-x,-y,z
-x,y,z
x,-y,z
1/2+x,1/2+y,1/2+z
1/2-x,1/2-y,1/2+z
1/2-x,1/2+y,1/2+z
1/2+x,1/2-y,1/2+z
loop_
_atom_site_type_symbol
_atom_site_label
_atom_site_fract_x
_atom_site_fract_y
_atom_site_fract_z
Si Si1 0.824358 0.416617 0.834320
Si Si2 0.334668 0.208577 0.880854
Si Si3 0.680007 0.346479 0.929986
Si Si4 0.678281 0.664660 0.227966
Si Si5 0.824749 0.416607 0.139357
Si Si6 0.319046 0.918285 0.819741
Si Si7 0.832210 0.205273 0.276417
Si Si8 0.674137 0.917128 0.522650
O O1 0.797437 0.500000 0.820230
O O2 0.749112 0.401727 0.889161
O O3 0.754032 0.369609 0.788346
O O4 0.000000 0.397276 0.839080
O O5 0.500000 0.190823 0.903143
O O6 0.253759 0.264387 0.919857
O O7 0.255465 0.131666 0.866913
O O8 0.346737 0.250039 0.827747
O O9 0.500000 0.346333 0.922383
O O10 0.722007 0.367734 0.987058
O O11 0.500000 0.667543 0.234971
O O12 0.720850 0.636836 0.171922
O O13 0.747086 0.606538 0.266944
O O14 0.742765 0.745749 0.235479
O O15 0.778129 0.500000 0.148592
O O16 0.796917 0.395025 0.080792
O O17 0.000000 0.405800 0.154073
O O18 0.500000 0.909664 0.814934
O O19 0.270226 0.000000 0.831396
O O20 0.000000 0.187712 0.255026
O O21 0.500000 0.905247 0.507678
O O22 0.720557 0.000000 0.513884
#
# Coordination Sequence:
#
# PCOD8188012 Si02
#       8
#     8   8   8   8   8   8   8   8
#     4  10  19  29  42  62  88 114 140 172 209 247
#     4   7  13  25  38  55  77 101 132 168 201 235
#     4  10  18  27  41  59  82 113 144 172 206 250
#     4  11  20  28  41  61  85 110 136 169 210 251
#     4   9  18  32  46  58  77 108 142 174 211 254
#     4   9  16  27  43  59  78 109 145 174 201 239
#     4   9  17  30  45  59  79 108 142 174 202 241
#     4   9  18  31  44  58  78 105 139 179 216 247
#
# _framework density 14.925687999999999
#
# number of rings (size 3 to 8) (size 9 to 14) (size 15 to 20)
#    0.000    2.750    0.000    5.250    0.000    5.250 
#    0.000    1.875    0.000    0.000    0.000    0.000 
#    0.000    1.000    0.000    9.250    0.000    2.500 
#
# Total GULP energy -396549.368055 kJ/mol
# GULP energy per Si atom -12392.167752 kJ/mol
# Density = 1.489172 g / cm^3
# Si number density = 14.925688 Si / 1000 Ang^3
#
#
#
# Elastic Constant Matrix: (Units=GPa)
#
#
# Indices 1 2 3 4 5 6 
#
# 1 71.0386 41.1261 28.2839 0.0000 0.0000 0.0000
# 2 41.1261 103.9074 47.8379 0.0000 0.0000 0.0000
# 3 28.2839 47.8379 64.7510 0.0000 0.0000 0.0000
# 4 0.0000 0.0000 0.0000 26.4334 0.0000 0.0000
# 5 0.0000 0.0000 0.0000 0.0000 22.0332 0.0000
# 6 0.0000 0.0000 0.0000 0.0000 0.0000 20.9564
#
#
#
# Elastic Compliance Matrix: (Units=1/GPa)
#
#
# Indices 1 2 3 4 5 6 
#
# 1 0.018970 -0.005597 -0.004151 0.000000 0.000000 0.000000
# 2 -0.005597 0.016236 -0.009550 0.000000 0.000000 0.000000
# 3 -0.004151 -0.009550 0.024313 0.000000 0.000000 0.000000
# 4 0.000000 0.000000 0.000000 0.037831 0.000000 0.000000
# 5 0.000000 0.000000 0.000000 0.000000 0.045386 0.000000
# 6 0.000000 0.000000 0.000000 0.000000 0.000000 0.047718
#
#
# Mechanical properties :
#
#
# Convention : Reuss Voigt Hill
#
# Bulk Modulus (GPa) = 47.79720 52.68807 50.24263
# Shear Modulus (GPa) = 21.18420 22.04789 21.61604
#
# Velocity S-wave (km/s) = 3.77146 3.84758 3.80971
# Velocity P-wave (km/s) = 7.14550 7.42397 7.28607
#
# Compressibility (1/GPa) = 0.02092173
#
# Stress axis : x y z
#
# Youngs Moduli (GPa) = 52.71504 61.59096 41.13053
#
# Poissons Ratio (x) = 0.34473 0.17074
# Poissons Ratio (y) = 0.29505 0.39281
# Poissons Ratio (z) = 0.21883 0.58822
#
# Static dielectric constant tensor:
#      x y z
#    x 2.852980 0.000000 0.000000 
#    y 0.000000 3.111070 0.000000 
#    z 0.000000 0.000000 2.686730 
# 
# 
# High freq. dielectric constant tensor:
#      x y z
#    x 1.568900 0.000000 0.000000 
#    y 0.000000 1.565350 0.000000 
#    z 0.000000 0.000000 1.536430 
# 
# From -- ./inp_files/25227.got.cif
#   From: 2010.03.12/outbox.cif.g09.slc.cpg/sg44_13_cif.got.tgz:25227.got - 2010.04.14 02:36:11.
