data_PCOD8188470
_publ_section_title
;
Structure prediction by ZEFSAII (Michael W. Deem and Ramdas Pophale) SiO2 
 PCOD8188470
Probable space group: I M M 2
;
_chemical_formula_sum "Si O2"
_cell_formula_units_Z 56
_cell_length_a 7.914772
_cell_length_b 13.725404
_cell_length_c 31.836583
_cell_angle_alpha 90.000000
_cell_angle_beta 90.000000
_cell_angle_gamma 90.000000
_cell_volume 3458.517633
_symmetry_space_group_name_H-M "I M M 2"
_symmetry_group_IT_number 44
_symmetry_cell_setting 'orthorhombic'
loop_
_space_group_symop_operation_xyz
x,y,z
-x,-y,z
-x,y,z
x,-y,z
1/2+x,1/2+y,1/2+z
1/2-x,1/2-y,1/2+z
1/2-x,1/2+y,1/2+z
1/2+x,1/2-y,1/2+z
loop_
_atom_site_type_symbol
_atom_site_label
_atom_site_fract_x
_atom_site_fract_y
_atom_site_fract_z
Si Si1 0.189249 0.112607 0.398710
Si Si2 0.303280 0.205251 0.315916
Si Si3 0.311634 0.793105 0.684220
Si Si4 0.800443 0.390729 0.729807
Si Si5 0.000000 0.384439 0.954757
Si Si6 0.812036 0.887403 0.603847
Si Si7 0.303854 0.609209 0.266821
Si Si8 0.000000 0.384248 0.048566
O O1 0.196667 0.174627 0.356158
O O2 0.329707 0.151902 0.431338
O O3 0.000000 0.124920 0.417772
O O4 0.226418 0.000000 0.387771
O O5 0.500000 0.187983 0.325726
O O6 0.243666 0.140285 0.276467
O O7 0.262914 0.318459 0.305455
O O8 0.500000 0.804761 0.666792
O O9 0.278578 0.680287 0.695163
O O10 0.189153 0.827882 0.647262
O O11 0.294500 0.860229 0.725190
O O12 0.736470 0.500000 0.720816
O O13 0.000000 0.381731 0.726445
O O14 0.000000 0.500000 0.957240
O O15 0.000000 0.339801 0.001600
O O16 0.670331 0.847319 0.571730
O O17 0.000000 0.874847 0.584048
O O18 0.774850 0.000000 0.614429
O O19 0.500000 0.617785 0.255194
O O20 0.252211 0.500000 0.280355
O O21 0.000000 0.500000 0.046150
#
# Coordination Sequence:
#
# PCOD8188470 Si02
#       8
#     8   8   8   8   4   8   8   4
#     4  10  19  29  45  68  92 123 157 186 224 276
#     4   9  16  28  45  63  88 122 156 193 233 269
#     4  11  20  29  43  64  92 124 159 194 229 275
#     4   9  18  31  46  63  87 122 160 198 237 272
#     4   9  18  32  48  66  95 123 149 193 234 274
#     4  10  19  31  48  68  93 124 156 191 228 275
#     4   9  18  31  45  62  87 122 161 198 235 271
#     4   9  18  32  48  70  93 119 155 191 234 280
#
# _framework density 16.191907
#
# number of rings (size 3 to 8) (size 9 to 14) (size 15 to 20)
#    0.000    2.429    1.429    3.000    0.000    5.714 
#    0.000    2.857    0.000    0.000    0.000    0.000 
#    0.000    2.286    0.000    2.714    0.000    0.286 
#
# Total GULP energy -347151.726341 kJ/mol
# GULP energy per Si atom -12398.275941 kJ/mol
# Density = 1.615505 g / cm^3
# Si number density = 16.191907 Si / 1000 Ang^3
#
#
#
# Elastic Constant Matrix: (Units=GPa)
#
#
# Indices 1 2 3 4 5 6 
#
# 1 94.8960 25.4042 45.0048 0.0000 0.0000 0.0000
# 2 25.4042 84.1772 30.9372 0.0000 0.0000 0.0000
# 3 45.0048 30.9372 95.3473 0.0000 0.0000 0.0000
# 4 0.0000 0.0000 0.0000 15.0487 0.0000 0.0000
# 5 0.0000 0.0000 0.0000 0.0000 20.0707 0.0000
# 6 0.0000 0.0000 0.0000 0.0000 0.0000 15.1914
#
#
#
# Elastic Compliance Matrix: (Units=1/GPa)
#
#
# Indices 1 2 3 4 5 6 
#
# 1 0.013874 -0.002021 -0.005893 0.000000 0.000000 0.000000
# 2 -0.002021 0.013783 -0.003518 0.000000 0.000000 0.000000
# 3 -0.005893 -0.003518 0.014411 0.000000 0.000000 0.000000
# 4 0.000000 0.000000 0.000000 0.066451 0.000000 0.000000
# 5 0.000000 0.000000 0.000000 0.000000 0.049824 0.000000
# 6 0.000000 0.000000 0.000000 0.000000 0.000000 0.065827
#
#
# Mechanical properties :
#
#
# Convention : Reuss Voigt Hill
#
# Bulk Modulus (GPa) = 52.07439 53.01255 52.54347
# Shear Modulus (GPa) = 19.72904 21.60045 20.66474
#
# Velocity S-wave (km/s) = 3.49442 3.65640 3.57632
# Velocity P-wave (km/s) = 6.96504 7.11596 7.04091
#
# Compressibility (1/GPa) = 0.01920330
#
# Stress axis : x y z
#
# Youngs Moduli (GPa) = 72.07961 72.55501 69.39233
#
# Poissons Ratio (x) = 0.14665 0.40890
# Poissons Ratio (y) = 0.14569 0.24412
# Poissons Ratio (z) = 0.42474 0.25525
#
# Static dielectric constant tensor:
#      x y z
#    x 3.123200 0.000000 0.000000 
#    y 0.000000 2.993020 0.000000 
#    z 0.000000 0.000000 2.902670 
# 
# 
# High freq. dielectric constant tensor:
#      x y z
#    x 1.634870 0.000000 0.000000 
#    y 0.000000 1.591790 0.000000 
#    z 0.000000 0.000000 1.594530 
# 
# From -- ./inp_files/27245.got.cif
#   From: 2010.03.12/outbox.cif.g09.slc.cpg/sg44_14_cif.got.tgz:27245.got - 2010.04.14 02:36:11.
