data_PCOD8188222
_publ_section_title
;
Structure prediction by ZEFSAII (Michael W. Deem and Ramdas Pophale) SiO2 
 PCOD8188222
Probable space group: I M M 2
;
_chemical_formula_sum "Si O2"
_cell_formula_units_Z 32
_cell_length_a 9.015213
_cell_length_b 8.006481
_cell_length_c 23.796350
_cell_angle_alpha 90.000000
_cell_angle_beta 90.000000
_cell_angle_gamma 90.000000
_cell_volume 1717.623674
_symmetry_space_group_name_H-M "I M M 2"
_symmetry_group_IT_number 44
_symmetry_cell_setting 'orthorhombic'
loop_
_space_group_symop_operation_xyz
x,y,z
-x,-y,z
-x,y,z
x,-y,z
1/2+x,1/2+y,1/2+z
1/2-x,1/2-y,1/2+z
1/2-x,1/2+y,1/2+z
1/2+x,1/2-y,1/2+z
loop_
_atom_site_type_symbol
_atom_site_label
_atom_site_fract_x
_atom_site_fract_y
_atom_site_fract_z
Si Si1 0.176040 0.685117 0.827560
Si Si2 0.676242 0.000000 0.635005
Si Si3 0.835562 0.183816 0.545465
Si Si4 0.677189 0.500000 0.255551
Si Si5 0.835257 0.810342 0.943867
O O1 0.226024 0.500000 0.806194
O O2 0.234736 0.832566 0.787214
O O3 0.235156 0.709386 0.891432
O O4 0.000000 0.699375 0.829862
O O5 0.735995 0.166515 0.602244
O O6 0.743512 0.000000 0.696284
O O7 0.500000 0.000000 0.636995
O O8 0.763192 0.303900 0.499741
O O9 0.000000 0.251055 0.561312
O O10 0.846877 0.000000 0.517422
O O11 0.500000 0.500000 0.247851
O O12 0.000000 0.741987 0.958559
O O13 0.844557 0.000000 0.923367
#
# Coordination Sequence:
#
# PCOD8188222 Si02
#       5
#     8   4   8   4   8
#     4   9  17  30  52  82 113 147 185 225 273 328
#     4  10  20  36  58  78 102 144 189 234 287 338
#     4   9  19  34  52  77 105 140 183 226 279 334
#     4  10  18  34  56  80 112 146 191 234 267 332
#     4  10  18  30  51  82 116 148 187 232 275 329
#
# _framework density 18.630390999999999
#
# number of rings (size 3 to 8) (size 9 to 14) (size 15 to 20)
#    0.750    1.750    1.250    2.250    0.000    1.500 
#    0.000    2.500    0.000    6.750    0.000    0.000 
#    0.000    0.000    0.000    0.000    0.000    0.000 
#
# Total GULP energy -198232.317509 kJ/mol
# GULP energy per Si atom -12389.519844 kJ/mol
# Density = 1.858799 g / cm^3
# Si number density = 18.630391 Si / 1000 Ang^3
#
#
#
# Elastic Constant Matrix: (Units=GPa)
#
#
# Indices 1 2 3 4 5 6 
#
# 1 88.6088 21.9871 51.5257 0.0000 0.0000 0.0000
# 2 21.9871 101.5960 53.5387 0.0000 0.0000 0.0000
# 3 51.5257 53.5387 145.0954 0.0000 0.0000 0.0000
# 4 0.0000 0.0000 0.0000 30.1606 0.0000 0.0000
# 5 0.0000 0.0000 0.0000 0.0000 30.1567 0.0000
# 6 0.0000 0.0000 0.0000 0.0000 0.0000 13.9065
#
#
#
# Elastic Compliance Matrix: (Units=1/GPa)
#
#
# Indices 1 2 3 4 5 6 
#
# 1 0.014244 -0.000518 -0.004867 0.000000 0.000000 0.000000
# 2 -0.000518 0.012238 -0.004332 0.000000 0.000000 0.000000
# 3 -0.004867 -0.004332 0.010219 0.000000 0.000000 0.000000
# 4 0.000000 0.000000 0.000000 0.033156 0.000000 0.000000
# 5 0.000000 0.000000 0.000000 0.000000 0.033160 0.000000
# 6 0.000000 0.000000 0.000000 0.000000 0.000000 0.071909
#
#
# Mechanical properties :
#
#
# Convention : Reuss Voigt Hill
#
# Bulk Modulus (GPa) = 57.91309 65.48927 61.70118
# Shear Modulus (GPa) = 24.98561 28.72801 26.85681
#
# Velocity S-wave (km/s) = 3.66610 3.93109 3.80091
# Velocity P-wave (km/s) = 7.00523 7.47213 7.24244
#
# Compressibility (1/GPa) = 0.01726725
#
# Stress axis : x y z
#
# Youngs Moduli (GPa) = 70.20312 81.71496 97.85839
#
# Poissons Ratio (x) = 0.04231 0.47631
# Poissons Ratio (y) = 0.03635 0.42389
# Poissons Ratio (z) = 0.34170 0.35397
#
# Static dielectric constant tensor:
#      x y z
#    x 3.138050 0.000000 0.000000 
#    y 0.000000 3.368550 0.000000 
#    z 0.000000 0.000000 3.233080 
# 
# 
# High freq. dielectric constant tensor:
#      x y z
#    x 1.692760 0.000000 0.000000 
#    y 0.000000 1.710130 0.000000 
#    z 0.000000 0.000000 1.714650 
# 
# From -- ./inp_files/24557.got.cif
#   From: 2010.03.12/outbox.cif.g09.slc.cpg/sg44_13_cif.got.tgz:24557.got - 2010.04.14 02:36:11.
