data_PCOD8188893
_publ_section_title
;
Structure prediction by ZEFSAII (Michael W. Deem and Ramdas Pophale) SiO2 
 PCOD8188893
Probable space group: I M M 2
;
_chemical_formula_sum "Si O2"
_cell_formula_units_Z 40
_cell_length_a 9.182332
_cell_length_b 11.723070
_cell_length_c 20.359677
_cell_angle_alpha 90.000000
_cell_angle_beta 90.000000
_cell_angle_gamma 90.000000
_cell_volume 2191.619890
_symmetry_space_group_name_H-M "I M M 2"
_symmetry_group_IT_number 44
_symmetry_cell_setting 'orthorhombic'
loop_
_space_group_symop_operation_xyz
x,y,z
-x,-y,z
-x,y,z
x,-y,z
1/2+x,1/2+y,1/2+z
1/2-x,1/2-y,1/2+z
1/2-x,1/2+y,1/2+z
1/2+x,1/2-y,1/2+z
loop_
_atom_site_type_symbol
_atom_site_label
_atom_site_fract_x
_atom_site_fract_y
_atom_site_fract_z
Si Si1 0.331157 0.369925 0.330540
Si Si2 0.829291 0.627913 0.083099
Si Si3 0.171884 0.000000 0.380448
Si Si4 0.673627 0.250999 0.711476
Si Si5 0.328069 0.500000 0.734831
Si Si6 0.833103 0.704076 0.943882
O O1 0.500000 0.362071 0.310787
O O2 0.275878 0.500000 0.330289
O O3 0.239961 0.297116 0.278610
O O4 0.307079 0.321998 0.404691
O O5 0.765089 0.500000 0.071637
O O6 0.762216 0.681534 0.149462
O O7 0.000000 0.618460 0.093909
O O8 0.795454 0.712069 0.021646
O O9 0.225229 0.888219 0.415962
O O10 0.238322 0.000000 0.307669
O O11 0.000000 0.000000 0.380601
O O12 0.500000 0.241190 0.717760
O O13 0.722602 0.382958 0.699652
O O14 0.500000 0.500000 0.739730
O O15 0.000000 0.662767 0.935468
#
# Coordination Sequence:
#
# PCOD8188893 Si02
#       6
#     8   8   4   8   4   8
#     4  10  21  35  51  75 105 134 169 212 256 305
#     4   9  17  30  51  76  99 128 172 213 244 296
#     4  11  19  31  53  81 105 126 165 218 258 299
#     4  10  19  34  54  76 102 135 170 210 257 302
#     4   9  18  31  49  77 107 126 161 214 254 297
#     4  10  19  34  54  75 103 137 170 208 255 308
#
# _framework density 18.251339999999999
#
# number of rings (size 3 to 8) (size 9 to 14) (size 15 to 20)
#    0.000    2.200    3.000    0.900    0.000    1.200 
#    1.800    1.500    0.000    0.000    0.000    0.000 
#    0.000    0.000    0.000    0.000    0.000    0.000 
#
# Total GULP energy -247867.609032 kJ/mol
# GULP energy per Si atom -12393.380452 kJ/mol
# Density = 1.820980 g / cm^3
# Si number density = 18.251340 Si / 1000 Ang^3
#
#
#
# Elastic Constant Matrix: (Units=GPa)
#
#
# Indices 1 2 3 4 5 6 
#
# 1 30.5007 21.9417 18.4331 0.0000 0.0000 0.0000
# 2 21.9417 133.5711 60.1502 0.0000 0.0000 0.0000
# 3 18.4331 60.1502 134.0746 0.0000 0.0000 0.0000
# 4 0.0000 0.0000 0.0000 37.1791 0.0000 0.0000
# 5 0.0000 0.0000 0.0000 0.0000 20.8650 0.0000
# 6 0.0000 0.0000 0.0000 0.0000 0.0000 10.9151
#
#
#
# Elastic Compliance Matrix: (Units=1/GPa)
#
#
# Indices 1 2 3 4 5 6 
#
# 1 0.038149 -0.004894 -0.003050 0.000000 0.000000 0.000000
# 2 -0.004894 0.010010 -0.003818 0.000000 0.000000 0.000000
# 3 -0.003050 -0.003818 0.009591 0.000000 0.000000 0.000000
# 4 0.000000 0.000000 0.000000 0.026897 0.000000 0.000000
# 5 0.000000 0.000000 0.000000 0.000000 0.047927 0.000000
# 6 0.000000 0.000000 0.000000 0.000000 0.000000 0.091616
#
#
# Mechanical properties :
#
#
# Convention : Reuss Voigt Hill
#
# Bulk Modulus (GPa) = 29.21595 55.46625 42.34110
# Shear Modulus (GPa) = 19.29598 26.96661 23.13130
#
# Velocity S-wave (km/s) = 3.25504 3.84801 3.56388
# Velocity P-wave (km/s) = 5.49267 7.08514 6.33911
#
# Compressibility (1/GPa) = 0.03422787
#
# Stress axis : x y z
#
# Youngs Moduli (GPa) = 26.21273 99.90196 104.26818
#
# Poissons Ratio (x) = 0.48887 0.31797
# Poissons Ratio (y) = 0.12827 0.39809
# Poissons Ratio (z) = 0.07994 0.38142
#
# Static dielectric constant tensor:
#      x y z
#    x 3.036180 0.000000 0.000000 
#    y 0.000000 3.459160 0.000000 
#    z 0.000000 0.000000 3.564750 
# 
# 
# High freq. dielectric constant tensor:
#      x y z
#    x 1.670010 0.000000 0.000000 
#    y 0.000000 1.709880 0.000000 
#    z 0.000000 0.000000 1.711880 
# 
# From -- ./inp_files/22759.got.cif
#   From: 2010.03.12/outbox.cif.g09.slc.cpg/sg44_12_cif.got.tgz:22759.got - 2010.04.14 02:36:11.
