data_PCOD8188003
_publ_section_title
;
Structure prediction by ZEFSAII (Michael W. Deem and Ramdas Pophale) SiO2 
 PCOD8188003
Probable space group: I M M 2
;
_chemical_formula_sum "Si O2"
_cell_formula_units_Z 64
_cell_length_a 26.142936
_cell_length_b 9.184450
_cell_length_c 18.295327
_cell_angle_alpha 90.000000
_cell_angle_beta 90.000000
_cell_angle_gamma 90.000000
_cell_volume 4392.863313
_symmetry_space_group_name_H-M "I M M 2"
_symmetry_group_IT_number 44
_symmetry_cell_setting 'orthorhombic'
loop_
_space_group_symop_operation_xyz
x,y,z
-x,-y,z
-x,y,z
x,-y,z
1/2+x,1/2+y,1/2+z
1/2-x,1/2-y,1/2+z
1/2-x,1/2+y,1/2+z
1/2+x,1/2-y,1/2+z
loop_
_atom_site_type_symbol
_atom_site_label
_atom_site_fract_x
_atom_site_fract_y
_atom_site_fract_z
Si Si1 0.802345 0.169530 0.472310
Si Si2 0.203427 0.669267 0.891007
Si Si3 0.151123 0.330383 0.352235
Si Si4 0.138718 0.331578 0.016981
Si Si5 0.758912 0.333706 0.109683
Si Si6 0.440883 0.330306 0.609168
Si Si7 0.763414 0.828836 0.258375
Si Si8 0.057764 0.666992 0.254039
O O1 0.753904 0.233476 0.428463
O O2 0.848040 0.262283 0.434738
O O3 0.790601 0.197371 0.557850
O O4 0.813096 0.000000 0.457567
O O5 0.204508 0.500000 0.910265
O O6 0.210072 0.700365 0.804318
O O7 0.152656 0.725116 0.933761
O O8 0.165101 0.500000 0.355111
O O9 0.189101 0.252197 0.295366
O O10 0.093688 0.303947 0.323391
O O11 0.121993 0.500000 0.018531
O O12 0.188313 0.305141 0.067426
O O13 0.091413 0.235880 0.042936
O O14 0.757336 0.500000 0.137449
O O15 0.753934 0.225855 0.177163
O O16 0.500000 0.294896 0.593643
O O17 0.429868 0.500000 0.613733
O O18 0.422951 0.261268 0.685546
O O19 0.775767 0.000000 0.257571
O O20 0.061096 0.500000 0.228586
O O21 0.000000 0.710099 0.276663
#
# Coordination Sequence:
#
# PCOD8188003 Si02
#       8
#     8   8   8   8   8   8   8   8
#     4   8  15  28  42  55  77 106 130 157 196 236
#     4   7  13  26  40  54  73 100 131 159 188 224
#     4  10  18  27  41  59  78 102 135 170 198 229
#     4   9  16  28  44  56  72 103 138 164 189 226
#     4   9  17  28  41  59  82 106 133 164 194 227
#     4  10  20  30  39  56  81 103 127 164 202 231
#     4  10  18  27  40  58  82 109 133 159 195 236
#     4   9  18  31  43  55  75 105 137 165 194 228
#
# _framework density 14.569084999999999
#
# number of rings (size 3 to 8) (size 9 to 14) (size 15 to 20)
#    0.000    3.000    0.000    4.125    0.000    5.750 
#    0.000    5.625    0.000    0.000    0.000    0.000 
#    0.000    1.000    0.000    4.500    0.000    3.750 
#
# Total GULP energy -396442.434898 kJ/mol
# GULP energy per Si atom -12388.826091 kJ/mol
# Density = 1.453593 g / cm^3
# Si number density = 14.569085 Si / 1000 Ang^3
#
#
#
# Elastic Constant Matrix: (Units=GPa)
#
#
# Indices 1 2 3 4 5 6 
#
# 1 56.5291 35.2463 35.4662 0.0000 0.0000 0.0000
# 2 35.2463 71.5442 41.3853 0.0000 0.0000 0.0000
# 3 35.4662 41.3853 74.0249 0.0000 0.0000 0.0000
# 4 0.0000 0.0000 0.0000 24.0159 0.0000 0.0000
# 5 0.0000 0.0000 0.0000 0.0000 24.6038 0.0000
# 6 0.0000 0.0000 0.0000 0.0000 0.0000 18.8957
#
#
#
# Elastic Compliance Matrix: (Units=1/GPa)
#
#
# Indices 1 2 3 4 5 6 
#
# 1 0.028880 -0.009199 -0.008694 0.000000 0.000000 0.000000
# 2 -0.009199 0.023588 -0.008780 0.000000 0.000000 0.000000
# 3 -0.008694 -0.008780 0.022583 0.000000 0.000000 0.000000
# 4 0.000000 0.000000 0.000000 0.041639 0.000000 0.000000
# 5 0.000000 0.000000 0.000000 0.000000 0.040644 0.000000
# 6 0.000000 0.000000 0.000000 0.000000 0.000000 0.052922
#
#
# Mechanical properties :
#
#
# Convention : Reuss Voigt Hill
#
# Bulk Modulus (GPa) = 46.07149 47.36598 46.71873
# Shear Modulus (GPa) = 18.46125 19.50313 18.98219
#
# Velocity S-wave (km/s) = 3.56357 3.66275 3.61350
# Velocity P-wave (km/s) = 6.97305 7.10419 7.03893
#
# Compressibility (1/GPa) = 0.02170540
#
# Stress axis : x y z
#
# Youngs Moduli (GPa) = 34.62597 42.39424 44.28076
#
# Poissons Ratio (x) = 0.38997 0.38498
# Poissons Ratio (y) = 0.31851 0.38880
# Poissons Ratio (z) = 0.30104 0.37223
#
# Static dielectric constant tensor:
#      x y z
#    x 2.731170 0.000000 0.000000 
#    y 0.000000 2.816350 0.000000 
#    z 0.000000 0.000000 2.944520 
# 
# 
# High freq. dielectric constant tensor:
#      x y z
#    x 1.523840 0.000000 0.000000 
#    y 0.000000 1.557150 0.000000 
#    z 0.000000 0.000000 1.547030 
# 
# From -- ./inp_files/20856.got.cif
#   From: 2010.03.12/outbox.cif.g09.slc.cpg/sg44_11_cif.got.tgz:20856.got - 2010.04.14 02:36:11.
