data_PCOD8188610
_publ_section_title
;
Structure prediction by ZEFSAII (Michael W. Deem and Ramdas Pophale) SiO2 
 PCOD8188610
Probable space group: I M M 2
;
_chemical_formula_sum "Si O2"
_cell_formula_units_Z 64
_cell_length_a 24.605809
_cell_length_b 9.100353
_cell_length_c 15.396460
_cell_angle_alpha 90.000000
_cell_angle_beta 90.000000
_cell_angle_gamma 90.000000
_cell_volume 3447.599153
_symmetry_space_group_name_H-M "I M M 2"
_symmetry_group_IT_number 44
_symmetry_cell_setting 'orthorhombic'
loop_
_space_group_symop_operation_xyz
x,y,z
-x,-y,z
-x,y,z
x,-y,z
1/2+x,1/2+y,1/2+z
1/2-x,1/2-y,1/2+z
1/2-x,1/2+y,1/2+z
1/2+x,1/2-y,1/2+z
loop_
_atom_site_type_symbol
_atom_site_label
_atom_site_fract_x
_atom_site_fract_y
_atom_site_fract_z
Si Si1 0.611930 0.325804 0.324950
Si Si2 0.138448 0.171137 0.156481
Si Si3 0.561310 0.324885 0.507069
Si Si4 0.660539 0.326750 0.843448
Si Si5 0.857979 0.670728 0.517060
Si Si6 0.283971 0.172097 0.369034
Si Si7 0.264768 0.668662 0.539536
Si Si8 0.937703 0.669029 0.666278
O O1 0.615855 0.500000 0.319077
O O2 0.587729 0.271620 0.416960
O O3 0.671563 0.255917 0.310643
O O4 0.572250 0.267720 0.250436
O O5 0.095572 0.241503 0.088470
O O6 0.132495 0.233293 0.254614
O O7 0.200827 0.197441 0.126577
O O8 0.125991 0.000000 0.160612
O O9 0.500000 0.264302 0.513880
O O10 0.562148 0.500000 0.509205
O O11 0.653549 0.500000 0.854488
O O12 0.632276 0.251577 0.925734
O O13 0.724040 0.285151 0.836538
O O14 0.866196 0.500000 0.498582
O O15 0.798322 0.705106 0.556281
O O16 0.901478 0.728944 0.586515
O O17 0.290417 0.225644 0.467685
O O18 0.295219 0.000000 0.362716
O O19 0.272005 0.500000 0.507930
O O20 0.922597 0.500000 0.687301
O O21 0.000000 0.684877 0.637927
#
# Coordination Sequence:
#
# PCOD8188610 Si02
#       8
#     8   8   8   8   8   8   8   8
#     4  11  21  34  53  79 109 141 177 218 267 320
#     4   9  16  29  50  75 103 137 173 211 256 308
#     4   9  17  30  50  75 102 132 169 210 253 305
#     4   9  19  33  53  78 109 142 174 219 268 314
#     4   9  19  35  56  76 102 139 178 220 267 320
#     4  10  19  31  49  76 110 142 174 211 261 316
#     4   9  16  30  52  75 101 136 177 214 258 315
#     4  10  22  39  57  78 104 139 183 226 273 329
#
# _framework density 18.563642999999999
#
# number of rings (size 3 to 8) (size 9 to 14) (size 15 to 20)
#    0.000    2.500    1.250    1.125    1.750    1.750 
#    0.000    1.250    0.000    0.750    0.000    0.000 
#    0.000    0.000    0.000    0.000    0.000    0.000 
#
# Total GULP energy -396737.928738 kJ/mol
# GULP energy per Si atom -12398.060273 kJ/mol
# Density = 1.852139 g / cm^3
# Si number density = 18.563643 Si / 1000 Ang^3
#
#
#
# Elastic Constant Matrix: (Units=GPa)
#
#
# Indices 1 2 3 4 5 6 
#
# 1 103.4913 28.3832 65.7727 0.0000 0.0000 0.0000
# 2 28.3832 39.6391 32.9791 0.0000 0.0000 0.0000
# 3 65.7727 32.9791 146.6616 0.0000 0.0000 0.0000
# 4 0.0000 0.0000 0.0000 27.4312 0.0000 0.0000
# 5 0.0000 0.0000 0.0000 0.0000 29.9396 0.0000
# 6 0.0000 0.0000 0.0000 0.0000 0.0000 18.7040
#
#
#
# Elastic Compliance Matrix: (Units=1/GPa)
#
#
# Indices 1 2 3 4 5 6 
#
# 1 0.014650 -0.006180 -0.005180 0.000000 0.000000 0.000000
# 2 -0.006180 0.033640 -0.004793 0.000000 0.000000 0.000000
# 3 -0.005180 -0.004793 0.010219 0.000000 0.000000 0.000000
# 4 0.000000 0.000000 0.000000 0.036455 0.000000 0.000000
# 5 0.000000 0.000000 0.000000 0.000000 0.033401 0.000000
# 6 0.000000 0.000000 0.000000 0.000000 0.000000 0.053464
#
#
# Mechanical properties :
#
#
# Convention : Reuss Voigt Hill
#
# Bulk Modulus (GPa) = 38.16351 60.45134 49.30743
# Shear Modulus (GPa) = 22.43455 26.05876 24.24665
#
# Velocity S-wave (km/s) = 3.48015 3.75073 3.61797
# Velocity P-wave (km/s) = 6.06230 7.16885 6.63867
#
# Compressibility (1/GPa) = 0.02620304
#
# Stress axis : x y z
#
# Youngs Moduli (GPa) = 68.26025 29.72611 97.85316
#
# Poissons Ratio (x) = 0.18371 0.50691
# Poissons Ratio (y) = 0.42185 0.46902
# Poissons Ratio (z) = 0.35361 0.14248
#
# Static dielectric constant tensor:
#      x y z
#    x 3.525780 0.000000 0.000000 
#    y 0.000000 3.152760 0.000000 
#    z 0.000000 0.000000 3.511710 
# 
# 
# High freq. dielectric constant tensor:
#      x y z
#    x 1.716600 0.000000 0.000000 
#    y 0.000000 1.688910 0.000000 
#    z 0.000000 0.000000 1.719520 
# 
# From -- ./inp_files/19482.got.cif
#   From: 2010.03.12/outbox.cif.g09.slc.cpg/sg44_10_cif.got.tgz:19482.got - 2010.04.14 02:36:11.
