data_PCOD8188128
_publ_section_title
;
Structure prediction by ZEFSAII (Michael W. Deem and Ramdas Pophale) SiO2 
 PCOD8188128
Probable space group: I M M 2
;
_chemical_formula_sum "Si O2"
_cell_formula_units_Z 64
_cell_length_a 8.852295
_cell_length_b 23.330126
_cell_length_c 19.069201
_cell_angle_alpha 90.000000
_cell_angle_beta 90.000000
_cell_angle_gamma 90.000000
_cell_volume 3938.269744
_symmetry_space_group_name_H-M "I M M 2"
_symmetry_group_IT_number 44
_symmetry_cell_setting 'orthorhombic'
loop_
_space_group_symop_operation_xyz
x,y,z
-x,-y,z
-x,y,z
x,-y,z
1/2+x,1/2+y,1/2+z
1/2-x,1/2-y,1/2+z
1/2-x,1/2+y,1/2+z
1/2+x,1/2-y,1/2+z
loop_
_atom_site_type_symbol
_atom_site_label
_atom_site_fract_x
_atom_site_fract_y
_atom_site_fract_z
Si Si1 0.322556 0.065958 0.111710
Si Si2 0.826284 0.250220 0.247348
Si Si3 0.679489 0.436782 0.894179
Si Si4 0.178608 0.841613 0.022354
Si Si5 0.675153 0.616653 0.747556
Si Si6 0.676236 0.261050 0.105855
Si Si7 0.321982 0.780878 0.900148
Si Si8 0.676796 0.331355 0.977010
O O1 0.500000 0.073142 0.101223
O O2 0.238295 0.096854 0.047422
O O3 0.277144 0.094411 0.184848
O O4 0.272276 0.000000 0.111260
O O5 0.794488 0.183517 0.260265
O O6 0.724912 0.275325 0.184812
O O7 0.783219 0.285069 0.317808
O O8 0.000000 0.260406 0.227573
O O9 0.500000 0.439020 0.899007
O O10 0.747653 0.500000 0.908858
O O11 0.727505 0.416621 0.816925
O O12 0.747038 0.392160 0.952011
O O13 0.234905 0.793935 0.077427
O O14 0.000000 0.841403 0.022367
O O15 0.238994 0.830881 0.943503
O O16 0.500000 0.605031 0.729715
O O17 0.500000 0.246110 0.102145
O O18 0.713172 0.317142 0.058312
O O19 0.500000 0.786237 0.913928
O O20 0.259891 0.720238 0.929209
O O21 0.500000 0.335172 0.962810
#
# Coordination Sequence:
#
# PCOD8188128 Si02
#       8
#     8   8   8   8   8   8   8   8
#     4  11  23  36  49  67  95 132 168 199 238 289
#     4  10  18  29  48  72  98 127 157 194 239 292
#     4   9  15  24  42  67  93 123 160 195 229 271
#     4  11  21  33  49  70  94 122 161 205 244 285
#     4  10  18  29  46  70  98 128 162 200 233 272
#     4  10  19  30  47  66  93 128 160 198 242 287
#     4   9  17  31  49  67  94 126 154 190 243 296
#     4   8  14  26  41  61  88 120 154 189 230 274
#
# _framework density 16.250791
#
# number of rings (size 3 to 8) (size 9 to 14) (size 15 to 20)
#    0.000    2.250    2.500    3.000    0.000    2.000 
#    0.000    0.000    0.000    0.000    0.000    0.875 
#    0.000    3.000    0.000    0.000    0.000    0.000 
#
# Total GULP energy -396721.273066 kJ/mol
# GULP energy per Si atom -12397.539783 kJ/mol
# Density = 1.621380 g / cm^3
# Si number density = 16.250791 Si / 1000 Ang^3
#
#
#
# Elastic Constant Matrix: (Units=GPa)
#
#
# Indices 1 2 3 4 5 6 
#
# 1 60.6686 23.9815 37.3963 0.0000 0.0000 0.0000
# 2 23.9815 60.4716 36.7107 0.0000 0.0000 0.0000
# 3 37.3963 36.7107 99.8819 0.0000 0.0000 0.0000
# 4 0.0000 0.0000 0.0000 22.3048 0.0000 0.0000
# 5 0.0000 0.0000 0.0000 0.0000 25.4272 0.0000
# 6 0.0000 0.0000 0.0000 0.0000 0.0000 13.7351
#
#
#
# Elastic Compliance Matrix: (Units=1/GPa)
#
#
# Indices 1 2 3 4 5 6 
#
# 1 0.022504 -0.004904 -0.006623 0.000000 0.000000 0.000000
# 2 -0.004904 0.022355 -0.006380 0.000000 0.000000 0.000000
# 3 -0.006623 -0.006380 0.014837 0.000000 0.000000 0.000000
# 4 0.000000 0.000000 0.000000 0.044833 0.000000 0.000000
# 5 0.000000 0.000000 0.000000 0.000000 0.039328 0.000000
# 6 0.000000 0.000000 0.000000 0.000000 0.000000 0.072806
#
#
# Mechanical properties :
#
#
# Convention : Reuss Voigt Hill
#
# Bulk Modulus (GPa) = 41.87477 46.35546 44.11511
# Shear Modulus (GPa) = 19.19847 20.48900 19.84374
#
# Velocity S-wave (km/s) = 3.44086 3.55463 3.49821
# Velocity P-wave (km/s) = 6.45057 6.74048 6.59712
#
# Compressibility (1/GPa) = 0.02388073
#
# Stress axis : x y z
#
# Youngs Moduli (GPa) = 44.43667 44.73342 67.40075
#
# Poissons Ratio (x) = 0.21936 0.44641
# Poissons Ratio (y) = 0.21790 0.43004
# Poissons Ratio (z) = 0.29432 0.28541
#
# Static dielectric constant tensor:
#      x y z
#    x 2.860040 0.000000 0.000000 
#    y 0.000000 3.172440 0.000000 
#    z 0.000000 0.000000 3.178210 
# 
# 
# High freq. dielectric constant tensor:
#      x y z
#    x 1.606530 0.000000 0.000000 
#    y 0.000000 1.600780 0.000000 
#    z 0.000000 0.000000 1.623720 
# 
# From -- ./inp_files/20866.got.cif
#   From: 2010.03.12/outbox.cif.g09.slc.cpg/sg44_11_cif.got.tgz:20866.got - 2010.04.14 02:36:11.
