data_PCOD8188851
_publ_section_title
;
Structure prediction by ZEFSAII (Michael W. Deem and Ramdas Pophale) SiO2 
 PCOD8188851
Probable space group: I M M 2
;
_chemical_formula_sum "Si O2"
_cell_formula_units_Z 64
_cell_length_a 9.153546
_cell_length_b 32.942088
_cell_length_c 11.473540
_cell_angle_alpha 90.000000
_cell_angle_beta 90.000000
_cell_angle_gamma 90.000000
_cell_volume 3459.695888
_symmetry_space_group_name_H-M "I M M 2"
_symmetry_group_IT_number 44
_symmetry_cell_setting 'orthorhombic'
loop_
_space_group_symop_operation_xyz
x,y,z
-x,-y,z
-x,y,z
x,-y,z
1/2+x,1/2+y,1/2+z
1/2-x,1/2-y,1/2+z
1/2-x,1/2+y,1/2+z
1/2+x,1/2-y,1/2+z
loop_
_atom_site_type_symbol
_atom_site_label
_atom_site_fract_x
_atom_site_fract_y
_atom_site_fract_z
Si Si1 0.669668 0.546055 0.020720
Si Si2 0.337777 0.829294 0.253895
Si Si3 0.828990 0.847185 0.912554
Si Si4 0.169932 0.896190 0.137367
Si Si5 0.329924 0.374481 0.155291
Si Si6 0.163427 0.547525 0.788105
Si Si7 0.666478 0.223818 0.030088
Si Si8 0.830792 0.693948 0.013172
O O1 0.500000 0.546744 0.988054
O O2 0.716006 0.500000 0.059071
O O3 0.704077 0.578283 0.123866
O O4 0.754885 0.560765 0.906090
O O5 0.500000 0.849063 0.250832
O O6 0.215706 0.863307 0.234339
O O7 0.324882 0.795184 0.157031
O O8 0.306987 0.808492 0.375881
O O9 0.785449 0.866547 0.789107
O O10 0.000000 0.837006 0.921296
O O11 0.784107 0.880565 0.009381
O O12 0.743474 0.805118 0.934170
O O13 0.256622 0.936749 0.171222
O O14 0.000000 0.905190 0.145509
O O15 0.500000 0.364633 0.135419
O O16 0.235577 0.345495 0.074088
O O17 0.162627 0.500000 0.775505
O O18 0.000000 0.565187 0.794823
O O19 0.500000 0.230877 0.989202
O O20 0.747599 0.265875 0.051035
O O21 0.000000 0.697351 0.048176
#
# Coordination Sequence:
#
# PCOD8188851 Si02
#       8
#     8   8   8   8   8   8   8   8
#     4   9  18  34  57  84 112 143 182 228 275 325
#     4   9  20  37  54  73 102 137 171 212 266 319
#     4   9  20  38  56  76 108 146 181 222 273 324
#     4  10  19  33  55  79 103 135 176 220 264 314
#     4  10  21  37  56  80 111 147 184 225 274 328
#     4  10  20  33  52  79 111 144 175 216 272 327
#     4  10  21  37  56  78 103 139 181 222 272 324
#     4  11  23  36  53  79 108 139 177 224 272 322
#
# _framework density 18.498733999999999
#
# number of rings (size 3 to 8) (size 9 to 14) (size 15 to 20)
#    0.000    2.250    0.000    2.250    1.750    5.750 
#    0.000    0.625    0.000    2.250    0.000    1.750 
#    0.000    0.000    0.000    0.000    0.000    0.000 
#
# Total GULP energy -396789.820295 kJ/mol
# GULP energy per Si atom -12399.681884 kJ/mol
# Density = 1.845663 g / cm^3
# Si number density = 18.498734 Si / 1000 Ang^3
#
#
#
# Elastic Constant Matrix: (Units=GPa)
#
#
# Indices 1 2 3 4 5 6 
#
# 1 86.2907 45.4334 43.6539 -0.0002 0.0003 0.0001
# 2 45.4334 98.2502 50.0097 -0.0013 0.0000 0.0000
# 3 43.6539 50.0097 84.6993 -0.0027 -0.0004 -0.0002
# 4 -0.0002 -0.0013 -0.0027 23.8608 -0.0005 -0.0002
# 5 0.0003 0.0000 -0.0004 -0.0005 23.2678 -0.0004
# 6 0.0001 0.0000 -0.0002 -0.0002 -0.0004 32.1619
#
#
#
# Elastic Compliance Matrix: (Units=1/GPa)
#
#
# Indices 1 2 3 4 5 6 
#
# 1 0.017192 -0.004918 -0.005957 -0.000001 0.000000 0.000000
# 2 -0.004918 0.015958 -0.006888 0.000000 0.000000 0.000000
# 3 -0.005957 -0.006888 0.018943 0.000002 0.000000 0.000000
# 4 -0.000001 0.000000 0.000002 0.041910 0.000001 0.000000
# 5 0.000000 0.000000 0.000000 0.000001 0.042978 0.000001
# 6 0.000000 0.000000 0.000000 0.000000 0.000001 0.031093
#
#
# Mechanical properties :
#
#
# Convention : Reuss Voigt Hill
#
# Bulk Modulus (GPa) = 60.35573 60.82601 60.59087
# Shear Modulus (GPa) = 23.90966 24.53431 24.22199
#
# Velocity S-wave (km/s) = 3.59904 3.64575 3.62247
# Velocity P-wave (km/s) = 7.06884 7.11861 7.09377
#
# Compressibility (1/GPa) = 0.01656844
#
# Stress axis : x y z
#
# Youngs Moduli (GPa) = 58.16811 62.66449 52.78892
#
# Poissons Ratio (x) = 0.30817 0.31446
# Poissons Ratio (y) = 0.28605 0.36359
# Poissons Ratio (z) = 0.34650 0.43161
#
# Static dielectric constant tensor:
#      x y z
#    x 3.600110 0.000000 0.000000 
#    y 0.000000 3.451170 0.000000 
#    z 0.000000 0.000000 3.423520 
# 
# 
# High freq. dielectric constant tensor:
#      x y z
#    x 1.724450 0.000000 0.000000 
#    y 0.000000 1.720170 0.000000 
#    z 0.000000 0.000000 1.710140 
# 
# From -- ./inp_files/11484.got.cif
#   From: 2010.03.12/outbox.cif.g09.slc.cpg/sg44_6_cif.got.tgz:11484.got - 2010.04.14 02:36:11.
