data_PCOD8188170
_publ_section_title
;
Structure prediction by ZEFSAII (Michael W. Deem and Ramdas Pophale) SiO2 
 PCOD8188170
Probable space group: I M M 2
;
_chemical_formula_sum "Si O2"
_cell_formula_units_Z 64
_cell_length_a 24.593101
_cell_length_b 8.970416
_cell_length_c 20.138780
_cell_angle_alpha 90.000000
_cell_angle_beta 90.000000
_cell_angle_gamma 90.000000
_cell_volume 4442.823238
_symmetry_space_group_name_H-M "I M M 2"
_symmetry_group_IT_number 44
_symmetry_cell_setting 'orthorhombic'
loop_
_space_group_symop_operation_xyz
x,y,z
-x,-y,z
-x,y,z
x,-y,z
1/2+x,1/2+y,1/2+z
1/2-x,1/2-y,1/2+z
1/2-x,1/2+y,1/2+z
1/2+x,1/2-y,1/2+z
loop_
_atom_site_type_symbol
_atom_site_label
_atom_site_fract_x
_atom_site_fract_y
_atom_site_fract_z
Si Si1 0.561244 0.827815 0.784820
Si Si2 0.251009 0.333418 0.839171
Si Si3 0.266874 0.675504 0.213429
Si Si4 0.059531 0.170037 0.561782
Si Si5 0.912708 0.168363 0.416658
Si Si6 0.331719 0.175785 0.099718
Si Si7 0.162526 0.166395 0.237290
Si Si8 0.296178 0.326379 0.972563
O O1 0.500000 0.799121 0.758710
O O2 0.564921 0.778579 0.861074
O O3 0.603033 0.739858 0.737355
O O4 0.577010 0.000000 0.780918
O O5 0.226011 0.500000 0.833063
O O6 0.218445 0.220973 0.790330
O O7 0.314165 0.339298 0.813064
O O8 0.250540 0.283310 0.916853
O O9 0.268100 0.500000 0.204870
O O10 0.311752 0.749927 0.167344
O O11 0.206556 0.738351 0.194329
O O12 0.051791 0.188532 0.482871
O O13 0.105404 0.279192 0.590421
O O14 0.000000 0.205890 0.593429
O O15 0.077480 0.000000 0.577851
O O16 0.852257 0.211622 0.437428
O O17 0.916924 0.000000 0.388732
O O18 0.327039 0.000000 0.105621
O O19 0.292327 0.230462 0.039681
O O20 0.157995 0.000000 0.207110
O O21 0.292047 0.500000 0.992105
#
# Coordination Sequence:
#
# PCOD8188170 Si02
#       8
#     8   8   8   8   8   8   8   8
#     4  11  21  27  34  54  81 107 139 176 207 239
#     4   8  15  28  45  61  79 103 134 171 211 252
#     4  10  18  30  47  62  78 104 138 173 211 255
#     4   9  18  31  43  54  73 104 139 173 209 247
#     4   9  15  26  40  52  71 104 141 173 206 241
#     4  11  21  30  42  62  86 109 140 177 209 247
#     4   9  17  30  44  57  74 101 136 171 210 249
#     4   9  16  28  43  59  81 108 139 174 211 249
#
# _framework density 14.405253999999999
#
# number of rings (size 3 to 8) (size 9 to 14) (size 15 to 20)
#    0.750    1.750    1.250    3.750    0.000    4.250 
#    0.000    0.000    0.000    0.000    0.000    0.000 
#    0.000    0.000    0.000    1.125    0.000   16.250 
#
# Total GULP energy -396428.759261 kJ/mol
# GULP energy per Si atom -12388.398727 kJ/mol
# Density = 1.437247 g / cm^3
# Si number density = 14.405254 Si / 1000 Ang^3
#
#
#
# Elastic Constant Matrix: (Units=GPa)
#
#
# Indices 1 2 3 4 5 6 
#
# 1 45.4170 29.8214 25.5106 0.0000 0.0000 0.0000
# 2 29.8214 99.7294 33.2261 0.0000 0.0000 0.0000
# 3 25.5106 33.2261 54.0940 0.0000 0.0000 0.0000
# 4 0.0000 0.0000 0.0000 21.9062 0.0000 0.0000
# 5 0.0000 0.0000 0.0000 0.0000 6.9428 0.0000
# 6 0.0000 0.0000 0.0000 0.0000 0.0000 19.0907
#
#
#
# Elastic Compliance Matrix: (Units=1/GPa)
#
#
# Indices 1 2 3 4 5 6 
#
# 1 0.032403 -0.005781 -0.011730 0.000000 0.000000 0.000000
# 2 -0.005781 0.013638 -0.005651 0.000000 0.000000 0.000000
# 3 -0.011730 -0.005651 0.027489 0.000000 0.000000 0.000000
# 4 0.000000 0.000000 0.000000 0.045649 0.000000 0.000000
# 5 0.000000 0.000000 0.000000 0.000000 0.144033 0.000000
# 6 0.000000 0.000000 0.000000 0.000000 0.000000 0.052382
#
#
# Mechanical properties :
#
#
# Convention : Reuss Voigt Hill
#
# Bulk Modulus (GPa) = 36.75619 41.81741 39.28680
# Shear Modulus (GPa) = 13.47754 16.96676 15.22215
#
# Velocity S-wave (km/s) = 3.06207 3.43566 3.25423
# Velocity P-wave (km/s) = 6.17033 6.69557 6.43831
#
# Compressibility (1/GPa) = 0.02720630
#
# Stress axis : x y z
#
# Youngs Moduli (GPa) = 30.86130 73.32208 36.37804
#
# Poissons Ratio (x) = 0.42389 0.42672
# Poissons Ratio (y) = 0.17842 0.20556
# Poissons Ratio (z) = 0.36201 0.41432
#
# Static dielectric constant tensor:
#      x y z
#    x 2.901980 0.000000 0.000000 
#    y 0.000000 2.795120 0.000000 
#    z 0.000000 0.000000 2.615600 
# 
# 
# High freq. dielectric constant tensor:
#      x y z
#    x 1.518620 0.000000 0.000000 
#    y 0.000000 1.557220 0.000000 
#    z 0.000000 0.000000 1.513250 
# 
# From -- ./inp_files/25883.got.cif
#   From: 2010.03.12/outbox.cif.g09.slc.cpg/sg44_13_cif.got.tgz:25883.got - 2010.04.14 02:36:11.
