data_PCOD8188575
_publ_section_title
;
Structure prediction by ZEFSAII (Michael W. Deem and Ramdas Pophale) SiO2 
 PCOD8188575
Probable space group: I M M 2
;
_chemical_formula_sum "Si O2"
_cell_formula_units_Z 48
_cell_length_a 9.407224
_cell_length_b 31.192574
_cell_length_c 9.497942
_cell_angle_alpha 90.000000
_cell_angle_beta 90.000000
_cell_angle_gamma 90.000000
_cell_volume 2787.033652
_symmetry_space_group_name_H-M "I M M 2"
_symmetry_group_IT_number 44
_symmetry_cell_setting 'orthorhombic'
loop_
_space_group_symop_operation_xyz
x,y,z
-x,-y,z
-x,y,z
x,-y,z
1/2+x,1/2+y,1/2+z
1/2-x,1/2-y,1/2+z
1/2-x,1/2+y,1/2+z
1/2+x,1/2-y,1/2+z
loop_
_atom_site_type_symbol
_atom_site_label
_atom_site_fract_x
_atom_site_fract_y
_atom_site_fract_z
Si Si1 0.659712 0.874387 0.668910
Si Si2 0.155942 0.376495 0.834389
Si Si3 0.333440 0.291404 0.148729
Si Si4 0.840393 0.047601 0.671435
Si Si5 0.665223 0.783335 0.369581
Si Si6 0.658939 0.453167 0.836575
O O1 0.500000 0.869638 0.730790
O O2 0.653377 0.879168 0.502256
O O3 0.755155 0.833414 0.709117
O O4 0.733203 0.916918 0.734730
O O5 0.209013 0.328527 0.794989
O O6 0.253494 0.413880 0.768809
O O7 0.000000 0.384626 0.771580
O O8 0.500000 0.301347 0.124924
O O9 0.308895 0.254347 0.261129
O O10 0.263965 0.275208 0.004089
O O11 0.841007 0.050549 0.503743
O O12 0.000000 0.056562 0.727051
O O13 0.790438 0.000000 0.718877
O O14 0.500000 0.786249 0.418260
O O15 0.500000 0.449083 0.777664
O O16 0.721931 0.500000 0.793014
#
# Coordination Sequence:
#
# PCOD8188575 Si02
#       6
#     8   8   8   8   8   8
#     4   9  16  25  37  55  81 110 141 178 216 257
#     4   8  14  24  36  51  75 105 134 168 208 247
#     4  10  19  31  48  66  87 118 150 182 224 268
#     4   8  13  21  33  50  74 105 140 174 209 255
#     4   9  19  33  46  65  91 115 146 187 223 262
#     4   8  13  20  30  47  72 100 131 166 200 240
#
# _framework density 17.222611000000001
#
# number of rings (size 3 to 8) (size 9 to 14) (size 15 to 20)
#    0.000    3.333    0.000    3.000    0.000    6.000 
#    0.000    3.333    0.000    0.000    0.000    0.000 
#    0.000    1.333    0.000    8.667    0.000   18.167 
#
# Total GULP energy -297386.183748 kJ/mol
# GULP energy per Si atom -12391.090990 kJ/mol
# Density = 1.718341 g / cm^3
# Si number density = 17.222611 Si / 1000 Ang^3
#
#
#
# Elastic Constant Matrix: (Units=GPa)
#
#
# Indices 1 2 3 4 5 6 
#
# 1 123.0177 94.1386 27.6031 0.0011 0.0001 0.0001
# 2 94.1386 172.9228 31.3634 0.0018 -0.0001 -0.0001
# 3 27.6031 31.3634 18.5034 0.0051 0.0004 0.0001
# 4 0.0011 0.0018 0.0051 13.8201 0.0000 -0.0001
# 5 0.0001 -0.0001 0.0004 0.0000 10.3463 0.0009
# 6 0.0001 -0.0001 0.0001 -0.0001 0.0009 36.5190
#
#
#
# Elastic Compliance Matrix: (Units=1/GPa)
#
#
# Indices 1 2 3 4 5 6 
#
# 1 0.015843 -0.006264 -0.013017 0.000004 0.000000 0.000000
# 2 -0.006264 0.010827 -0.009006 0.000002 0.000001 0.000000
# 3 -0.013017 -0.009006 0.088729 -0.000030 -0.000004 0.000000
# 4 0.000004 0.000002 -0.000030 0.072358 0.000000 0.000000
# 5 0.000000 0.000001 -0.000004 0.000000 0.096653 -0.000002
# 6 0.000000 0.000000 0.000000 0.000000 -0.000002 0.027383
#
#
# Mechanical properties :
#
#
# Convention : Reuss Voigt Hill
#
# Bulk Modulus (GPa) = 17.00004 68.96157 42.98080
# Shear Modulus (GPa) = 12.88738 22.89300 17.89019
#
# Velocity S-wave (km/s) = 2.73844 3.64983 3.22648
# Velocity P-wave (km/s) = 4.45993 7.60854 6.23622
#
# Compressibility (1/GPa) = 0.05882339
#
# Stress axis : x y z
#
# Youngs Moduli (GPa) = 63.11818 92.36515 11.27029
#
# Poissons Ratio (x) = 0.57858 0.14671
# Poissons Ratio (y) = 0.39538 0.10151
# Poissons Ratio (z) = 0.82162 0.83188
#
# Static dielectric constant tensor:
#      x y z
#    x 3.501050 0.000000 0.000000 
#    y 0.000000 3.682930 0.000000 
#    z 0.000000 0.000000 2.436900 
# 
# 
# High freq. dielectric constant tensor:
#      x y z
#    x 1.671310 0.000000 0.000000 
#    y 0.000000 1.688270 0.000000 
#    z 0.000000 0.000000 1.574240 
# 
# From -- ./inp_files/11219.got.cif
#   From: 2010.03.12/outbox.cif.g09.slc.cpg/sg44_6_cif.got.tgz:11219.got - 2010.04.14 02:36:11.
