data_PCOD8188885
_publ_section_title
;
Structure prediction by ZEFSAII (Michael W. Deem and Ramdas Pophale) SiO2 
 PCOD8188885
Probable space group: I M M 2
;
_chemical_formula_sum "Si O2"
_cell_formula_units_Z 64
_cell_length_a 18.882120
_cell_length_b 14.383701
_cell_length_c 12.051229
_cell_angle_alpha 90.000000
_cell_angle_beta 90.000000
_cell_angle_gamma 90.000000
_cell_volume 3273.050748
_symmetry_space_group_name_H-M "I M M 2"
_symmetry_group_IT_number 44
_symmetry_cell_setting 'orthorhombic'
loop_
_space_group_symop_operation_xyz
x,y,z
-x,-y,z
-x,y,z
x,-y,z
1/2+x,1/2+y,1/2+z
1/2-x,1/2-y,1/2+z
1/2-x,1/2+y,1/2+z
1/2+x,1/2-y,1/2+z
loop_
_atom_site_type_symbol
_atom_site_label
_atom_site_fract_x
_atom_site_fract_y
_atom_site_fract_z
Si Si1 0.083864 0.101871 0.172030
Si Si2 0.112572 0.602954 0.366865
Si Si3 0.081981 0.398480 0.606240
Si Si4 0.578133 0.306217 0.890817
Si Si5 0.656430 0.610543 0.097960
Si Si6 0.583711 0.238398 0.513119
Si Si7 0.684801 0.894885 0.644278
Si Si8 0.583502 0.266662 0.263416
O O1 0.114793 0.142152 0.287013
O O2 0.105630 0.164339 0.068407
O O3 0.000000 0.099078 0.183962
O O4 0.116009 0.000000 0.151377
O O5 0.075537 0.500000 0.344255
O O6 0.133173 0.603494 0.497697
O O7 0.067341 0.697622 0.356370
O O8 0.176669 0.613571 0.278706
O O9 0.087244 0.500000 0.663376
O O10 0.108277 0.322450 0.692858
O O11 0.000000 0.378833 0.569537
O O12 0.500000 0.345959 0.916729
O O13 0.625571 0.327454 0.997888
O O14 0.645872 0.500000 0.079065
O O15 0.737935 0.640568 0.110022
O O16 0.617537 0.640288 0.211881
O O17 0.500000 0.217585 0.521194
O O18 0.623571 0.157702 0.578293
O O19 0.610487 0.247164 0.387331
O O20 0.676164 0.000000 0.605530
O O21 0.500000 0.280666 0.262595
#
# Coordination Sequence:
#
# PCOD8188885 Si02
#       8
#     8   8   8   8   8   8   8   8
#     4   9  18  33  55  86 119 148 186 242 300 349
#     4  10  19  33  58  88 116 148 187 237 298 353
#     4   9  17  31  54  86 119 145 177 234 300 354
#     4  11  20  34  61  93 120 151 194 247 303 352
#     4  11  24  40  58  82 118 161 199 242 293 349
#     4  10  21  38  60  85 115 154 198 244 297 353
#     4  10  23  41  59  84 119 157 197 239 293 357
#     4  10  21  37  58  85 115 153 199 242 292 351
#
# _framework density 19.553623000000002
#
# number of rings (size 3 to 8) (size 9 to 14) (size 15 to 20)
#    0.000    2.000    2.500    1.125    0.000    5.000 
#    0.000    5.000    0.000    1.500    0.000    0.000 
#    0.000    0.000    0.000    0.000    0.000    0.000 
#
# Total GULP energy -396434.296852 kJ/mol
# GULP energy per Si atom -12388.571777 kJ/mol
# Density = 1.950912 g / cm^3
# Si number density = 19.553623 Si / 1000 Ang^3
#
#
#
# Elastic Constant Matrix: (Units=GPa)
#
#
# Indices 1 2 3 4 5 6 
#
# 1 62.3432 37.5953 50.5852 0.0000 0.0000 0.0000
# 2 37.5953 120.0497 59.5969 0.0000 0.0000 0.0000
# 3 50.5852 59.5969 154.8239 0.0000 0.0000 0.0000
# 4 0.0000 0.0000 0.0000 26.5205 0.0000 0.0000
# 5 0.0000 0.0000 0.0000 0.0000 16.7351 0.0000
# 6 0.0000 0.0000 0.0000 0.0000 0.0000 20.1514
#
#
#
# Elastic Compliance Matrix: (Units=1/GPa)
#
#
# Indices 1 2 3 4 5 6 
#
# 1 0.023566 -0.004398 -0.006007 0.000000 0.000000 0.000000
# 2 -0.004398 0.011119 -0.002843 0.000000 0.000000 0.000000
# 3 -0.006007 -0.002843 0.009516 0.000000 0.000000 0.000000
# 4 0.000000 0.000000 0.000000 0.037707 0.000000 0.000000
# 5 0.000000 0.000000 0.000000 0.000000 0.059755 0.000000
# 6 0.000000 0.000000 0.000000 0.000000 0.000000 0.049624
#
#
# Mechanical properties :
#
#
# Convention : Reuss Voigt Hill
#
# Bulk Modulus (GPa) = 56.48093 70.30796 63.39444
# Shear Modulus (GPa) = 22.35297 25.31069 23.83183
#
# Velocity S-wave (km/s) = 3.38474 3.60171 3.49491
# Velocity P-wave (km/s) = 6.65005 7.30281 6.98406
#
# Compressibility (1/GPa) = 0.01770509
#
# Stress axis : x y z
#
# Youngs Moduli (GPa) = 42.43323 89.93972 105.08774
#
# Poissons Ratio (x) = 0.39557 0.63124
# Poissons Ratio (y) = 0.18663 0.29875
# Poissons Ratio (z) = 0.25489 0.25569
#
# Static dielectric constant tensor:
#      x y z
#    x 3.170290 0.000000 0.000000 
#    y 0.000000 3.876760 0.000000 
#    z 0.000000 0.000000 3.694440 
# 
# 
# High freq. dielectric constant tensor:
#      x y z
#    x 1.712410 0.000000 0.000000 
#    y 0.000000 1.778910 0.000000 
#    z 0.000000 0.000000 1.768470 
# 
# From -- ./inp_files/13995.got.cif
#   From: 2010.03.12/outbox.cif.g09.slc.cpg/sg44_7_cif.got.tgz:13995.got - 2010.04.14 02:36:11.
