data_PCOD8188924
_publ_section_title
;
Structure prediction by ZEFSAII (Michael W. Deem and Ramdas Pophale) SiO2 
 PCOD8188924
Probable space group: I M M 2
;
_chemical_formula_sum "Si O2"
_cell_formula_units_Z 56
_cell_length_a 8.835310
_cell_length_b 17.492058
_cell_length_c 18.500499
_cell_angle_alpha 90.000000
_cell_angle_beta 90.000000
_cell_angle_gamma 90.000000
_cell_volume 2859.210586
_symmetry_space_group_name_H-M "I M M 2"
_symmetry_group_IT_number 44
_symmetry_cell_setting 'orthorhombic'
loop_
_space_group_symop_operation_xyz
x,y,z
-x,-y,z
-x,y,z
x,-y,z
1/2+x,1/2+y,1/2+z
1/2-x,1/2-y,1/2+z
1/2-x,1/2+y,1/2+z
1/2+x,1/2-y,1/2+z
loop_
_atom_site_type_symbol
_atom_site_label
_atom_site_fract_x
_atom_site_fract_y
_atom_site_fract_z
Si Si1 0.820844 0.714216 0.326170
Si Si2 0.322122 0.085079 0.558975
Si Si3 0.826294 0.351483 0.909303
Si Si4 0.323669 0.500000 0.668009
Si Si5 0.330903 0.000000 0.313862
Si Si6 0.178092 0.282553 0.162816
Si Si7 0.320745 0.859979 0.087118
Si Si8 0.820205 0.585620 0.431235
O O1 0.771520 0.785425 0.373758
O O2 0.757125 0.719590 0.244535
O O3 0.761260 0.636289 0.363977
O O4 0.000000 0.712801 0.323176
O O5 0.500000 0.076084 0.547097
O O6 0.258987 0.129854 0.488741
O O7 0.285646 0.133577 0.630795
O O8 0.250165 0.000000 0.566835
O O9 0.807326 0.426696 0.862595
O O10 0.000000 0.324129 0.913104
O O11 0.500000 0.500000 0.650330
O O12 0.297486 0.500000 0.753438
O O13 0.248069 0.575417 0.637320
O O14 0.500000 0.000000 0.279588
O O15 0.262874 0.221630 0.113341
O O16 0.000000 0.264513 0.160576
O O17 0.500000 0.863294 0.093754
O O18 0.265344 0.874501 0.005290
O O19 0.751731 0.500000 0.425118
O O20 0.000000 0.580852 0.431327
#
# Coordination Sequence:
#
# PCOD8188924 Si02
#       8
#     8   8   8   4   4   8   8   8
#     4  10  21  35  53  80 112 143 177 223 278 328
#     4   9  17  33  57  83 111 144 186 232 275 325
#     4  10  19  34  56  79 106 143 186 226 265 320
#     4  12  24  36  54  82 115 144 176 228 283 328
#     4  10  20  34  54  80 109 148 188 218 263 328
#     4  10  21  35  54  84 117 146 181 231 283 326
#     4  11  21  37  59  80 107 148 190 225 270 331
#     4   9  18  35  58  80 104 139 186 230 267 318
#
# _framework density 19.585826999999998
#
# number of rings (size 3 to 8) (size 9 to 14) (size 15 to 20)
#    0.000    2.000    1.429    2.786    0.000    4.000 
#    0.000    3.571    0.000    1.286    0.000    2.000 
#    0.000    0.000    0.000    0.000    0.000    0.000 
#
# Total GULP energy -347202.843608 kJ/mol
# GULP energy per Si atom -12400.101557 kJ/mol
# Density = 1.954125 g / cm^3
# Si number density = 19.585827 Si / 1000 Ang^3
#
#
#
# Elastic Constant Matrix: (Units=GPa)
#
#
# Indices 1 2 3 4 5 6 
#
# 1 32.5834 21.0833 17.8978 0.0000 0.0000 0.0000
# 2 21.0833 144.1197 72.9843 0.0000 0.0000 0.0000
# 3 17.8978 72.9843 109.5988 0.0000 0.0000 0.0000
# 4 0.0000 0.0000 0.0000 18.6944 0.0000 0.0000
# 5 0.0000 0.0000 0.0000 0.0000 20.9849 0.0000
# 6 0.0000 0.0000 0.0000 0.0000 0.0000 26.2200
#
#
#
# Elastic Compliance Matrix: (Units=1/GPa)
#
#
# Indices 1 2 3 4 5 6 
#
# 1 0.034745 -0.003334 -0.003454 0.000000 0.000000 0.000000
# 2 -0.003334 0.010789 -0.006640 0.000000 0.000000 0.000000
# 3 -0.003454 -0.006640 0.014110 0.000000 0.000000 0.000000
# 4 0.000000 0.000000 0.000000 0.053492 0.000000 0.000000
# 5 0.000000 0.000000 0.000000 0.000000 0.047653 0.000000
# 6 0.000000 0.000000 0.000000 0.000000 0.000000 0.038139
#
#
# Mechanical properties :
#
#
# Convention : Reuss Voigt Hill
#
# Bulk Modulus (GPa) = 30.49880 56.69253 43.59567
# Shear Modulus (GPa) = 21.12259 24.80230 22.96245
#
# Velocity S-wave (km/s) = 3.28756 3.56243 3.42775
# Velocity P-wave (km/s) = 5.47872 6.77715 6.16223
#
# Compressibility (1/GPa) = 0.03278817
#
# Stress axis : x y z
#
# Youngs Moduli (GPa) = 28.78129 92.68597 70.87088
#
# Poissons Ratio (x) = 0.30899 0.24478
# Poissons Ratio (y) = 0.09595 0.47061
# Poissons Ratio (z) = 0.09941 0.61546
#
# Static dielectric constant tensor:
#      x y z
#    x 3.250160 0.000000 0.000000 
#    y 0.000000 3.738370 0.000000 
#    z 0.000000 0.000000 3.830590 
# 
# 
# High freq. dielectric constant tensor:
#      x y z
#    x 1.723190 0.000000 0.000000 
#    y 0.000000 1.777400 0.000000 
#    z 0.000000 0.000000 1.775110 
# 
# From -- ./inp_files/23137.got.cif
#   From: 2010.03.12/outbox.cif.g09.slc.cpg/sg44_12_cif.got.tgz:23137.got - 2010.04.14 02:36:11.
