data_PCOD8188496
_publ_section_title
;
Structure prediction by ZEFSAII (Michael W. Deem and Ramdas Pophale) SiO2 
 PCOD8188496
Probable space group: I M M 2
;
_chemical_formula_sum "Si O2"
_cell_formula_units_Z 48
_cell_length_a 9.141779
_cell_length_b 23.636238
_cell_length_c 13.751263
_cell_angle_alpha 90.000000
_cell_angle_beta 90.000000
_cell_angle_gamma 90.000000
_cell_volume 2971.335288
_symmetry_space_group_name_H-M "I M M 2"
_symmetry_group_IT_number 44
_symmetry_cell_setting 'orthorhombic'
loop_
_space_group_symop_operation_xyz
x,y,z
-x,-y,z
-x,y,z
x,-y,z
1/2+x,1/2+y,1/2+z
1/2-x,1/2-y,1/2+z
1/2-x,1/2+y,1/2+z
1/2+x,1/2-y,1/2+z
loop_
_atom_site_type_symbol
_atom_site_label
_atom_site_fract_x
_atom_site_fract_y
_atom_site_fract_z
Si Si1 0.327188 0.163515 0.854370
Si Si2 0.169342 0.670614 0.944656
Si Si3 0.330892 0.769265 0.040526
Si Si4 0.670320 0.234848 0.257852
Si Si5 0.670758 0.434806 0.256291
Si Si6 0.330733 0.063456 0.557978
O O1 0.500000 0.158147 0.839209
O O2 0.265164 0.209383 0.778469
O O3 0.252127 0.103090 0.836529
O O4 0.284588 0.181949 0.964380
O O5 0.214129 0.685143 0.833585
O O6 0.000000 0.682228 0.960613
O O7 0.249577 0.710875 0.020522
O O8 0.209109 0.605603 0.969320
O O9 0.500000 0.755583 0.027088
O O10 0.294083 0.788835 0.150309
O O11 0.500000 0.251439 0.267647
O O12 0.500000 0.420474 0.256155
O O13 0.700834 0.500000 0.283280
O O14 0.733549 0.420266 0.150355
O O15 0.500000 0.069376 0.588900
O O16 0.295594 0.000000 0.521655
#
# Coordination Sequence:
#
# PCOD8188496 Si02
#       6
#     8   8   8   8   8   8
#     4  10  19  30  45  66  90 115 145 180 218 258
#     4   9  17  28  44  65  88 115 146 179 215 256
#     4   9  18  30  44  63  88 116 144 177 216 258
#     4   9  17  30  46  64  89 119 148 178 214 257
#     4  10  20  32  46  65  88 115 146 178 215 260
#     4   9  17  29  45  66  91 117 145 179 218 257
#
# _framework density 16.154354000000001
#
# number of rings (size 3 to 8) (size 9 to 14) (size 15 to 20)
#    0.000    2.667    0.000    2.000    0.000    5.667 
#    0.000    0.000    0.000    1.000    0.000    4.667 
#    0.000    2.667    0.000    0.000    0.000    0.000 
#
# Total GULP energy -297560.710233 kJ/mol
# GULP energy per Si atom -12398.362926 kJ/mol
# Density = 1.611759 g / cm^3
# Si number density = 16.154354 Si / 1000 Ang^3
#
#
#
# Elastic Constant Matrix: (Units=GPa)
#
#
# Indices 1 2 3 4 5 6 
#
# 1 60.3029 45.8456 41.0855 0.0000 0.0000 0.0000
# 2 45.8456 113.1824 68.3934 0.0000 0.0000 0.0000
# 3 41.0855 68.3934 116.5375 0.0002 0.0000 0.0000
# 4 0.0000 0.0000 0.0002 24.5710 0.0000 0.0000
# 5 0.0000 0.0000 0.0000 0.0000 19.5754 0.0000
# 6 0.0000 0.0000 0.0000 0.0000 0.0000 22.8680
#
#
#
# Elastic Compliance Matrix: (Units=1/GPa)
#
#
# Indices 1 2 3 4 5 6 
#
# 1 0.025412 -0.007561 -0.004522 0.000000 0.000000 0.000000
# 2 -0.007561 0.015940 -0.006689 0.000000 0.000000 0.000000
# 3 -0.004522 -0.006689 0.014101 0.000000 0.000000 0.000000
# 4 0.000000 0.000000 0.000000 0.040698 0.000000 0.000000
# 5 0.000000 0.000000 0.000000 0.000000 0.051085 0.000000
# 6 0.000000 0.000000 0.000000 0.000000 0.000000 0.043729
#
#
# Mechanical properties :
#
#
# Convention : Reuss Voigt Hill
#
# Bulk Modulus (GPa) = 55.83767 66.74128 61.28948
# Shear Modulus (GPa) = 21.32390 22.38275 21.85333
#
# Velocity S-wave (km/s) = 3.63714 3.72634 3.68201
# Velocity P-wave (km/s) = 7.23038 7.74071 7.48990
#
# Compressibility (1/GPa) = 0.01790906
#
# Stress axis : x y z
#
# Youngs Moduli (GPa) = 39.35161 62.73477 70.91792
#
# Poissons Ratio (x) = 0.47434 0.32066
# Poissons Ratio (y) = 0.29754 0.47439
# Poissons Ratio (z) = 0.17793 0.41965
#
# Static dielectric constant tensor:
#      x y z
#    x 3.122950 0.000000 0.000000 
#    y 0.000000 3.111730 0.000000 
#    z 0.000000 0.000000 3.168460 
# 
# 
# High freq. dielectric constant tensor:
#      x y z
#    x 1.627280 0.000000 0.000000 
#    y 0.000000 1.609570 0.000000 
#    z 0.000000 0.000000 1.610840 
# 
# From -- ./inp_files/11164.got.cif
#   From: 2010.03.12/outbox.cif.g09.slc.cpg/sg44_6_cif.got.tgz:11164.got - 2010.04.14 02:36:11.
