data_PCOD8188577
_publ_section_title
;
Structure prediction by ZEFSAII (Michael W. Deem and Ramdas Pophale) SiO2 
 PCOD8188577
Probable space group: I M M 2
;
_chemical_formula_sum "Si O2"
_cell_formula_units_Z 64
_cell_length_a 9.267652
_cell_length_b 27.955445
_cell_length_c 14.539754
_cell_angle_alpha 90.000000
_cell_angle_beta 90.000000
_cell_angle_gamma 90.000000
_cell_volume 3766.978888
_symmetry_space_group_name_H-M "I M M 2"
_symmetry_group_IT_number 44
_symmetry_cell_setting 'orthorhombic'
loop_
_space_group_symop_operation_xyz
x,y,z
-x,-y,z
-x,y,z
x,-y,z
1/2+x,1/2+y,1/2+z
1/2-x,1/2-y,1/2+z
1/2-x,1/2+y,1/2+z
1/2+x,1/2-y,1/2+z
loop_
_atom_site_type_symbol
_atom_site_label
_atom_site_fract_x
_atom_site_fract_y
_atom_site_fract_z
Si Si1 0.666626 0.774921 0.708210
Si Si2 0.169542 0.680776 0.499356
Si Si3 0.167694 0.369843 0.885803
Si Si4 0.670270 0.864939 0.818742
Si Si5 0.668342 0.555532 0.000587
Si Si6 0.667122 0.180480 0.204684
Si Si7 0.169289 0.445494 0.185962
Si Si8 0.334187 0.776126 0.495705
O O1 0.500000 0.766027 0.731109
O O2 0.732549 0.818926 0.765443
O O3 0.749470 0.727310 0.737952
O O4 0.690760 0.787958 0.602146
O O5 0.214490 0.639115 0.426618
O O6 0.218405 0.664819 0.601975
O O7 0.242119 0.730051 0.467134
O O8 0.000000 0.689919 0.495172
O O9 0.263578 0.414463 0.917232
O O10 0.195852 0.362358 0.776603
O O11 0.000000 0.380868 0.906085
O O12 0.217848 0.322031 0.938574
O O13 0.500000 0.864706 0.807516
O O14 0.727203 0.913675 0.771575
O O15 0.500000 0.567258 0.009645
O O16 0.695606 0.500000 0.978431
O O17 0.745972 0.570476 0.095030
O O18 0.500000 0.194452 0.203851
O O19 0.204044 0.500000 0.212393
O O20 0.000000 0.437761 0.166306
O O21 0.500000 0.764332 0.473874
#
# Coordination Sequence:
#
# PCOD8188577 Si02
#       8
#     8   8   8   8   8   8   8   8
#     4   9  16  26  41  61  87 119 152 186 225 269
#     4   9  17  29  44  63  92 126 156 190 228 262
#     4  10  19  31  48  67  90 123 157 187 222 267
#     4   9  16  27  45  67  90 119 154 187 222 267
#     4  10  21  35  50  71  96 116 139 180 230 274
#     4   9  18  30  43  63  91 121 154 191 225 256
#     4   9  17  31  51  71  91 118 150 182 222 275
#     4   9  17  28  42  63  91 120 154 193 226 263
#
# _framework density 16.989743000000001
#
# number of rings (size 3 to 8) (size 9 to 14) (size 15 to 20)
#    0.000    2.750    0.000    1.875    0.000    3.750 
#    0.000    3.750    0.000    0.750    0.000    3.500 
#    0.000    2.000    0.000    0.000    0.000    0.000 
#
# Total GULP energy -396721.978129 kJ/mol
# GULP energy per Si atom -12397.561817 kJ/mol
# Density = 1.695107 g / cm^3
# Si number density = 16.989743 Si / 1000 Ang^3
#
#
#
# Elastic Constant Matrix: (Units=GPa)
#
#
# Indices 1 2 3 4 5 6 
#
# 1 44.7713 37.1137 33.6559 -0.0002 0.0001 0.0000
# 2 37.1137 91.2968 69.5640 0.0001 0.0001 0.0000
# 3 33.6559 69.5640 107.4446 -0.0006 0.0004 0.0002
# 4 -0.0002 0.0001 -0.0006 30.3352 0.0002 0.0000
# 5 0.0001 0.0001 0.0004 0.0002 15.5149 -0.0001
# 6 0.0000 0.0000 0.0002 0.0000 -0.0001 23.5685
#
#
#
# Elastic Compliance Matrix: (Units=1/GPa)
#
#
# Indices 1 2 3 4 5 6 
#
# 1 0.034302 -0.011363 -0.003388 0.000000 0.000000 0.000000
# 2 -0.011363 0.025382 -0.012874 0.000000 0.000000 0.000000
# 3 -0.003388 -0.012874 0.018703 0.000000 0.000000 0.000000
# 4 0.000000 0.000000 0.000000 0.032965 0.000000 0.000000
# 5 0.000000 0.000000 0.000000 0.000000 0.064454 0.000000
# 6 0.000000 0.000000 0.000000 0.000000 0.000000 0.042429
#
#
# Mechanical properties :
#
#
# Convention : Reuss Voigt Hill
#
# Bulk Modulus (GPa) = 43.21940 58.24222 50.73081
# Shear Modulus (GPa) = 17.78108 20.76234 19.27171
#
# Velocity S-wave (km/s) = 3.23859 3.49958 3.37161
# Velocity P-wave (km/s) = 6.28318 7.11931 6.71428
#
# Compressibility (1/GPa) = 0.02313776
#
# Stress axis : x y z
#
# Youngs Moduli (GPa) = 29.15287 39.39830 53.46605
#
# Poissons Ratio (x) = 0.44768 0.18114
# Poissons Ratio (y) = 0.33126 0.68832
# Poissons Ratio (z) = 0.09877 0.50721
#
# Static dielectric constant tensor:
#      x y z
#    x 3.060830 0.000000 0.000000 
#    y 0.000000 3.114440 0.000000 
#    z 0.000000 0.000000 3.426620 
# 
# 
# High freq. dielectric constant tensor:
#      x y z
#    x 1.639330 0.000000 0.000000 
#    y 0.000000 1.632990 0.000000 
#    z 0.000000 0.000000 1.661460 
# 
# From -- ./inp_files/17132.got.cif
#   From: 2010.03.12/outbox.cif.g09.slc.cpg/sg44_9_cif.got.tgz:17132.got - 2010.04.14 02:36:11.
