data_PCOD8188903
_publ_section_title
;
Structure prediction by ZEFSAII (Michael W. Deem and Ramdas Pophale) SiO2 
 PCOD8188903
Probable space group: I M M 2
;
_chemical_formula_sum "Si O2"
_cell_formula_units_Z 48
_cell_length_a 19.359626
_cell_length_b 12.311455
_cell_length_c 11.303253
_cell_angle_alpha 90.000000
_cell_angle_beta 90.000000
_cell_angle_gamma 90.000000
_cell_volume 2694.075694
_symmetry_space_group_name_H-M "I M M 2"
_symmetry_group_IT_number 44
_symmetry_cell_setting 'orthorhombic'
loop_
_space_group_symop_operation_xyz
x,y,z
-x,-y,z
-x,y,z
x,-y,z
1/2+x,1/2+y,1/2+z
1/2-x,1/2-y,1/2+z
1/2-x,1/2+y,1/2+z
1/2+x,1/2-y,1/2+z
loop_
_atom_site_type_symbol
_atom_site_label
_atom_site_fract_x
_atom_site_fract_y
_atom_site_fract_z
Si Si1 0.145264 0.874998 0.494600
Si Si2 0.421196 0.701541 0.775087
Si Si3 0.918832 0.000000 0.129790
Si Si4 0.178548 0.623968 0.185070
Si Si5 0.917809 0.000000 0.857533
Si Si6 0.829728 0.187203 0.745965
Si Si7 0.703415 0.875878 0.417092
O O1 0.082497 0.837535 0.411545
O O2 0.147170 0.797110 0.609449
O O3 0.213981 0.863175 0.415069
O O4 0.136735 0.000000 0.537862
O O5 0.500000 0.726971 0.742295
O O6 0.388618 0.607492 0.692083
O O7 0.377790 0.809830 0.757276
O O8 0.897988 0.000000 0.994545
O O9 0.000000 0.000000 0.152010
O O10 0.156231 0.500000 0.195374
O O11 0.253190 0.637043 0.245937
O O12 0.178036 0.659844 0.047560
O O13 0.885028 0.891945 0.804837
O O14 0.000000 0.000000 0.835558
O O15 0.830961 0.300918 0.816443
O O16 0.681880 0.000000 0.389617
#
# Coordination Sequence:
#
# PCOD8188903 Si02
#       7
#     8   8   4   8   4   8   8
#     4  10  19  34  54  83 117 150 186 230 282 338
#     4  11  21  35  57  83 114 151 189 233 284 338
#     4   9  20  35  53  83 117 143 183 238 284 330
#     4  10  20  37  57  81 113 150 190 232 278 333
#     4  11  22  35  55  87 116 145 185 234 289 334
#     4  11  19  36  58  81 116 148 187 231 281 335
#     4   9  19  35  59  83 112 146 188 234 277 331
#
# _framework density 17.816870999999999
#
# number of rings (size 3 to 8) (size 9 to 14) (size 15 to 20)
#    0.000    1.833    4.167    2.000    0.000    1.000 
#    0.000    0.833    0.000    1.500    0.000    0.000 
#    0.000    0.000    0.000    0.000    0.000    0.000 
#
# Total GULP energy -297597.188444 kJ/mol
# GULP energy per Si atom -12399.882852 kJ/mol
# Density = 1.777632 g / cm^3
# Si number density = 17.816871 Si / 1000 Ang^3
#
#
#
# Elastic Constant Matrix: (Units=GPa)
#
#
# Indices 1 2 3 4 5 6 
#
# 1 74.0373 38.1989 40.9986 0.0000 0.0000 0.0000
# 2 38.1989 97.0722 53.9764 0.0000 0.0000 0.0000
# 3 40.9986 53.9764 106.2019 0.0000 0.0000 0.0000
# 4 0.0000 0.0000 0.0000 36.3477 0.0000 0.0000
# 5 0.0000 0.0000 0.0000 0.0000 26.3383 0.0000
# 6 0.0000 0.0000 0.0000 0.0000 0.0000 24.9075
#
#
#
# Elastic Compliance Matrix: (Units=1/GPa)
#
#
# Indices 1 2 3 4 5 6 
#
# 1 0.018559 -0.004627 -0.004813 0.000000 0.000000 0.000000
# 2 -0.004627 0.015513 -0.006098 0.000000 0.000000 0.000000
# 3 -0.004813 -0.006098 0.014374 0.000000 0.000000 0.000000
# 4 0.000000 0.000000 0.000000 0.027512 0.000000 0.000000
# 5 0.000000 0.000000 0.000000 0.000000 0.037967 0.000000
# 6 0.000000 0.000000 0.000000 0.000000 0.000000 0.040149
#
#
# Mechanical properties :
#
#
# Convention : Reuss Voigt Hill
#
# Bulk Modulus (GPa) = 57.57272 60.40660 58.98966
# Shear Modulus (GPa) = 26.18615 27.12786 26.65701
#
# Velocity S-wave (km/s) = 3.83788 3.90628 3.87223
# Velocity P-wave (km/s) = 7.21268 7.37042 7.29198
#
# Compressibility (1/GPa) = 0.01736934
#
# Stress axis : x y z
#
# Youngs Moduli (GPa) = 53.88161 64.46073 69.57238
#
# Poissons Ratio (x) = 0.29826 0.33486
# Poissons Ratio (y) = 0.24931 0.42428
# Poissons Ratio (z) = 0.25933 0.39310
#
# Static dielectric constant tensor:
#      x y z
#    x 3.070370 0.000000 0.000000 
#    y 0.000000 3.221910 0.000000 
#    z 0.000000 0.000000 3.355490 
# 
# 
# High freq. dielectric constant tensor:
#      x y z
#    x 1.669190 0.000000 0.000000 
#    y 0.000000 1.681620 0.000000 
#    z 0.000000 0.000000 1.696000 
# 
# From -- ./inp_files/12403.got.cif
#   From: 2010.03.12/outbox.cif.g09.slc.cpg/sg44_7_cif.got.tgz:12403.got - 2010.04.14 02:36:11.
