data_PCOD8188646
_publ_section_title
;
Structure prediction by ZEFSAII (Michael W. Deem and Ramdas Pophale) SiO2 
 PCOD8188646
Probable space group: I M M 2
;
_chemical_formula_sum "Si O2"
_cell_formula_units_Z 64
_cell_length_a 9.125274
_cell_length_b 15.511890
_cell_length_c 23.145175
_cell_angle_alpha 90.000000
_cell_angle_beta 90.000000
_cell_angle_gamma 90.000000
_cell_volume 3276.205227
_symmetry_space_group_name_H-M "I M M 2"
_symmetry_group_IT_number 44
_symmetry_cell_setting 'orthorhombic'
loop_
_space_group_symop_operation_xyz
x,y,z
-x,-y,z
-x,y,z
x,-y,z
1/2+x,1/2+y,1/2+z
1/2-x,1/2-y,1/2+z
1/2-x,1/2+y,1/2+z
1/2+x,1/2-y,1/2+z
loop_
_atom_site_type_symbol
_atom_site_label
_atom_site_fract_x
_atom_site_fract_y
_atom_site_fract_z
Si Si1 0.658733 0.401988 0.050810
Si Si2 0.827792 0.263864 0.398944
Si Si3 0.828497 0.600965 0.941995
Si Si4 0.834061 0.840478 0.107377
Si Si5 0.667350 0.590603 0.728625
Si Si6 0.328957 0.769939 0.769028
Si Si7 0.330982 0.315019 0.161668
Si Si8 0.171826 0.098612 0.980907
O O1 0.500000 0.355362 0.039892
O O2 0.638576 0.500000 0.035106
O O3 0.700624 0.394448 0.118387
O O4 0.782696 0.367977 0.006787
O O5 0.757599 0.167756 0.400864
O O6 0.798522 0.299691 0.334136
O O7 0.758633 0.333508 0.441683
O O8 0.000000 0.255221 0.411298
O O9 0.789307 0.500000 0.928613
O O10 0.000000 0.616522 0.935041
O O11 0.823577 0.909112 0.159038
O O12 0.723881 0.764424 0.123052
O O13 0.000000 0.804199 0.102718
O O14 0.786480 0.884849 0.047572
O O15 0.500000 0.589622 0.749292
O O16 0.742151 0.500000 0.749066
O O17 0.741273 0.674484 0.757602
O O18 0.500000 0.769040 0.754064
O O19 0.253189 0.832245 0.721972
O O20 0.500000 0.303003 0.177397
O O21 0.000000 0.112608 0.970067
O O22 0.216565 0.000000 0.965411
#
# Coordination Sequence:
#
# PCOD8188646 Si02
#       8
#     8   8   8   8   8   8   8   8
#     4   9  18  33  52  76 106 136 169 213 266 325
#     4  11  23  38  56  78 108 148 190 231 275 323
#     4  10  21  36  56  84 115 146 181 222 270 325
#     4   9  17  30  50  76 106 135 164 204 257 322
#     4   8  13  25  48  74  96 120 155 200 246 297
#     4   9  20  36  52  71  97 134 179 220 260 314
#     4  10  19  31  51  77 103 133 169 213 267 319
#     4  10  21  37  58  83 109 142 186 232 277 325
#
# _framework density 19.534796
#
# number of rings (size 3 to 8) (size 9 to 14) (size 15 to 20)
#    0.000    2.500    0.000    3.000    0.000    7.500 
#    0.000    1.875    0.000   11.250    0.000    0.000 
#    0.000    0.000    0.000    0.000    0.000    0.000 
#
# Total GULP energy -396434.448051 kJ/mol
# GULP energy per Si atom -12388.576502 kJ/mol
# Density = 1.949033 g / cm^3
# Si number density = 19.534796 Si / 1000 Ang^3
#
#
#
# Elastic Constant Matrix: (Units=GPa)
#
#
# Indices 1 2 3 4 5 6 
#
# 1 76.4569 29.8716 36.8764 0.0000 0.0000 0.0000
# 2 29.8716 51.6755 20.9362 0.0000 0.0000 0.0000
# 3 36.8764 20.9362 90.9551 0.0000 0.0000 0.0000
# 4 0.0000 0.0000 0.0000 17.0138 0.0000 0.0000
# 5 0.0000 0.0000 0.0000 0.0000 30.8289 0.0000
# 6 0.0000 0.0000 0.0000 0.0000 0.0000 23.2417
#
#
#
# Elastic Compliance Matrix: (Units=1/GPa)
#
#
# Indices 1 2 3 4 5 6 
#
# 1 0.019325 -0.008819 -0.005805 0.000000 0.000000 0.000000
# 2 -0.008819 0.025366 -0.002263 0.000000 0.000000 0.000000
# 3 -0.005805 -0.002263 0.013869 0.000000 0.000000 0.000000
# 4 0.000000 0.000000 0.000000 0.058776 0.000000 0.000000
# 5 0.000000 0.000000 0.000000 0.000000 0.032437 0.000000
# 6 0.000000 0.000000 0.000000 0.000000 0.000000 0.043026
#
#
# Mechanical properties :
#
#
# Convention : Reuss Voigt Hill
#
# Bulk Modulus (GPa) = 40.34619 43.82843 42.08731
# Shear Modulus (GPa) = 21.29150 22.97710 22.13430
#
# Velocity S-wave (km/s) = 3.30499 3.43332 3.36976
# Velocity P-wave (km/s) = 5.93820 6.18075 6.06069
#
# Compressibility (1/GPa) = 0.02478549
#
# Stress axis : x y z
#
# Youngs Moduli (GPa) = 51.74739 39.42220 72.10360
#
# Poissons Ratio (x) = 0.34766 0.41856
# Poissons Ratio (y) = 0.45636 0.16320
# Poissons Ratio (z) = 0.30039 0.08923
#
# Static dielectric constant tensor:
#      x y z
#    x 3.494460 0.000000 0.000000 
#    y 0.000000 3.590730 0.000000 
#    z 0.000000 0.000000 3.613380 
# 
# 
# High freq. dielectric constant tensor:
#      x y z
#    x 1.744860 0.000000 0.000000 
#    y 0.000000 1.745400 0.000000 
#    z 0.000000 0.000000 1.760690 
# 
# From -- ./inp_files/25155.got.cif
#   From: 2010.03.12/outbox.cif.g09.slc.cpg/sg44_13_cif.got.tgz:25155.got - 2010.04.14 02:36:11.
