data_PCOD8188403
_publ_section_title
;
Structure prediction by ZEFSAII (Michael W. Deem and Ramdas Pophale) SiO2 
 PCOD8188403
Probable space group: I M M 2
;
_chemical_formula_sum "Si O2"
_cell_formula_units_Z 64
_cell_length_a 30.891141
_cell_length_b 8.801163
_cell_length_c 11.941792
_cell_angle_alpha 90.000000
_cell_angle_beta 90.000000
_cell_angle_gamma 90.000000
_cell_volume 3246.710134
_symmetry_space_group_name_H-M "I M M 2"
_symmetry_group_IT_number 44
_symmetry_cell_setting 'orthorhombic'
loop_
_space_group_symop_operation_xyz
x,y,z
-x,-y,z
-x,y,z
x,-y,z
1/2+x,1/2+y,1/2+z
1/2-x,1/2-y,1/2+z
1/2-x,1/2+y,1/2+z
1/2+x,1/2-y,1/2+z
loop_
_atom_site_type_symbol
_atom_site_label
_atom_site_fract_x
_atom_site_fract_y
_atom_site_fract_z
Si Si1 0.373218 0.177846 0.823050
Si Si2 0.128417 0.679212 0.064232
Si Si3 0.296139 0.319701 0.425350
Si Si4 0.665908 0.680042 0.193474
Si Si5 0.430628 0.321709 0.195855
Si Si6 0.547334 0.177095 0.422475
Si Si7 0.703316 0.319756 0.961186
Si Si8 0.451629 0.325002 0.947844
O O1 0.377309 0.222925 0.693421
O O2 0.333253 0.270311 0.873682
O O3 0.418336 0.219867 0.881772
O O4 0.364378 0.000000 0.839025
O O5 0.132765 0.500000 0.048217
O O6 0.172343 0.755302 0.020504
O O7 0.086328 0.745353 0.998006
O O8 0.296792 0.500000 0.432892
O O9 0.311400 0.258648 0.304800
O O10 0.248032 0.260313 0.436067
O O11 0.664650 0.500000 0.191702
O O12 0.617674 0.745432 0.190476
O O13 0.690769 0.739096 0.084461
O O14 0.431007 0.500000 0.218372
O O15 0.454965 0.245680 0.298708
O O16 0.453334 0.280904 0.078843
O O17 0.500000 0.209535 0.478242
O O18 0.555516 0.000000 0.410532
O O19 0.708729 0.500000 0.955238
O O20 0.500000 0.300427 0.899080
O O21 0.436585 0.500000 0.935130
#
# Coordination Sequence:
#
# PCOD8188403 Si02
#       8
#     8   8   8   8   8   8   8   8
#     4  11  24  41  61  86 118 158 203 249 294 347
#     4  10  23  42  60  82 117 161 200 241 297 352
#     4  11  23  40  62  92 121 151 196 245 292 349
#     4   9  19  37  62  86 117 154 188 237 293 347
#     4  10  18  36  61  87 118 154 191 234 293 353
#     4  10  21  37  58  86 118 152 194 243 292 348
#     4  11  23  42  64  88 120 159 196 238 299 356
#     4  10  21  38  61  88 119 156 197 243 299 359
#
# _framework density 19.712261999999999
#
# number of rings (size 3 to 8) (size 9 to 14) (size 15 to 20)
#    0.000    1.750    2.500    1.500    1.750    3.000 
#    0.000    3.125    0.000    0.000    0.000    0.000 
#    0.000    0.000    0.000    0.000    0.000    0.000 
#
# Total GULP energy -396815.724484 kJ/mol
# GULP energy per Si atom -12400.491390 kJ/mol
# Density = 1.966740 g / cm^3
# Si number density = 19.712262 Si / 1000 Ang^3
#
#
#
# Elastic Constant Matrix: (Units=GPa)
#
#
# Indices 1 2 3 4 5 6 
#
# 1 126.0084 13.7301 38.7232 0.0000 0.0000 0.0000
# 2 13.7301 27.5272 22.4165 0.0000 0.0000 0.0000
# 3 38.7232 22.4165 106.4732 0.0000 0.0000 0.0000
# 4 0.0000 0.0000 0.0000 30.5164 0.0000 0.0000
# 5 0.0000 0.0000 0.0000 0.0000 20.1629 0.0000
# 6 0.0000 0.0000 0.0000 0.0000 0.0000 -64.0001
#
#
#
# Elastic Compliance Matrix: (Units=1/GPa)
#
#
# Indices 1 2 3 4 5 6 
#
# 1 0.009045 -0.002212 -0.002824 0.000000 0.000000 0.000000
# 2 -0.002212 0.044386 -0.008540 0.000000 0.000000 0.000000
# 3 -0.002824 -0.008540 0.012217 0.000000 0.000000 0.000000
# 4 0.000000 0.000000 0.000000 0.032769 0.000000 0.000000
# 5 0.000000 0.000000 0.000000 0.000000 0.049596 0.000000
# 6 0.000000 0.000000 0.000000 0.000000 0.000000 -0.015625
#
#
# Mechanical properties :
#
#
# Convention : Reuss Voigt Hill
#
# Bulk Modulus (GPa) = 25.97705 45.52760 35.75232
# Shear Modulus (GPa) = 29.00707 9.67844 19.34276
#
# Velocity S-wave (km/s) = 3.84021 2.21822 3.13590
# Velocity P-wave (km/s) = 5.73321 5.45040 5.59359
#
# Compressibility (1/GPa) = 0.03849552
#
# Stress axis : x y z
#
# Youngs Moduli (GPa) = 110.56125 22.52976 81.85257
#
# Poissons Ratio (x) = 0.04983 0.23114
# Poissons Ratio (y) = 0.24454 0.69905
# Poissons Ratio (z) = 0.31220 0.19241
#
# Static dielectric constant tensor:
#      x y z
#    x 3.751740 0.000000 0.000000 
#    y 0.000000 3.400090 0.000000 
#    z 0.000000 0.000000 3.743300 
# 
# 
# High freq. dielectric constant tensor:
#      x y z
#    x 1.787020 0.000000 0.000000 
#    y 0.000000 1.751630 0.000000 
#    z 0.000000 0.000000 1.771640 
# 
# From -- ./inp_files/15072.got.cif
#   From: 2010.03.12/outbox.cif.g09.slc.cpg/sg44_8_cif.got.tgz:15072.got - 2010.04.14 02:36:11.
