data_PCOD8188975
_publ_section_title
;
Structure prediction by ZEFSAII (Michael W. Deem and Ramdas Pophale) SiO2 
 PCOD8188975
Probable space group: I M M 2
;
_chemical_formula_sum "Si O2"
_cell_formula_units_Z 48
_cell_length_a 7.982199
_cell_length_b 7.763952
_cell_length_c 37.141927
_cell_angle_alpha 90.000000
_cell_angle_beta 90.000000
_cell_angle_gamma 90.000000
_cell_volume 2301.811866
_symmetry_space_group_name_H-M "I M M 2"
_symmetry_group_IT_number 44
_symmetry_cell_setting 'orthorhombic'
loop_
_space_group_symop_operation_xyz
x,y,z
-x,-y,z
-x,y,z
x,-y,z
1/2+x,1/2+y,1/2+z
1/2-x,1/2-y,1/2+z
1/2-x,1/2+y,1/2+z
1/2+x,1/2-y,1/2+z
loop_
_atom_site_type_symbol
_atom_site_label
_atom_site_fract_x
_atom_site_fract_y
_atom_site_fract_z
Si Si1 0.804031 0.810933 0.548320
Si Si2 0.192143 0.701855 0.625282
Si Si3 0.000000 0.301342 0.818224
Si Si4 0.319239 0.197263 0.699710
Si Si5 0.312136 0.500000 0.502506
Si Si6 0.690753 0.000000 0.924554
Si Si7 0.000000 0.196301 0.738532
Si Si8 0.192048 0.801346 0.369448
O O1 0.727207 0.755449 0.586865
O O2 0.770432 0.673614 0.517214
O O3 0.000000 0.819851 0.553765
O O4 0.733674 0.000000 0.537101
O O5 0.209904 0.500000 0.630028
O O6 0.292985 0.793133 0.656952
O O7 0.000000 0.761692 0.627958
O O8 0.000000 0.196701 0.781477
O O9 0.170795 0.253525 0.839310
O O10 0.000000 0.500000 0.808059
O O11 0.500000 0.283972 0.709215
O O12 0.166996 0.287700 0.721988
O O13 0.328506 0.000000 0.711578
O O14 0.500000 0.500000 0.516128
O O15 0.306540 0.500000 0.459416
O O16 0.728905 0.173631 0.902357
O O17 0.500000 0.000000 0.937772
O O18 0.000000 0.000000 0.724890
O O19 0.000000 0.773225 0.355231
O O20 0.216311 0.000000 0.382068
#
# Coordination Sequence:
#
# PCOD8188975 Si02
#       8
#     8   8   4   8   4   4   4   8
#     4  10  21  40  65  87 117 165 214 261 317 378
#     4  10  19  34  60  87 114 153 207 265 313 372
#     4  10  22  38  62  90 122 160 198 253 309 378
#     4  10  21  37  56  81 116 158 206 254 309 375
#     4  12  26  40  58  92 134 166 204 264 320 385
#     4  10  22  40  66  92 120 162 206 255 305 374
#     4  10  22  38  56  84 122 160 200 256 314 371
#     4   9  20  39  62  93 126 158 205 254 304 370
#
# _framework density 20.853135999999999
#
# number of rings (size 3 to 8) (size 9 to 14) (size 15 to 20)
#    0.000    2.000    1.667    1.250    2.333    4.000 
#    0.000    1.667    0.000    0.000    0.000    0.000 
#    0.000    0.000    0.000    0.000    0.000    0.000 
#
# Total GULP energy -297499.554724 kJ/mol
# GULP energy per Si atom -12395.814780 kJ/mol
# Density = 2.080567 g / cm^3
# Si number density = 20.853136 Si / 1000 Ang^3
#
#
#
# Elastic Constant Matrix: (Units=GPa)
#
#
# Indices 1 2 3 4 5 6 
#
# 1 127.0313 31.9669 58.1338 0.0000 0.0000 0.0000
# 2 31.9669 87.0116 39.8319 0.0000 0.0000 0.0000
# 3 58.1338 39.8319 129.7645 0.0000 0.0000 0.0000
# 4 0.0000 0.0000 0.0000 27.2661 0.0000 0.0000
# 5 0.0000 0.0000 0.0000 0.0000 13.6052 0.0000
# 6 0.0000 0.0000 0.0000 0.0000 0.0000 10.4497
#
#
#
# Elastic Compliance Matrix: (Units=1/GPa)
#
#
# Indices 1 2 3 4 5 6 
#
# 1 0.010171 -0.001921 -0.003967 0.000000 0.000000 0.000000
# 2 -0.001921 0.013734 -0.003355 0.000000 0.000000 0.000000
# 3 -0.003967 -0.003355 0.010513 0.000000 0.000000 0.000000
# 4 0.000000 0.000000 0.000000 0.036676 0.000000 0.000000
# 5 0.000000 0.000000 0.000000 0.000000 0.073501 0.000000
# 6 0.000000 0.000000 0.000000 0.000000 0.000000 0.095697
#
#
# Mechanical properties :
#
#
# Convention : Reuss Voigt Hill
#
# Bulk Modulus (GPa) = 62.76428 67.07472 64.91950
# Shear Modulus (GPa) = 18.93302 24.52253 21.72777
#
# Velocity S-wave (km/s) = 3.01644 3.43295 3.23142
# Velocity P-wave (km/s) = 6.50350 6.92450 6.71730
#
# Compressibility (1/GPa) = 0.01593263
#
# Stress axis : x y z
#
# Youngs Moduli (GPa) = 98.32077 72.81006 95.11691
#
# Poissons Ratio (x) = 0.13984 0.37732
# Poissons Ratio (y) = 0.18884 0.31915
# Poissons Ratio (z) = 0.39003 0.24431
#
# Static dielectric constant tensor:
#      x y z
#    x 4.073860 0.000000 0.000000 
#    y 0.000000 3.743990 0.000000 
#    z 0.000000 0.000000 3.482410 
# 
# 
# High freq. dielectric constant tensor:
#      x y z
#    x 1.820770 0.000000 0.000000 
#    y 0.000000 1.815760 0.000000 
#    z 0.000000 0.000000 1.797760 
# 
# From -- ./inp_files/27072.got.cif
#   From: 2010.03.12/outbox.cif.g09.slc.cpg/sg44_14_cif.got.tgz:27072.got - 2010.04.14 02:36:11.
