data_PCOD8188450
_publ_section_title
;
Structure prediction by ZEFSAII (Michael W. Deem and Ramdas Pophale) SiO2 
 PCOD8188450
Probable space group: I M M 2
;
_chemical_formula_sum "Si O2"
_cell_formula_units_Z 64
_cell_length_a 26.255894
_cell_length_b 8.952610
_cell_length_c 18.013432
_cell_angle_alpha 90.000000
_cell_angle_beta 90.000000
_cell_angle_gamma 90.000000
_cell_volume 4234.215335
_symmetry_space_group_name_H-M "I M M 2"
_symmetry_group_IT_number 44
_symmetry_cell_setting 'orthorhombic'
loop_
_space_group_symop_operation_xyz
x,y,z
-x,-y,z
-x,y,z
x,-y,z
1/2+x,1/2+y,1/2+z
1/2-x,1/2-y,1/2+z
1/2-x,1/2+y,1/2+z
1/2+x,1/2-y,1/2+z
loop_
_atom_site_type_symbol
_atom_site_label
_atom_site_fract_x
_atom_site_fract_y
_atom_site_fract_z
Si Si1 0.941386 0.671707 0.547090
Si Si2 0.702239 0.334795 0.659797
Si Si3 0.145835 0.173921 0.632621
Si Si4 0.802036 0.333155 0.759329
Si Si5 0.851120 0.824817 0.302668
Si Si6 0.558340 0.827705 0.876404
Si Si7 0.742830 0.823130 0.881243
Si Si8 0.744507 0.673512 0.037274
O O1 0.925807 0.500000 0.559796
O O2 0.907687 0.776321 0.598860
O O3 0.932191 0.716404 0.461785
O O4 0.000000 0.697571 0.568826
O O5 0.692680 0.500000 0.625959
O O6 0.751473 0.338435 0.711207
O O7 0.656301 0.287178 0.714991
O O8 0.709642 0.216173 0.593761
O O9 0.153631 0.255902 0.711308
O O10 0.190569 0.213531 0.574713
O O11 0.144776 0.000000 0.649617
O O12 0.819628 0.500000 0.781330
O O13 0.790155 0.240178 0.833670
O O14 0.907830 0.776533 0.324075
O O15 0.811411 0.737004 0.353847
O O16 0.842784 0.000000 0.317220
O O17 0.500000 0.798261 0.854598
O O18 0.572748 0.000000 0.863526
O O19 0.742713 0.000000 0.875144
O O20 0.751009 0.774143 0.965431
O O21 0.748719 0.500000 0.016659
#
# Coordination Sequence:
#
# PCOD8188450 Si02
#       8
#     8   8   8   8   8   8   8   8
#     4   9  18  31  44  59  82 113 147 181 216 251
#     4   8  16  29  42  58  81 109 139 172 210 249
#     4  10  19  29  43  63  85 111 144 178 213 253
#     4   9  17  30  45  60  82 110 140 174 210 250
#     4  10  19  30  44  62  85 113 145 178 213 254
#     4   9  18  31  45  62  85 113 146 182 216 250
#     4  11  20  29  43  62  86 114 143 175 211 251
#     4  10  19  29  42  62  86 111 142 176 209 251
#
# _framework density 15.114960999999999
#
# number of rings (size 3 to 8) (size 9 to 14) (size 15 to 20)
#    0.000    2.500    0.000    4.875    0.000    8.000 
#    0.000    1.250    0.000    0.000    0.000    0.000 
#    0.000    1.000    0.000    7.250    0.000    6.000 
#
# Total GULP energy -396780.352241 kJ/mol
# GULP energy per Si atom -12399.386008 kJ/mol
# Density = 1.508056 g / cm^3
# Si number density = 15.114961 Si / 1000 Ang^3
#
#
#
# Elastic Constant Matrix: (Units=GPa)
#
#
# Indices 1 2 3 4 5 6 
#
# 1 63.3202 36.3476 41.6332 0.0000 0.0000 0.0000
# 2 36.3476 98.0293 52.0429 0.0000 0.0000 0.0000
# 3 41.6332 52.0429 78.5206 0.0000 0.0000 0.0000
# 4 0.0000 0.0000 0.0000 28.2814 0.0000 0.0000
# 5 0.0000 0.0000 0.0000 0.0000 26.5573 0.0000
# 6 0.0000 0.0000 0.0000 0.0000 0.0000 24.1258
#
#
#
# Elastic Compliance Matrix: (Units=1/GPa)
#
#
# Indices 1 2 3 4 5 6 
#
# 1 0.024975 -0.003441 -0.010962 0.000000 0.000000 0.000000
# 2 -0.003441 0.016213 -0.008922 0.000000 0.000000 0.000000
# 3 -0.010962 -0.008922 0.024461 0.000000 0.000000 0.000000
# 4 0.000000 0.000000 0.000000 0.035359 0.000000 0.000000
# 5 0.000000 0.000000 0.000000 0.000000 0.037654 0.000000
# 6 0.000000 0.000000 0.000000 0.000000 0.000000 0.041449
#
#
# Mechanical properties :
#
#
# Convention : Reuss Voigt Hill
#
# Bulk Modulus (GPa) = 52.62929 55.54638 54.08783
# Shear Modulus (GPa) = 21.45053 23.11600 22.28326
#
# Velocity S-wave (km/s) = 3.77126 3.91493 3.84376
# Velocity P-wave (km/s) = 7.33881 7.56734 7.45395
#
# Compressibility (1/GPa) = 0.01900083
#
# Stress axis : x y z
#
# Youngs Moduli (GPa) = 40.03944 61.67802 40.88161
#
# Poissons Ratio (x) = 0.21223 0.44814
# Poissons Ratio (y) = 0.13777 0.36473
# Poissons Ratio (z) = 0.43891 0.55027
#
# Static dielectric constant tensor:
#      x y z
#    x 2.734490 0.000000 0.000000 
#    y 0.000000 2.985610 0.000000 
#    z 0.000000 0.000000 2.917130 
# 
# 
# High freq. dielectric constant tensor:
#      x y z
#    x 1.544130 0.000000 0.000000 
#    y 0.000000 1.592370 0.000000 
#    z 0.000000 0.000000 1.566040 
# 
# From -- ./inp_files/17096.got.cif
#   From: 2010.03.12/outbox.cif.g09.slc.cpg/sg44_9_cif.got.tgz:17096.got - 2010.04.14 02:36:11.
