data_PCOD8188025
_publ_section_title
;
Structure prediction by ZEFSAII (Michael W. Deem and Ramdas Pophale) SiO2 
 PCOD8188025
Probable space group: I M M 2
;
_chemical_formula_sum "Si O2"
_cell_formula_units_Z 64
_cell_length_a 14.558119
_cell_length_b 9.354304
_cell_length_c 28.522765
_cell_angle_alpha 90.000000
_cell_angle_beta 90.000000
_cell_angle_gamma 90.000000
_cell_volume 3884.260680
_symmetry_space_group_name_H-M "I M M 2"
_symmetry_group_IT_number 44
_symmetry_cell_setting 'orthorhombic'
loop_
_space_group_symop_operation_xyz
x,y,z
-x,-y,z
-x,y,z
x,-y,z
1/2+x,1/2+y,1/2+z
1/2-x,1/2-y,1/2+z
1/2-x,1/2+y,1/2+z
1/2+x,1/2-y,1/2+z
loop_
_atom_site_type_symbol
_atom_site_label
_atom_site_fract_x
_atom_site_fract_y
_atom_site_fract_z
Si Si1 0.396610 0.830031 0.964840
Si Si2 0.105326 0.334842 0.739748
Si Si3 0.897257 0.670037 0.569004
Si Si4 0.893918 0.667363 0.188793
Si Si5 0.729273 0.169163 0.152311
Si Si6 0.101685 0.330112 0.293783
Si Si7 0.718856 0.831225 0.879326
Si Si8 0.102393 0.832866 0.832436
O O1 0.500000 0.779292 0.952230
O O2 0.325046 0.764984 0.926715
O O3 0.393052 0.000000 0.963959
O O4 0.368988 0.776210 0.016857
O O5 0.120518 0.500000 0.751958
O O6 0.168747 0.285546 0.696973
O O7 0.133530 0.245359 0.785256
O O8 0.000000 0.304962 0.725400
O O9 0.898609 0.500000 0.570742
O O10 0.823735 0.728046 0.606382
O O11 0.000000 0.725913 0.581180
O O12 0.873631 0.500000 0.183157
O O13 0.828288 0.754940 0.153845
O O14 0.871114 0.721356 0.241614
O O15 0.000000 0.700390 0.176364
O O16 0.744113 0.000000 0.149916
O O17 0.102769 0.500000 0.293635
O O18 0.169584 0.266917 0.333069
O O19 0.000000 0.274655 0.306330
O O20 0.827157 0.793540 0.874585
O O21 0.702845 0.000000 0.880391
O O22 0.000000 0.786204 0.848258
O O23 0.107173 0.000000 0.821058
#
# Coordination Sequence:
#
# PCOD8188025 Si02
#       8
#     8   8   8   8   8   8   8   8
#     4   8  13  21  35  57  83 107 130 159 199 247
#     4   9  17  28  41  59  84 113 144 174 204 244
#     4   8  14  25  40  59  84 110 134 164 206 254
#     4   9  18  31  44  59  83 115 145 171 202 241
#     4  10  18  27  43  64  84 109 140 173 209 246
#     4   8  13  21  34  53  76 101 129 160 195 235
#     4   9  14  20  34  55  79 105 131 162 199 238
#     4   9  17  27  38  55  81 111 139 168 204 242
#
# _framework density 16.476752000000001
#
# number of rings (size 3 to 8) (size 9 to 14) (size 15 to 20)
#    0.000    3.250    0.000    3.000    0.000    4.750 
#    0.000    0.000    0.000    1.875    0.000    4.375 
#    0.000    3.000    0.000    0.250    0.000    0.125 
#
# Total GULP energy -396564.431683 kJ/mol
# GULP energy per Si atom -12392.638490 kJ/mol
# Density = 1.643925 g / cm^3
# Si number density = 16.476752 Si / 1000 Ang^3
#
#
#
# Elastic Constant Matrix: (Units=GPa)
#
#
# Indices 1 2 3 4 5 6 
#
# 1 123.3066 24.8386 86.7292 0.0000 0.0000 0.0000
# 2 24.8386 16.9334 21.2233 0.0000 0.0000 0.0000
# 3 86.7292 21.2233 118.3354 0.0000 0.0000 0.0000
# 4 0.0000 0.0000 0.0000 12.5130 0.0000 0.0000
# 5 0.0000 0.0000 0.0000 0.0000 31.5809 0.0000
# 6 0.0000 0.0000 0.0000 0.0000 0.0000 18.8727
#
#
#
# Elastic Compliance Matrix: (Units=1/GPa)
#
#
# Indices 1 2 3 4 5 6 
#
# 1 0.018805 -0.013300 -0.011397 0.000000 0.000000 0.000000
# 2 -0.013300 0.085584 -0.005602 0.000000 0.000000 0.000000
# 3 -0.011397 -0.005602 0.017809 0.000000 0.000000 0.000000
# 4 0.000000 0.000000 0.000000 0.079917 0.000000 0.000000
# 5 0.000000 0.000000 0.000000 0.000000 0.031665 0.000000
# 6 0.000000 0.000000 0.000000 0.000000 0.000000 0.052986
#
#
# Mechanical properties :
#
#
# Convention : Reuss Voigt Hill
#
# Bulk Modulus (GPa) = 16.23371 58.23975 37.23673
# Shear Modulus (GPa) = 13.59073 20.97896 17.28485
#
# Velocity S-wave (km/s) = 2.87512 3.57213 3.24241
# Velocity P-wave (km/s) = 4.57118 7.24133 6.05527
#
# Compressibility (1/GPa) = 0.06160020
#
# Stress axis : x y z
#
# Youngs Moduli (GPa) = 53.17620 11.68437 56.15289
#
# Poissons Ratio (x) = 0.15540 0.64000
# Poissons Ratio (y) = 0.70723 0.31457
# Poissons Ratio (z) = 0.60607 0.06546
#
# Static dielectric constant tensor:
#      x y z
#    x 3.266030 0.000000 0.000000 
#    y 0.000000 2.583220 0.000000 
#    z 0.000000 0.000000 3.281930 
# 
# 
# High freq. dielectric constant tensor:
#      x y z
#    x 1.639850 0.000000 0.000000 
#    y 0.000000 1.577140 0.000000 
#    z 0.000000 0.000000 1.621080 
# 
# From -- ./inp_files/27352.got.cif
#   From: 2010.03.12/outbox.cif.g09.slc.cpg/sg44_14_cif.got.tgz:27352.got - 2010.04.14 02:36:11.
