data_PCOD8188744
_publ_section_title
;
Structure prediction by ZEFSAII (Michael W. Deem and Ramdas Pophale) SiO2 
 PCOD8188744
Probable space group: I M M 2
;
_chemical_formula_sum "Si O2"
_cell_formula_units_Z 64
_cell_length_a 9.545489
_cell_length_b 28.597236
_cell_length_c 12.633268
_cell_angle_alpha 90.000000
_cell_angle_beta 90.000000
_cell_angle_gamma 90.000000
_cell_volume 3448.561300
_symmetry_space_group_name_H-M "I M M 2"
_symmetry_group_IT_number 44
_symmetry_cell_setting 'orthorhombic'
loop_
_space_group_symop_operation_xyz
x,y,z
-x,-y,z
-x,y,z
x,-y,z
1/2+x,1/2+y,1/2+z
1/2-x,1/2-y,1/2+z
1/2-x,1/2+y,1/2+z
1/2+x,1/2-y,1/2+z
loop_
_atom_site_type_symbol
_atom_site_label
_atom_site_fract_x
_atom_site_fract_y
_atom_site_fract_z
Si Si1 0.160084 0.708133 0.947520
Si Si2 0.166283 0.446775 0.665591
Si Si3 0.165469 0.609510 0.869773
Si Si4 0.655181 0.168231 0.674388
Si Si5 0.658048 0.448209 0.027637
Si Si6 0.161381 0.086101 0.749382
Si Si7 0.165588 0.599146 0.446454
Si Si8 0.345288 0.795569 0.896415
O O1 0.203628 0.664791 0.870463
O O2 0.244816 0.754748 0.930596
O O3 0.000000 0.720880 0.926449
O O4 0.189573 0.694756 0.067697
O O5 0.224335 0.500000 0.673348
O O6 0.223065 0.415562 0.763540
O O7 0.217345 0.422738 0.557065
O O8 0.000000 0.447415 0.668455
O O9 0.233720 0.586842 0.973517
O O10 0.000000 0.602579 0.881780
O O11 0.500000 0.143842 0.667673
O O12 0.780398 0.133146 0.697172
O O13 0.652078 0.205281 0.769512
O O14 0.500000 0.431508 0.001133
O O15 0.685272 0.500000 0.982320
O O16 0.677338 0.451379 0.155055
O O17 0.252352 0.072017 0.852554
O O18 0.000000 0.092659 0.784017
O O19 0.205594 0.654046 0.441697
O O20 0.000000 0.592044 0.428384
O O21 0.500000 0.785420 0.942096
#
# Coordination Sequence:
#
# PCOD8188744 Si02
#       8
#     8   8   8   8   8   8   8   8
#     4  10  20  33  53  79 107 138 179 228 274 321
#     4   9  18  34  57  83 110 142 183 231 280 329
#     4  10  20  35  56  81 107 140 184 230 272 324
#     4   9  18  35  53  72 103 139 172 218 274 323
#     4  10  21  35  51  76 110 141 170 214 273 330
#     4  10  19  32  53  78 102 135 177 220 266 320
#     4   9  19  36  55  76 109 146 180 224 276 327
#     4   9  19  33  51  75 104 141 180 218 268 327
#
# _framework density 18.558464000000001
#
# number of rings (size 3 to 8) (size 9 to 14) (size 15 to 20)
#    0.000    2.500    1.250    1.500    0.000    5.750 
#    0.000    1.875    0.000    0.750    0.000    0.000 
#    0.000    0.000    0.000    0.000    0.000    0.000 
#
# Total GULP energy -396622.661228 kJ/mol
# GULP energy per Si atom -12394.458163 kJ/mol
# Density = 1.851622 g / cm^3
# Si number density = 18.558464 Si / 1000 Ang^3
#
#
#
# Elastic Constant Matrix: (Units=GPa)
#
#
# Indices 1 2 3 4 5 6 
#
# 1 56.3320 29.1066 29.4860 0.0000 0.0000 0.0000
# 2 29.1066 85.1165 42.3735 0.0003 -0.0001 0.0000
# 3 29.4860 42.3735 111.6615 -0.0001 0.0000 0.0000
# 4 0.0000 0.0003 -0.0001 22.2528 0.0000 0.0000
# 5 0.0000 -0.0001 0.0000 0.0000 25.4684 0.0000
# 6 0.0000 0.0000 0.0000 0.0000 0.0000 21.5485
#
#
#
# Elastic Compliance Matrix: (Units=1/GPa)
#
#
# Indices 1 2 3 4 5 6 
#
# 1 0.022781 -0.005912 -0.003772 0.000000 0.000000 0.000000
# 2 -0.005912 0.016020 -0.004518 0.000000 0.000000 0.000000
# 3 -0.003772 -0.004518 0.011666 0.000000 0.000000 0.000000
# 4 0.000000 0.000000 0.000000 0.044938 0.000000 0.000000
# 5 0.000000 0.000000 0.000000 0.000000 0.039264 0.000000
# 6 0.000000 0.000000 0.000000 0.000000 0.000000 0.046407
#
#
# Mechanical properties :
#
#
# Convention : Reuss Voigt Hill
#
# Bulk Modulus (GPa) = 45.32641 50.56023 47.94332
# Shear Modulus (GPa) = 23.05897 23.99686 23.52791
#
# Velocity S-wave (km/s) = 3.52874 3.59979 3.56444
# Velocity P-wave (km/s) = 6.40931 6.67689 6.54447
#
# Compressibility (1/GPa) = 0.02206219
#
# Stress axis : x y z
#
# Youngs Moduli (GPa) = 43.89568 62.42372 85.71802
#
# Poissons Ratio (x) = 0.36908 0.32334
# Poissons Ratio (y) = 0.25953 0.38726
# Poissons Ratio (z) = 0.16558 0.28202
#
# Static dielectric constant tensor:
#      x y z
#    x 3.291850 0.000000 0.000000 
#    y 0.000000 3.322750 0.000000 
#    z 0.000000 0.000000 3.712800 
# 
# 
# High freq. dielectric constant tensor:
#      x y z
#    x 1.704390 0.000000 0.000000 
#    y 0.000000 1.709880 0.000000 
#    z 0.000000 0.000000 1.725120 
# 
# From -- ./inp_files/11580.got.cif
#   From: 2010.03.12/outbox.cif.g09.slc.cpg/sg44_6_cif.got.tgz:11580.got - 2010.04.14 02:36:11.
