data_PCOD8188930
_publ_section_title
;
Structure prediction by ZEFSAII (Michael W. Deem and Ramdas Pophale) SiO2 
 PCOD8188930
Probable space group: I M M 2
;
_chemical_formula_sum "Si O2"
_cell_formula_units_Z 56
_cell_length_a 18.410080
_cell_length_b 9.119996
_cell_length_c 17.330720
_cell_angle_alpha 90.000000
_cell_angle_beta 90.000000
_cell_angle_gamma 90.000000
_cell_volume 2909.825392
_symmetry_space_group_name_H-M "I M M 2"
_symmetry_group_IT_number 44
_symmetry_cell_setting 'orthorhombic'
loop_
_space_group_symop_operation_xyz
x,y,z
-x,-y,z
-x,y,z
x,-y,z
1/2+x,1/2+y,1/2+z
1/2-x,1/2-y,1/2+z
1/2-x,1/2+y,1/2+z
1/2+x,1/2-y,1/2+z
loop_
_atom_site_type_symbol
_atom_site_label
_atom_site_fract_x
_atom_site_fract_y
_atom_site_fract_z
Si Si1 0.807573 0.674054 0.526950
Si Si2 0.418130 0.174473 0.900596
Si Si3 0.584214 0.329605 0.310422
Si Si4 0.814395 0.325670 0.702619
Si Si5 0.347023 0.326984 0.470016
Si Si6 0.582710 0.833298 0.605599
Si Si7 0.827008 0.673679 0.253232
O O1 0.806725 0.500000 0.526302
O O2 0.876270 0.731040 0.477240
O O3 0.812229 0.731829 0.614437
O O4 0.733699 0.733465 0.487618
O O5 0.500000 0.239499 0.900434
O O6 0.374062 0.229399 0.825792
O O7 0.421855 0.000000 0.899363
O O8 0.500000 0.298098 0.325067
O O9 0.598503 0.500000 0.292291
O O10 0.610375 0.231731 0.238569
O O11 0.628857 0.277070 0.385320
O O12 0.809737 0.500000 0.706917
O O13 0.749872 0.255183 0.752847
O O14 0.350455 0.500000 0.477819
O O15 0.403807 0.264170 0.531053
O O16 0.500000 0.817357 0.632421
O O17 0.631286 0.778088 0.676298
O O18 0.601960 0.000000 0.584559
O O19 0.813578 0.500000 0.258324
#
# Coordination Sequence:
#
# PCOD8188930 Si02
#       7
#     8   8   8   8   8   8   8
#     4   9  18  32  52  80 110 139 179 228 273 321
#     4   9  17  31  54  81 106 137 181 231 275 318
#     4  10  22  39  59  83 110 145 189 233 278 330
#     4  11  22  36  56  83 113 146 184 227 276 330
#     4  10  19  36  58  79 107 143 187 230 273 330
#     4  10  20  32  50  81 117 147 178 223 279 334
#     4  10  19  34  56  81 111 145 182 223 272 330
#
# _framework density 19.245141
#
# number of rings (size 3 to 8) (size 9 to 14) (size 15 to 20)
#    0.000    2.143    1.429    2.143    0.000    6.286 
#    0.000    1.429    0.000    2.143    0.000    0.000 
#    0.000    0.000    0.000    0.000    0.000    0.000 
#
# Total GULP energy -347251.112589 kJ/mol
# GULP energy per Si atom -12401.825450 kJ/mol
# Density = 1.920134 g / cm^3
# Si number density = 19.245141 Si / 1000 Ang^3
#
#
#
# Elastic Constant Matrix: (Units=GPa)
#
#
# Indices 1 2 3 4 5 6 
#
# 1 113.2771 29.2931 73.1569 0.0000 0.0000 0.0000
# 2 29.2931 28.9310 32.6561 0.0000 0.0000 0.0000
# 3 73.1569 32.6561 133.0590 0.0000 0.0000 0.0000
# 4 0.0000 0.0000 0.0000 25.3421 0.0000 0.0000
# 5 0.0000 0.0000 0.0000 0.0000 37.1533 0.0000
# 6 0.0000 0.0000 0.0000 0.0000 0.0000 25.9284
#
#
#
# Elastic Compliance Matrix: (Units=1/GPa)
#
#
# Indices 1 2 3 4 5 6 
#
# 1 0.014946 -0.008102 -0.006229 0.000000 0.000000 0.000000
# 2 -0.008102 0.052201 -0.008357 0.000000 0.000000 0.000000
# 3 -0.006229 -0.008357 0.012991 0.000000 0.000000 0.000000
# 4 0.000000 0.000000 0.000000 0.039460 0.000000 0.000000
# 5 0.000000 0.000000 0.000000 0.000000 0.026916 0.000000
# 6 0.000000 0.000000 0.000000 0.000000 0.000000 0.038568
#
#
# Mechanical properties :
#
#
# Convention : Reuss Voigt Hill
#
# Bulk Modulus (GPa) = 28.76656 60.60882 44.68769
# Shear Modulus (GPa) = 20.65733 27.02883 23.84308
#
# Velocity S-wave (km/s) = 3.27980 3.75166 3.52364
# Velocity P-wave (km/s) = 5.41504 7.09423 6.31073
#
# Compressibility (1/GPa) = 0.03476259
#
# Stress axis : x y z
#
# Youngs Moduli (GPa) = 66.90843 19.15659 76.97525
#
# Poissons Ratio (x) = 0.15521 0.47947
# Poissons Ratio (y) = 0.54209 0.64329
# Poissons Ratio (z) = 0.41677 0.16009
#
# Static dielectric constant tensor:
#      x y z
#    x 3.676920 0.000000 0.000000 
#    y 0.000000 3.123410 0.000000 
#    z 0.000000 0.000000 3.668310 
# 
# 
# High freq. dielectric constant tensor:
#      x y z
#    x 1.760360 0.000000 0.000000 
#    y 0.000000 1.706330 0.000000 
#    z 0.000000 0.000000 1.758860 
# 
# From -- ./inp_files/19194.got.cif
#   From: 2010.03.12/outbox.cif.g09.slc.cpg/sg44_10_cif.got.tgz:19194.got - 2010.04.14 02:36:11.
