data_PCOD8188334
_publ_section_title
;
Structure prediction by ZEFSAII (Michael W. Deem and Ramdas Pophale) SiO2 
 PCOD8188334
Probable space group: I M M 2
;
_chemical_formula_sum "Si O2"
_cell_formula_units_Z 64
_cell_length_a 30.743080
_cell_length_b 8.847395
_cell_length_c 12.054456
_cell_angle_alpha 90.000000
_cell_angle_beta 90.000000
_cell_angle_gamma 90.000000
_cell_volume 3278.765891
_symmetry_space_group_name_H-M "I M M 2"
_symmetry_group_IT_number 44
_symmetry_cell_setting 'orthorhombic'
loop_
_space_group_symop_operation_xyz
x,y,z
-x,-y,z
-x,y,z
x,-y,z
1/2+x,1/2+y,1/2+z
1/2-x,1/2-y,1/2+z
1/2-x,1/2+y,1/2+z
1/2+x,1/2-y,1/2+z
loop_
_atom_site_type_symbol
_atom_site_label
_atom_site_fract_x
_atom_site_fract_y
_atom_site_fract_z
Si Si1 0.548571 0.679303 0.789360
Si Si2 0.202536 0.677905 0.831889
Si Si3 0.625508 0.680228 0.942488
Si Si4 0.327521 0.328226 0.546037
Si Si5 0.799080 0.179351 0.285411
Si Si6 0.451157 0.172599 0.326350
Si Si7 0.429380 0.671874 0.545740
Si Si8 0.625319 0.679016 0.193942
O O1 0.500000 0.729151 0.825315
O O2 0.553288 0.500000 0.785594
O O3 0.583072 0.744767 0.877982
O O4 0.558967 0.740784 0.666089
O O5 0.198471 0.500000 0.814974
O O6 0.250258 0.739659 0.800475
O O7 0.167505 0.757639 0.754528
O O8 0.195857 0.718783 0.959812
O O9 0.624538 0.500000 0.941322
O O10 0.668978 0.741885 0.881631
O O11 0.625058 0.740877 0.068091
O O12 0.310400 0.500000 0.531837
O O13 0.316816 0.263955 0.667416
O O14 0.378379 0.322204 0.524311
O O15 0.800134 0.000000 0.290275
O O16 0.500000 0.187769 0.278114
O O17 0.452365 0.227388 0.453232
O O18 0.419149 0.272152 0.252359
O O19 0.434962 0.000000 0.323127
O O20 0.446555 0.500000 0.536075
O O21 0.627979 0.500000 0.198461
#
# Coordination Sequence:
#
# PCOD8188334 Si02
#       8
#     8   8   8   8   8   8   8   8
#     4   9  16  28  51  84 115 141 177 229 283 331
#     4  11  23  37  57  83 115 153 191 232 283 339
#     4   9  18  34  54  79 112 147 184 230 283 333
#     4  10  19  35  60  85 113 148 187 233 283 332
#     4   9  19  36  56  81 115 152 186 231 288 339
#     4  11  24  40  58  81 114 153 188 228 280 337
#     4  10  18  32  58  88 116 144 180 228 280 335
#     4  11  23  38  59  83 112 148 189 239 281 328
#
# _framework density 19.519539999999999
#
# number of rings (size 3 to 8) (size 9 to 14) (size 15 to 20)
#    0.000    2.000    2.500    1.500    1.750    2.000 
#    0.000    1.875    0.000    3.000    0.000    1.750 
#    0.000    0.000    0.000    0.000    0.000    0.000 
#
# Total GULP energy -396819.305500 kJ/mol
# GULP energy per Si atom -12400.603297 kJ/mol
# Density = 1.947511 g / cm^3
# Si number density = 19.519540 Si / 1000 Ang^3
#
#
#
# Elastic Constant Matrix: (Units=GPa)
#
#
# Indices 1 2 3 4 5 6 
#
# 1 133.5560 27.8693 60.8901 0.0000 0.0000 0.0000
# 2 27.8693 46.9097 27.7957 0.0000 0.0000 0.0000
# 3 60.8901 27.7957 147.3240 0.0000 0.0000 0.0000
# 4 0.0000 0.0000 0.0000 13.4438 0.0000 0.0000
# 5 0.0000 0.0000 0.0000 0.0000 25.2207 0.0000
# 6 0.0000 0.0000 0.0000 0.0000 0.0000 13.1381
#
#
#
# Elastic Compliance Matrix: (Units=1/GPa)
#
#
# Indices 1 2 3 4 5 6 
#
# 1 0.009809 -0.003856 -0.003326 0.000000 0.000000 0.000000
# 2 -0.003856 0.025517 -0.003220 0.000000 0.000000 0.000000
# 3 -0.003326 -0.003220 0.008770 0.000000 0.000000 0.000000
# 4 0.000000 0.000000 0.000000 0.074384 0.000000 0.000000
# 5 0.000000 0.000000 0.000000 0.000000 0.039650 0.000000
# 6 0.000000 0.000000 0.000000 0.000000 0.000000 0.076114
#
#
# Mechanical properties :
#
#
# Convention : Reuss Voigt Hill
#
# Bulk Modulus (GPa) = 42.93813 62.32220 52.63017
# Shear Modulus (GPa) = 19.02491 24.44285 21.73388
#
# Velocity S-wave (km/s) = 3.12534 3.54252 3.34045
# Velocity P-wave (km/s) = 5.92190 6.98069 6.47298
#
# Compressibility (1/GPa) = 0.02328932
#
# Stress axis : x y z
#
# Youngs Moduli (GPa) = 101.94926 39.18980 114.02254
#
# Poissons Ratio (x) = 0.15113 0.37929
# Poissons Ratio (y) = 0.39316 0.36720
# Poissons Ratio (z) = 0.33913 0.12621
#
# Static dielectric constant tensor:
#      x y z
#    x 3.746000 0.000000 0.000000 
#    y 0.000000 3.172260 0.000000 
#    z 0.000000 0.000000 3.749490 
# 
# 
# High freq. dielectric constant tensor:
#      x y z
#    x 1.775150 0.000000 0.000000 
#    y 0.000000 1.717350 0.000000 
#    z 0.000000 0.000000 1.767850 
# 
# From -- ./inp_files/11538.got.cif
#   From: 2010.03.12/outbox.cif.g09.slc.cpg/sg44_6_cif.got.tgz:11538.got - 2010.04.14 02:36:11.
