data_PCOD8188015
_publ_section_title
;
Structure prediction by ZEFSAII (Michael W. Deem and Ramdas Pophale) SiO2 
 PCOD8188015
Probable space group: I M M 2
;
_chemical_formula_sum "Si O2"
_cell_formula_units_Z 48
_cell_length_a 13.895081
_cell_length_b 8.845746
_cell_length_c 24.167620
_cell_angle_alpha 90.000000
_cell_angle_beta 90.000000
_cell_angle_gamma 90.000000
_cell_volume 2970.499142
_symmetry_space_group_name_H-M "I M M 2"
_symmetry_group_IT_number 44
_symmetry_cell_setting 'orthorhombic'
loop_
_space_group_symop_operation_xyz
x,y,z
-x,-y,z
-x,y,z
x,-y,z
1/2+x,1/2+y,1/2+z
1/2-x,1/2-y,1/2+z
1/2-x,1/2+y,1/2+z
1/2+x,1/2-y,1/2+z
loop_
_atom_site_type_symbol
_atom_site_label
_atom_site_fract_x
_atom_site_fract_y
_atom_site_fract_z
Si Si1 0.107813 0.179710 0.882530
Si Si2 0.717619 0.679106 0.276167
Si Si3 0.788113 0.822177 0.110600
Si Si4 0.108929 0.676919 0.676671
Si Si5 0.391152 0.320181 0.504338
Si Si6 0.108854 0.179186 0.220411
O O1 0.180442 0.239484 0.835624
O O2 0.000000 0.240742 0.870571
O O3 0.105421 0.000000 0.881581
O O4 0.142156 0.236721 0.943420
O O5 0.724595 0.500000 0.274333
O O6 0.641101 0.731897 0.230475
O O7 0.823336 0.748081 0.267064
O O8 0.677355 0.779328 0.124624
O O9 0.821610 0.750188 0.052012
O O10 0.856321 0.763083 0.160204
O O11 0.801020 0.000000 0.106076
O O12 0.120039 0.500000 0.690419
O O13 0.000000 0.720220 0.660749
O O14 0.500000 0.266074 0.516306
O O15 0.387143 0.500000 0.505525
O O16 0.000000 0.233858 0.230435
O O17 0.118155 0.000000 0.224576
#
# Coordination Sequence:
#
# PCOD8188015 Si02
#       6
#     8   8   8   8   8   8
#     4   8  14  23  35  55  83 110 133 160 198 242
#     4  10  18  27  41  61  85 110 136 168 203 240
#     4   8  13  22  38  59  80 102 130 164 202 241
#     4   9  17  28  41  59  84 111 138 169 203 240
#     4   8  12  19  34  56  80 104 129 160 201 246
#     4   9  17  29  44  62  84 108 134 165 201 243
#
# _framework density 16.158901
#
# number of rings (size 3 to 8) (size 9 to 14) (size 15 to 20)
#    0.000    3.333    0.000    3.500    0.000    3.333 
#    0.000    0.000    0.000    1.000    0.000   14.000 
#    0.000   10.667    0.000    0.000    0.000    0.000 
#
# Total GULP energy -297392.605103 kJ/mol
# GULP energy per Si atom -12391.358546 kJ/mol
# Density = 1.612212 g / cm^3
# Si number density = 16.158901 Si / 1000 Ang^3
#
#
#
# Elastic Constant Matrix: (Units=GPa)
#
#
# Indices 1 2 3 4 5 6 
#
# 1 148.8300 20.5839 88.6211 0.0000 0.0000 0.0000
# 2 20.5839 17.8718 16.2638 0.0000 0.0000 0.0000
# 3 88.6211 16.2638 148.3040 0.0000 0.0000 0.0000
# 4 0.0000 0.0000 0.0000 15.0806 0.0000 0.0000
# 5 0.0000 0.0000 0.0000 0.0000 30.2279 0.0000
# 6 0.0000 0.0000 0.0000 0.0000 0.0000 17.6414
#
#
#
# Elastic Compliance Matrix: (Units=1/GPa)
#
#
# Indices 1 2 3 4 5 6 
#
# 1 0.011295 -0.007628 -0.005913 0.000000 0.000000 0.000000
# 2 -0.007628 0.067309 -0.002823 0.000000 0.000000 0.000000
# 3 -0.005913 -0.002823 0.010586 0.000000 0.000000 0.000000
# 4 0.000000 0.000000 0.000000 0.066310 0.000000 0.000000
# 5 0.000000 0.000000 0.000000 0.000000 0.033082 0.000000
# 6 0.000000 0.000000 0.000000 0.000000 0.000000 0.056685
#
#
# Mechanical properties :
#
#
# Convention : Reuss Voigt Hill
#
# Bulk Modulus (GPa) = 17.71122 62.88260 40.29691
# Shear Modulus (GPa) = 16.84546 25.22578 21.03562
#
# Velocity S-wave (km/s) = 3.23226 3.95537 3.61196
# Velocity P-wave (km/s) = 4.99144 7.73690 6.51053
#
# Compressibility (1/GPa) = 0.05646138
#
# Stress axis : x y z
#
# Youngs Moduli (GPa) = 88.53535 14.85686 94.46578
#
# Poissons Ratio (x) = 0.11333 0.55857
# Poissons Ratio (y) = 0.67536 0.26669
# Poissons Ratio (z) = 0.52350 0.04194
#
# Static dielectric constant tensor:
#      x y z
#    x 3.198460 0.000000 0.000000 
#    y 0.000000 2.625700 0.000000 
#    z 0.000000 0.000000 3.416640 
# 
# 
# High freq. dielectric constant tensor:
#      x y z
#    x 1.615910 0.000000 0.000000 
#    y 0.000000 1.576400 0.000000 
#    z 0.000000 0.000000 1.616980 
# 
# From -- ./inp_files/22895.got.cif
#   From: 2010.03.12/outbox.cif.g09.slc.cpg/sg44_12_cif.got.tgz:22895.got - 2010.04.14 02:36:11.
