data_PCOD8188124
_publ_section_title
;
Structure prediction by ZEFSAII (Michael W. Deem and Ramdas Pophale) SiO2 
 PCOD8188124
Probable space group: I M M 2
;
_chemical_formula_sum "Si O2"
_cell_formula_units_Z 56
_cell_length_a 23.737070
_cell_length_b 12.714181
_cell_length_c 12.180846
_cell_angle_alpha 90.000000
_cell_angle_beta 90.000000
_cell_angle_gamma 90.000000
_cell_volume 3676.147706
_symmetry_space_group_name_H-M "I M M 2"
_symmetry_group_IT_number 44
_symmetry_cell_setting 'orthorhombic'
loop_
_space_group_symop_operation_xyz
x,y,z
-x,-y,z
-x,y,z
x,-y,z
1/2+x,1/2+y,1/2+z
1/2-x,1/2-y,1/2+z
1/2-x,1/2+y,1/2+z
1/2+x,1/2-y,1/2+z
loop_
_atom_site_type_symbol
_atom_site_label
_atom_site_fract_x
_atom_site_fract_y
_atom_site_fract_z
Si Si1 0.228763 0.622428 0.800560
Si Si2 0.436467 0.620129 0.809892
Si Si3 0.936363 0.773495 0.087256
Si Si4 0.828273 0.246579 0.972154
Si Si5 0.666485 0.253384 0.875812
Si Si6 0.273772 0.121621 0.043683
Si Si7 0.147024 0.623465 0.168065
O O1 0.217652 0.500000 0.824526
O O2 0.179738 0.693137 0.856667
O O3 0.288576 0.654606 0.852437
O O4 0.228640 0.646400 0.672019
O O5 0.500000 0.649337 0.845391
O O6 0.422224 0.500000 0.836768
O O7 0.429677 0.635321 0.678440
O O8 0.395000 0.693963 0.879688
O O9 0.917288 0.664749 0.147633
O O10 0.000000 0.764702 0.042205
O O11 0.892988 0.795611 0.985917
O O12 0.785609 0.149038 0.985056
O O13 0.814317 0.330008 0.069856
O O14 0.671344 0.164805 0.782423
O O15 0.677701 0.194945 0.990992
O O16 0.287351 0.000000 0.021410
O O17 0.148506 0.500000 0.167141
#
# Coordination Sequence:
#
# PCOD8188124 Si02
#       7
#     8   8   8   8   8   8   8
#     4  10  18  30  46  64  90 121 154 189 223 268
#     4   9  16  28  48  72  96 121 150 187 229 272
#     4   8  16  28  42  67  95 118 146 183 228 276
#     4   9  18  29  44  68  89 118 150 190 230 268
#     4  10  18  29  45  68  93 120 149 186 230 276
#     4  10  19  31  47  65  90 124 155 185 227 276
#     4   9  16  27  41  63  90 117 144 182 229 271
#
# _framework density 15.233337000000001
#
# number of rings (size 3 to 8) (size 9 to 14) (size 15 to 20)
#    0.857    1.857    1.429    1.286    0.000    2.000 
#    0.000    0.000    0.000    2.143    0.000    2.000 
#    0.000    2.286    0.000    0.000    0.000    0.000 
#
# Total GULP energy -346960.980845 kJ/mol
# GULP energy per Si atom -12391.463602 kJ/mol
# Density = 1.519867 g / cm^3
# Si number density = 15.233337 Si / 1000 Ang^3
#
#
#
# Elastic Constant Matrix: (Units=GPa)
#
#
# Indices 1 2 3 4 5 6 
#
# 1 93.5025 31.6888 25.7459 0.0000 0.0000 0.0000
# 2 31.6888 73.9816 30.2295 0.0000 0.0000 0.0000
# 3 25.7459 30.2295 60.8944 0.0000 0.0000 0.0000
# 4 0.0000 0.0000 0.0000 23.0053 0.0000 0.0000
# 5 0.0000 0.0000 0.0000 0.0000 24.2898 0.0000
# 6 0.0000 0.0000 0.0000 0.0000 0.0000 17.3887
#
#
#
# Elastic Compliance Matrix: (Units=1/GPa)
#
#
# Indices 1 2 3 4 5 6 
#
# 1 0.013062 -0.004188 -0.003444 0.000000 0.000000 0.000000
# 2 -0.004188 0.018299 -0.007313 0.000000 0.000000 0.000000
# 3 -0.003444 -0.007313 0.021508 0.000000 0.000000 0.000000
# 4 0.000000 0.000000 0.000000 0.043468 0.000000 0.000000
# 5 0.000000 0.000000 0.000000 0.000000 0.041169 0.000000
# 6 0.000000 0.000000 0.000000 0.000000 0.000000 0.057509
#
#
# Mechanical properties :
#
#
# Convention : Reuss Voigt Hill
#
# Bulk Modulus (GPa) = 43.51677 44.85633 44.18655
# Shear Modulus (GPa) = 21.49922 22.31772 21.90847
#
# Velocity S-wave (km/s) = 3.76084 3.83176 3.79646
# Velocity P-wave (km/s) = 6.89111 7.00618 6.94888
#
# Compressibility (1/GPa) = 0.02297965
#
# Stress axis : x y z
#
# Youngs Moduli (GPa) = 76.55518 54.64763 46.49333
#
# Poissons Ratio (x) = 0.22886 0.16011
# Poissons Ratio (y) = 0.32061 0.34003
# Poissons Ratio (z) = 0.26364 0.39966
#
# Static dielectric constant tensor:
#      x y z
#    x 2.898810 0.000000 0.000000 
#    y 0.000000 2.832480 0.000000 
#    z 0.000000 0.000000 2.767640 
# 
# 
# High freq. dielectric constant tensor:
#      x y z
#    x 1.570040 0.000000 0.000000 
#    y 0.000000 1.585050 0.000000 
#    z 0.000000 0.000000 1.559280 
# 
# From -- ./inp_files/14892.got.cif
#   From: 2010.03.12/outbox.cif.g09.slc.cpg/sg44_8_cif.got.tgz:14892.got - 2010.04.14 02:36:11.
