data_PCOD8188207
_publ_section_title
;
Structure prediction by ZEFSAII (Michael W. Deem and Ramdas Pophale) SiO2 
 PCOD8188207
Probable space group: I M M 2
;
_chemical_formula_sum "Si O2"
_cell_formula_units_Z 40
_cell_length_a 9.090272
_cell_length_b 9.755126
_cell_length_c 25.466987
_cell_angle_alpha 90.000000
_cell_angle_beta 90.000000
_cell_angle_gamma 90.000000
_cell_volume 2258.329607
_symmetry_space_group_name_H-M "I M M 2"
_symmetry_group_IT_number 44
_symmetry_cell_setting 'orthorhombic'
loop_
_space_group_symop_operation_xyz
x,y,z
-x,-y,z
-x,y,z
x,-y,z
1/2+x,1/2+y,1/2+z
1/2-x,1/2-y,1/2+z
1/2-x,1/2+y,1/2+z
1/2+x,1/2-y,1/2+z
loop_
_atom_site_type_symbol
_atom_site_label
_atom_site_fract_x
_atom_site_fract_y
_atom_site_fract_z
Si Si1 0.831123 0.000000 0.955890
Si Si2 0.674247 0.000000 0.673582
Si Si3 0.171685 0.500000 0.835690
Si Si4 0.824991 0.500000 0.292007
Si Si5 0.832978 0.000000 0.226828
Si Si6 0.826031 0.500000 0.564187
Si Si7 0.171088 0.794576 0.865636
Si Si8 0.671727 0.708450 0.636932
O O1 0.797177 0.135570 0.921616
O O2 0.719808 0.000000 0.003799
O O3 0.000000 0.000000 0.975566
O O4 0.726766 0.134877 0.642136
O O5 0.500000 0.000000 0.677734
O O6 0.736399 0.000000 0.732667
O O7 0.233667 0.500000 0.777476
O O8 0.219329 0.635095 0.868277
O O9 0.000000 0.500000 0.827530
O O10 0.765858 0.363999 0.320024
O O11 0.000000 0.500000 0.294445
O O12 0.799131 0.865386 0.192405
O O13 0.000000 0.000000 0.246286
O O14 0.763478 0.637051 0.591014
O O15 0.000000 0.500000 0.569064
O O16 0.000000 0.813364 0.851077
O O17 0.500000 0.697835 0.621931
#
# Coordination Sequence:
#
# PCOD8188207 Si02
#       8
#     4   4   4   4   4   4   8   8
#     4   9  18  36  57  70  89 126 169 208 246 292
#     4   9  17  30  51  77 102 131 168 206 238 279
#     4  10  19  31  49  75 107 136 162 199 243 285
#     4  10  18  30  50  75 104 137 170 202 238 279
#     4   9  17  29  47  72 105 142 172 197 229 280
#     4  11  22  36  54  75  97 122 159 206 256 303
#     4   9  19  34  51  74 102 132 167 202 239 290
#     4   9  18  34  53  73  99 132 170 204 238 286
#
# _framework density 17.712206999999999
#
# number of rings (size 3 to 8) (size 9 to 14) (size 15 to 20)
#    0.000    2.600    0.000    3.600    0.000    5.600 
#    0.000    3.500    0.000    3.600    0.000    0.000 
#    0.000    0.000    0.000    0.000    0.000    0.000 
#
# Total GULP energy -247984.186867 kJ/mol
# GULP energy per Si atom -12399.209343 kJ/mol
# Density = 1.767189 g / cm^3
# Si number density = 17.712207 Si / 1000 Ang^3
#
#
#
# Elastic Constant Matrix: (Units=GPa)
#
#
# Indices 1 2 3 4 5 6 
#
# 1 63.0426 48.8059 46.3087 0.0000 0.0000 0.0000
# 2 48.8059 181.4365 68.7796 0.0000 0.0000 0.0000
# 3 46.3087 68.7796 106.8046 0.0000 0.0000 0.0000
# 4 0.0000 0.0000 0.0000 10.6408 0.0000 0.0000
# 5 0.0000 0.0000 0.0000 0.0000 29.8339 0.0000
# 6 0.0000 0.0000 0.0000 0.0000 0.0000 18.3037
#
#
#
# Elastic Compliance Matrix: (Units=1/GPa)
#
#
# Indices 1 2 3 4 5 6 
#
# 1 0.024792 -0.003432 -0.008539 0.000000 0.000000 0.000000
# 2 -0.003432 0.007767 -0.003514 0.000000 0.000000 0.000000
# 3 -0.008539 -0.003514 0.015328 0.000000 0.000000 0.000000
# 4 0.000000 0.000000 0.000000 0.093978 0.000000 0.000000
# 5 0.000000 0.000000 0.000000 0.000000 0.033519 0.000000
# 6 0.000000 0.000000 0.000000 0.000000 0.000000 0.054634
#
#
# Mechanical properties :
#
#
# Convention : Reuss Voigt Hill
#
# Bulk Modulus (GPa) = 59.11171 75.45245 67.28208
# Shear Modulus (GPa) = 18.75289 24.24830 21.50059
#
# Velocity S-wave (km/s) = 3.25738 3.70404 3.48787
# Velocity P-wave (km/s) = 6.89879 7.80928 7.36811
#
# Compressibility (1/GPa) = 0.01691712
#
# Stress axis : x y z
#
# Youngs Moduli (GPa) = 40.33604 128.75561 65.24000
#
# Poissons Ratio (x) = 0.44186 0.55710
# Poissons Ratio (y) = 0.13843 0.22922
# Poissons Ratio (z) = 0.34444 0.45239
#
# Static dielectric constant tensor:
#      x y z
#    x 3.115340 0.000000 0.000000 
#    y 0.000000 4.105260 0.000000 
#    z 0.000000 0.000000 3.056570 
# 
# 
# High freq. dielectric constant tensor:
#      x y z
#    x 1.669580 0.000000 0.000000 
#    y 0.000000 1.697070 0.000000 
#    z 0.000000 0.000000 1.667080 
# 
# From -- ./inp_files/26004.got.cif
#   From: 2010.03.12/outbox.cif.g09.slc.cpg/sg44_14_cif.got.tgz:26004.got - 2010.04.14 02:36:11.
