data_PCOD8188760
_publ_section_title
;
Structure prediction by ZEFSAII (Michael W. Deem and Ramdas Pophale) SiO2 
 PCOD8188760
Probable space group: I M M 2
;
_chemical_formula_sum "Si O2"
_cell_formula_units_Z 64
_cell_length_a 9.168479
_cell_length_b 29.014451
_cell_length_c 12.729571
_cell_angle_alpha 90.000000
_cell_angle_beta 90.000000
_cell_angle_gamma 90.000000
_cell_volume 3386.299915
_symmetry_space_group_name_H-M "I M M 2"
_symmetry_group_IT_number 44
_symmetry_cell_setting 'orthorhombic'
loop_
_space_group_symop_operation_xyz
x,y,z
-x,-y,z
-x,y,z
x,-y,z
1/2+x,1/2+y,1/2+z
1/2-x,1/2-y,1/2+z
1/2-x,1/2+y,1/2+z
1/2+x,1/2-y,1/2+z
loop_
_atom_site_type_symbol
_atom_site_label
_atom_site_fract_x
_atom_site_fract_y
_atom_site_fract_z
Si Si1 0.672390 0.417871 0.528670
Si Si2 0.672633 0.899597 0.235037
Si Si3 0.162153 0.703646 0.684409
Si Si4 0.836482 0.330016 0.461621
Si Si5 0.673685 0.111185 0.648665
Si Si6 0.173282 0.447139 0.951515
Si Si7 0.835114 0.449804 0.339180
Si Si8 0.829925 0.705809 0.236957
O O1 0.500000 0.423133 0.539255
O O2 0.744870 0.426858 0.642325
O O3 0.716510 0.368204 0.484650
O O4 0.735512 0.453211 0.443118
O O5 0.500000 0.904350 0.216216
O O6 0.717588 0.845478 0.230961
O O7 0.723591 0.922777 0.343695
O O8 0.162695 0.705089 0.558240
O O9 0.264400 0.744716 0.717137
O O10 0.000000 0.712873 0.727934
O O11 0.788368 0.304686 0.356563
O O12 0.000000 0.351517 0.448755
O O13 0.500000 0.108757 0.644469
O O14 0.737071 0.084631 0.546363
O O15 0.728763 0.085983 0.754393
O O16 0.726762 0.164609 0.659055
O O17 0.232789 0.500000 0.957880
O O18 0.000000 0.448198 0.957319
O O19 0.833213 0.500000 0.285240
O O20 0.000000 0.436066 0.371301
O O21 0.000000 0.710707 0.219903
#
# Coordination Sequence:
#
# PCOD8188760 Si02
#       8
#     8   8   8   8   8   8   8   8
#     4  11  21  33  53  79 106 137 176 228 278 323
#     4   9  19  36  55  76 110 149 183 225 275 330
#     4   9  19  33  50  74 106 143 183 225 270 321
#     4   9  18  36  55  72 102 143 179 220 273 331
#     4   9  17  31  52  81 111 138 176 228 275 321
#     4   9  17  31  55  85 111 138 180 231 279 328
#     4  10  19  33  55  79 106 142 178 214 268 335
#     4  10  19  32  54  79 107 141 181 226 274 327
#
# _framework density 18.899684000000001
#
# number of rings (size 3 to 8) (size 9 to 14) (size 15 to 20)
#    0.000    2.500    1.250    2.250    0.000    5.750 
#    0.000    2.500    0.000    1.500    0.000    0.000 
#    0.000    0.000    0.000    0.000    0.000    0.000 
#
# Total GULP energy -396563.328498 kJ/mol
# GULP energy per Si atom -12392.604016 kJ/mol
# Density = 1.885667 g / cm^3
# Si number density = 18.899684 Si / 1000 Ang^3
#
#
#
# Elastic Constant Matrix: (Units=GPa)
#
#
# Indices 1 2 3 4 5 6 
#
# 1 47.8153 17.3404 29.4109 0.0001 0.0000 0.0000
# 2 17.3404 100.7892 53.8057 0.0004 0.0002 -0.0001
# 3 29.4109 53.8057 128.5464 0.0008 -0.0001 -0.0001
# 4 0.0001 0.0004 0.0008 26.6652 -0.0002 -0.0001
# 5 0.0000 0.0002 -0.0001 -0.0002 13.8095 0.0000
# 6 0.0000 -0.0001 -0.0001 -0.0001 0.0000 23.0939
#
#
#
# Elastic Compliance Matrix: (Units=1/GPa)
#
#
# Indices 1 2 3 4 5 6 
#
# 1 0.024532 -0.001577 -0.004953 0.000000 0.000000 0.000000
# 2 -0.001577 0.012878 -0.005030 0.000000 0.000000 0.000000
# 3 -0.004953 -0.005030 0.011018 0.000000 0.000000 0.000000
# 4 0.000000 0.000000 0.000000 0.037502 0.000000 0.000000
# 5 0.000000 0.000000 0.000000 0.000000 0.072414 0.000000
# 6 0.000000 0.000000 0.000000 0.000000 0.000000 0.043301
#
#
# Mechanical properties :
#
#
# Convention : Reuss Voigt Hill
#
# Bulk Modulus (GPa) = 39.51076 53.14056 46.32566
# Shear Modulus (GPa) = 21.44080 24.48664 22.96372
#
# Velocity S-wave (km/s) = 3.37182 3.60337 3.48951
# Velocity P-wave (km/s) = 6.00914 6.74467 6.38750
#
# Compressibility (1/GPa) = 0.02530956
#
# Stress axis : x y z
#
# Youngs Moduli (GPa) = 40.76293 77.65190 90.76259
#
# Poissons Ratio (x) = 0.12242 0.44954
# Poissons Ratio (y) = 0.06427 0.45650
# Poissons Ratio (z) = 0.20190 0.39056
#
# Static dielectric constant tensor:
#      x y z
#    x 3.041700 0.000000 0.000000 
#    y 0.000000 3.491520 0.000000 
#    z 0.000000 0.000000 3.746380 
# 
# 
# High freq. dielectric constant tensor:
#      x y z
#    x 1.688090 0.000000 0.000000 
#    y 0.000000 1.737100 0.000000 
#    z 0.000000 0.000000 1.740430 
# 
# From -- ./inp_files/11529.got.cif
#   From: 2010.03.12/outbox.cif.g09.slc.cpg/sg44_6_cif.got.tgz:11529.got - 2010.04.14 02:36:11.
