data_PCOD8188514
_publ_section_title
;
Structure prediction by ZEFSAII (Michael W. Deem and Ramdas Pophale) SiO2 
 PCOD8188514
Probable space group: I M M 2
;
_chemical_formula_sum "Si O2"
_cell_formula_units_Z 64
_cell_length_a 9.205721
_cell_length_b 22.747488
_cell_length_c 15.377911
_cell_angle_alpha 90.000000
_cell_angle_beta 90.000000
_cell_angle_gamma 90.000000
_cell_volume 3220.242639
_symmetry_space_group_name_H-M "I M M 2"
_symmetry_group_IT_number 44
_symmetry_cell_setting 'orthorhombic'
loop_
_space_group_symop_operation_xyz
x,y,z
-x,-y,z
-x,y,z
x,-y,z
1/2+x,1/2+y,1/2+z
1/2-x,1/2-y,1/2+z
1/2-x,1/2+y,1/2+z
1/2+x,1/2-y,1/2+z
loop_
_atom_site_type_symbol
_atom_site_label
_atom_site_fract_x
_atom_site_fract_y
_atom_site_fract_z
Si Si1 0.668835 0.221485 0.662390
Si Si2 0.839776 0.568668 0.946773
Si Si3 0.332826 0.187266 0.852556
Si Si4 0.660345 0.568720 0.789181
Si Si5 0.673144 0.435604 0.596596
Si Si6 0.169339 0.816350 0.021258
Si Si7 0.832994 0.435285 0.275223
Si Si8 0.827338 0.106869 0.612661
O O1 0.500000 0.203436 0.652603
O O2 0.706401 0.225108 0.765799
O O3 0.703570 0.281318 0.610537
O O4 0.769141 0.172862 0.618798
O O5 0.859898 0.500000 0.932924
O O6 0.768785 0.597164 0.859971
O O7 0.000000 0.597022 0.962795
O O8 0.729072 0.579390 0.024201
O O9 0.500000 0.194667 0.876036
O O10 0.245499 0.211145 0.936135
O O11 0.291529 0.118183 0.839232
O O12 0.500000 0.598463 0.796604
O O13 0.642427 0.500000 0.807683
O O14 0.729066 0.578538 0.693789
O O15 0.500000 0.436995 0.600651
O O16 0.730770 0.500000 0.564952
O O17 0.726981 0.383347 0.533850
O O18 0.000000 0.815057 0.001495
O O19 0.810100 0.500000 0.318990
O O20 0.732129 0.432873 0.190824
O O21 0.000000 0.427200 0.245134
O O22 0.000000 0.106383 0.614028
#
# Coordination Sequence:
#
# PCOD8188514 Si02
#       8
#     8   8   8   8   8   8   8   8
#     4   9  20  40  58  73 105 150 188 227 276 332
#     4  10  19  30  46  70 105 146 182 219 272 336
#     4   9  19  36  56  79 111 147 183 229 278 325
#     4   8  14  27  46  68  99 137 177 220 259 304
#     4   8  15  30  53  81 112 142 173 215 270 329
#     4  10  20  36  60  85 109 144 186 226 273 332
#     4   9  18  34  55  78 110 152 187 216 266 334
#     4  11  21  32  50  76 104 137 183 239 284 323
#
# _framework density 19.874279999999999
#
# number of rings (size 3 to 8) (size 9 to 14) (size 15 to 20)
#    0.000    2.750    0.000    3.375    0.000    5.500 
#    2.250    0.625    0.000    0.750    0.000    0.000 
#    0.000    0.000    0.000    0.000    0.000    0.000 
#
# Total GULP energy -396566.998649 kJ/mol
# GULP energy per Si atom -12392.718708 kJ/mol
# Density = 1.982904 g / cm^3
# Si number density = 19.874280 Si / 1000 Ang^3
#
#
#
# Elastic Constant Matrix: (Units=GPa)
#
#
# Indices 1 2 3 4 5 6 
#
# 1 81.8718 22.5712 43.8780 0.0000 0.0000 0.0000
# 2 22.5712 69.9918 36.9344 0.0000 0.0000 0.0000
# 3 43.8780 36.9344 119.8268 0.0000 0.0000 0.0000
# 4 0.0000 0.0000 0.0000 22.4923 0.0000 0.0000
# 5 0.0000 0.0000 0.0000 0.0000 30.9154 0.0000
# 6 0.0000 0.0000 0.0000 0.0000 0.0000 16.3283
#
#
#
# Elastic Compliance Matrix: (Units=1/GPa)
#
#
# Indices 1 2 3 4 5 6 
#
# 1 0.015526 -0.002397 -0.004947 0.000000 0.000000 0.000000
# 2 -0.002397 0.017433 -0.004496 0.000000 0.000000 0.000000
# 3 -0.004947 -0.004496 0.011542 0.000000 0.000000 0.000000
# 4 0.000000 0.000000 0.000000 0.044460 0.000000 0.000000
# 5 0.000000 0.000000 0.000000 0.000000 0.032346 0.000000
# 6 0.000000 0.000000 0.000000 0.000000 0.000000 0.061243
#
#
# Mechanical properties :
#
#
# Convention : Reuss Voigt Hill
#
# Bulk Modulus (GPa) = 48.02313 53.16194 50.59254
# Shear Modulus (GPa) = 23.45557 25.16766 24.31162
#
# Velocity S-wave (km/s) = 3.43913 3.56243 3.50132
# Velocity P-wave (km/s) = 6.32345 6.61275 6.46972
#
# Compressibility (1/GPa) = 0.02082330
#
# Stress axis : x y z
#
# Youngs Moduli (GPa) = 64.40822 57.36377 86.63691
#
# Poissons Ratio (x) = 0.13748 0.42856
# Poissons Ratio (y) = 0.15436 0.38949
# Poissons Ratio (z) = 0.31860 0.25789
#
# Static dielectric constant tensor:
#      x y z
#    x 3.560200 0.000000 0.000000 
#    y 0.000000 3.602480 0.000000 
#    z 0.000000 0.000000 3.567030 
# 
# 
# High freq. dielectric constant tensor:
#      x y z
#    x 1.754770 0.000000 0.000000 
#    y 0.000000 1.754420 0.000000 
#    z 0.000000 0.000000 1.773050 
# 
# From -- ./inp_files/16849.got.cif
#   From: 2010.03.12/outbox.cif.g09.slc.cpg/sg44_9_cif.got.tgz:16849.got - 2010.04.14 02:36:11.
