data_PCOD8188438
_publ_section_title
;
Structure prediction by ZEFSAII (Michael W. Deem and Ramdas Pophale) SiO2 
 PCOD8188438
Probable space group: I M M 2
;
_chemical_formula_sum "Si O2"
_cell_formula_units_Z 64
_cell_length_a 8.851139
_cell_length_b 13.631764
_cell_length_c 34.366854
_cell_angle_alpha 90.000000
_cell_angle_beta 90.000000
_cell_angle_gamma 90.000000
_cell_volume 4146.589062
_symmetry_space_group_name_H-M "I M M 2"
_symmetry_group_IT_number 44
_symmetry_cell_setting 'orthorhombic'
loop_
_space_group_symop_operation_xyz
x,y,z
-x,-y,z
-x,y,z
x,-y,z
1/2+x,1/2+y,1/2+z
1/2-x,1/2-y,1/2+z
1/2-x,1/2+y,1/2+z
1/2+x,1/2-y,1/2+z
loop_
_atom_site_type_symbol
_atom_site_label
_atom_site_fract_x
_atom_site_fract_y
_atom_site_fract_z
Si Si1 0.330082 0.383378 0.443090
Si Si2 0.823550 0.385654 0.363980
Si Si3 0.178421 0.607246 0.747818
Si Si4 0.669772 0.116490 0.019941
Si Si5 0.820982 0.282642 0.671497
Si Si6 0.325486 0.112749 0.715329
Si Si7 0.679051 0.299291 0.289135
Si Si8 0.321795 0.387226 0.599383
O O1 0.500000 0.341766 0.440207
O O2 0.332813 0.500000 0.445341
O O3 0.235271 0.348853 0.405699
O O4 0.251049 0.339867 0.481662
O O5 0.787432 0.500000 0.357753
O O6 0.735755 0.323896 0.331862
O O7 0.000000 0.363936 0.360938
O O8 0.250404 0.500000 0.756821
O O9 0.231400 0.642190 0.705166
O O10 0.229206 0.687102 0.779824
O O11 0.000000 0.598719 0.747922
O O12 0.500000 0.158547 0.022303
O O13 0.762479 0.149901 0.057737
O O14 0.666438 0.000000 0.017055
O O15 0.758384 0.175339 0.682166
O O16 0.752343 0.317971 0.631225
O O17 0.000000 0.276656 0.667843
O O18 0.500000 0.143853 0.717418
O O19 0.252984 0.128370 0.757770
O O20 0.306393 0.000000 0.703455
O O21 0.500000 0.312175 0.286424
O O22 0.500000 0.375060 0.600395
O O23 0.273325 0.500000 0.606803
#
# Coordination Sequence:
#
# PCOD8188438 Si02
#       8
#     8   8   8   8   8   8   8   8
#     4   9  16  26  40  58  81 109 141 176 212 251
#     4  10  19  29  41  58  83 115 146 176 212 253
#     4   8  15  28  44  61  82 108 138 173 213 254
#     4   9  16  26  40  58  82 113 146 176 209 252
#     4  10  19  30  46  66  86 111 145 183 219 257
#     4  10  20  33  47  62  84 114 144 177 219 263
#     4  10  19  29  44  65  85 109 143 180 215 253
#     4  10  19  29  42  62  89 119 149 181 215 252
#
# _framework density 15.434373000000001
#
# number of rings (size 3 to 8) (size 9 to 14) (size 15 to 20)
#    0.000    2.500    0.000    4.125    0.000    7.500 
#    0.000    0.000    0.000    7.500    0.000    0.000 
#    0.000    1.000    0.000    6.000    0.000    4.625 
#
# Total GULP energy -396774.406320 kJ/mol
# GULP energy per Si atom -12399.200198 kJ/mol
# Density = 1.539924 g / cm^3
# Si number density = 15.434373 Si / 1000 Ang^3
#
#
#
# Elastic Constant Matrix: (Units=GPa)
#
#
# Indices 1 2 3 4 5 6 
#
# 1 77.0642 23.2619 39.2943 0.0000 0.0000 0.0000
# 2 23.2619 57.7711 37.6980 0.0000 0.0000 0.0000
# 3 39.2943 37.6980 123.2792 0.0000 0.0000 0.0000
# 4 0.0000 0.0000 0.0000 16.7802 0.0000 0.0000
# 5 0.0000 0.0000 0.0000 0.0000 33.0412 0.0000
# 6 0.0000 0.0000 0.0000 0.0000 0.0000 16.6544
#
#
#
# Elastic Compliance Matrix: (Units=1/GPa)
#
#
# Indices 1 2 3 4 5 6 
#
# 1 0.016180 -0.003935 -0.003954 0.000000 0.000000 0.000000
# 2 -0.003935 0.022582 -0.005651 0.000000 0.000000 0.000000
# 3 -0.003954 -0.005651 0.011100 0.000000 0.000000 0.000000
# 4 0.000000 0.000000 0.000000 0.059594 0.000000 0.000000
# 5 0.000000 0.000000 0.000000 0.000000 0.030265 0.000000
# 6 0.000000 0.000000 0.000000 0.000000 0.000000 0.060044
#
#
# Mechanical properties :
#
#
# Convention : Reuss Voigt Hill
#
# Bulk Modulus (GPa) = 43.89470 50.95810 47.42640
# Shear Modulus (GPa) = 21.32751 23.81919 22.57335
#
# Velocity S-wave (km/s) = 3.72132 3.93269 3.82846
# Velocity P-wave (km/s) = 6.85314 7.32865 7.09488
#
# Compressibility (1/GPa) = 0.02278179
#
# Stress axis : x y z
#
# Youngs Moduli (GPa) = 61.80455 44.28368 90.08957
#
# Poissons Ratio (x) = 0.17425 0.35621
# Poissons Ratio (y) = 0.24319 0.50911
# Poissons Ratio (z) = 0.24438 0.25025
#
# Static dielectric constant tensor:
#      x y z
#    x 3.061610 0.000000 0.000000 
#    y 0.000000 2.774220 0.000000 
#    z 0.000000 0.000000 3.021400 
# 
# 
# High freq. dielectric constant tensor:
#      x y z
#    x 1.604800 0.000000 0.000000 
#    y 0.000000 1.544860 0.000000 
#    z 0.000000 0.000000 1.593070 
# 
# From -- ./inp_files/27280.got.cif
#   From: 2010.03.12/outbox.cif.g09.slc.cpg/sg44_14_cif.got.tgz:27280.got - 2010.04.14 02:36:11.
