data_PCOD8188536
_publ_section_title
;
Structure prediction by ZEFSAII (Michael W. Deem and Ramdas Pophale) SiO2 
 PCOD8188536
Probable space group: I M M 2
;
_chemical_formula_sum "Si O2"
_cell_formula_units_Z 64
_cell_length_a 9.097297
_cell_length_b 22.112124
_cell_length_c 15.231486
_cell_angle_alpha 90.000000
_cell_angle_beta 90.000000
_cell_angle_gamma 90.000000
_cell_volume 3063.974243
_symmetry_space_group_name_H-M "I M M 2"
_symmetry_group_IT_number 44
_symmetry_cell_setting 'orthorhombic'
loop_
_space_group_symop_operation_xyz
x,y,z
-x,-y,z
-x,y,z
x,-y,z
1/2+x,1/2+y,1/2+z
1/2-x,1/2-y,1/2+z
1/2-x,1/2+y,1/2+z
1/2+x,1/2-y,1/2+z
loop_
_atom_site_type_symbol
_atom_site_label
_atom_site_fract_x
_atom_site_fract_y
_atom_site_fract_z
Si Si1 0.832311 0.567852 0.477800
Si Si2 0.329071 0.822466 0.750755
Si Si3 0.837037 0.571277 0.998747
Si Si4 0.172466 0.069434 0.675046
Si Si5 0.830866 0.223142 0.110781
Si Si6 0.832548 0.391747 0.670411
Si Si7 0.661690 0.569781 0.836461
Si Si8 0.828632 0.815001 0.920054
O O1 0.790924 0.500000 0.446375
O O2 0.816368 0.569296 0.582711
O O3 0.722515 0.615848 0.435052
O O4 0.000000 0.584032 0.451146
O O5 0.500000 0.831691 0.768472
O O6 0.251848 0.888032 0.745801
O O7 0.301033 0.786388 0.659964
O O8 0.258588 0.788471 0.835589
O O9 0.853872 0.500000 0.987634
O O10 0.761185 0.600297 0.912472
O O11 0.000000 0.600113 0.011132
O O12 0.735654 0.587465 0.080615
O O13 0.000000 0.082034 0.674755
O O14 0.208526 0.000000 0.698898
O O15 0.725225 0.175775 0.157169
O O16 0.000000 0.202667 0.123031
O O17 0.794378 0.226195 0.006287
O O18 0.737795 0.424934 0.743166
O O19 0.000000 0.388191 0.702532
O O20 0.500000 0.600592 0.834578
O O21 0.642521 0.500000 0.860325
O O22 0.000000 0.815319 0.898122
#
# Coordination Sequence:
#
# PCOD8188536 Si02
#       8
#     8   8   8   8   8   8   8   8
#     4   9  18  33  54  82 117 155 194 236 287 349
#     4  11  23  41  65  90 117 154 197 242 292 351
#     4   9  17  31  51  75 107 147 189 235 287 341
#     4  10  21  38  60  87 119 153 190 236 292 353
#     4   9  21  42  62  82 114 153 193 243 296 349
#     4  10  19  32  53  80 111 150 195 246 296 347
#     4  10  19  30  47  74 111 154 198 244 295 351
#     4  10  21  39  62  87 117 152 193 244 295 347
#
# _framework density 20.887903999999999
#
# number of rings (size 3 to 8) (size 9 to 14) (size 15 to 20)
#    0.000    2.250    0.000    2.625    0.000    6.250 
#    2.250    0.000    0.000    0.000    0.000    0.000 
#    0.000    0.000    0.000    0.000    0.000    0.000 
#
# Total GULP energy -396769.273922 kJ/mol
# GULP energy per Si atom -12399.039810 kJ/mol
# Density = 2.084036 g / cm^3
# Si number density = 20.887904 Si / 1000 Ang^3
#
#
#
# Elastic Constant Matrix: (Units=GPa)
#
#
# Indices 1 2 3 4 5 6 
#
# 1 137.8974 34.7562 56.6218 0.0000 0.0000 0.0000
# 2 34.7562 57.6316 30.0403 0.0000 0.0000 0.0000
# 3 56.6218 30.0403 116.4541 0.0000 0.0000 0.0000
# 4 0.0000 0.0000 0.0000 25.1685 0.0000 0.0000
# 5 0.0000 0.0000 0.0000 0.0000 38.2871 0.0000
# 6 0.0000 0.0000 0.0000 0.0000 0.0000 25.2984
#
#
#
# Elastic Compliance Matrix: (Units=1/GPa)
#
#
# Indices 1 2 3 4 5 6 
#
# 1 0.009782 -0.003952 -0.003737 0.000000 0.000000 0.000000
# 2 -0.003952 0.021643 -0.003662 0.000000 0.000000 0.000000
# 3 -0.003737 -0.003662 0.011349 0.000000 0.000000 0.000000
# 4 0.000000 0.000000 0.000000 0.039732 0.000000 0.000000
# 5 0.000000 0.000000 0.000000 0.000000 0.026118 0.000000
# 6 0.000000 0.000000 0.000000 0.000000 0.000000 0.039528
#
#
# Mechanical properties :
#
#
# Convention : Reuss Voigt Hill
#
# Bulk Modulus (GPa) = 49.81647 61.64662 55.73154
# Shear Modulus (GPa) = 28.16196 30.45514 29.30855
#
# Velocity S-wave (km/s) = 3.67583 3.82256 3.74991
# Velocity P-wave (km/s) = 6.47432 7.00426 6.74450
#
# Compressibility (1/GPa) = 0.02007368
#
# Stress axis : x y z
#
# Youngs Moduli (GPa) = 102.22728 46.20355 88.11666
#
# Poissons Ratio (x) = 0.18257 0.32928
# Poissons Ratio (y) = 0.40395 0.32266
# Poissons Ratio (z) = 0.38201 0.16919
#
# Static dielectric constant tensor:
#      x y z
#    x 3.958280 0.000000 0.000000 
#    y 0.000000 3.422710 0.000000 
#    z 0.000000 0.000000 3.858910 
# 
# 
# High freq. dielectric constant tensor:
#      x y z
#    x 1.828890 0.000000 0.000000 
#    y 0.000000 1.784090 0.000000 
#    z 0.000000 0.000000 1.825450 
# 
# From -- ./inp_files/16837.got.cif
#   From: 2010.03.12/outbox.cif.g09.slc.cpg/sg44_9_cif.got.tgz:16837.got - 2010.04.14 02:36:11.
