data_PCOD8188127
_publ_section_title
;
Structure prediction by ZEFSAII (Michael W. Deem and Ramdas Pophale) SiO2 
 PCOD8188127
Probable space group: I M M 2
;
_chemical_formula_sum "Si O2"
_cell_formula_units_Z 64
_cell_length_a 28.054795
_cell_length_b 8.904177
_cell_length_c 14.556992
_cell_angle_alpha 90.000000
_cell_angle_beta 90.000000
_cell_angle_gamma 90.000000
_cell_volume 3636.407354
_symmetry_space_group_name_H-M "I M M 2"
_symmetry_group_IT_number 44
_symmetry_cell_setting 'orthorhombic'
loop_
_space_group_symop_operation_xyz
x,y,z
-x,-y,z
-x,y,z
x,-y,z
1/2+x,1/2+y,1/2+z
1/2-x,1/2-y,1/2+z
1/2-x,1/2+y,1/2+z
1/2+x,1/2-y,1/2+z
loop_
_atom_site_type_symbol
_atom_site_label
_atom_site_fract_x
_atom_site_fract_y
_atom_site_fract_z
Si Si1 0.052655 0.679183 0.166960
Si Si2 0.177847 0.322654 0.478062
Si Si3 0.332767 0.330740 0.155912
Si Si4 0.761608 0.331496 0.242551
Si Si5 0.945023 0.326486 0.959599
Si Si6 0.230126 0.675131 0.916989
Si Si7 0.362973 0.827399 0.786440
Si Si8 0.638223 0.322812 0.359106
O O1 0.054326 0.500000 0.167267
O O2 0.091515 0.750564 0.237416
O O3 0.000000 0.734723 0.197252
O O4 0.063714 0.732493 0.063339
O O5 0.181532 0.500000 0.475395
O O6 0.149970 0.270576 0.570200
O O7 0.231090 0.254208 0.482508
O O8 0.149470 0.261433 0.387665
O O9 0.349871 0.500000 0.137019
O O10 0.274546 0.321571 0.157444
O O11 0.354194 0.272817 0.252648
O O12 0.756405 0.500000 0.287829
O O13 0.746980 0.202699 0.313203
O O14 0.817323 0.307721 0.217723
O O15 0.930152 0.500000 0.950242
O O16 0.914019 0.228104 0.889740
O O17 0.000000 0.304145 0.932108
O O18 0.227824 0.500000 0.940575
O O19 0.177247 0.745909 0.926345
O O20 0.376304 0.000000 0.799760
O O21 0.644112 0.500000 0.367472
#
# Coordination Sequence:
#
# PCOD8188127 Si02
#       8
#     8   8   8   8   8   8   8   8
#     4   8  14  26  46  72  98 122 152 192 238 288
#     4  10  19  30  45  67  97 131 166 203 240 281
#     4   9  18  31  46  66  93 127 164 199 237 286
#     4   8  15  28  43  62  91 122 155 194 234 280
#     4   9  18  32  51  76 100 121 153 199 247 294
#     4  10  18  29  46  66  91 124 160 197 238 281
#     4   8  14  26  44  65  91 124 156 189 233 282
#     4  10  20  34  51  71  97 129 164 200 241 291
#
# _framework density 17.599789000000001
#
# number of rings (size 3 to 8) (size 9 to 14) (size 15 to 20)
#    0.000    3.000    0.000    4.125    0.000    3.750 
#    0.000    2.500    0.000    4.500    0.000    1.750 
#    0.000    0.000    0.000    0.000    0.000    0.000 
#
# Total GULP energy -396444.072199 kJ/mol
# GULP energy per Si atom -12388.877256 kJ/mol
# Density = 1.755973 g / cm^3
# Si number density = 17.599789 Si / 1000 Ang^3
#
#
#
# Elastic Constant Matrix: (Units=GPa)
#
#
# Indices 1 2 3 4 5 6 
#
# 1 109.8346 25.7419 55.7071 0.0000 0.0000 0.0000
# 2 25.7419 56.2178 27.4354 0.0000 0.0000 0.0000
# 3 55.7071 27.4354 93.4575 0.0000 0.0000 0.0000
# 4 0.0000 0.0000 0.0000 21.7294 0.0000 0.0000
# 5 0.0000 0.0000 0.0000 0.0000 24.3761 0.0000
# 6 0.0000 0.0000 0.0000 0.0000 0.0000 20.7061
#
#
#
# Elastic Compliance Matrix: (Units=1/GPa)
#
#
# Indices 1 2 3 4 5 6 
#
# 1 0.013369 -0.002606 -0.007204 0.000000 0.000000 0.000000
# 2 -0.002606 0.021270 -0.004691 0.000000 0.000000 0.000000
# 3 -0.007204 -0.004691 0.016371 0.000000 0.000000 0.000000
# 4 0.000000 0.000000 0.000000 0.046021 0.000000 0.000000
# 5 0.000000 0.000000 0.000000 0.000000 0.041024 0.000000
# 6 0.000000 0.000000 0.000000 0.000000 0.000000 0.048295
#
#
# Mechanical properties :
#
#
# Convention : Reuss Voigt Hill
#
# Bulk Modulus (GPa) = 45.43541 53.03094 49.23318
# Shear Modulus (GPa) = 22.45297 23.40403 22.92850
#
# Velocity S-wave (km/s) = 3.57564 3.65059 3.61331
# Velocity P-wave (km/s) = 6.55125 6.92575 6.74110
#
# Compressibility (1/GPa) = 0.02200926
#
# Stress axis : x y z
#
# Youngs Moduli (GPa) = 74.79927 47.01361 61.08335
#
# Poissons Ratio (x) = 0.12252 0.44004
# Poissons Ratio (y) = 0.19493 0.28653
# Poissons Ratio (z) = 0.53884 0.22053
#
# Static dielectric constant tensor:
#      x y z
#    x 3.385950 0.000000 0.000000 
#    y 0.000000 2.969800 0.000000 
#    z 0.000000 0.000000 3.214310 
# 
# 
# High freq. dielectric constant tensor:
#      x y z
#    x 1.665110 0.000000 0.000000 
#    y 0.000000 1.654620 0.000000 
#    z 0.000000 0.000000 1.666200 
# 
# From -- ./inp_files/19718.got.cif
#   From: 2010.03.12/outbox.cif.g09.slc.cpg/sg44_10_cif.got.tgz:19718.got - 2010.04.14 02:36:11.
