data_PCOD8188279
_publ_section_title
;
Structure prediction by ZEFSAII (Michael W. Deem and Ramdas Pophale) SiO2 
 PCOD8188279
Probable space group: I M M 2
;
_chemical_formula_sum "Si O2"
_cell_formula_units_Z 64
_cell_length_a 29.931373
_cell_length_b 9.045267
_cell_length_c 14.324717
_cell_angle_alpha 90.000000
_cell_angle_beta 90.000000
_cell_angle_gamma 90.000000
_cell_volume 3878.234637
_symmetry_space_group_name_H-M "I M M 2"
_symmetry_group_IT_number 44
_symmetry_cell_setting 'orthorhombic'
loop_
_space_group_symop_operation_xyz
x,y,z
-x,-y,z
-x,y,z
x,-y,z
1/2+x,1/2+y,1/2+z
1/2-x,1/2-y,1/2+z
1/2-x,1/2+y,1/2+z
1/2+x,1/2-y,1/2+z
loop_
_atom_site_type_symbol
_atom_site_label
_atom_site_fract_x
_atom_site_fract_y
_atom_site_fract_z
Si Si1 0.228070 0.326152 0.745250
Si Si2 0.948731 0.829644 0.344073
Si Si3 0.950213 0.826045 0.131092
Si Si4 0.183341 0.665574 0.252024
Si Si5 0.716341 0.824721 0.457264
Si Si6 0.631616 0.166757 0.567348
Si Si7 0.869940 0.672928 0.436365
Si Si8 0.304004 0.676027 0.067785
O O1 0.221321 0.500000 0.731325
O O2 0.279290 0.284430 0.726031
O O3 0.215923 0.274364 0.849917
O O4 0.197194 0.237696 0.673087
O O5 0.942149 0.774178 0.237741
O O6 0.919346 0.732274 0.414549
O O7 0.000000 0.809731 0.374560
O O8 0.933963 0.000000 0.352439
O O9 0.914808 0.755019 0.059226
O O10 0.000000 0.777865 0.099593
O O11 0.944965 0.000000 0.125413
O O12 0.204283 0.500000 0.254160
O O13 0.145051 0.673159 0.175245
O O14 0.162029 0.709000 0.349823
O O15 0.671180 0.761355 0.504825
O O16 0.760509 0.765143 0.510464
O O17 0.716689 0.000000 0.467734
O O18 0.622599 0.000000 0.533861
O O19 0.872712 0.500000 0.458756
O O20 0.849206 0.759207 0.523802
O O21 0.306390 0.500000 0.068907
#
# Coordination Sequence:
#
# PCOD8188279 Si02
#       8
#     8   8   8   8   8   8   8   8
#     4  11  21  34  50  71  96 130 171 209 246 291
#     4   9  18  32  49  70  99 135 169 201 247 304
#     4   9  18  31  46  69 101 131 161 201 247 295
#     4  10  19  30  46  70 102 133 164 205 244 284
#     4   9  19  33  49  68  96 130 164 201 246 291
#     4  10  18  32  49  69  96 132 170 202 241 290
#     4  11  21  32  48  75 103 132 171 210 245 290
#     4  11  21  36  52  70  99 135 167 203 251 298
#
# _framework density 16.502352999999999
#
# number of rings (size 3 to 8) (size 9 to 14) (size 15 to 20)
#    0.000    2.000    3.750    1.875    0.000    1.500 
#    0.000    2.500    0.000    0.000    0.000    0.875 
#    0.000    5.000    0.000    0.000    0.000    0.000 
#
# Total GULP energy -396780.503932 kJ/mol
# GULP energy per Si atom -12399.390748 kJ/mol
# Density = 1.646479 g / cm^3
# Si number density = 16.502353 Si / 1000 Ang^3
#
#
#
# Elastic Constant Matrix: (Units=GPa)
#
#
# Indices 1 2 3 4 5 6 
#
# 1 96.0413 34.1068 25.8132 0.0000 0.0000 0.0000
# 2 34.1068 57.7679 24.9884 0.0000 0.0000 0.0000
# 3 25.8132 24.9884 67.7203 0.0000 0.0000 0.0000
# 4 0.0000 0.0000 0.0000 23.0932 0.0000 0.0000
# 5 0.0000 0.0000 0.0000 0.0000 25.3967 0.0000
# 6 0.0000 0.0000 0.0000 0.0000 0.0000 30.1348
#
#
#
# Elastic Compliance Matrix: (Units=1/GPa)
#
#
# Indices 1 2 3 4 5 6 
#
# 1 0.013558 -0.006865 -0.002635 0.000000 0.000000 0.000000
# 2 -0.006865 0.024075 -0.006267 0.000000 0.000000 0.000000
# 3 -0.002635 -0.006267 0.018083 0.000000 0.000000 0.000000
# 4 0.000000 0.000000 0.000000 0.043303 0.000000 0.000000
# 5 0.000000 0.000000 0.000000 0.000000 0.039375 0.000000
# 6 0.000000 0.000000 0.000000 0.000000 0.000000 0.033184
#
#
# Mechanical properties :
#
#
# Convention : Reuss Voigt Hill
#
# Bulk Modulus (GPa) = 41.35138 43.48292 42.41715
# Shear Modulus (GPa) = 23.67727 24.83301 24.25514
#
# Velocity S-wave (km/s) = 3.79196 3.88340 3.83795
# Velocity P-wave (km/s) = 6.65464 6.82015 6.73790
#
# Compressibility (1/GPa) = 0.02418299
#
# Stress axis : x y z
#
# Youngs Moduli (GPa) = 73.75499 41.53739 55.29977
#
# Poissons Ratio (x) = 0.28517 0.14571
# Poissons Ratio (y) = 0.50635 0.34654
# Poissons Ratio (z) = 0.19433 0.26030
#
# Static dielectric constant tensor:
#      x y z
#    x 3.071810 0.000000 0.000000 
#    y 0.000000 3.030880 0.000000 
#    z 0.000000 0.000000 3.014780 
# 
# 
# High freq. dielectric constant tensor:
#      x y z
#    x 1.625740 0.000000 0.000000 
#    y 0.000000 1.629990 0.000000 
#    z 0.000000 0.000000 1.610030 
# 
# From -- ./inp_files/17093.got.cif
#   From: 2010.03.12/outbox.cif.g09.slc.cpg/sg44_9_cif.got.tgz:17093.got - 2010.04.14 02:36:11.
