data_PCOD8188938
_publ_section_title
;
Structure prediction by ZEFSAII (Michael W. Deem and Ramdas Pophale) SiO2 
 PCOD8188938
Probable space group: I M M 2
;
_chemical_formula_sum "Si O2"
_cell_formula_units_Z 40
_cell_length_a 7.633588
_cell_length_b 28.466804
_cell_length_c 9.439023
_cell_angle_alpha 90.000000
_cell_angle_beta 90.000000
_cell_angle_gamma 90.000000
_cell_volume 2051.136070
_symmetry_space_group_name_H-M "I M M 2"
_symmetry_group_IT_number 44
_symmetry_cell_setting 'orthorhombic'
loop_
_space_group_symop_operation_xyz
x,y,z
-x,-y,z
-x,y,z
x,-y,z
1/2+x,1/2+y,1/2+z
1/2-x,1/2-y,1/2+z
1/2-x,1/2+y,1/2+z
1/2+x,1/2-y,1/2+z
loop_
_atom_site_type_symbol
_atom_site_label
_atom_site_fract_x
_atom_site_fract_y
_atom_site_fract_z
Si Si1 0.500000 0.055388 0.062750
Si Si2 0.794627 0.211583 0.534870
Si Si3 0.296846 0.605948 0.064504
Si Si4 0.804787 0.102288 0.236591
Si Si5 0.696829 0.795531 0.225989
Si Si6 0.000000 0.555497 0.236072
O O1 0.673574 0.074509 0.137068
O O2 0.500000 0.000000 0.078051
O O3 0.500000 0.071356 0.899570
O O4 0.754612 0.160292 0.599988
O O5 0.692853 0.219042 0.389423
O O6 0.723897 0.251617 0.640098
O O7 0.000000 0.215863 0.503965
O O8 0.500000 0.594025 0.095846
O O9 0.250616 0.595560 0.900477
O O10 0.175900 0.574310 0.163129
O O11 0.808663 0.157656 0.199414
O O12 0.000000 0.082599 0.209738
O O13 0.500000 0.806224 0.175180
O O14 0.000000 0.500000 0.220830
#
# Coordination Sequence:
#
# PCOD8188938 Si02
#       6
#     4   8   8   8   8   4
#     4  11  25  43  61  89 123 155 201 251 308 371
#     4   9  20  35  52  83 119 153 198 240 286 349
#     4   9  20  40  62  86 118 155 198 248 297 353
#     4  10  21  40  64  88 120 158 200 252 300 354
#     4  10  19  34  56  84 119 156 196 242 290 346
#     4  11  25  41  61  89 119 155 197 251 308 361
#
# _framework density 19.501390000000001
#
# number of rings (size 3 to 8) (size 9 to 14) (size 15 to 20)
#    0.000    2.200    1.000    2.400    4.200    6.400 
#    0.000    6.000    0.000    0.000    0.000    0.000 
#    0.000    0.000    0.000    0.000    0.000    0.000 
#
# Total GULP energy -248009.922639 kJ/mol
# GULP energy per Si atom -12400.496132 kJ/mol
# Density = 1.945700 g / cm^3
# Si number density = 19.501390 Si / 1000 Ang^3
#
#
#
# Elastic Constant Matrix: (Units=GPa)
#
#
# Indices 1 2 3 4 5 6 
#
# 1 103.0412 48.7791 66.8208 -0.0001 0.0000 0.0001
# 2 48.7791 97.1540 74.9862 0.0001 -0.0001 0.0002
# 3 66.8208 74.9862 115.9694 0.0015 -0.0005 -0.0003
# 4 -0.0001 0.0001 0.0015 38.7882 -0.0001 0.0001
# 5 0.0000 -0.0001 -0.0005 -0.0001 38.2955 0.0002
# 6 0.0001 0.0002 -0.0003 0.0001 0.0002 25.5013
#
#
#
# Elastic Compliance Matrix: (Units=1/GPa)
#
#
# Indices 1 2 3 4 5 6 
#
# 1 0.015649 -0.001792 -0.007858 0.000000 0.000000 0.000000
# 2 -0.001792 0.020753 -0.012386 0.000000 0.000000 0.000000
# 3 -0.007858 -0.012386 0.021160 -0.000001 0.000000 0.000000
# 4 0.000000 0.000000 -0.000001 0.025781 0.000000 0.000000
# 5 0.000000 0.000000 0.000000 0.000000 0.026113 0.000000
# 6 0.000000 0.000000 0.000000 0.000000 0.000000 0.039214
#
#
# Mechanical properties :
#
#
# Convention : Reuss Voigt Hill
#
# Bulk Modulus (GPa) = 74.13566 77.48185 75.80876
# Shear Modulus (GPa) = 25.35003 28.88888 27.11946
#
# Velocity S-wave (km/s) = 3.60934 3.85304 3.73318
# Velocity P-wave (km/s) = 7.44767 7.72090 7.58552
#
# Compressibility (1/GPa) = 0.01348878
#
# Stress axis : x y z
#
# Youngs Moduli (GPa) = 63.90144 48.18652 47.25921
#
# Poissons Ratio (x) = 0.08634 0.37138
# Poissons Ratio (y) = 0.11450 0.58537
# Poissons Ratio (z) = 0.50216 0.59685
#
# Static dielectric constant tensor:
#      x y z
#    x 3.433980 0.000000 0.000000 
#    y 0.000000 3.562730 0.000000 
#    z 0.000000 0.000000 3.529680 
# 
# 
# High freq. dielectric constant tensor:
#      x y z
#    x 1.768660 0.000000 0.000000 
#    y 0.000000 1.756870 0.000000 
#    z 0.000000 0.000000 1.749330 
# 
# From -- ./inp_files/4675.got.cif
#   From: 2010.03.12/outbox.cif.g09.slc.cpg/sg44_3_cif.got.tgz:4675.got - 2010.04.14 02:36:11.
