data_PCOD8188182
_publ_section_title
;
Structure prediction by ZEFSAII (Michael W. Deem and Ramdas Pophale) SiO2 
 PCOD8188182
Probable space group: I M M 2
;
_chemical_formula_sum "Si O2"
_cell_formula_units_Z 64
_cell_length_a 8.814707
_cell_length_b 18.518363
_cell_length_c 21.943835
_cell_angle_alpha 90.000000
_cell_angle_beta 90.000000
_cell_angle_gamma 90.000000
_cell_volume 3581.978733
_symmetry_space_group_name_H-M "I M M 2"
_symmetry_group_IT_number 44
_symmetry_cell_setting 'orthorhombic'
loop_
_space_group_symop_operation_xyz
x,y,z
-x,-y,z
-x,y,z
x,-y,z
1/2+x,1/2+y,1/2+z
1/2-x,1/2-y,1/2+z
1/2-x,1/2+y,1/2+z
1/2+x,1/2-y,1/2+z
loop_
_atom_site_type_symbol
_atom_site_label
_atom_site_fract_x
_atom_site_fract_y
_atom_site_fract_z
Si Si1 0.179842 0.082077 0.701500
Si Si2 0.324014 0.579446 0.870333
Si Si3 0.666855 0.920874 0.493496
Si Si4 0.820915 0.872047 0.833645
Si Si5 0.178926 0.278164 0.883104
Si Si6 0.174395 0.421242 0.451599
Si Si7 0.322085 0.819330 0.601547
Si Si8 0.179569 0.727476 0.506801
O O1 0.239350 0.096862 0.769892
O O2 0.252205 0.146894 0.662389
O O3 0.000000 0.089404 0.696732
O O4 0.229741 0.000000 0.682903
O O5 0.500000 0.590384 0.856182
O O6 0.270766 0.500000 0.844289
O O7 0.232249 0.649517 0.846012
O O8 0.294851 0.580070 0.942281
O O9 0.500000 0.895319 0.467901
O O10 0.722301 0.875020 0.549555
O O11 0.649703 0.000000 0.520968
O O12 0.760604 0.790208 0.844773
O O13 0.764503 0.921859 0.888355
O O14 0.000000 0.873750 0.833759
O O15 0.000000 0.276545 0.887577
O O16 0.244779 0.276017 0.952620
O O17 0.201575 0.500000 0.482858
O O18 0.226096 0.356497 0.496221
O O19 0.000000 0.409621 0.434622
O O20 0.500000 0.806359 0.611357
O O21 0.244069 0.746457 0.574599
O O22 0.000000 0.739667 0.505125
#
# Coordination Sequence:
#
# PCOD8188182 Si02
#       8
#     8   8   8   8   8   8   8   8
#     4  10  21  36  52  71  98 133 171 207 242 284
#     4  10  19  28  41  64  93 124 158 194 235 287
#     4   9  17  28  41  58  85 122 158 192 230 271
#     4   9  19  34  52  73  98 130 168 206 245 289
#     4  10  18  30  48  70  96 126 161 203 248 293
#     4   9  18  32  51  76 103 129 158 198 248 296
#     4  11  21  32  47  68  96 129 165 203 241 283
#     4  10  19  31  48  70  97 128 161 198 242 295
#
# _framework density 17.867218000000001
#
# number of rings (size 3 to 8) (size 9 to 14) (size 15 to 20)
#    0.000    2.250    1.250    2.250    0.000    4.250 
#    0.000    1.250    0.000    0.000    0.000    0.875 
#    0.000    3.000    0.000    0.000    0.000    0.000 
#
# Total GULP energy -396438.396871 kJ/mol
# GULP energy per Si atom -12388.699902 kJ/mol
# Density = 1.782655 g / cm^3
# Si number density = 17.867218 Si / 1000 Ang^3
#
#
#
# Elastic Constant Matrix: (Units=GPa)
#
#
# Indices 1 2 3 4 5 6 
#
# 1 50.3611 27.3321 21.1467 0.0000 0.0000 0.0000
# 2 27.3321 122.7640 33.1480 0.0000 0.0000 0.0000
# 3 21.1467 33.1480 65.8085 0.0000 0.0000 0.0000
# 4 0.0000 0.0000 0.0000 24.8204 0.0000 0.0000
# 5 0.0000 0.0000 0.0000 0.0000 19.6465 0.0000
# 6 0.0000 0.0000 0.0000 0.0000 0.0000 23.0199
#
#
#
# Elastic Compliance Matrix: (Units=1/GPa)
#
#
# Indices 1 2 3 4 5 6 
#
# 1 0.024424 -0.003841 -0.005914 0.000000 0.000000 0.000000
# 2 -0.003841 0.010032 -0.003819 0.000000 0.000000 0.000000
# 3 -0.005914 -0.003819 0.019020 0.000000 0.000000 0.000000
# 4 0.000000 0.000000 0.000000 0.040289 0.000000 0.000000
# 5 0.000000 0.000000 0.000000 0.000000 0.050900 0.000000
# 6 0.000000 0.000000 0.000000 0.000000 0.000000 0.043441
#
#
# Mechanical properties :
#
#
# Convention : Reuss Voigt Hill
#
# Bulk Modulus (GPa) = 37.98151 44.68747 41.33449
# Shear Modulus (GPa) = 22.31852 23.98448 23.15150
#
# Velocity S-wave (km/s) = 3.53814 3.66782 3.60356
# Velocity P-wave (km/s) = 6.16401 6.55762 6.36386
#
# Compressibility (1/GPa) = 0.02632860
#
# Stress axis : x y z
#
# Youngs Moduli (GPa) = 40.94266 99.68062 52.57759
#
# Poissons Ratio (x) = 0.38288 0.31093
# Poissons Ratio (y) = 0.15726 0.20079
# Poissons Ratio (z) = 0.24212 0.38067
#
# Static dielectric constant tensor:
#      x y z
#    x 3.280950 0.000000 0.000000 
#    y 0.000000 3.888110 0.000000 
#    z 0.000000 0.000000 3.039540 
# 
# 
# High freq. dielectric constant tensor:
#      x y z
#    x 1.691950 0.000000 0.000000 
#    y 0.000000 1.710890 0.000000 
#    z 0.000000 0.000000 1.634310 
# 
# From -- ./inp_files/23413.got.cif
#   From: 2010.03.12/outbox.cif.g09.slc.cpg/sg44_12_cif.got.tgz:23413.got - 2010.04.14 02:36:11.
