data_PCOD8188183
_publ_section_title
;
Structure prediction by ZEFSAII (Michael W. Deem and Ramdas Pophale) SiO2 
 PCOD8188183
Probable space group: I M M 2
;
_chemical_formula_sum "Si O2"
_cell_formula_units_Z 64
_cell_length_a 30.033593
_cell_length_b 8.825750
_cell_length_c 14.539159
_cell_angle_alpha 90.000000
_cell_angle_beta 90.000000
_cell_angle_gamma 90.000000
_cell_volume 3853.880096
_symmetry_space_group_name_H-M "I M M 2"
_symmetry_group_IT_number 44
_symmetry_cell_setting 'orthorhombic'
loop_
_space_group_symop_operation_xyz
x,y,z
-x,-y,z
-x,y,z
x,-y,z
1/2+x,1/2+y,1/2+z
1/2-x,1/2-y,1/2+z
1/2-x,1/2+y,1/2+z
1/2+x,1/2-y,1/2+z
loop_
_atom_site_type_symbol
_atom_site_label
_atom_site_fract_x
_atom_site_fract_y
_atom_site_fract_z
Si Si1 0.788314 0.321072 0.884280
Si Si2 0.634800 0.677329 0.498337
Si Si3 0.549420 0.325984 0.753317
Si Si4 0.297034 0.321798 0.996143
Si Si5 0.776723 0.170796 0.691833
Si Si6 0.326082 0.830705 0.670506
Si Si7 0.862251 0.825151 0.343802
Si Si8 0.550372 0.821840 0.561509
O O1 0.790702 0.500000 0.893957
O O2 0.745636 0.254563 0.940151
O O3 0.784724 0.279935 0.777228
O O4 0.834102 0.253222 0.922222
O O5 0.634150 0.500000 0.481046
O O6 0.652470 0.713472 0.599954
O O7 0.584307 0.741224 0.490895
O O8 0.500000 0.285794 0.790338
O O9 0.551825 0.500000 0.720267
O O10 0.584564 0.295979 0.835894
O O11 0.562394 0.223340 0.666372
O O12 0.289391 0.500000 0.001798
O O13 0.343241 0.280648 0.944095
O O14 0.301916 0.262326 0.101123
O O15 0.726287 0.169082 0.657834
O O16 0.792256 0.000000 0.717751
O O17 0.336467 0.779997 0.773123
O O18 0.344993 0.000000 0.652001
O O19 0.850627 0.000000 0.322233
O O20 0.500000 0.768992 0.538403
O O21 0.555497 0.000000 0.551214
#
# Coordination Sequence:
#
# PCOD8188183 Si02
#       8
#     8   8   8   8   8   8   8   8
#     4  11  21  35  52  73  99 129 167 212 253 298
#     4  12  23  34  50  73 101 137 174 205 246 302
#     4   9  17  28  44  70 102 132 166 208 250 298
#     4   9  18  32  49  69  96 129 169 209 252 299
#     4  10  20  35  49  68  98 132 168 211 253 294
#     4  11  20  30  47  71 101 133 168 210 249 291
#     4  10  18  30  48  70  96 136 174 203 249 302
#     4  10  20  33  50  73 101 132 165 204 253 302
#
# _framework density 16.606639000000001
#
# number of rings (size 3 to 8) (size 9 to 14) (size 15 to 20)
#    0.000    1.750    3.750    2.250    0.000    1.250 
#    0.000    0.625    0.000    0.000    0.000    0.875 
#    0.000    3.000    0.000    0.000    0.000    0.000 
#
# Total GULP energy -396707.556345 kJ/mol
# GULP energy per Si atom -12397.111136 kJ/mol
# Density = 1.656884 g / cm^3
# Si number density = 16.606639 Si / 1000 Ang^3
#
#
#
# Elastic Constant Matrix: (Units=GPa)
#
#
# Indices 1 2 3 4 5 6 
#
# 1 99.8955 29.2469 38.1642 0.0000 0.0000 0.0000
# 2 29.2469 64.0488 21.8855 0.0000 0.0000 0.0000
# 3 38.1642 21.8855 82.6775 0.0000 0.0000 0.0000
# 4 0.0000 0.0000 0.0000 21.8531 0.0000 0.0000
# 5 0.0000 0.0000 0.0000 0.0000 26.2607 0.0000
# 6 0.0000 0.0000 0.0000 0.0000 0.0000 20.9739
#
#
#
# Elastic Compliance Matrix: (Units=1/GPa)
#
#
# Indices 1 2 3 4 5 6 
#
# 1 0.013160 -0.004325 -0.004930 0.000000 0.000000 0.000000
# 2 -0.004325 0.018587 -0.002924 0.000000 0.000000 0.000000
# 3 -0.004930 -0.002924 0.015145 0.000000 0.000000 0.000000
# 4 0.000000 0.000000 0.000000 0.045760 0.000000 0.000000
# 5 0.000000 0.000000 0.000000 0.000000 0.038080 0.000000
# 6 0.000000 0.000000 0.000000 0.000000 0.000000 0.047678
#
#
# Mechanical properties :
#
#
# Convention : Reuss Voigt Hill
#
# Bulk Modulus (GPa) = 44.37571 47.24611 45.81091
# Shear Modulus (GPa) = 23.77797 24.30589 24.04193
#
# Velocity S-wave (km/s) = 3.78806 3.82989 3.80903
# Velocity P-wave (km/s) = 6.77586 6.93320 6.85498
#
# Compressibility (1/GPa) = 0.02253485
#
# Stress axis : x y z
#
# Youngs Moduli (GPa) = 75.98732 53.80099 66.02922
#
# Poissons Ratio (x) = 0.23268 0.32552
# Poissons Ratio (y) = 0.32863 0.19306
# Poissons Ratio (z) = 0.37461 0.15730
#
# Static dielectric constant tensor:
#      x y z
#    x 3.335880 0.000000 0.000000 
#    y 0.000000 3.075340 0.000000 
#    z 0.000000 0.000000 3.028690 
# 
# 
# High freq. dielectric constant tensor:
#      x y z
#    x 1.637130 0.000000 0.000000 
#    y 0.000000 1.636130 0.000000 
#    z 0.000000 0.000000 1.610180 
# 
# From -- ./inp_files/17100.got.cif
#   From: 2010.03.12/outbox.cif.g09.slc.cpg/sg44_9_cif.got.tgz:17100.got - 2010.04.14 02:36:11.
