data_PCOD8188022
_publ_section_title
;
Structure prediction by ZEFSAII (Michael W. Deem and Ramdas Pophale) SiO2 
 PCOD8188022
Probable space group: I M M 2
;
_chemical_formula_sum "Si O2"
_cell_formula_units_Z 56
_cell_length_a 22.500501
_cell_length_b 8.670629
_cell_length_c 17.785031
_cell_angle_alpha 90.000000
_cell_angle_beta 90.000000
_cell_angle_gamma 90.000000
_cell_volume 3469.743883
_symmetry_space_group_name_H-M "I M M 2"
_symmetry_group_IT_number 44
_symmetry_cell_setting 'orthorhombic'
loop_
_space_group_symop_operation_xyz
x,y,z
-x,-y,z
-x,y,z
x,-y,z
1/2+x,1/2+y,1/2+z
1/2-x,1/2-y,1/2+z
1/2-x,1/2+y,1/2+z
1/2+x,1/2-y,1/2+z
loop_
_atom_site_type_symbol
_atom_site_label
_atom_site_fract_x
_atom_site_fract_y
_atom_site_fract_z
Si Si1 0.805388 0.822332 0.242720
Si Si2 0.932362 0.819528 0.524237
Si Si3 0.841164 0.823389 0.400359
Si Si4 0.781257 0.180129 0.944180
Si Si5 0.718234 0.819308 0.598535
Si Si6 0.316564 0.678760 0.284379
Si Si7 0.844772 0.679874 0.639010
O O1 0.853300 0.801558 0.310243
O O2 0.825370 0.763898 0.160048
O O3 0.751018 0.711494 0.262422
O O4 0.784543 0.000000 0.237513
O O5 0.900635 0.778801 0.445096
O O6 0.902244 0.727736 0.592019
O O7 0.000000 0.763705 0.517125
O O8 0.928092 0.000000 0.542134
O O9 0.787463 0.718224 0.428482
O O10 0.822684 0.000000 0.416995
O O11 0.822987 0.225261 0.872486
O O12 0.785508 0.000000 0.961094
O O13 0.805182 0.272606 0.016165
O O14 0.786827 0.767747 0.607740
O O15 0.713211 0.000000 0.609037
O O16 0.331093 0.500000 0.272549
O O17 0.357580 0.776392 0.226829
O O18 0.833140 0.500000 0.630954
#
# Coordination Sequence:
#
# PCOD8188022 Si02
#       7
#     8   8   8   8   8   8   8
#     4   9  16  26  40  59  82 109 144 177 212 256
#     4  10  20  33  48  65  86 116 153 188 223 261
#     4   9  17  29  44  60  82 114 145 180 219 257
#     4  10  18  27  42  64  87 114 144 177 214 258
#     4  11  19  27  41  61  87 117 146 175 214 261
#     4   9  17  28  42  60  83 111 143 174 214 263
#     4  11  20  30  44  61  84 114 148 184 222 257
#
# _framework density 16.139519
#
# number of rings (size 3 to 8) (size 9 to 14) (size 15 to 20)
#    0.000    2.143    1.429    5.571    0.000    2.571 
#    0.000    0.000    0.000    0.000    0.000    0.000 
#    0.000    1.143    0.000    8.857    0.000    2.143 
#
# Total GULP energy -346973.630464 kJ/mol
# GULP energy per Si atom -12391.915374 kJ/mol
# Density = 1.610279 g / cm^3
# Si number density = 16.139519 Si / 1000 Ang^3
#
#
#
# Elastic Constant Matrix: (Units=GPa)
#
#
# Indices 1 2 3 4 5 6 
#
# 1 46.5884 19.4299 42.2957 0.0000 0.0000 0.0000
# 2 19.4299 60.6055 43.1085 0.0000 0.0000 0.0000
# 3 42.2957 43.1085 157.2914 0.0000 0.0000 0.0000
# 4 0.0000 0.0000 0.0000 27.7935 0.0000 0.0000
# 5 0.0000 0.0000 0.0000 0.0000 16.3483 0.0000
# 6 0.0000 0.0000 0.0000 0.0000 0.0000 12.1426
#
#
#
# Elastic Compliance Matrix: (Units=1/GPa)
#
#
# Indices 1 2 3 4 5 6 
#
# 1 0.029450 -0.004731 -0.006622 0.000000 0.000000 0.000000
# 2 -0.004731 0.021256 -0.004553 0.000000 0.000000 0.000000
# 3 -0.006622 -0.004553 0.009386 0.000000 0.000000 0.000000
# 4 0.000000 0.000000 0.000000 0.035980 0.000000 0.000000
# 5 0.000000 0.000000 0.000000 0.000000 0.061168 0.000000
# 6 0.000000 0.000000 0.000000 0.000000 0.000000 0.082354
#
#
# Mechanical properties :
#
#
# Convention : Reuss Voigt Hill
#
# Bulk Modulus (GPa) = 35.36278 52.68373 44.02326
# Shear Modulus (GPa) = 17.80412 21.90031 19.85221
#
# Velocity S-wave (km/s) = 3.32496 3.68766 3.51099
# Velocity P-wave (km/s) = 6.05794 7.13059 6.61604
#
# Compressibility (1/GPa) = 0.02827832
#
# Stress axis : x y z
#
# Youngs Moduli (GPa) = 33.95596 47.04629 106.53785
#
# Poissons Ratio (x) = 0.22258 0.70554
# Poissons Ratio (y) = 0.16065 0.48510
# Poissons Ratio (z) = 0.22487 0.21422
#
# Static dielectric constant tensor:
#      x y z
#    x 2.525180 0.000000 0.000000 
#    y 0.000000 3.092780 0.000000 
#    z 0.000000 0.000000 3.888590 
# 
# 
# High freq. dielectric constant tensor:
#      x y z
#    x 1.532890 0.000000 0.000000 
#    y 0.000000 1.633380 0.000000 
#    z 0.000000 0.000000 1.647300 
# 
# From -- ./inp_files/20698.got.cif
#   From: 2010.03.12/outbox.cif.g09.slc.cpg/sg44_11_cif.got.tgz:20698.got - 2010.04.14 02:36:11.
