data_PCOD8188787
_publ_section_title
;
Structure prediction by ZEFSAII (Michael W. Deem and Ramdas Pophale) SiO2 
 PCOD8188787
Probable space group: I M M 2
;
_chemical_formula_sum "Si O2"
_cell_formula_units_Z 64
_cell_length_a 28.840537
_cell_length_b 8.909273
_cell_length_c 12.583821
_cell_angle_alpha 90.000000
_cell_angle_beta 90.000000
_cell_angle_gamma 90.000000
_cell_volume 3233.390377
_symmetry_space_group_name_H-M "I M M 2"
_symmetry_group_IT_number 44
_symmetry_cell_setting 'orthorhombic'
loop_
_space_group_symop_operation_xyz
x,y,z
-x,-y,z
-x,y,z
x,-y,z
1/2+x,1/2+y,1/2+z
1/2-x,1/2-y,1/2+z
1/2-x,1/2+y,1/2+z
1/2+x,1/2-y,1/2+z
loop_
_atom_site_type_symbol
_atom_site_label
_atom_site_fract_x
_atom_site_fract_y
_atom_site_fract_z
Si Si1 0.050781 0.670234 0.123550
Si Si2 0.447167 0.678334 0.989692
Si Si3 0.393180 0.323418 0.199108
Si Si4 0.078404 0.171885 0.928231
Si Si5 0.702062 0.830211 0.256692
Si Si6 0.667415 0.833055 0.482615
Si Si7 0.202931 0.672862 0.213525
Si Si8 0.386515 0.322632 0.790790
O O1 0.068916 0.500000 0.128932
O O2 0.087158 0.774226 0.183904
O O3 0.000000 0.683882 0.176129
O O4 0.045829 0.723442 0.000753
O O5 0.500000 0.742098 0.982712
O O6 0.449236 0.500000 0.986772
O O7 0.422705 0.733134 0.098184
O O8 0.415970 0.738425 0.891536
O O9 0.382076 0.500000 0.192611
O O10 0.424698 0.287766 0.303089
O O11 0.344567 0.236791 0.204661
O O12 0.130437 0.201765 0.967593
O O13 0.064607 0.000000 0.947695
O O14 0.702314 0.826855 0.384273
O O15 0.745737 0.732681 0.226152
O O16 0.707305 0.000000 0.214394
O O17 0.694061 0.799142 0.589999
O O18 0.644070 0.000000 0.486849
O O19 0.201025 0.500000 0.246094
O O20 0.165370 0.756167 0.288615
O O21 0.382492 0.500000 0.794723
#
# Coordination Sequence:
#
# PCOD8188787 Si02
#       8
#     8   8   8   8   8   8   8   8
#     4  11  23  37  54  79 114 152 186 228 288 350
#     4   9  19  37  61  87 119 160 201 246 301 359
#     4   9  19  37  60  86 117 153 194 241 295 352
#     4  10  19  32  56  85 110 140 184 237 285 337
#     4  10  21  37  57  84 115 152 197 246 295 347
#     4   9  19  36  56  75 107 150 185 227 289 352
#     4  11  22  37  58  83 114 154 196 241 298 359
#     4  11  22  37  59  86 114 149 198 250 294 347
#
# _framework density 19.793465000000001
#
# number of rings (size 3 to 8) (size 9 to 14) (size 15 to 20)
#    0.000    2.000    1.250    2.250    0.000    4.500 
#    0.000    7.500    0.000    1.875    0.000    0.000 
#    0.000    0.000    0.000    0.000    0.000    0.000 
#
# Total GULP energy -396693.570498 kJ/mol
# GULP energy per Si atom -12396.674078 kJ/mol
# Density = 1.974841 g / cm^3
# Si number density = 19.793465 Si / 1000 Ang^3
#
#
#
# Elastic Constant Matrix: (Units=GPa)
#
#
# Indices 1 2 3 4 5 6 
#
# 1 99.8953 28.8674 45.7678 0.0000 0.0000 0.0000
# 2 28.8674 71.4464 31.0194 0.0000 0.0000 0.0000
# 3 45.7678 31.0194 113.1520 0.0000 0.0000 0.0000
# 4 0.0000 0.0000 0.0000 22.1869 0.0000 0.0000
# 5 0.0000 0.0000 0.0000 0.0000 27.1064 0.0000
# 6 0.0000 0.0000 0.0000 0.0000 0.0000 27.2509
#
#
#
# Elastic Compliance Matrix: (Units=1/GPa)
#
#
# Indices 1 2 3 4 5 6 
#
# 1 0.012962 -0.003361 -0.004321 0.000000 0.000000 0.000000
# 2 -0.003361 0.016759 -0.003235 0.000000 0.000000 0.000000
# 3 -0.004321 -0.003235 0.011472 0.000000 0.000000 0.000000
# 4 0.000000 0.000000 0.000000 0.045072 0.000000 0.000000
# 5 0.000000 0.000000 0.000000 0.000000 0.036892 0.000000
# 6 0.000000 0.000000 0.000000 0.000000 0.000000 0.036696
#
#
# Mechanical properties :
#
#
# Convention : Reuss Voigt Hill
#
# Bulk Modulus (GPa) = 51.65642 55.08920 53.37281
# Shear Modulus (GPa) = 26.57606 27.23144 26.90375
#
# Velocity S-wave (km/s) = 3.66822 3.71317 3.69076
# Velocity P-wave (km/s) = 6.64044 6.80265 6.72203
#
# Compressibility (1/GPa) = 0.01935868
#
# Stress axis : x y z
#
# Youngs Moduli (GPa) = 77.15125 59.66980 87.16588
#
# Poissons Ratio (x) = 0.20054 0.37667
# Poissons Ratio (y) = 0.25929 0.28197
# Poissons Ratio (z) = 0.33340 0.19302
#
# Static dielectric constant tensor:
#      x y z
#    x 3.527850 0.000000 0.000000 
#    y 0.000000 3.533700 0.000000 
#    z 0.000000 0.000000 3.843140 
# 
# 
# High freq. dielectric constant tensor:
#      x y z
#    x 1.770020 0.000000 0.000000 
#    y 0.000000 1.763480 0.000000 
#    z 0.000000 0.000000 1.775020 
# 
# From -- ./inp_files/15105.got.cif
#   From: 2010.03.12/outbox.cif.g09.slc.cpg/sg44_8_cif.got.tgz:15105.got - 2010.04.14 02:36:11.
