data_PCOD8188861
_publ_section_title
;
Structure prediction by ZEFSAII (Michael W. Deem and Ramdas Pophale) SiO2 
 PCOD8188861
Probable space group: I M M 2
;
_chemical_formula_sum "Si O2"
_cell_formula_units_Z 56
_cell_length_a 12.522632
_cell_length_b 21.764237
_cell_length_c 11.027245
_cell_angle_alpha 90.000000
_cell_angle_beta 90.000000
_cell_angle_gamma 90.000000
_cell_volume 3005.426341
_symmetry_space_group_name_H-M "I M M 2"
_symmetry_group_IT_number 44
_symmetry_cell_setting 'orthorhombic'
loop_
_space_group_symop_operation_xyz
x,y,z
-x,-y,z
-x,y,z
x,-y,z
1/2+x,1/2+y,1/2+z
1/2-x,1/2-y,1/2+z
1/2-x,1/2+y,1/2+z
1/2+x,1/2-y,1/2+z
loop_
_atom_site_type_symbol
_atom_site_label
_atom_site_fract_x
_atom_site_fract_y
_atom_site_fract_z
Si Si1 0.622805 0.341415 0.370210
Si Si2 0.874829 0.427446 0.950364
Si Si3 0.227231 0.645539 0.733932
Si Si4 0.742694 0.840583 0.631086
Si Si5 0.802712 0.723028 0.510219
Si Si6 0.885377 0.251299 0.277340
Si Si7 0.119953 0.067724 0.080039
O O1 0.500000 0.319587 0.347512
O O2 0.681687 0.358142 0.244239
O O3 0.685005 0.290656 0.451418
O O4 0.626597 0.402998 0.447739
O O5 0.847245 0.500000 0.933562
O O6 0.851230 0.388256 0.828045
O O7 0.000000 0.419604 0.981036
O O8 0.801190 0.400397 0.059408
O O9 0.165611 0.677565 0.620840
O O10 0.295010 0.699906 0.794975
O O11 0.308657 0.596081 0.684296
O O12 0.810174 0.794704 0.546548
O O13 0.641470 0.800144 0.673464
O O14 0.890454 0.712615 0.405556
O O15 0.000000 0.221954 0.245247
O O16 0.000000 0.069963 0.130489
O O17 0.163326 0.000000 0.060038
#
# Coordination Sequence:
#
# PCOD8188861 Si02
#       7
#     8   8   8   8   8   8   8
#     4   9  19  34  55  80 109 141 179 226 277 332
#     4  11  24  40  57  77 109 156 198 229 271 334
#     4  10  19  35  54  78 109 140 180 227 275 330
#     4  10  20  37  52  80 110 145 184 227 276 329
#     4   9  19  34  52  81 109 137 177 224 287 333
#     4  10  19  33  55  81 109 138 174 225 284 336
#     4   9  17  31  53  79 105 138 178 221 273 328
#
# _framework density 18.632964999999999
#
# number of rings (size 3 to 8) (size 9 to 14) (size 15 to 20)
#    0.000    2.286    1.429    1.286    0.000    5.714 
#    0.000    0.000    0.000    1.714    0.000   14.000 
#    0.000    0.000    0.000    0.000    0.000    0.000 
#
# Total GULP energy -346888.315576 kJ/mol
# GULP energy per Si atom -12388.868413 kJ/mol
# Density = 1.859056 g / cm^3
# Si number density = 18.632965 Si / 1000 Ang^3
#
#
#
# Elastic Constant Matrix: (Units=GPa)
#
#
# Indices 1 2 3 4 5 6 
#
# 1 52.0905 16.4511 16.9372 0.0001 0.0000 0.0000
# 2 16.4511 95.6000 23.9877 0.0002 -0.0001 0.0000
# 3 16.9372 23.9877 88.6294 0.0009 -0.0003 -0.0001
# 4 0.0001 0.0002 0.0009 24.7598 0.0000 0.0000
# 5 0.0000 -0.0001 -0.0003 0.0000 24.0711 0.0000
# 6 0.0000 0.0000 -0.0001 0.0000 0.0000 19.5702
#
#
#
# Elastic Compliance Matrix: (Units=1/GPa)
#
#
# Indices 1 2 3 4 5 6 
#
# 1 0.021154 -0.002817 -0.003280 0.000000 0.000000 0.000000
# 2 -0.002817 0.011598 -0.002601 0.000000 0.000000 0.000000
# 3 -0.003280 -0.002601 0.012614 0.000000 0.000000 0.000000
# 4 0.000000 0.000000 0.000000 0.040388 0.000000 0.000000
# 5 0.000000 0.000000 0.000000 0.000000 0.041544 0.000000
# 6 0.000000 0.000000 0.000000 0.000000 0.000000 0.051098
#
#
# Mechanical properties :
#
#
# Convention : Reuss Voigt Hill
#
# Bulk Modulus (GPa) = 35.75345 39.00798 37.38071
# Shear Modulus (GPa) = 24.37679 25.60979 24.99329
#
# Velocity S-wave (km/s) = 3.62091 3.71136 3.66641
# Velocity P-wave (km/s) = 6.05898 6.27263 6.16673
#
# Compressibility (1/GPa) = 0.02796933
#
# Stress axis : x y z
#
# Youngs Moduli (GPa) = 47.27334 86.22503 79.27953
#
# Poissons Ratio (x) = 0.24291 0.26004
# Poissons Ratio (y) = 0.13318 0.20617
# Poissons Ratio (z) = 0.15506 0.22423
#
# Static dielectric constant tensor:
#      x y z
#    x 3.300590 0.000000 0.000000 
#    y 0.000000 3.441620 0.000000 
#    z 0.000000 0.000000 3.593040 
# 
# 
# High freq. dielectric constant tensor:
#      x y z
#    x 1.706640 0.000000 0.000000 
#    y 0.000000 1.712150 0.000000 
#    z 0.000000 0.000000 1.737810 
# 
# From -- ./inp_files/12439.got.cif
#   From: 2010.03.12/outbox.cif.g09.slc.cpg/sg44_7_cif.got.tgz:12439.got - 2010.04.14 02:36:11.
