data_PCOD8188529
_publ_section_title
;
Structure prediction by ZEFSAII (Michael W. Deem and Ramdas Pophale) SiO2 
 PCOD8188529
Probable space group: I M M 2
;
_chemical_formula_sum "Si O2"
_cell_formula_units_Z 48
_cell_length_a 13.696822
_cell_length_b 9.263459
_cell_length_c 23.106047
_cell_angle_alpha 90.000000
_cell_angle_beta 90.000000
_cell_angle_gamma 90.000000
_cell_volume 2931.694066
_symmetry_space_group_name_H-M "I M M 2"
_symmetry_group_IT_number 44
_symmetry_cell_setting 'orthorhombic'
loop_
_space_group_symop_operation_xyz
x,y,z
-x,-y,z
-x,y,z
x,-y,z
1/2+x,1/2+y,1/2+z
1/2-x,1/2-y,1/2+z
1/2-x,1/2+y,1/2+z
1/2+x,1/2-y,1/2+z
loop_
_atom_site_type_symbol
_atom_site_label
_atom_site_fract_x
_atom_site_fract_y
_atom_site_fract_z
Si Si1 0.775708 0.168701 0.108410
Si Si2 0.388155 0.834604 0.837254
Si Si3 0.275709 0.668701 0.932347
Si Si4 0.887907 0.167842 0.548095
Si Si5 0.888155 0.334604 0.203502
Si Si6 0.612093 0.667842 0.492661
O O1 0.671545 0.241018 0.095193
O O2 0.817746 0.231958 0.167465
O O3 0.758897 0.000000 0.116531
O O4 0.851256 0.204341 0.057097
O O5 0.500000 0.788772 0.847976
O O6 0.317746 0.731959 0.873291
O O7 0.360587 0.814643 0.770378
O O8 0.372422 0.000000 0.856377
O O9 0.258897 0.500000 0.924226
O O10 0.171545 0.741017 0.945564
O O11 0.351256 0.704341 0.983660
O O12 0.000000 0.214788 0.552413
O O13 0.873000 0.000000 0.562080
O O14 0.872422 0.500000 0.184379
O O15 0.000000 0.288773 0.192780
O O16 0.500000 0.714788 0.488344
O O17 0.627001 0.500000 0.478676
#
# Coordination Sequence:
#
# PCOD8188529 Si02
#       6
#     8   8   8   8   8   8
#     4  10  19  30  47  72  98 122 152 192 235 275
#     4   9  18  32  49  69  94 125 158 189 225 274
#     4  10  19  30  47  72  98 122 152 192 235 275
#     4   9  18  32  48  67  94 127 159 189 225 274
#     4   9  18  32  49  69  94 125 158 189 225 274
#     4   9  18  32  48  67  94 127 159 189 225 274
#
# _framework density 16.372786999999999
#
# number of rings (size 3 to 8) (size 9 to 14) (size 15 to 20)
#    0.000    2.667    0.000    3.000    0.000    4.667 
#    0.000    1.667    0.000    1.000    0.000    7.000 
#    0.000    0.000    0.000    0.000    0.000    0.000 
#
# Total GULP energy -297667.118390 kJ/mol
# GULP energy per Si atom -12402.796600 kJ/mol
# Density = 1.633552 g / cm^3
# Si number density = 16.372787 Si / 1000 Ang^3
#
#
#
# Elastic Constant Matrix: (Units=GPa)
#
#
# Indices 1 2 3 4 5 6 
#
# 1 128.0325 61.8740 53.1084 0.0000 0.0000 0.0000
# 2 61.8740 78.0172 46.5140 0.0000 0.0000 0.0000
# 3 53.1084 46.5140 73.5074 0.0000 0.0000 0.0000
# 4 0.0000 0.0000 0.0000 30.8766 0.0000 0.0000
# 5 0.0000 0.0000 0.0000 0.0000 29.4880 0.0000
# 6 0.0000 0.0000 0.0000 0.0000 0.0000 25.5631
#
#
#
# Elastic Compliance Matrix: (Units=1/GPa)
#
#
# Indices 1 2 3 4 5 6 
#
# 1 0.013658 -0.007947 -0.004839 0.000000 0.000000 0.000000
# 2 -0.007947 0.025207 -0.010209 0.000000 0.000000 0.000000
# 3 -0.004839 -0.010209 0.023560 0.000000 0.000000 0.000000
# 4 0.000000 0.000000 0.000000 0.032387 0.000000 0.000000
# 5 0.000000 0.000000 0.000000 0.000000 0.033912 0.000000
# 6 0.000000 0.000000 0.000000 0.000000 0.000000 0.039119
#
#
# Mechanical properties :
#
#
# Convention : Reuss Voigt Hill
#
# Bulk Modulus (GPa) = 60.84442 66.94999 63.89721
# Shear Modulus (GPa) = 22.79854 25.05624 23.92739
#
# Velocity S-wave (km/s) = 3.73562 3.91622 3.82699
# Velocity P-wave (km/s) = 7.47323 7.83766 7.65761
#
# Compressibility (1/GPa) = 0.01643536
#
# Stress axis : x y z
#
# Youngs Moduli (GPa) = 73.21475 39.67187 42.44416
#
# Poissons Ratio (x) = 0.31527 0.20540
# Poissons Ratio (y) = 0.58184 0.43330
# Poissons Ratio (z) = 0.35432 0.40500
#
# Static dielectric constant tensor:
#      x y z
#    x 3.050950 0.000000 0.000000 
#    y 0.000000 3.067900 0.000000 
#    z 0.000000 0.000000 2.906760 
# 
# 
# High freq. dielectric constant tensor:
#      x y z
#    x 1.623020 0.000000 0.000000 
#    y 0.000000 1.635530 0.000000 
#    z 0.000000 0.000000 1.615960 
# 
# From -- ./inp_files/6024.got.cif
#   From: 2010.03.12/outbox.cif.g09.slc.cpg/sg44_4_cif.got.tgz:6024.got - 2010.04.14 02:36:11.
