data_PCOD8188445
_publ_section_title
;
Structure prediction by ZEFSAII (Michael W. Deem and Ramdas Pophale) SiO2 
 PCOD8188445
Probable space group: I M M 2
;
_chemical_formula_sum "Si O2"
_cell_formula_units_Z 64
_cell_length_a 9.153406
_cell_length_b 13.627974
_cell_length_c 33.973345
_cell_angle_alpha 90.000000
_cell_angle_beta 90.000000
_cell_angle_gamma 90.000000
_cell_volume 4237.915877
_symmetry_space_group_name_H-M "I M M 2"
_symmetry_group_IT_number 44
_symmetry_cell_setting 'orthorhombic'
loop_
_space_group_symop_operation_xyz
x,y,z
-x,-y,z
-x,y,z
x,-y,z
1/2+x,1/2+y,1/2+z
1/2-x,1/2-y,1/2+z
1/2-x,1/2+y,1/2+z
1/2+x,1/2-y,1/2+z
loop_
_atom_site_type_symbol
_atom_site_label
_atom_site_fract_x
_atom_site_fract_y
_atom_site_fract_z
Si Si1 0.170612 0.780402 0.398720
Si Si2 0.327721 0.887963 0.329696
Si Si3 0.671683 0.114071 0.090302
Si Si4 0.168882 0.112593 0.939075
Si Si5 0.663217 0.383421 0.668103
Si Si6 0.838030 0.383378 0.741908
Si Si7 0.830418 0.113258 0.478491
Si Si8 0.170605 0.218747 0.019425
O O1 0.243341 0.817933 0.359104
O O2 0.234192 0.673556 0.408596
O O3 0.207416 0.855549 0.433935
O O4 0.000000 0.770121 0.391452
O O5 0.500000 0.877544 0.336250
O O6 0.284173 0.853758 0.285563
O O7 0.278339 0.000000 0.336911
O O8 0.500000 0.133676 0.090718
O O9 0.737072 0.150309 0.131741
O O10 0.745605 0.178048 0.056829
O O11 0.707983 0.000000 0.082873
O O12 0.000000 0.130390 0.928810
O O13 0.214320 0.000000 0.934693
O O14 0.201898 0.144982 0.983614
O O15 0.500000 0.341080 0.662858
O O16 0.659439 0.500000 0.670395
O O17 0.730055 0.340412 0.708675
O O18 0.845415 0.500000 0.739339
O O19 0.000000 0.340715 0.734103
O O20 0.732551 0.173841 0.509111
O O21 0.000000 0.133838 0.487554
O O22 0.789529 0.000000 0.483651
O O23 0.000000 0.227210 0.029141
#
# Coordination Sequence:
#
# PCOD8188445 Si02
#       8
#     8   8   8   8   8   8   8   8
#     4  10  19  29  43  64  87 110 140 178 215 251
#     4   9  17  28  42  60  84 115 147 177 209 248
#     4  10  19  29  42  60  84 115 146 174 207 250
#     4   9  18  32  47  61  81 111 143 175 213 255
#     4   9  16  25  38  57  81 109 140 173 208 245
#     4   8  14  25  39  55  78 109 142 172 204 245
#     4   9  18  32  46  60  83 114 144 174 210 252
#     4  10  19  30  45  65  86 107 138 179 216 251
#
# _framework density 15.101763
#
# number of rings (size 3 to 8) (size 9 to 14) (size 15 to 20)
#    0.000    2.750    0.000    3.000    0.000    5.500 
#    0.000    1.250    0.000    0.000    0.000    0.000 
#    0.000    1.000    0.000    8.750    0.000    5.125 
#
# Total GULP energy -396786.620236 kJ/mol
# GULP energy per Si atom -12399.581882 kJ/mol
# Density = 1.506739 g / cm^3
# Si number density = 15.101763 Si / 1000 Ang^3
#
#
#
# Elastic Constant Matrix: (Units=GPa)
#
#
# Indices 1 2 3 4 5 6 
#
# 1 89.0139 43.7886 69.1588 0.0000 0.0000 0.0000
# 2 43.7886 72.9161 50.7568 0.0000 0.0000 0.0000
# 3 69.1588 50.7568 125.2828 0.0000 0.0000 0.0000
# 4 0.0000 0.0000 0.0000 19.1365 0.0000 0.0000
# 5 0.0000 0.0000 0.0000 0.0000 29.9914 0.0000
# 6 0.0000 0.0000 0.0000 0.0000 0.0000 20.5130
#
#
#
# Elastic Compliance Matrix: (Units=1/GPa)
#
#
# Indices 1 2 3 4 5 6 
#
# 1 0.021698 -0.006536 -0.009330 0.000000 0.000000 0.000000
# 2 -0.006536 0.021070 -0.004928 0.000000 0.000000 0.000000
# 3 -0.009330 -0.004928 0.015129 0.000000 0.000000 0.000000
# 4 0.000000 0.000000 0.000000 0.052256 0.000000 0.000000
# 5 0.000000 0.000000 0.000000 0.000000 0.033343 0.000000
# 6 0.000000 0.000000 0.000000 0.000000 0.000000 0.048750
#
#
# Mechanical properties :
#
#
# Convention : Reuss Voigt Hill
#
# Bulk Modulus (GPa) = 61.31648 68.29124 64.80386
# Shear Modulus (GPa) = 20.89683 22.16207 21.52945
#
# Velocity S-wave (km/s) = 3.72389 3.83497 3.77984
# Velocity P-wave (km/s) = 7.69287 8.05781 7.87745
#
# Compressibility (1/GPa) = 0.01630883
#
# Stress axis : x y z
#
# Youngs Moduli (GPa) = 46.08656 47.46074 66.09868
#
# Poissons Ratio (x) = 0.31020 0.61670
# Poissons Ratio (y) = 0.30122 0.32575
# Poissons Ratio (z) = 0.42999 0.23390
#
# Static dielectric constant tensor:
#      x y z
#    x 3.039290 0.000000 0.000000 
#    y 0.000000 2.617560 0.000000 
#    z 0.000000 0.000000 2.954450 
# 
# 
# High freq. dielectric constant tensor:
#      x y z
#    x 1.590160 0.000000 0.000000 
#    y 0.000000 1.533210 0.000000 
#    z 0.000000 0.000000 1.578020 
# 
# From -- ./inp_files/27298.got.cif
#   From: 2010.03.12/outbox.cif.g09.slc.cpg/sg44_14_cif.got.tgz:27298.got - 2010.04.14 02:36:11.
