data_PCOD8188049
_publ_section_title
;
Structure prediction by ZEFSAII (Michael W. Deem and Ramdas Pophale) SiO2 
 PCOD8188049
Probable space group: I M M 2
;
_chemical_formula_sum "Si O2"
_cell_formula_units_Z 56
_cell_length_a 8.630516
_cell_length_b 29.580462
_cell_length_c 13.803680
_cell_angle_alpha 90.000000
_cell_angle_beta 90.000000
_cell_angle_gamma 90.000000
_cell_volume 3524.005662
_symmetry_space_group_name_H-M "I M M 2"
_symmetry_group_IT_number 44
_symmetry_cell_setting 'orthorhombic'
loop_
_space_group_symop_operation_xyz
x,y,z
-x,-y,z
-x,y,z
x,-y,z
1/2+x,1/2+y,1/2+z
1/2-x,1/2-y,1/2+z
1/2-x,1/2+y,1/2+z
1/2+x,1/2-y,1/2+z
loop_
_atom_site_type_symbol
_atom_site_label
_atom_site_fract_x
_atom_site_fract_y
_atom_site_fract_z
Si Si1 0.682189 0.267262 0.310410
Si Si2 0.316584 0.727974 0.094905
Si Si3 0.179885 0.000000 0.115288
Si Si4 0.679671 0.000000 0.320995
Si Si5 0.683935 0.685260 0.499632
Si Si6 0.182989 0.092840 0.321285
Si Si7 0.683133 0.179235 0.419388
Si Si8 0.819503 0.902642 0.102142
O O1 0.500000 0.261824 0.302825
O O2 0.746919 0.279381 0.204487
O O3 0.727111 0.306782 0.386706
O O4 0.747069 0.219216 0.349549
O O5 0.500000 0.721352 0.086651
O O6 0.271292 0.778588 0.065528
O O7 0.231752 0.690832 0.029107
O O8 0.213125 0.953141 0.057206
O O9 0.291368 0.000000 0.206646
O O10 0.000000 0.000000 0.151261
O O11 0.754386 0.954418 0.365175
O O12 0.500000 0.000000 0.345480
O O13 0.500000 0.691224 0.514666
O O14 0.749300 0.636013 0.531874
O O15 0.239290 0.132568 0.390089
O O16 0.247718 0.100481 0.211546
O O17 0.000000 0.090794 0.320751
O O18 0.500000 0.174331 0.413360
O O19 0.000000 0.893172 0.107927
#
# Coordination Sequence:
#
# PCOD8188049 Si02
#       8
#     8   8   4   4   8   8   8   8
#     4   8  16  28  42  59  84 112 141 176 215 253
#     4  10  18  29  42  59  82 111 141 174 213 255
#     4   8  14  26  40  60  87 114 143 178 215 256
#     4  10  18  28  42  62  87 118 147 174 209 254
#     4   9  16  28  43  61  82 110 143 176 213 256
#     4  10  18  29  44  65  90 116 143 177 214 253
#     4  10  19  31  45  64  86 112 144 178 213 256
#     4   8  14  24  42  63  86 113 142 173 211 254
#
# _framework density 15.891007999999999
#
# number of rings (size 3 to 8) (size 9 to 14) (size 15 to 20)
#    0.000    2.857    0.000    4.500    0.000    0.000 
#    0.000    9.286    0.000    0.000    0.000    1.000 
#    0.000    4.571    0.000    0.000    0.000    0.429 
#
# Total GULP energy -346961.095076 kJ/mol
# GULP energy per Si atom -12391.467681 kJ/mol
# Density = 1.585484 g / cm^3
# Si number density = 15.891008 Si / 1000 Ang^3
#
#
#
# Elastic Constant Matrix: (Units=GPa)
#
#
# Indices 1 2 3 4 5 6 
#
# 1 43.2240 22.6455 13.9766 0.0001 0.0000 0.0000
# 2 22.6455 150.4053 59.2170 0.0000 0.0000 0.0000
# 3 13.9766 59.2170 96.1545 -0.0004 0.0002 0.0001
# 4 0.0001 0.0000 -0.0004 23.2390 0.0000 0.0000
# 5 0.0000 0.0000 0.0002 0.0000 15.3667 0.0000
# 6 0.0000 0.0000 0.0001 0.0000 0.0000 22.5333
#
#
#
# Elastic Compliance Matrix: (Units=1/GPa)
#
#
# Indices 1 2 3 4 5 6 
#
# 1 0.025340 -0.003122 -0.001761 0.000000 0.000000 0.000000
# 2 -0.003122 0.009162 -0.005188 0.000000 0.000000 0.000000
# 3 -0.001761 -0.005188 0.013851 0.000000 0.000000 0.000000
# 4 0.000000 0.000000 0.000000 0.043031 0.000000 0.000000
# 5 0.000000 0.000000 0.000000 0.000000 0.065076 0.000000
# 6 0.000000 0.000000 0.000000 0.000000 0.000000 0.044379
#
#
# Mechanical properties :
#
#
# Convention : Reuss Voigt Hill
#
# Bulk Modulus (GPa) = 35.44741 53.49578 44.47159
# Shear Modulus (GPa) = 21.70287 25.15744 23.43015
#
# Velocity S-wave (km/s) = 3.69959 3.98317 3.84399
# Velocity P-wave (km/s) = 6.37215 7.40887 6.90998
#
# Compressibility (1/GPa) = 0.02821081
#
# Stress axis : x y z
#
# Youngs Moduli (GPa) = 39.46284 109.15235 72.19652
#
# Poissons Ratio (x) = 0.34079 0.12711
# Poissons Ratio (y) = 0.12321 0.37458
# Poissons Ratio (z) = 0.06948 0.56632
#
# Static dielectric constant tensor:
#      x y z
#    x 2.836960 0.000000 0.000000 
#    y 0.000000 3.296410 0.000000 
#    z 0.000000 0.000000 3.069270 
# 
# 
# High freq. dielectric constant tensor:
#      x y z
#    x 1.597690 0.000000 0.000000 
#    y 0.000000 1.613330 0.000000 
#    z 0.000000 0.000000 1.577520 
# 
# From -- ./inp_files/17066.got.cif
#   From: 2010.03.12/outbox.cif.g09.slc.cpg/sg44_9_cif.got.tgz:17066.got - 2010.04.14 02:36:11.
