data_PCOD8188430
_publ_section_title
;
Structure prediction by ZEFSAII (Michael W. Deem and Ramdas Pophale) SiO2 
 PCOD8188430
Probable space group: I M M 2
;
_chemical_formula_sum "Si O2"
_cell_formula_units_Z 40
_cell_length_a 9.108719
_cell_length_b 15.495653
_cell_length_c 18.902187
_cell_angle_alpha 90.000000
_cell_angle_beta 90.000000
_cell_angle_gamma 90.000000
_cell_volume 2667.959559
_symmetry_space_group_name_H-M "I M M 2"
_symmetry_group_IT_number 44
_symmetry_cell_setting 'orthorhombic'
loop_
_space_group_symop_operation_xyz
x,y,z
-x,-y,z
-x,y,z
x,-y,z
1/2+x,1/2+y,1/2+z
1/2-x,1/2-y,1/2+z
1/2-x,1/2+y,1/2+z
1/2+x,1/2-y,1/2+z
loop_
_atom_site_type_symbol
_atom_site_label
_atom_site_fract_x
_atom_site_fract_y
_atom_site_fract_z
Si Si1 0.664783 0.816252 0.919370
Si Si2 0.827542 0.900692 0.046152
Si Si3 0.169261 0.401616 0.689131
Si Si4 0.828159 0.743620 0.798078
Si Si5 0.834982 0.405058 0.281447
O O1 0.500000 0.786194 0.939286
O O2 0.747169 0.739993 0.874742
O O3 0.660861 0.899562 0.867468
O O4 0.752390 0.838083 0.989935
O O5 0.768824 0.874555 0.123116
O O6 0.000000 0.885104 0.043684
O O7 0.786713 0.000000 0.029837
O O8 0.199642 0.500000 0.712041
O O9 0.212615 0.342385 0.755482
O O10 0.000000 0.387863 0.667443
O O11 0.770525 0.827981 0.753426
O O12 0.000000 0.753446 0.810724
O O13 0.774886 0.500000 0.259969
O O14 0.000000 0.391962 0.251399
#
# Coordination Sequence:
#
# PCOD8188430 Si02
#       5
#     8   8   8   8   8
#     4   9  17  28  42  60  88 119 146 175 215 264
#     4  10  19  28  42  66  92 117 147 184 223 264
#     4   9  18  32  47  63  89 124 154 181 220 268
#     4   9  17  28  43  64  88 115 151 188 219 257
#     4   8  15  26  40  59  85 116 143 171 213 261
#
# _framework density 14.992730999999999
#
# number of rings (size 3 to 8) (size 9 to 14) (size 15 to 20)
#    1.200    1.800    0.000    1.800    0.000    4.000 
#    0.000    0.000    0.000    0.000    0.000    1.400 
#    0.000    8.000    0.000    0.000    0.000    0.000 
#
# Total GULP energy -247761.274328 kJ/mol
# GULP energy per Si atom -12388.063716 kJ/mol
# Density = 1.495861 g / cm^3
# Si number density = 14.992731 Si / 1000 Ang^3
#
#
#
# Elastic Constant Matrix: (Units=GPa)
#
#
# Indices 1 2 3 4 5 6 
#
# 1 92.8137 42.0907 54.2383 0.0000 0.0000 0.0000
# 2 42.0907 76.8748 48.9223 0.0000 0.0000 0.0000
# 3 54.2383 48.9223 81.7485 0.0000 0.0000 0.0000
# 4 0.0000 0.0000 0.0000 27.3083 0.0000 0.0000
# 5 0.0000 0.0000 0.0000 0.0000 25.0146 0.0000
# 6 0.0000 0.0000 0.0000 0.0000 0.0000 19.9581
#
#
#
# Elastic Compliance Matrix: (Units=1/GPa)
#
#
# Indices 1 2 3 4 5 6 
#
# 1 0.018222 -0.003687 -0.009883 0.000000 0.000000 0.000000
# 2 -0.003687 0.021756 -0.010573 0.000000 0.000000 0.000000
# 3 -0.009883 -0.010573 0.025117 0.000000 0.000000 0.000000
# 4 0.000000 0.000000 0.000000 0.036619 0.000000 0.000000
# 5 0.000000 0.000000 0.000000 0.000000 0.039977 0.000000
# 6 0.000000 0.000000 0.000000 0.000000 0.000000 0.050105
#
#
# Mechanical properties :
#
#
# Convention : Reuss Voigt Hill
#
# Bulk Modulus (GPa) = 59.49676 60.21550 59.85613
# Shear Modulus (GPa) = 20.35119 21.53524 20.94322
#
# Velocity S-wave (km/s) = 3.68829 3.79407 3.74156
# Velocity P-wave (km/s) = 7.60972 7.70997 7.66001
#
# Compressibility (1/GPa) = 0.01680764
#
# Stress axis : x y z
#
# Youngs Moduli (GPa) = 54.87871 45.96485 39.81301
#
# Poissons Ratio (x) = 0.16949 0.39348
# Poissons Ratio (y) = 0.20236 0.42095
# Poissons Ratio (z) = 0.54238 0.48599
#
# Static dielectric constant tensor:
#      x y z
#    x 2.953700 0.000000 0.000000 
#    y 0.000000 2.698840 0.000000 
#    z 0.000000 0.000000 2.587730 
# 
# 
# High freq. dielectric constant tensor:
#      x y z
#    x 1.587430 0.000000 0.000000 
#    y 0.000000 1.547060 0.000000 
#    z 0.000000 0.000000 1.540780 
# 
# From -- ./inp_files/15935.got.cif
#   From: 2010.03.12/outbox.cif.g09.slc.cpg/sg44_8_cif.got.tgz:15935.got - 2010.04.14 02:36:11.
