data_PCOD8188217
_publ_section_title
;
Structure prediction by ZEFSAII (Michael W. Deem and Ramdas Pophale) SiO2 
 PCOD8188217
Probable space group: I M M 2
;
_chemical_formula_sum "Si O2"
_cell_formula_units_Z 64
_cell_length_a 18.387504
_cell_length_b 8.776406
_cell_length_c 20.902401
_cell_angle_alpha 90.000000
_cell_angle_beta 90.000000
_cell_angle_gamma 90.000000
_cell_volume 3373.150053
_symmetry_space_group_name_H-M "I M M 2"
_symmetry_group_IT_number 44
_symmetry_cell_setting 'orthorhombic'
loop_
_space_group_symop_operation_xyz
x,y,z
-x,-y,z
-x,y,z
x,-y,z
1/2+x,1/2+y,1/2+z
1/2-x,1/2-y,1/2+z
1/2-x,1/2+y,1/2+z
1/2+x,1/2-y,1/2+z
loop_
_atom_site_type_symbol
_atom_site_label
_atom_site_fract_x
_atom_site_fract_y
_atom_site_fract_z
Si Si1 0.649241 0.180119 0.202550
Si Si2 0.150212 0.822338 0.832740
Si Si3 0.685766 0.677103 0.694613
Si Si4 0.649241 0.180119 0.462930
Si Si5 0.917071 0.822227 0.580517
Si Si6 0.302860 0.676186 0.832740
Si Si7 0.685766 0.677103 0.970867
Si Si8 0.917071 0.822227 0.084964
O O1 0.616685 0.249306 0.268250
O O2 0.731824 0.240858 0.190031
O O3 0.598032 0.232639 0.145395
O O4 0.648448 0.000000 0.208828
O O5 0.116685 0.749306 0.897230
O O6 0.235689 0.790000 0.832740
O O7 0.133310 0.000000 0.832740
O O8 0.687097 0.500000 0.679666
O O9 0.653131 0.706573 0.766669
O O10 0.633218 0.750673 0.641312
O O11 0.731824 0.240858 0.475449
O O12 0.598032 0.232639 0.520085
O O13 0.648448 0.000000 0.456652
O O14 0.866782 0.749327 0.524169
O O15 0.000000 0.795239 0.559743
O O16 0.901126 0.000000 0.592027
O O17 0.274132 0.500000 0.832740
O O18 0.346869 0.706573 0.898811
O O19 0.687097 0.500000 0.985814
O O20 0.000000 0.795239 0.105737
O O21 0.901126 0.000000 0.073454
#
# Coordination Sequence:
#
# PCOD8188217 Si02
#       8
#     8   8   8   8   8   8   8   8
#     4  10  19  33  53  74  98 129 166 204 242 291
#     4  10  18  30  51  78 103 123 153 201 253 298
#     4   8  15  29  50  74  99 129 164 203 245 288
#     4  10  19  33  53  74  98 129 166 204 242 291
#     4  10  20  33  48  70 102 135 167 205 247 289
#     4   8  14  28  49  73 101 130 163 202 241 285
#     4   8  15  29  50  74  99 129 164 203 245 288
#     4  10  20  33  48  70 102 135 167 205 247 289
#
# _framework density 18.973362000000002
#
# number of rings (size 3 to 8) (size 9 to 14) (size 15 to 20)
#    0.000    2.750    0.000    4.125    0.000    0.500 
#    0.000    6.250    0.000    7.500    0.000    0.000 
#    0.000   18.000    0.000    0.000    0.000    0.000 
#
# Total GULP energy -396537.228615 kJ/mol
# GULP energy per Si atom -12391.788394 kJ/mol
# Density = 1.893018 g / cm^3
# Si number density = 18.973362 Si / 1000 Ang^3
#
#
#
# Elastic Constant Matrix: (Units=GPa)
#
#
# Indices 1 2 3 4 5 6 
#
# 1 37.8972 15.1541 22.2998 0.0000 0.0000 0.0000
# 2 15.1541 58.2481 26.2532 0.0000 0.0000 0.0000
# 3 22.2998 26.2532 130.8282 0.0000 0.0000 0.0000
# 4 0.0000 0.0000 0.0000 24.9448 0.0000 0.0000
# 5 0.0000 0.0000 0.0000 0.0000 8.5613 0.0000
# 6 0.0000 0.0000 0.0000 0.0000 0.0000 15.8642
#
#
#
# Elastic Compliance Matrix: (Units=1/GPa)
#
#
# Indices 1 2 3 4 5 6 
#
# 1 0.031305 -0.006310 -0.004070 0.000000 0.000000 0.000000
# 2 -0.006310 0.020147 -0.002967 0.000000 0.000000 0.000000
# 3 -0.004070 -0.002967 0.008933 0.000000 0.000000 0.000000
# 4 0.000000 0.000000 0.000000 0.040089 0.000000 0.000000
# 5 0.000000 0.000000 0.000000 0.000000 0.116805 0.000000
# 6 0.000000 0.000000 0.000000 0.000000 0.000000 0.063035
#
#
# Mechanical properties :
#
#
# Convention : Reuss Voigt Hill
#
# Bulk Modulus (GPa) = 29.68200 39.37642 34.52921
# Shear Modulus (GPa) = 15.71148 20.75847 18.23497
#
# Velocity S-wave (km/s) = 2.88076 3.31128 3.10350
# Velocity P-wave (km/s) = 5.17137 5.95131 5.57499
#
# Compressibility (1/GPa) = 0.03369045
#
# Stress axis : x y z
#
# Youngs Moduli (GPa) = 31.94359 49.63504 111.94764
#
# Poissons Ratio (x) = 0.31321 0.45560
# Poissons Ratio (y) = 0.20157 0.33218
# Poissons Ratio (z) = 0.13000 0.14728
#
# Static dielectric constant tensor:
#      x y z
#    x 3.225410 0.000000 0.000000 
#    y 0.000000 3.151140 0.000000 
#    z 0.000000 0.000000 3.971770 
# 
# 
# High freq. dielectric constant tensor:
#      x y z
#    x 1.693340 0.000000 0.000000 
#    y 0.000000 1.709470 0.000000 
#    z 0.000000 0.000000 1.763760 
# 
# From -- ./inp_files/24483.got.cif
#   From: 2010.03.12/outbox.cif.g09.slc.cpg/sg44_13_cif.got.tgz:24483.got - 2010.04.14 02:36:11.
