data_PCOD8188223
_publ_section_title
;
Structure prediction by ZEFSAII (Michael W. Deem and Ramdas Pophale) SiO2 
 PCOD8188223
Probable space group: I M M 2
;
_chemical_formula_sum "Si O2"
_cell_formula_units_Z 48
_cell_length_a 21.201168
_cell_length_b 9.762893
_cell_length_c 12.189991
_cell_angle_alpha 90.000000
_cell_angle_beta 90.000000
_cell_angle_gamma 90.000000
_cell_volume 2523.142053
_symmetry_space_group_name_H-M "I M M 2"
_symmetry_group_IT_number 44
_symmetry_cell_setting 'orthorhombic'
loop_
_space_group_symop_operation_xyz
x,y,z
-x,-y,z
-x,y,z
x,-y,z
1/2+x,1/2+y,1/2+z
1/2-x,1/2-y,1/2+z
1/2-x,1/2+y,1/2+z
1/2+x,1/2-y,1/2+z
loop_
_atom_site_type_symbol
_atom_site_label
_atom_site_fract_x
_atom_site_fract_y
_atom_site_fract_z
Si Si1 0.500000 0.342976 0.885401
Si Si2 0.500000 0.148176 0.085566
Si Si3 0.070828 0.337306 0.950780
Si Si4 0.833103 0.656541 0.132075
Si Si5 0.624549 0.844475 0.224724
Si Si6 0.304585 0.655966 0.062690
Si Si7 0.361532 0.659814 0.829851
O O1 0.500000 0.500000 0.920044
O O2 0.563578 0.307635 0.818746
O O3 0.500000 0.266699 0.999080
O O4 0.440489 0.161838 0.161918
O O5 0.500000 0.000000 0.025553
O O6 0.066576 0.500000 0.942202
O O7 0.110637 0.284953 0.846013
O O8 0.000000 0.274704 0.954049
O O9 0.107720 0.291871 0.060113
O O10 0.843076 0.500000 0.171246
O O11 0.770998 0.667389 0.056280
O O12 0.826088 0.751908 0.238421
O O13 0.674595 0.748695 0.164509
O O14 0.651234 0.000000 0.228985
O O15 0.326118 0.500000 0.085082
O O16 0.335265 0.706953 0.948518
O O17 0.346909 0.500000 0.810304
#
# Coordination Sequence:
#
# PCOD8188223 Si02
#       7
#     4   4   8   8   8   8   8
#     4  10  20  36  57  80 112 154 189 221 276 343
#     4  10  18  30  51  88 120 140 185 241 278 319
#     4   9  18  35  58  83 110 142 182 230 281 326
#     4  10  23  39  58  83 111 146 190 232 272 331
#     4  10  19  33  58  87 114 146 186 232 279 329
#     4  10  22  39  57  82 115 149 186 227 277 337
#     4  10  22  39  59  82 112 149 186 227 278 335
#
# _framework density 19.023899
#
# number of rings (size 3 to 8) (size 9 to 14) (size 15 to 20)
#    0.000    2.167    2.500    0.000    3.500    2.000 
#    0.000    0.833    0.000    1.000    0.000    0.000 
#    0.000    0.000    0.000    0.000    0.000    0.000 
#
# Total GULP energy -297584.712459 kJ/mol
# GULP energy per Si atom -12399.363019 kJ/mol
# Density = 1.898060 g / cm^3
# Si number density = 19.023899 Si / 1000 Ang^3
#
#
#
# Elastic Constant Matrix: (Units=GPa)
#
#
# Indices 1 2 3 4 5 6 
#
# 1 90.2829 29.4580 41.6632 0.0000 0.0000 0.0000
# 2 29.4580 53.8397 45.2157 0.0000 0.0000 0.0000
# 3 41.6632 45.2157 109.4297 0.0000 0.0000 0.0000
# 4 0.0000 0.0000 0.0000 26.9113 0.0000 0.0000
# 5 0.0000 0.0000 0.0000 0.0000 142.6922 0.0000
# 6 0.0000 0.0000 0.0000 0.0000 0.0000 25.9649
#
#
#
# Elastic Compliance Matrix: (Units=1/GPa)
#
#
# Indices 1 2 3 4 5 6 
#
# 1 0.014254 -0.004964 -0.003376 0.000000 0.000000 0.000000
# 2 -0.004964 0.030173 -0.010577 0.000000 0.000000 0.000000
# 3 -0.003376 -0.010577 0.014794 0.000000 0.000000 0.000000
# 4 0.000000 0.000000 0.000000 0.037159 0.000000 0.000000
# 5 0.000000 0.000000 0.000000 0.000000 0.007008 0.000000
# 6 0.000000 0.000000 0.000000 0.000000 0.000000 0.038514
#
#
# Mechanical properties :
#
#
# Convention : Reuss Voigt Hill
#
# Bulk Modulus (GPa) = 46.75819 54.02511 50.39165
# Shear Modulus (GPa) = 26.75747 48.26136 37.50942
#
# Velocity S-wave (km/s) = 3.75443 5.04221 4.44520
# Velocity P-wave (km/s) = 6.58986 7.89675 7.27272
#
# Compressibility (1/GPa) = 0.02138663
#
# Stress axis : x y z
#
# Youngs Moduli (GPa) = 70.15697 33.14272 67.59474
#
# Poissons Ratio (x) = 0.16451 0.22819
# Poissons Ratio (y) = 0.34824 0.71497
# Poissons Ratio (z) = 0.23684 0.35056
#
# Static dielectric constant tensor:
#      x y z
#    x 3.169700 0.000000 0.000000 
#    y 0.000000 3.351350 0.000000 
#    z 0.000000 0.000000 3.370770 
# 
# 
# High freq. dielectric constant tensor:
#      x y z
#    x 1.751320 0.000000 0.000000 
#    y 0.000000 1.715070 0.000000 
#    z 0.000000 0.000000 1.734380 
# 
# From -- ./inp_files/14294.got.cif
#   From: 2010.03.12/outbox.cif.g09.slc.cpg/sg44_8_cif.got.tgz:14294.got - 2010.04.14 02:36:11.
