data_PCOD8188433
_publ_section_title
;
Structure prediction by ZEFSAII (Michael W. Deem and Ramdas Pophale) SiO2 
 PCOD8188433
Probable space group: I M M 2
;
_chemical_formula_sum "Si O2"
_cell_formula_units_Z 64
_cell_length_a 9.056079
_cell_length_b 18.594746
_cell_length_c 26.395055
_cell_angle_alpha 90.000000
_cell_angle_beta 90.000000
_cell_angle_gamma 90.000000
_cell_volume 4444.808188
_symmetry_space_group_name_H-M "I M M 2"
_symmetry_group_IT_number 44
_symmetry_cell_setting 'orthorhombic'
loop_
_space_group_symop_operation_xyz
x,y,z
-x,-y,z
-x,y,z
x,-y,z
1/2+x,1/2+y,1/2+z
1/2-x,1/2-y,1/2+z
1/2-x,1/2+y,1/2+z
1/2+x,1/2-y,1/2+z
loop_
_atom_site_type_symbol
_atom_site_label
_atom_site_fract_x
_atom_site_fract_y
_atom_site_fract_z
Si Si1 0.670203 0.294658 0.418540
Si Si2 0.167827 0.781123 0.506069
Si Si3 0.830158 0.920051 0.456117
Si Si4 0.325186 0.081091 0.963786
Si Si5 0.826883 0.655197 0.863415
Si Si6 0.670107 0.847169 0.067301
Si Si7 0.670245 0.916335 0.167810
Si Si8 0.826615 0.917076 0.270906
O O1 0.500000 0.315644 0.420732
O O2 0.712826 0.249968 0.468002
O O3 0.761547 0.369376 0.418029
O O4 0.703572 0.240783 0.371599
O O5 0.189422 0.867795 0.505652
O O6 0.192449 0.739762 0.559715
O O7 0.000000 0.762446 0.487566
O O8 0.735735 0.892709 0.409025
O O9 0.000000 0.920407 0.438271
O O10 0.778613 0.000000 0.472018
O O11 0.500000 0.084847 0.961054
O O12 0.267511 0.000000 0.956447
O O13 0.266314 0.110970 0.018036
O O14 0.749334 0.633886 0.811618
O O15 0.000000 0.639226 0.859902
O O16 0.500000 0.868947 0.071938
O O17 0.741479 0.872877 0.120115
O O18 0.500000 0.895739 0.178497
O O19 0.765433 0.894330 0.216290
O O20 0.686292 0.000000 0.154973
O O21 0.000000 0.903809 0.271890
O O22 0.786962 0.000000 0.282787
#
# Coordination Sequence:
#
# PCOD8188433 Si02
#       8
#     8   8   8   8   8   8   8   8
#     4   9  17  27  38  55  78 101 127 160 195 228
#     4   8  14  25  39  54  75 103 132 160 190 226
#     4   9  16  25  38  57  80 105 132 161 193 228
#     4   9  16  26  41  60  81 106 135 161 185 221
#     4  10  19  29  41  56  75 102 134 163 193 230
#     4   8  13  23  40  58  75 100 133 162 187 218
#     4   9  16  26  40  56  74  97 126 160 194 226
#     4  10  20  31  41  55  76 100 127 161 199 235
#
# _framework density 14.398821999999999
#
# number of rings (size 3 to 8) (size 9 to 14) (size 15 to 20)
#    0.000    3.000    0.000    2.625    0.000    5.750 
#    0.000    2.500    0.000    3.000    0.000    0.000 
#    0.000    1.000    0.000    7.500    0.000    1.875 
#
# Total GULP energy -396443.599832 kJ/mol
# GULP energy per Si atom -12388.862495 kJ/mol
# Density = 1.436605 g / cm^3
# Si number density = 14.398822 Si / 1000 Ang^3
#
#
#
# Elastic Constant Matrix: (Units=GPa)
#
#
# Indices 1 2 3 4 5 6 
#
# 1 47.2217 37.0550 34.5751 0.0000 0.0000 0.0000
# 2 37.0550 121.7374 59.0521 0.0000 0.0000 0.0000
# 3 34.5751 59.0521 82.4272 0.0000 0.0000 0.0000
# 4 0.0000 0.0000 0.0000 25.6854 0.0000 0.0000
# 5 0.0000 0.0000 0.0000 0.0000 16.0374 0.0000
# 6 0.0000 0.0000 0.0000 0.0000 0.0000 17.7773
#
#
#
# Elastic Compliance Matrix: (Units=1/GPa)
#
#
# Indices 1 2 3 4 5 6 
#
# 1 0.032448 -0.005018 -0.010015 0.000000 0.000000 0.000000
# 2 -0.005018 0.013366 -0.007470 0.000000 0.000000 0.000000
# 3 -0.010015 -0.007470 0.021685 0.000000 0.000000 0.000000
# 4 0.000000 0.000000 0.000000 0.038933 0.000000 0.000000
# 5 0.000000 0.000000 0.000000 0.000000 0.062354 0.000000
# 6 0.000000 0.000000 0.000000 0.000000 0.000000 0.056252
#
#
# Mechanical properties :
#
#
# Convention : Reuss Voigt Hill
#
# Bulk Modulus (GPa) = 44.46400 56.97229 50.71815
# Shear Modulus (GPa) = 18.01533 19.94696 18.98115
#
# Velocity S-wave (km/s) = 3.54102 3.72603 3.63470
# Velocity P-wave (km/s) = 6.90404 7.62655 7.27427
#
# Compressibility (1/GPa) = 0.02249010
#
# Stress axis : x y z
#
# Youngs Moduli (GPa) = 30.81876 74.81893 46.11518
#
# Poissons Ratio (x) = 0.37547 0.46186
# Poissons Ratio (y) = 0.15466 0.34449
# Poissons Ratio (z) = 0.30866 0.55892
#
# Static dielectric constant tensor:
#      x y z
#    x 2.762730 0.000000 0.000000 
#    y 0.000000 3.096120 0.000000 
#    z 0.000000 0.000000 2.686860 
# 
# 
# High freq. dielectric constant tensor:
#      x y z
#    x 1.546280 0.000000 0.000000 
#    y 0.000000 1.546200 0.000000 
#    z 0.000000 0.000000 1.513040 
# 
# From -- ./inp_files/25243.got.cif
#   From: 2010.03.12/outbox.cif.g09.slc.cpg/sg44_13_cif.got.tgz:25243.got - 2010.04.14 02:36:11.
