data_PCOD8188242
_publ_section_title
;
Structure prediction by ZEFSAII (Michael W. Deem and Ramdas Pophale) SiO2 
 PCOD8188242
Probable space group: I M M 2
;
_chemical_formula_sum "Si O2"
_cell_formula_units_Z 64
_cell_length_a 8.626137
_cell_length_b 30.217634
_cell_length_c 14.407524
_cell_angle_alpha 90.000000
_cell_angle_beta 90.000000
_cell_angle_gamma 90.000000
_cell_volume 3755.486107
_symmetry_space_group_name_H-M "I M M 2"
_symmetry_group_IT_number 44
_symmetry_cell_setting 'orthorhombic'
loop_
_space_group_symop_operation_xyz
x,y,z
-x,-y,z
-x,y,z
x,-y,z
1/2+x,1/2+y,1/2+z
1/2-x,1/2-y,1/2+z
1/2-x,1/2+y,1/2+z
1/2+x,1/2-y,1/2+z
loop_
_atom_site_type_symbol
_atom_site_label
_atom_site_fract_x
_atom_site_fract_y
_atom_site_fract_z
Si Si1 0.325844 0.324856 0.441130
Si Si2 0.815881 0.796969 0.602368
Si Si3 0.815655 0.951720 0.837883
Si Si4 0.825365 0.276286 0.915857
Si Si5 0.683004 0.635355 0.250111
Si Si6 0.317694 0.549997 0.549814
Si Si7 0.181155 0.784224 0.216717
Si Si8 0.178908 0.635775 0.614620
O O1 0.500000 0.344048 0.458693
O O2 0.325825 0.272868 0.456174
O O3 0.269658 0.334655 0.337434
O O4 0.205706 0.346872 0.510741
O O5 0.746482 0.804422 0.500066
O O6 0.751761 0.839698 0.659597
O O7 0.768630 0.751799 0.654056
O O8 0.000000 0.796532 0.595955
O O9 0.749933 0.914366 0.766909
O O10 0.000000 0.953164 0.833488
O O11 0.748546 0.000000 0.809454
O O12 0.767626 0.939887 0.943344
O O13 0.722286 0.279896 0.824558
O O14 0.000000 0.292199 0.893252
O O15 0.500000 0.632560 0.241307
O O16 0.500000 0.555554 0.561951
O O17 0.266960 0.500000 0.576405
O O18 0.233754 0.584570 0.618721
O O19 0.225292 0.833851 0.185745
O O20 0.000000 0.776730 0.202454
O O21 0.000000 0.638727 0.641610
#
# Coordination Sequence:
#
# PCOD8188242 Si02
#       8
#     8   8   8   8   8   8   8   8
#     4  10  18  31  50  71 101 137 172 209 253 302
#     4  11  21  34  51  75 103 135 173 212 258 312
#     4   8  13  23  44  73 100 130 169 208 245 291
#     4  11  22  37  53  72 100 136 173 217 261 306
#     4   9  16  28  47  70 100 134 168 207 248 295
#     4   9  17  31  52  75 101 135 174 213 257 310
#     4  12  24  37  53  73 100 135 175 219 259 306
#     4  12  23  33  49  75 106 140 176 213 255 313
#
# _framework density 17.041734999999999
#
# number of rings (size 3 to 8) (size 9 to 14) (size 15 to 20)
#    0.000    1.750    3.750    3.750    0.000    0.750 
#    0.000    0.000    0.000    0.000    0.000    0.875 
#    0.000    5.000    0.000    0.000    0.000    0.000 
#
# Total GULP energy -396661.021144 kJ/mol
# GULP energy per Si atom -12395.656911 kJ/mol
# Density = 1.700295 g / cm^3
# Si number density = 17.041735 Si / 1000 Ang^3
#
#
#
# Elastic Constant Matrix: (Units=GPa)
#
#
# Indices 1 2 3 4 5 6 
#
# 1 52.2279 15.5874 7.6202 -0.0005 -0.0001 0.0000
# 2 15.5874 96.9895 23.9805 -0.0011 -0.0001 0.0000
# 3 7.6202 23.9805 62.8371 -0.0016 -0.0003 0.0004
# 4 -0.0005 -0.0011 -0.0016 26.8978 -0.0001 0.0003
# 5 -0.0001 -0.0001 -0.0003 -0.0001 23.7328 0.0001
# 6 0.0000 0.0000 0.0004 0.0003 0.0001 18.9604
#
#
#
# Elastic Compliance Matrix: (Units=1/GPa)
#
#
# Indices 1 2 3 4 5 6 
#
# 1 0.020213 -0.002918 -0.001338 0.000000 0.000000 0.000000
# 2 -0.002918 0.011806 -0.004152 0.000000 0.000000 0.000000
# 3 -0.001338 -0.004152 0.017661 0.000001 0.000000 0.000000
# 4 0.000000 0.000000 0.000001 0.037178 0.000000 -0.000001
# 5 0.000000 0.000000 0.000000 0.000000 0.042136 0.000000
# 6 0.000000 0.000000 0.000000 -0.000001 0.000000 0.052741
#
#
# Mechanical properties :
#
#
# Convention : Reuss Voigt Hill
#
# Bulk Modulus (GPa) = 30.42722 34.04787 32.23754
# Shear Modulus (GPa) = 23.86594 24.90929 24.38761
#
# Velocity S-wave (km/s) = 3.74631 3.82732 3.78703
# Velocity P-wave (km/s) = 6.05032 6.28917 6.17090
#
# Compressibility (1/GPa) = 0.03286531
#
# Stress axis : x y z
#
# Youngs Moduli (GPa) = 49.47356 84.70421 56.62267
#
# Poissons Ratio (x) = 0.24714 0.07574
# Poissons Ratio (y) = 0.14435 0.23508
# Poissons Ratio (z) = 0.06618 0.35166
#
# Static dielectric constant tensor:
#      x y z
#    x 2.999240 0.000000 0.000000 
#    y 0.000000 3.537430 0.000000 
#    z 0.000000 0.000000 3.090150 
# 
# 
# High freq. dielectric constant tensor:
#      x y z
#    x 1.640380 0.000000 0.000000 
#    y 0.000000 1.655270 0.000000 
#    z 0.000000 0.000000 1.630980 
# 
# From -- ./inp_files/17125.got.cif
#   From: 2010.03.12/outbox.cif.g09.slc.cpg/sg44_9_cif.got.tgz:17125.got - 2010.04.14 02:36:11.
