data_PCOD8188167
_publ_section_title
;
Structure prediction by ZEFSAII (Michael W. Deem and Ramdas Pophale) SiO2 
 PCOD8188167
Probable space group: I M M 2
;
_chemical_formula_sum "Si O2"
_cell_formula_units_Z 64
_cell_length_a 9.214641
_cell_length_b 23.290866
_cell_length_c 19.300948
_cell_angle_alpha 90.000000
_cell_angle_beta 90.000000
_cell_angle_gamma 90.000000
_cell_volume 4142.310954
_symmetry_space_group_name_H-M "I M M 2"
_symmetry_group_IT_number 44
_symmetry_cell_setting 'orthorhombic'
loop_
_space_group_symop_operation_xyz
x,y,z
-x,-y,z
-x,y,z
x,-y,z
1/2+x,1/2+y,1/2+z
1/2-x,1/2-y,1/2+z
1/2-x,1/2+y,1/2+z
1/2+x,1/2-y,1/2+z
loop_
_atom_site_type_symbol
_atom_site_label
_atom_site_fract_x
_atom_site_fract_y
_atom_site_fract_z
Si Si1 0.331692 0.435366 0.320160
Si Si2 0.669785 0.263950 0.101567
Si Si3 0.330222 0.728286 0.803977
Si Si4 0.671014 0.247050 0.951478
Si Si5 0.671273 0.339569 0.673385
Si Si6 0.832592 0.170429 0.732831
Si Si7 0.169218 0.566475 0.596083
Si Si8 0.171518 0.617341 0.448735
O O1 0.500000 0.429648 0.339684
O O2 0.291768 0.500000 0.297527
O O3 0.292792 0.394530 0.254541
O O4 0.241759 0.418729 0.387425
O O5 0.500000 0.247060 0.104029
O O6 0.759776 0.208823 0.124903
O O7 0.703108 0.318426 0.151329
O O8 0.719728 0.278626 0.022745
O O9 0.500000 0.740578 0.800853
O O10 0.278853 0.716621 0.883579
O O11 0.290417 0.675111 0.753883
O O12 0.257595 0.786934 0.780157
O O13 0.500000 0.241636 0.951642
O O14 0.733183 0.182255 0.948113
O O15 0.500000 0.341320 0.660670
O O16 0.740891 0.400713 0.655523
O O17 0.000000 0.184002 0.747263
O O18 0.208195 0.500000 0.603060
O O19 0.218090 0.588344 0.520808
O O20 0.000000 0.578343 0.608259
O O21 0.000000 0.614800 0.438433
#
# Coordination Sequence:
#
# PCOD8188167 Si02
#       8
#     8   8   8   8   8   8   8   8
#     4  10  20  31  41  59  90 121 146 176 215 253
#     4   9  16  29  47  63  82 110 147 182 213 251
#     4   9  17  29  44  63  86 111 138 173 217 257
#     4   9  15  26  46  66  84 110 141 175 212 251
#     4  10  19  29  43  64  89 114 140 175 219 261
#     4   9  17  28  43  62  82 111 146 178 211 250
#     4  10  20  33  47  62  84 116 153 185 208 239
#     4  10  18  30  46  63  84 114 152 182 203 240
#
# _framework density 15.450312
#
# number of rings (size 3 to 8) (size 9 to 14) (size 15 to 20)
#    0.000    2.500    2.500    0.750    0.000    2.000 
#    0.000    0.625    0.000    0.000    0.000    0.875 
#    0.000    5.000    0.000    0.625    0.000    1.375 
#
# Total GULP energy -396604.335083 kJ/mol
# GULP energy per Si atom -12393.885471 kJ/mol
# Density = 1.541515 g / cm^3
# Si number density = 15.450312 Si / 1000 Ang^3
#
#
#
# Elastic Constant Matrix: (Units=GPa)
#
#
# Indices 1 2 3 4 5 6 
#
# 1 32.1291 29.1316 35.4974 0.0000 0.0000 0.0000
# 2 29.1316 91.0888 71.2321 0.0000 0.0000 0.0000
# 3 35.4974 71.2321 151.2273 0.0000 0.0000 0.0000
# 4 0.0000 0.0000 0.0000 24.5376 0.0000 0.0000
# 5 0.0000 0.0000 0.0000 0.0000 19.1189 0.0000
# 6 0.0000 0.0000 0.0000 0.0000 0.0000 15.5235
#
#
#
# Elastic Compliance Matrix: (Units=1/GPa)
#
#
# Indices 1 2 3 4 5 6 
#
# 1 0.047350 -0.010214 -0.006303 0.000000 0.000000 0.000000
# 2 -0.010214 0.019584 -0.006827 0.000000 0.000000 0.000000
# 3 -0.006303 -0.006827 0.011308 0.000000 0.000000 0.000000
# 4 0.000000 0.000000 0.000000 0.040754 0.000000 0.000000
# 5 0.000000 0.000000 0.000000 0.000000 0.052304 0.000000
# 6 0.000000 0.000000 0.000000 0.000000 0.000000 0.064418
#
#
# Mechanical properties :
#
#
# Convention : Reuss Voigt Hill
#
# Bulk Modulus (GPa) = 31.69298 60.68529 46.18913
# Shear Modulus (GPa) = 17.06933 21.07494 19.07214
#
# Velocity S-wave (km/s) = 3.32744 3.69731 3.51724
# Velocity P-wave (km/s) = 5.94305 7.58879 6.81578
#
# Compressibility (1/GPa) = 0.03155273
#
# Stress axis : x y z
#
# Youngs Moduli (GPa) = 21.11950 51.06325 88.43483
#
# Poissons Ratio (x) = 0.52156 0.55743
# Poissons Ratio (y) = 0.21571 0.60373
# Poissons Ratio (z) = 0.13312 0.34860
#
# Static dielectric constant tensor:
#      x y z
#    x 2.881940 0.000000 0.000000 
#    y 0.000000 2.901040 0.000000 
#    z 0.000000 0.000000 3.400460 
# 
# 
# High freq. dielectric constant tensor:
#      x y z
#    x 1.583760 0.000000 0.000000 
#    y 0.000000 1.564700 0.000000 
#    z 0.000000 0.000000 1.595320 
# 
# From -- ./inp_files/20900.got.cif
#   From: 2010.03.12/outbox.cif.g09.slc.cpg/sg44_11_cif.got.tgz:20900.got - 2010.04.14 02:36:11.
