data_PCOD8188006
_publ_section_title
;
Structure prediction by ZEFSAII (Michael W. Deem and Ramdas Pophale) SiO2 
 PCOD8188006
Probable space group: I M M 2
;
_chemical_formula_sum "Si O2"
_cell_formula_units_Z 64
_cell_length_a 8.972442
_cell_length_b 34.678593
_cell_length_c 13.749638
_cell_angle_alpha 90.000000
_cell_angle_beta 90.000000
_cell_angle_gamma 90.000000
_cell_volume 4278.222748
_symmetry_space_group_name_H-M "I M M 2"
_symmetry_group_IT_number 44
_symmetry_cell_setting 'orthorhombic'
loop_
_space_group_symop_operation_xyz
x,y,z
-x,-y,z
-x,y,z
x,-y,z
1/2+x,1/2+y,1/2+z
1/2-x,1/2-y,1/2+z
1/2-x,1/2+y,1/2+z
1/2+x,1/2-y,1/2+z
loop_
_atom_site_type_symbol
_atom_site_label
_atom_site_fract_x
_atom_site_fract_y
_atom_site_fract_z
Si Si1 0.175562 0.381611 0.476860
Si Si2 0.324177 0.807982 0.659596
Si Si3 0.827053 0.691442 0.600011
Si Si4 0.678928 0.623051 0.269609
Si Si5 0.325109 0.269064 0.768344
Si Si6 0.824771 0.231717 0.489162
Si Si7 0.666664 0.459483 0.257943
Si Si8 0.833095 0.042266 0.988855
O O1 0.221670 0.349267 0.554905
O O2 0.257378 0.370523 0.377169
O O3 0.225092 0.422921 0.521811
O O4 0.000000 0.381736 0.456683
O O5 0.500000 0.815265 0.660184
O O6 0.239634 0.845503 0.696285
O O7 0.276361 0.772778 0.729074
O O8 0.267825 0.799365 0.550910
O O9 0.745016 0.697298 0.702720
O O10 0.784858 0.725145 0.524011
O O11 0.000000 0.692175 0.623518
O O12 0.500000 0.623963 0.275330
O O13 0.737489 0.581477 0.225970
O O14 0.500000 0.273676 0.761611
O O15 0.269524 0.272895 0.878680
O O16 0.000000 0.223411 0.500201
O O17 0.500000 0.461595 0.216291
O O18 0.748993 0.500000 0.225150
O O19 0.662373 0.458179 0.373548
O O20 0.000000 0.049899 0.028999
O O21 0.776279 0.000000 0.026315
#
# Coordination Sequence:
#
# PCOD8188006 Si02
#       8
#     8   8   8   8   8   8   8   8
#     4  10  18  27  40  60  86 113 140 174 211 245
#     4  10  19  30  43  62  85 107 135 172 209 244
#     4   9  18  30  43  60  84 110 136 169 208 248
#     4  10  18  27  41  60  82 112 144 171 203 244
#     4   9  18  31  46  61  80 107 139 174 208 242
#     4   9  17  31  46  59  79 108 139 171 207 244
#     4   7  11  21  36  53  74 101 133 165 194 227
#     4   8  14  25  39  55  78 109 142 172 202 241
#
# _framework density 14.959483000000001
#
# number of rings (size 3 to 8) (size 9 to 14) (size 15 to 20)
#    0.000    3.000    0.000    3.375    0.000    4.250 
#    0.000    2.500    0.000    1.125    0.000    0.000 
#    0.000    1.000    0.000    9.000    0.000    5.750 
#
# Total GULP energy -396498.783877 kJ/mol
# GULP energy per Si atom -12390.586996 kJ/mol
# Density = 1.492543 g / cm^3
# Si number density = 14.959483 Si / 1000 Ang^3
#
#
#
# Elastic Constant Matrix: (Units=GPa)
#
#
# Indices 1 2 3 4 5 6 
#
# 1 45.8582 42.8533 29.0227 -0.0001 0.0000 0.0000
# 2 42.8533 137.6199 55.2794 -0.0003 0.0000 -0.0001
# 3 29.0227 55.2794 85.9583 -0.0001 0.0000 -0.0001
# 4 -0.0001 -0.0003 -0.0001 16.5602 0.0000 -0.0001
# 5 0.0000 0.0000 0.0000 0.0000 21.1253 0.0000
# 6 0.0000 -0.0001 -0.0001 -0.0001 0.0000 23.4607
#
#
#
# Elastic Compliance Matrix: (Units=1/GPa)
#
#
# Indices 1 2 3 4 5 6 
#
# 1 0.032974 -0.007814 -0.006108 0.000000 0.000000 0.000000
# 2 -0.007814 0.011649 -0.004853 0.000000 0.000000 0.000000
# 3 -0.006108 -0.004853 0.016817 0.000000 0.000000 0.000000
# 4 0.000000 0.000000 0.000000 0.060386 0.000000 0.000000
# 5 0.000000 0.000000 0.000000 0.000000 0.047337 0.000000
# 6 0.000000 0.000000 0.000000 0.000000 0.000000 0.042625
#
#
# Mechanical properties :
#
#
# Convention : Reuss Voigt Hill
#
# Bulk Modulus (GPa) = 41.85958 58.19414 50.02686
# Shear Modulus (GPa) = 19.43249 21.71463 20.57356
#
# Velocity S-wave (km/s) = 3.60809 3.81407 3.71251
# Velocity P-wave (km/s) = 6.73798 7.64080 7.20355
#
# Compressibility (1/GPa) = 0.02388940
#
# Stress axis : x y z
#
# Youngs Moduli (GPa) = 30.32666 85.84374 59.46438
#
# Poissons Ratio (x) = 0.67081 0.36321
# Poissons Ratio (y) = 0.23698 0.28858
# Poissons Ratio (z) = 0.18523 0.41660
#
# Static dielectric constant tensor:
#      x y z
#    x 2.830290 0.000000 0.000000 
#    y 0.000000 3.357110 0.000000 
#    z 0.000000 0.000000 2.634990 
# 
# 
# High freq. dielectric constant tensor:
#      x y z
#    x 1.567070 0.000000 0.000000 
#    y 0.000000 1.580500 0.000000 
#    z 0.000000 0.000000 1.527190 
# 
# From -- ./inp_files/17114.got.cif
#   From: 2010.03.12/outbox.cif.g09.slc.cpg/sg44_9_cif.got.tgz:17114.got - 2010.04.14 02:36:11.
