data_PCOD8188881
_publ_section_title
;
Structure prediction by ZEFSAII (Michael W. Deem and Ramdas Pophale) SiO2 
 PCOD8188881
Probable space group: I M M 2
;
_chemical_formula_sum "Si O2"
_cell_formula_units_Z 48
_cell_length_a 17.303962
_cell_length_b 14.033821
_cell_length_c 10.028194
_cell_angle_alpha 90.000000
_cell_angle_beta 90.000000
_cell_angle_gamma 90.000000
_cell_volume 2435.253704
_symmetry_space_group_name_H-M "I M M 2"
_symmetry_group_IT_number 44
_symmetry_cell_setting 'orthorhombic'
loop_
_space_group_symop_operation_xyz
x,y,z
-x,-y,z
-x,y,z
x,-y,z
1/2+x,1/2+y,1/2+z
1/2-x,1/2-y,1/2+z
1/2-x,1/2+y,1/2+z
1/2+x,1/2-y,1/2+z
loop_
_atom_site_type_symbol
_atom_site_label
_atom_site_fract_x
_atom_site_fract_y
_atom_site_fract_z
Si Si1 0.856879 0.893417 0.301340
Si Si2 0.181736 0.390340 0.721317
Si Si3 0.086154 0.102100 0.020050
Si Si4 0.663221 0.223803 0.967180
Si Si5 0.161500 0.287695 0.976150
Si Si6 0.591350 0.111681 0.733169
O O1 0.773345 0.871397 0.234085
O O2 0.881817 0.819736 0.418819
O O3 0.858917 0.000000 0.362229
O O4 0.915601 0.879413 0.179517
O O5 0.163889 0.500000 0.686334
O O6 0.142708 0.322131 0.609661
O O7 0.141646 0.363548 0.860936
O O8 0.124868 0.186299 0.938058
O O9 0.000000 0.095121 0.967603
O O10 0.128593 0.000000 0.992348
O O11 0.749006 0.264021 0.980854
O O12 0.643458 0.142129 0.859543
O O13 0.125685 0.329111 0.110549
O O14 0.500000 0.134159 0.753439
O O15 0.604262 0.000000 0.708116
#
# Coordination Sequence:
#
# PCOD8188881 Si02
#       6
#     8   8   8   8   8   8
#     4   9  18  33  53  81 116 151 193 244 300 358
#     4  10  20  34  54  81 119 157 193 244 303 361
#     4  10  19  33  57  85 112 148 194 245 302 359
#     4  11  20  36  59  90 118 158 209 258 307 361
#     4  11  20  37  58  88 120 162 207 254 307 366
#     4  11  24  41  63  91 126 167 212 260 310 373
#
# _framework density 19.710471999999999
#
# number of rings (size 3 to 8) (size 9 to 14) (size 15 to 20)
#    0.000    1.667    3.333    2.500    0.000    1.333 
#    0.000    2.500    0.000    4.000    0.000    2.333 
#    0.000    0.000    0.000    0.000    0.000    0.000 
#
# Total GULP energy -297318.618889 kJ/mol
# GULP energy per Si atom -12388.275787 kJ/mol
# Density = 1.966561 g / cm^3
# Si number density = 19.710472 Si / 1000 Ang^3
#
#
#
# Elastic Constant Matrix: (Units=GPa)
#
#
# Indices 1 2 3 4 5 6 
#
# 1 21.0829 8.4189 2.0144 0.0000 0.0000 0.0000
# 2 8.4189 120.0047 19.7792 0.0000 0.0000 0.0000
# 3 2.0144 19.7792 77.4704 0.0000 0.0000 0.0000
# 4 0.0000 0.0000 0.0000 40.0268 0.0000 0.0000
# 5 0.0000 0.0000 0.0000 0.0000 49.3444 0.0000
# 6 0.0000 0.0000 0.0000 0.0000 0.0000 25.6504
#
#
#
# Elastic Compliance Matrix: (Units=1/GPa)
#
#
# Indices 1 2 3 4 5 6 
#
# 1 0.048811 -0.003356 -0.000412 0.000000 0.000000 0.000000
# 2 -0.003356 0.008930 -0.002193 0.000000 0.000000 0.000000
# 3 -0.000412 -0.002193 0.013479 0.000000 0.000000 0.000000
# 4 0.000000 0.000000 0.000000 0.024983 0.000000 0.000000
# 5 0.000000 0.000000 0.000000 0.000000 0.020266 0.000000
# 6 0.000000 0.000000 0.000000 0.000000 0.000000 0.038986
#
#
# Mechanical properties :
#
#
# Convention : Reuss Voigt Hill
#
# Bulk Modulus (GPa) = 16.86416 30.99812 23.93114
# Shear Modulus (GPa) = 26.71753 35.56070 31.13911
#
# Velocity S-wave (km/s) = 3.68570 4.25214 3.97901
# Velocity P-wave (km/s) = 5.16595 6.31415 5.76869
#
# Compressibility (1/GPa) = 0.05929736
#
# Stress axis : x y z
#
# Youngs Moduli (GPa) = 20.48701 111.98373 74.19120
#
# Poissons Ratio (x) = 0.37586 0.03058
# Poissons Ratio (y) = 0.06876 0.16267
# Poissons Ratio (z) = 0.00845 0.24554
#
# Static dielectric constant tensor:
#      x y z
#    x 3.417380 0.000000 0.000000 
#    y 0.000000 4.212560 0.000000 
#    z 0.000000 0.000000 3.626850 
# 
# 
# High freq. dielectric constant tensor:
#      x y z
#    x 1.740630 0.000000 0.000000 
#    y 0.000000 1.797310 0.000000 
#    z 0.000000 0.000000 1.744710 
# 
# From -- ./inp_files/7127.got.cif
#   From: 2010.03.12/outbox.cif.g09.slc.cpg/sg44_4_cif.got.tgz:7127.got - 2010.04.14 02:36:11.
