data_PCOD8188144
_publ_section_title
;
Structure prediction by ZEFSAII (Michael W. Deem and Ramdas Pophale) SiO2 
 PCOD8188144
Probable space group: I M M 2
;
_chemical_formula_sum "Si O2"
_cell_formula_units_Z 64
_cell_length_a 14.513383
_cell_length_b 9.121720
_cell_length_c 28.375457
_cell_angle_alpha 90.000000
_cell_angle_beta 90.000000
_cell_angle_gamma 90.000000
_cell_volume 3756.542079
_symmetry_space_group_name_H-M "I M M 2"
_symmetry_group_IT_number 44
_symmetry_cell_setting 'orthorhombic'
loop_
_space_group_symop_operation_xyz
x,y,z
-x,-y,z
-x,y,z
x,-y,z
1/2+x,1/2+y,1/2+z
1/2-x,1/2-y,1/2+z
1/2-x,1/2+y,1/2+z
1/2+x,1/2-y,1/2+z
loop_
_atom_site_type_symbol
_atom_site_label
_atom_site_fract_x
_atom_site_fract_y
_atom_site_fract_z
Si Si1 0.894243 0.672177 0.859830
Si Si2 0.606187 0.671643 0.081973
Si Si3 0.602042 0.173944 0.817003
Si Si4 0.105108 0.672076 0.486935
Si Si5 0.230271 0.326067 0.399878
Si Si6 0.101058 0.674145 0.211565
Si Si7 0.212206 0.174315 0.672429
Si Si8 0.107119 0.167024 0.763918
O O1 0.876930 0.500000 0.859381
O O2 0.829971 0.747858 0.899431
O O3 0.867418 0.735857 0.808864
O O4 0.000000 0.710280 0.872319
O O5 0.500000 0.706560 0.093370
O O6 0.622980 0.500000 0.075376
O O7 0.666942 0.737323 0.124850
O O8 0.638709 0.749911 0.034437
O O9 0.500000 0.231573 0.830335
O O10 0.675204 0.234929 0.854372
O O11 0.627473 0.227505 0.764305
O O12 0.602334 0.000000 0.819837
O O13 0.111677 0.500000 0.495102
O O14 0.173205 0.723644 0.445661
O O15 0.000000 0.717358 0.474134
O O16 0.244052 0.500000 0.398947
O O17 0.096404 0.500000 0.212057
O O18 0.180813 0.726628 0.175615
O O19 0.000000 0.736152 0.196506
O O20 0.159318 0.232720 0.718599
O O21 0.203091 0.000000 0.671720
O O22 0.000000 0.173562 0.751848
O O23 0.138649 0.000000 0.774787
#
# Coordination Sequence:
#
# PCOD8188144 Si02
#       8
#     8   8   8   8   8   8   8   8
#     4  10  21  34  45  62  93 127 154 185 227 270
#     4   9  17  29  45  65  89 117 148 183 226 273
#     4   8  13  22  39  66  95 116 138 175 222 267
#     4   9  18  32  49  71  97 119 142 180 230 279
#     4  10  18  29  49  71  88 114 153 189 221 264
#     4   8  13  20  32  55  87 116 139 169 212 257
#     4   9  15  24  41  64  88 115 150 190 225 258
#     4   9  16  27  45  67  89 115 150 189 225 264
#
# _framework density 17.036946
#
# number of rings (size 3 to 8) (size 9 to 14) (size 15 to 20)
#    0.000    3.000    0.000    2.625    0.000    6.250 
#    0.000    0.625    0.000    4.875    0.000    1.750 
#    0.000    1.000    0.000    0.000    0.000    0.000 
#
# Total GULP energy -396655.038086 kJ/mol
# GULP energy per Si atom -12395.469940 kJ/mol
# Density = 1.699817 g / cm^3
# Si number density = 17.036946 Si / 1000 Ang^3
#
#
#
# Elastic Constant Matrix: (Units=GPa)
#
#
# Indices 1 2 3 4 5 6 
#
# 1 118.4920 31.5673 86.1958 0.0000 0.0000 0.0000
# 2 31.5673 28.7028 32.2819 0.0000 0.0000 0.0000
# 3 86.1958 32.2819 119.3853 0.0000 0.0000 0.0000
# 4 0.0000 0.0000 0.0000 21.0507 0.0000 0.0000
# 5 0.0000 0.0000 0.0000 0.0000 31.6694 0.0000
# 6 0.0000 0.0000 0.0000 0.0000 0.0000 15.0256
#
#
#
# Elastic Compliance Matrix: (Units=1/GPa)
#
#
# Indices 1 2 3 4 5 6 
#
# 1 0.018924 -0.007826 -0.011547 0.000000 0.000000 0.000000
# 2 -0.007826 0.053302 -0.008763 0.000000 0.000000 0.000000
# 3 -0.011547 -0.008763 0.019083 0.000000 0.000000 0.000000
# 4 0.000000 0.000000 0.000000 0.047504 0.000000 0.000000
# 5 0.000000 0.000000 0.000000 0.000000 0.031576 0.000000
# 6 0.000000 0.000000 0.000000 0.000000 0.000000 0.066553
#
#
# Mechanical properties :
#
#
# Convention : Reuss Voigt Hill
#
# Bulk Modulus (GPa) = 28.54074 62.96333 45.75204
# Shear Modulus (GPa) = 16.39924 21.31814 18.85869
#
# Velocity S-wave (km/s) = 3.10590 3.54119 3.33066
# Velocity P-wave (km/s) = 5.44525 7.33193 6.45786
#
# Compressibility (1/GPa) = 0.03503763
#
# Stress axis : x y z
#
# Youngs Moduli (GPa) = 52.84312 18.76104 52.40390
#
# Poissons Ratio (x) = 0.14682 0.60510
# Poissons Ratio (y) = 0.41354 0.45920
# Poissons Ratio (z) = 0.61018 0.16440
#
# Static dielectric constant tensor:
#      x y z
#    x 3.462140 0.000000 0.000000 
#    y 0.000000 2.758030 0.000000 
#    z 0.000000 0.000000 3.179230 
# 
# 
# High freq. dielectric constant tensor:
#      x y z
#    x 1.664860 0.000000 0.000000 
#    y 0.000000 1.610540 0.000000 
#    z 0.000000 0.000000 1.640950 
# 
# From -- ./inp_files/27305.got.cif
#   From: 2010.03.12/outbox.cif.g09.slc.cpg/sg44_14_cif.got.tgz:27305.got - 2010.04.14 02:36:11.
