data_PCOD8188589
_publ_section_title
;
Structure prediction by ZEFSAII (Michael W. Deem and Ramdas Pophale) SiO2 
 PCOD8188589
Probable space group: I M M 2
;
_chemical_formula_sum "Si O2"
_cell_formula_units_Z 64
_cell_length_a 27.277780
_cell_length_b 9.844041
_cell_length_c 13.157867
_cell_angle_alpha 90.000000
_cell_angle_beta 90.000000
_cell_angle_gamma 90.000000
_cell_volume 3533.197614
_symmetry_space_group_name_H-M "I M M 2"
_symmetry_group_IT_number 44
_symmetry_cell_setting 'orthorhombic'
loop_
_space_group_symop_operation_xyz
x,y,z
-x,-y,z
-x,y,z
x,-y,z
1/2+x,1/2+y,1/2+z
1/2-x,1/2-y,1/2+z
1/2-x,1/2+y,1/2+z
1/2+x,1/2-y,1/2+z
loop_
_atom_site_type_symbol
_atom_site_label
_atom_site_fract_x
_atom_site_fract_y
_atom_site_fract_z
Si Si1 0.709302 0.845522 0.721680
Si Si2 0.555055 0.161457 0.879243
Si Si3 0.232318 0.347205 0.844977
Si Si4 0.627502 0.839710 0.056242
Si Si5 0.944524 0.662154 0.962439
Si Si6 0.898571 0.659861 0.170679
Si Si7 0.125941 0.660329 0.786798
Si Si8 0.717488 0.649570 0.045315
O O1 0.720908 0.742612 0.812185
O O2 0.658784 0.802511 0.667941
O O3 0.756230 0.825937 0.651248
O O4 0.704577 0.000000 0.762500
O O5 0.500000 0.217866 0.891830
O O6 0.577440 0.220293 0.773978
O O7 0.555184 0.000000 0.875174
O O8 0.586059 0.209645 0.977275
O O9 0.237107 0.500000 0.800032
O O10 0.180032 0.282428 0.813476
O O11 0.237462 0.347008 0.966139
O O12 0.611159 0.800300 0.171278
O O13 0.677439 0.764720 0.026560
O O14 0.637440 0.000000 0.047392
O O15 0.942382 0.500000 0.963306
O O16 0.923375 0.720956 0.068976
O O17 0.000000 0.714144 0.949561
O O18 0.913389 0.720627 0.866879
O O19 0.907187 0.500000 0.170227
O O20 0.127421 0.500000 0.801088
O O21 0.692270 0.500000 0.042512
#
# Coordination Sequence:
#
# PCOD8188589 Si02
#       8
#     8   8   8   8   8   8   8   8
#     4  10  19  31  48  72  98 128 164 198 238 291
#     4   9  17  28  44  68  96 126 160 200 247 293
#     4  10  19  32  48  68  98 133 163 198 245 290
#     4  10  19  32  50  71  99 132 162 199 245 294
#     4   9  16  26  43  67  95 128 163 199 244 296
#     4   9  16  27  43  66  98 129 158 198 246 293
#     4   9  17  29  44  64  93 127 160 197 240 286
#     4  10  20  32  48  70  98 130 165 204 241 285
#
# _framework density 18.113903000000001
#
# number of rings (size 3 to 8) (size 9 to 14) (size 15 to 20)
#    0.000    2.500    1.250    1.875    0.000    6.500 
#    0.000    2.500    0.000    0.375    0.000    0.000 
#    0.000    4.000    0.000    0.000    0.000    0.000 
#
# Total GULP energy -396626.145699 kJ/mol
# GULP energy per Si atom -12394.567053 kJ/mol
# Density = 1.807268 g / cm^3
# Si number density = 18.113903 Si / 1000 Ang^3
#
#
#
# Elastic Constant Matrix: (Units=GPa)
#
#
# Indices 1 2 3 4 5 6 
#
# 1 131.2584 29.5292 64.2281 0.0000 0.0000 0.0000
# 2 29.5292 28.7345 18.5730 0.0000 0.0000 0.0000
# 3 64.2281 18.5730 131.7971 0.0000 0.0000 0.0000
# 4 0.0000 0.0000 0.0000 13.6180 0.0000 0.0000
# 5 0.0000 0.0000 0.0000 0.0000 34.3564 0.0000
# 6 0.0000 0.0000 0.0000 0.0000 0.0000 17.0033
#
#
#
# Elastic Compliance Matrix: (Units=1/GPa)
#
#
# Indices 1 2 3 4 5 6 
#
# 1 0.011919 -0.009345 -0.004491 0.000000 0.000000 0.000000
# 2 -0.009345 0.045616 -0.001874 0.000000 0.000000 0.000000
# 3 -0.004491 -0.001874 0.010040 0.000000 0.000000 0.000000
# 4 0.000000 0.000000 0.000000 0.073432 0.000000 0.000000
# 5 0.000000 0.000000 0.000000 0.000000 0.029107 0.000000
# 6 0.000000 0.000000 0.000000 0.000000 0.000000 0.058812
#
#
# Mechanical properties :
#
#
# Convention : Reuss Voigt Hill
#
# Bulk Modulus (GPa) = 27.65951 57.38340 42.52145
# Shear Modulus (GPa) = 18.35540 24.95951 21.65745
#
# Velocity S-wave (km/s) = 3.18674 3.71606 3.46153
# Velocity P-wave (km/s) = 5.37060 7.08238 6.28504
#
# Compressibility (1/GPa) = 0.03615394
#
# Stress axis : x y z
#
# Youngs Moduli (GPa) = 83.90183 21.92192 99.59890
#
# Poissons Ratio (x) = 0.20487 0.44733
# Poissons Ratio (y) = 0.78408 0.18666
# Poissons Ratio (z) = 0.37683 0.04108
#
# Static dielectric constant tensor:
#      x y z
#    x 3.398660 0.000000 0.000000 
#    y 0.000000 2.819620 0.000000 
#    z 0.000000 0.000000 3.561930 
# 
# 
# High freq. dielectric constant tensor:
#      x y z
#    x 1.703850 0.000000 0.000000 
#    y 0.000000 1.633540 0.000000 
#    z 0.000000 0.000000 1.717950 
# 
# From -- ./inp_files/11512.got.cif
#   From: 2010.03.12/outbox.cif.g09.slc.cpg/sg44_6_cif.got.tgz:11512.got - 2010.04.14 02:36:11.
