data_PCOD8188412
_publ_section_title
;
Structure prediction by ZEFSAII (Michael W. Deem and Ramdas Pophale) SiO2 
 PCOD8188412
Probable space group: I M M 2
;
_chemical_formula_sum "Si O2"
_cell_formula_units_Z 56
_cell_length_a 20.779529
_cell_length_b 9.155012
_cell_length_c 14.405116
_cell_angle_alpha 90.000000
_cell_angle_beta 90.000000
_cell_angle_gamma 90.000000
_cell_volume 2740.383709
_symmetry_space_group_name_H-M "I M M 2"
_symmetry_group_IT_number 44
_symmetry_cell_setting 'orthorhombic'
loop_
_space_group_symop_operation_xyz
x,y,z
-x,-y,z
-x,y,z
x,-y,z
1/2+x,1/2+y,1/2+z
1/2-x,1/2-y,1/2+z
1/2-x,1/2+y,1/2+z
1/2+x,1/2-y,1/2+z
loop_
_atom_site_type_symbol
_atom_site_label
_atom_site_fract_x
_atom_site_fract_y
_atom_site_fract_z
Si Si1 0.894750 0.162047 0.864230
Si Si2 0.218273 0.834768 0.725406
Si Si3 0.500000 0.831038 0.268536
Si Si4 0.500000 0.672818 0.078141
Si Si5 0.074143 0.163040 0.064187
Si Si6 0.075495 0.664785 0.240650
Si Si7 0.324093 0.671346 0.840401
Si Si8 0.143363 0.827299 0.543011
O O1 0.827562 0.169386 0.813504
O O2 0.937740 0.295056 0.828956
O O3 0.926234 0.000000 0.849121
O O4 0.882199 0.186826 0.973402
O O5 0.278592 0.743151 0.762434
O O6 0.182658 0.766754 0.633604
O O7 0.240729 0.000000 0.703400
O O8 0.500000 0.721828 0.183484
O O9 0.500000 0.000000 0.238544
O O10 0.500000 0.500000 0.071899
O O11 0.431326 0.732770 0.036264
O O12 0.096677 0.281424 0.138769
O O13 0.000000 0.186560 0.034810
O O14 0.083889 0.000000 0.105513
O O15 0.100369 0.500000 0.254105
O O16 0.104636 0.771777 0.317543
O O17 0.000000 0.677000 0.252979
O O18 0.318136 0.500000 0.827693
O O19 0.316099 0.713811 0.949820
O O20 0.137968 0.000000 0.555528
#
# Coordination Sequence:
#
# PCOD8188412 Si02
#       8
#     8   8   4   4   8   8   8   8
#     4  10  19  35  59  84 117 162 207 247 299 365
#     4  10  21  40  63  86 117 159 203 247 301 366
#     4  12  22  30  50  89 128 157 194 251 316 364
#     4  10  18  38  66  89 116 159 208 257 310 368
#     4   9  17  31  55  86 116 150 195 243 287 342
#     4  10  22  40  60  84 117 156 196 244 303 366
#     4  11  24  41  62  90 120 154 199 252 303 365
#     4   9  20  38  66  94 118 156 209 255 303 363
#
# _framework density 20.435096000000001
#
# number of rings (size 3 to 8) (size 9 to 14) (size 15 to 20)
#    0.000    2.000    2.143    1.500    1.000    3.143 
#    0.000    5.714    0.000    0.000    0.000    0.000 
#    0.000    0.000    0.000    0.000    0.000    0.000 
#
# Total GULP energy -346949.899065 kJ/mol
# GULP energy per Si atom -12391.067824 kJ/mol
# Density = 2.038858 g / cm^3
# Si number density = 20.435096 Si / 1000 Ang^3
#
#
#
# Elastic Constant Matrix: (Units=GPa)
#
#
# Indices 1 2 3 4 5 6 
#
# 1 74.3564 32.0001 49.8656 0.0000 0.0000 0.0000
# 2 32.0001 53.8166 29.8868 0.0000 0.0000 0.0000
# 3 49.8656 29.8868 118.6151 0.0000 0.0000 0.0000
# 4 0.0000 0.0000 0.0000 24.7696 0.0000 0.0000
# 5 0.0000 0.0000 0.0000 0.0000 36.2271 0.0000
# 6 0.0000 0.0000 0.0000 0.0000 0.0000 35.6868
#
#
#
# Elastic Compliance Matrix: (Units=1/GPa)
#
#
# Indices 1 2 3 4 5 6 
#
# 1 0.022108 -0.009283 -0.006955 0.000000 0.000000 0.000000
# 2 -0.009283 0.025503 -0.002523 0.000000 0.000000 0.000000
# 3 -0.006955 -0.002523 0.011990 0.000000 0.000000 0.000000
# 4 0.000000 0.000000 0.000000 0.040372 0.000000 0.000000
# 5 0.000000 0.000000 0.000000 0.000000 0.027604 0.000000
# 6 0.000000 0.000000 0.000000 0.000000 0.000000 0.028022
#
#
# Mechanical properties :
#
#
# Convention : Reuss Voigt Hill
#
# Bulk Modulus (GPa) = 45.29376 52.25480 48.77428
# Shear Modulus (GPa) = 24.93996 28.33906 26.63951
#
# Velocity S-wave (km/s) = 3.49728 3.72799 3.61448
# Velocity P-wave (km/s) = 6.20651 6.64509 6.42954
#
# Compressibility (1/GPa) = 0.02207810
#
# Stress axis : x y z
#
# Youngs Moduli (GPa) = 45.23190 39.21134 83.40058
#
# Poissons Ratio (x) = 0.36401 0.58007
# Poissons Ratio (y) = 0.41990 0.21043
# Poissons Ratio (z) = 0.31460 0.09893
#
# Static dielectric constant tensor:
#      x y z
#    x 3.661730 0.000000 0.000000 
#    y 0.000000 3.533410 0.000000 
#    z 0.000000 0.000000 3.836770 
# 
# 
# High freq. dielectric constant tensor:
#      x y z
#    x 1.787590 0.000000 0.000000 
#    y 0.000000 1.773370 0.000000 
#    z 0.000000 0.000000 1.806270 
# 
# From -- ./inp_files/19229.got.cif
#   From: 2010.03.12/outbox.cif.g09.slc.cpg/sg44_10_cif.got.tgz:19229.got - 2010.04.14 02:36:11.
