data_PCOD8188026
_publ_section_title
;
Structure prediction by ZEFSAII (Michael W. Deem and Ramdas Pophale) SiO2 
 PCOD8188026
Probable space group: I M M 2
;
_chemical_formula_sum "Si O2"
_cell_formula_units_Z 56
_cell_length_a 8.831128
_cell_length_b 29.400094
_cell_length_c 13.635681
_cell_angle_alpha 90.000000
_cell_angle_beta 90.000000
_cell_angle_gamma 90.000000
_cell_volume 3540.313581
_symmetry_space_group_name_H-M "I M M 2"
_symmetry_group_IT_number 44
_symmetry_cell_setting 'orthorhombic'
loop_
_space_group_symop_operation_xyz
x,y,z
-x,-y,z
-x,y,z
x,-y,z
1/2+x,1/2+y,1/2+z
1/2-x,1/2-y,1/2+z
1/2-x,1/2+y,1/2+z
1/2+x,1/2-y,1/2+z
loop_
_atom_site_type_symbol
_atom_site_label
_atom_site_fract_x
_atom_site_fract_y
_atom_site_fract_z
Si Si1 0.173644 0.400900 0.261200
Si Si2 0.678935 0.402408 0.051586
Si Si3 0.176125 0.736144 0.767017
Si Si4 0.172659 0.319971 0.954899
Si Si5 0.822346 0.228149 0.063503
Si Si6 0.678435 0.184331 0.881392
Si Si7 0.674508 0.500000 0.045733
Si Si8 0.328136 0.000000 0.744492
O O1 0.260311 0.392282 0.159948
O O2 0.227955 0.365686 0.344152
O O3 0.195303 0.452605 0.303971
O O4 0.000000 0.390566 0.236382
O O5 0.500000 0.404773 0.059734
O O6 0.723981 0.363268 0.976180
O O7 0.742698 0.451368 0.008960
O O8 0.232004 0.718163 0.662614
O O9 0.273157 0.779839 0.798141
O O10 0.000000 0.750070 0.764137
O O11 0.202190 0.695258 0.843481
O O12 0.216170 0.278951 0.027622
O O13 0.000000 0.334408 0.971390
O O14 0.000000 0.221391 0.080373
O O15 0.767052 0.192354 0.982345
O O16 0.500000 0.188637 0.900353
O O17 0.500000 0.500000 0.019570
O O18 0.700606 0.500000 0.161994
O O19 0.500000 0.000000 0.700308
#
# Coordination Sequence:
#
# PCOD8188026 Si02
#       8
#     8   8   8   8   8   8   4   4
#     4   9  17  28  43  63  89 118 146 177 213 252
#     4  10  18  27  43  64  88 117 146 176 212 254
#     4  10  20  33  47  64  88 117 146 181 220 258
#     4   9  19  32  44  62  88 114 143 177 213 253
#     4  10  20  33  47  64  88 117 147 182 218 256
#     4  10  19  30  45  66  90 117 148 181 216 256
#     4   8  16  28  38  58  89 114 139 174 213 252
#     4   8  14  26  42  60  83 114 147 174 207 254
#
# _framework density 15.817807
#
# number of rings (size 3 to 8) (size 9 to 14) (size 15 to 20)
#    0.000    2.571    0.000    3.429    0.000    8.571 
#    0.000    0.000    0.000    0.000    0.000    1.000 
#    0.000    2.286    0.000    0.000    0.000    0.000 
#
# Total GULP energy -347001.627677 kJ/mol
# GULP energy per Si atom -12392.915274 kJ/mol
# Density = 1.578181 g / cm^3
# Si number density = 15.817807 Si / 1000 Ang^3
#
#
#
# Elastic Constant Matrix: (Units=GPa)
#
#
# Indices 1 2 3 4 5 6 
#
# 1 39.9145 29.8673 22.3483 0.0000 0.0000 0.0000
# 2 29.8673 123.7767 45.4270 0.0000 0.0000 0.0000
# 3 22.3483 45.4270 82.4816 -0.0001 0.0000 0.0001
# 4 0.0000 0.0000 -0.0001 19.7000 0.0000 0.0000
# 5 0.0000 0.0000 0.0000 0.0000 24.6656 0.0000
# 6 0.0000 0.0000 0.0001 0.0000 0.0000 19.7334
#
#
#
# Elastic Compliance Matrix: (Units=1/GPa)
#
#
# Indices 1 2 3 4 5 6 
#
# 1 0.032534 -0.005784 -0.005629 0.000000 0.000000 0.000000
# 2 -0.005784 0.011154 -0.004576 0.000000 0.000000 0.000000
# 3 -0.005629 -0.004576 0.016169 0.000000 0.000000 0.000000
# 4 0.000000 0.000000 0.000000 0.050761 0.000000 0.000000
# 5 0.000000 0.000000 0.000000 0.000000 0.040542 0.000000
# 6 0.000000 0.000000 0.000000 0.000000 0.000000 0.050676
#
#
# Mechanical properties :
#
#
# Convention : Reuss Voigt Hill
#
# Bulk Modulus (GPa) = 35.87030 49.05089 42.46059
# Shear Modulus (GPa) = 20.56694 22.72182 21.64438
#
# Velocity S-wave (km/s) = 3.60980 3.79419 3.70314
# Velocity P-wave (km/s) = 6.33250 7.09026 6.72207
#
# Compressibility (1/GPa) = 0.02787822
#
# Stress axis : x y z
#
# Youngs Moduli (GPa) = 30.73727 89.65192 61.84537
#
# Poissons Ratio (x) = 0.51858 0.34814
# Poissons Ratio (y) = 0.17780 0.28300
# Poissons Ratio (z) = 0.17303 0.41024
#
# Static dielectric constant tensor:
#      x y z
#    x 3.055840 0.000000 0.000000 
#    y 0.000000 3.328890 0.000000 
#    z 0.000000 0.000000 2.770790 
# 
# 
# High freq. dielectric constant tensor:
#      x y z
#    x 1.616600 0.000000 0.000000 
#    y 0.000000 1.610270 0.000000 
#    z 0.000000 0.000000 1.571750 
# 
# From -- ./inp_files/17057.got.cif
#   From: 2010.03.12/outbox.cif.g09.slc.cpg/sg44_9_cif.got.tgz:17057.got - 2010.04.14 02:36:11.
