data_PCOD8188591
_publ_section_title
;
Structure prediction by ZEFSAII (Michael W. Deem and Ramdas Pophale) SiO2 
 PCOD8188591
Probable space group: I M M 2
;
_chemical_formula_sum "Si O2"
_cell_formula_units_Z 40
_cell_length_a 20.903709
_cell_length_b 9.604799
_cell_length_c 12.419926
_cell_angle_alpha 90.000000
_cell_angle_beta 90.000000
_cell_angle_gamma 90.000000
_cell_volume 2493.622110
_symmetry_space_group_name_H-M "I M M 2"
_symmetry_group_IT_number 44
_symmetry_cell_setting 'orthorhombic'
loop_
_space_group_symop_operation_xyz
x,y,z
-x,-y,z
-x,y,z
x,-y,z
1/2+x,1/2+y,1/2+z
1/2-x,1/2-y,1/2+z
1/2-x,1/2+y,1/2+z
1/2+x,1/2-y,1/2+z
loop_
_atom_site_type_symbol
_atom_site_label
_atom_site_fract_x
_atom_site_fract_y
_atom_site_fract_z
Si Si1 0.426592 0.164035 0.320950
Si Si2 0.300169 0.338873 0.705787
Si Si3 0.839683 0.158314 0.969790
Si Si4 0.805123 0.338316 0.403622
Si Si5 0.836122 0.664208 0.633619
O O1 0.500000 0.210240 0.318941
O O2 0.391509 0.239628 0.418637
O O3 0.396253 0.209710 0.206156
O O4 0.418550 0.000000 0.338743
O O5 0.298293 0.500000 0.740233
O O6 0.341996 0.318335 0.598317
O O7 0.330831 0.250695 0.803031
O O8 0.228995 0.276992 0.685976
O O9 0.769553 0.191625 0.924548
O O10 0.858462 0.000000 0.941758
O O11 0.817732 0.500000 0.379243
O O12 0.844178 0.286200 0.509785
O O13 0.826506 0.500000 0.628503
#
# Coordination Sequence:
#
# PCOD8188591 Si02
#       5
#     8   8   8   8   8
#     4  10  19  31  49  69  90 121 158 189 221 268
#     4   9  16  28  46  66  92 122 148 182 229 274
#     4   9  18  30  44  66  94 123 154 184 227 277
#     4   9  16  27  45  67  91 119 150 186 228 272
#     4   8  15  28  43  63  93 120 144 182 228 267
#
# _framework density 16.040922999999999
#
# number of rings (size 3 to 8) (size 9 to 14) (size 15 to 20)
#    0.000    3.000    2.000    2.400    0.000    1.200 
#    0.000    4.000    0.000    1.200    0.000    2.800 
#    0.000    0.000    0.000    0.000    0.000    0.000 
#
# Total GULP energy -247905.970907 kJ/mol
# GULP energy per Si atom -12395.298545 kJ/mol
# Density = 1.600441 g / cm^3
# Si number density = 16.040923 Si / 1000 Ang^3
#
#
#
# Elastic Constant Matrix: (Units=GPa)
#
#
# Indices 1 2 3 4 5 6 
#
# 1 74.7552 31.4019 42.0407 0.0000 0.0000 0.0000
# 2 31.4019 51.8790 55.1758 0.0000 0.0000 0.0000
# 3 42.0407 55.1758 132.3663 0.0000 0.0000 0.0000
# 4 0.0000 0.0000 0.0000 32.1539 0.0000 0.0000
# 5 0.0000 0.0000 0.0000 0.0000 20.5144 0.0000
# 6 0.0000 0.0000 0.0000 0.0000 0.0000 17.4238
#
#
#
# Elastic Compliance Matrix: (Units=1/GPa)
#
#
# Indices 1 2 3 4 5 6 
#
# 1 0.018270 -0.008780 -0.002143 0.000000 0.000000 0.000000
# 2 -0.008780 0.038846 -0.013404 0.000000 0.000000 0.000000
# 3 -0.002143 -0.013404 0.013823 0.000000 0.000000 0.000000
# 4 0.000000 0.000000 0.000000 0.031100 0.000000 0.000000
# 5 0.000000 0.000000 0.000000 0.000000 0.048746 0.000000
# 6 0.000000 0.000000 0.000000 0.000000 0.000000 0.057393
#
#
# Mechanical properties :
#
#
# Convention : Reuss Voigt Hill
#
# Bulk Modulus (GPa) = 44.87253 57.35971 51.11612
# Shear Modulus (GPa) = 18.92078 22.71058 20.81568
#
# Velocity S-wave (km/s) = 3.43816 3.76678 3.60621
# Velocity P-wave (km/s) = 6.61784 7.39961 7.01961
#
# Compressibility (1/GPa) = 0.02228535
#
# Stress axis : x y z
#
# Youngs Moduli (GPa) = 54.73397 25.74291 72.34413
#
# Poissons Ratio (x) = 0.22601 0.15504
# Poissons Ratio (y) = 0.48054 0.96970
# Poissons Ratio (z) = 0.11730 0.34506
#
# Static dielectric constant tensor:
#      x y z
#    x 2.751130 0.000000 0.000000 
#    y 0.000000 2.823690 0.000000 
#    z 0.000000 0.000000 3.203880 
# 
# 
# High freq. dielectric constant tensor:
#      x y z
#    x 1.573770 0.000000 0.000000 
#    y 0.000000 1.598690 0.000000 
#    z 0.000000 0.000000 1.629070 
# 
# From -- ./inp_files/5819.got.cif
#   From: 2010.03.12/outbox.cif.g09.slc.cpg/sg44_3_cif.got.tgz:5819.got - 2010.04.14 02:36:11.
