data_PCOD8188295
_publ_section_title
;
Structure prediction by ZEFSAII (Michael W. Deem and Ramdas Pophale) SiO2 
 PCOD8188295
Probable space group: I M M 2
;
_chemical_formula_sum "Si O2"
_cell_formula_units_Z 64
_cell_length_a 9.190250
_cell_length_b 19.671781
_cell_length_c 20.828658
_cell_angle_alpha 90.000000
_cell_angle_beta 90.000000
_cell_angle_gamma 90.000000
_cell_volume 3765.583614
_symmetry_space_group_name_H-M "I M M 2"
_symmetry_group_IT_number 44
_symmetry_cell_setting 'orthorhombic'
loop_
_space_group_symop_operation_xyz
x,y,z
-x,-y,z
-x,y,z
x,-y,z
1/2+x,1/2+y,1/2+z
1/2-x,1/2-y,1/2+z
1/2-x,1/2+y,1/2+z
1/2+x,1/2-y,1/2+z
loop_
_atom_site_type_symbol
_atom_site_label
_atom_site_fract_x
_atom_site_fract_y
_atom_site_fract_z
Si Si1 0.333422 0.076008 0.381470
Si Si2 0.171714 0.212046 0.186124
Si Si3 0.170150 0.922471 0.512289
Si Si4 0.826898 0.073617 0.984160
Si Si5 0.328220 0.200162 0.563223
Si Si6 0.827420 0.925933 0.128596
Si Si7 0.830571 0.289984 0.813600
Si Si8 0.327078 0.715227 0.440022
O O1 0.500000 0.085013 0.405099
O O2 0.231472 0.091753 0.441517
O O3 0.299655 0.129771 0.325198
O O4 0.305446 0.000000 0.354484
O O5 0.216828 0.261865 0.128495
O O6 0.232511 0.136046 0.171277
O O7 0.246553 0.236862 0.251372
O O8 0.000000 0.212116 0.196332
O O9 0.248727 0.872811 0.562837
O O10 0.000000 0.906924 0.511354
O O11 0.202474 0.000000 0.533258
O O12 0.768615 0.137203 0.942454
O O13 0.000000 0.075881 0.986079
O O14 0.775525 0.000000 0.955883
O O15 0.766697 0.081573 0.056432
O O16 0.500000 0.188513 0.559956
O O17 0.271618 0.244046 0.502544
O O18 0.000000 0.920173 0.125869
O O19 0.780310 0.000000 0.156828
O O20 0.768270 0.249053 0.874957
O O21 0.000000 0.275253 0.803271
O O22 0.500000 0.717237 0.440588
#
# Coordination Sequence:
#
# PCOD8188295 Si02
#       8
#     8   8   8   8   8   8   8   8
#     4   9  17  31  50  70  95 133 175 203 233 290
#     4  10  20  32  48  71  99 130 166 205 241 285
#     4  10  20  32  49  76 104 125 153 203 260 302
#     4   8  12  20  40  69  95 116 146 193 240 278
#     4  10  18  32  53  73  94 127 169 207 241 287
#     4   8  13  23  41  67  97 124 149 185 235 281
#     4  10  20  32  46  66  97 134 165 200 245 288
#     4   9  15  27  46  68  93 124 162 199 237 283
#
# _framework density 16.996037999999999
#
# number of rings (size 3 to 8) (size 9 to 14) (size 15 to 20)
#    0.000    2.750    2.500    1.125    0.000    2.250 
#    0.000    0.000    0.000    0.750    0.000    1.750 
#    0.000    1.500    0.000    0.000    0.000    0.000 
#
# Total GULP energy -396602.686229 kJ/mol
# GULP energy per Si atom -12393.833945 kJ/mol
# Density = 1.695735 g / cm^3
# Si number density = 16.996038 Si / 1000 Ang^3
#
#
#
# Elastic Constant Matrix: (Units=GPa)
#
#
# Indices 1 2 3 4 5 6 
#
# 1 34.1553 33.2282 33.1890 0.0000 0.0000 0.0000
# 2 33.2282 119.2603 65.2814 0.0000 0.0000 0.0000
# 3 33.1890 65.2814 118.7289 0.0000 0.0000 0.0000
# 4 0.0000 0.0000 0.0000 22.9681 0.0000 0.0000
# 5 0.0000 0.0000 0.0000 0.0000 22.6866 0.0000
# 6 0.0000 0.0000 0.0000 0.0000 0.0000 14.2733
#
#
#
# Elastic Compliance Matrix: (Units=1/GPa)
#
#
# Indices 1 2 3 4 5 6 
#
# 1 0.045073 -0.008099 -0.008147 0.000000 0.000000 0.000000
# 2 -0.008099 0.013451 -0.005132 0.000000 0.000000 0.000000
# 3 -0.008147 -0.005132 0.013521 0.000000 0.000000 0.000000
# 4 0.000000 0.000000 0.000000 0.043539 0.000000 0.000000
# 5 0.000000 0.000000 0.000000 0.000000 0.044079 0.000000
# 6 0.000000 0.000000 0.000000 0.000000 0.000000 0.070061
#
#
# Mechanical properties :
#
#
# Convention : Reuss Voigt Hill
#
# Bulk Modulus (GPa) = 34.14031 59.50464 46.82247
# Shear Modulus (GPa) = 17.71535 21.34866 19.53200
#
# Velocity S-wave (km/s) = 3.23200 3.54799 3.39368
# Velocity P-wave (km/s) = 5.83598 7.20217 6.55476
#
# Compressibility (1/GPa) = 0.02929089
#
# Stress axis : x y z
#
# Youngs Moduli (GPa) = 22.18614 74.34657 73.95708
#
# Poissons Ratio (x) = 0.60213 0.60249
# Poissons Ratio (y) = 0.17968 0.37952
# Poissons Ratio (z) = 0.18074 0.38152
#
# Static dielectric constant tensor:
#      x y z
#    x 2.778150 0.000000 0.000000 
#    y 0.000000 3.599230 0.000000 
#    z 0.000000 0.000000 2.984040 
# 
# 
# High freq. dielectric constant tensor:
#      x y z
#    x 1.613120 0.000000 0.000000 
#    y 0.000000 1.668030 0.000000 
#    z 0.000000 0.000000 1.628380 
# 
# From -- ./inp_files/23424.got.cif
#   From: 2010.03.12/outbox.cif.g09.slc.cpg/sg44_12_cif.got.tgz:23424.got - 2010.04.14 02:36:11.
