data_PCOD8188526
_publ_section_title
;
Structure prediction by ZEFSAII (Michael W. Deem and Ramdas Pophale) SiO2 
 PCOD8188526
Probable space group: I M M 2
;
_chemical_formula_sum "Si O2"
_cell_formula_units_Z 64
_cell_length_a 14.442906
_cell_length_b 8.988532
_cell_length_c 28.229799
_cell_angle_alpha 90.000000
_cell_angle_beta 90.000000
_cell_angle_gamma 90.000000
_cell_volume 3664.807263
_symmetry_space_group_name_H-M "I M M 2"
_symmetry_group_IT_number 44
_symmetry_cell_setting 'orthorhombic'
loop_
_space_group_symop_operation_xyz
x,y,z
-x,-y,z
-x,y,z
x,-y,z
1/2+x,1/2+y,1/2+z
1/2-x,1/2-y,1/2+z
1/2-x,1/2+y,1/2+z
1/2+x,1/2-y,1/2+z
loop_
_atom_site_type_symbol
_atom_site_label
_atom_site_fract_x
_atom_site_fract_y
_atom_site_fract_z
Si Si1 0.392639 0.672076 0.368590
Si Si2 0.892983 0.829521 0.423944
Si Si3 0.274904 0.823287 0.288274
Si Si4 0.396255 0.829188 0.465715
Si Si5 0.394330 0.174983 0.827227
Si Si6 0.395539 0.824249 0.096492
Si Si7 0.215361 0.827933 0.515936
Si Si8 0.102747 0.323357 0.702422
O O1 0.500000 0.697950 0.356444
O O2 0.364466 0.500000 0.363794
O O3 0.332784 0.769963 0.333220
O O4 0.371092 0.724813 0.421704
O O5 0.865218 0.728502 0.379501
O O6 0.836548 0.770571 0.468948
O O7 0.000000 0.811931 0.436793
O O8 0.867531 0.000000 0.411577
O O9 0.171767 0.754797 0.289161
O O10 0.323790 0.762367 0.240516
O O11 0.268371 0.000000 0.288917
O O12 0.500000 0.796121 0.484467
O O13 0.324961 0.797645 0.508649
O O14 0.386539 0.000000 0.448677
O O15 0.500000 0.221356 0.815980
O O16 0.380170 0.000000 0.824251
O O17 0.500000 0.770932 0.083533
O O18 0.369942 0.770030 0.149599
O O19 0.390347 0.000000 0.093128
O O20 0.319462 0.758579 0.061582
O O21 0.192872 0.000000 0.524178
O O22 0.100756 0.500000 0.703961
O O23 0.000000 0.263068 0.715282
#
# Coordination Sequence:
#
# PCOD8188526 Si02
#       8
#     8   8   8   8   8   8   8   8
#     4  10  20  32  47  72 105 133 159 197 243 289
#     4   9  17  29  45  67  96 127 160 197 235 282
#     4  11  20  31  52  75  95 126 166 202 237 284
#     4   9  18  32  48  67  95 132 170 202 233 275
#     4  10  21  35  49  68  98 132 164 202 245 284
#     4   9  18  33  52  73  97 123 151 188 237 291
#     4  10  19  30  47  71  96 124 159 198 238 279
#     4   8  16  32  52  74  98 122 151 189 234 286
#
# _framework density 17.463401000000001
#
# number of rings (size 3 to 8) (size 9 to 14) (size 15 to 20)
#    0.000    2.500    0.000    3.375    0.000    4.750 
#    0.000    2.500    0.000    2.250    0.000    3.500 
#    0.000    0.000    0.000    0.000    0.000    0.000 
#
# Total GULP energy -396784.326713 kJ/mol
# GULP energy per Si atom -12399.510210 kJ/mol
# Density = 1.742365 g / cm^3
# Si number density = 17.463401 Si / 1000 Ang^3
#
#
#
# Elastic Constant Matrix: (Units=GPa)
#
#
# Indices 1 2 3 4 5 6 
#
# 1 116.2511 38.0476 81.8581 0.0000 0.0000 0.0000
# 2 38.0476 53.4084 36.1063 0.0000 0.0000 0.0000
# 3 81.8581 36.1063 106.6455 0.0000 0.0000 0.0000
# 4 0.0000 0.0000 0.0000 22.4898 0.0000 0.0000
# 5 0.0000 0.0000 0.0000 0.0000 31.6276 0.0000
# 6 0.0000 0.0000 0.0000 0.0000 0.0000 25.8351
#
#
#
# Elastic Compliance Matrix: (Units=1/GPa)
#
#
# Indices 1 2 3 4 5 6 
#
# 1 0.019675 -0.004937 -0.013431 0.000000 0.000000 0.000000
# 2 -0.004937 0.025520 -0.004851 0.000000 0.000000 0.000000
# 3 -0.013431 -0.004851 0.021328 0.000000 0.000000 0.000000
# 4 0.000000 0.000000 0.000000 0.044465 0.000000 0.000000
# 5 0.000000 0.000000 0.000000 0.000000 0.031618 0.000000
# 6 0.000000 0.000000 0.000000 0.000000 0.000000 0.038707
#
#
# Mechanical properties :
#
#
# Convention : Reuss Voigt Hill
#
# Bulk Modulus (GPa) = 49.78399 65.36987 57.57693
# Shear Modulus (GPa) = 21.32704 24.01001 22.66853
#
# Velocity S-wave (km/s) = 3.49842 3.71195 3.60677
# Velocity P-wave (km/s) = 6.69986 7.47564 7.09836
#
# Compressibility (1/GPa) = 0.02008678
#
# Stress axis : x y z
#
# Youngs Moduli (GPa) = 50.82635 39.18520 46.88651
#
# Poissons Ratio (x) = 0.19344 0.62971
# Poissons Ratio (y) = 0.25091 0.22744
# Poissons Ratio (z) = 0.68262 0.19008
#
# Static dielectric constant tensor:
#      x y z
#    x 3.501190 0.000000 0.000000 
#    y 0.000000 3.132830 0.000000 
#    z 0.000000 0.000000 3.188310 
# 
# 
# High freq. dielectric constant tensor:
#      x y z
#    x 1.681660 0.000000 0.000000 
#    y 0.000000 1.664480 0.000000 
#    z 0.000000 0.000000 1.652170 
# 
# From -- ./inp_files/27517.got.cif
#   From: 2010.03.12/outbox.cif.g09.slc.cpg/sg44_14_cif.got.tgz:27517.got - 2010.04.14 02:36:11.
