data_PCOD8188508
_publ_section_title
;
Structure prediction by ZEFSAII (Michael W. Deem and Ramdas Pophale) SiO2 
 PCOD8188508
Probable space group: I M M 2
;
_chemical_formula_sum "Si O2"
_cell_formula_units_Z 64
_cell_length_a 9.160874
_cell_length_b 27.584924
_cell_length_c 14.781749
_cell_angle_alpha 90.000000
_cell_angle_beta 90.000000
_cell_angle_gamma 90.000000
_cell_volume 3735.377729
_symmetry_space_group_name_H-M "I M M 2"
_symmetry_group_IT_number 44
_symmetry_cell_setting 'orthorhombic'
loop_
_space_group_symop_operation_xyz
x,y,z
-x,-y,z
-x,y,z
x,-y,z
1/2+x,1/2+y,1/2+z
1/2-x,1/2-y,1/2+z
1/2-x,1/2+y,1/2+z
1/2+x,1/2-y,1/2+z
loop_
_atom_site_type_symbol
_atom_site_label
_atom_site_fract_x
_atom_site_fract_y
_atom_site_fract_z
Si Si1 0.840175 0.736325 0.450190
Si Si2 0.161117 0.774956 0.250048
Si Si3 0.829607 0.555409 0.515394
Si Si4 0.327329 0.827325 0.694725
Si Si5 0.826578 0.635493 0.808633
Si Si6 0.670244 0.443615 0.699457
Si Si7 0.329715 0.175189 0.499362
Si Si8 0.326393 0.136220 0.881259
O O1 0.856982 0.759331 0.352518
O O2 0.734783 0.770722 0.507017
O O3 0.772970 0.682208 0.440962
O O4 0.000000 0.734430 0.496848
O O5 0.229744 0.728542 0.197766
O O6 0.270440 0.820809 0.244159
O O7 0.000000 0.789826 0.212398
O O8 0.799391 0.500000 0.488540
O O9 0.738898 0.570799 0.603206
O O10 0.773391 0.587220 0.430252
O O11 0.000000 0.564567 0.536252
O O12 0.500000 0.823980 0.708109
O O13 0.288662 0.850330 0.595975
O O14 0.263320 0.859817 0.777852
O O15 0.751271 0.585712 0.778457
O O16 0.775598 0.644045 0.913257
O O17 0.000000 0.631176 0.799189
O O18 0.500000 0.430500 0.698260
O O19 0.696889 0.500000 0.720124
O O20 0.500000 0.182673 0.489155
O O21 0.500000 0.137535 0.876571
#
# Coordination Sequence:
#
# PCOD8188508 Si02
#       8
#     8   8   8   8   8   8   8   8
#     4   8  14  25  40  58  83 117 153 185 215 251
#     4   8  14  26  43  61  84 118 156 187 215 252
#     4   9  17  30  49  72  94 114 141 183 233 277
#     4   8  14  26  44  65  92 126 159 187 215 255
#     4  10  19  30  46  68  94 121 148 185 230 269
#     4  10  21  36  52  68  86 112 147 185 226 274
#     4   9  17  28  43  65  92 122 153 184 219 257
#     4   8  14  26  45  67  91 120 151 182 221 268
#
# _framework density 17.133474
#
# number of rings (size 3 to 8) (size 9 to 14) (size 15 to 20)
#    0.000    3.250    0.000    2.250    0.000    2.250 
#    0.000    3.750    0.000    3.000    0.000    3.500 
#    0.000    2.000    0.000    0.000    0.000    0.000 
#
# Total GULP energy -396441.306543 kJ/mol
# GULP energy per Si atom -12388.790829 kJ/mol
# Density = 1.709448 g / cm^3
# Si number density = 17.133474 Si / 1000 Ang^3
#
#
#
# Elastic Constant Matrix: (Units=GPa)
#
#
# Indices 1 2 3 4 5 6 
#
# 1 48.8561 33.7446 35.3517 -0.0010 0.0000 0.0000
# 2 33.7446 92.8255 63.7482 -0.0007 0.0000 0.0000
# 3 35.3517 63.7482 116.8313 -0.0031 0.0000 -0.0002
# 4 -0.0010 -0.0007 -0.0031 24.7714 0.0000 -0.0001
# 5 0.0000 0.0000 0.0000 0.0000 13.8119 -0.0004
# 6 0.0000 0.0000 -0.0002 -0.0001 -0.0004 17.1101
#
#
#
# Elastic Compliance Matrix: (Units=1/GPa)
#
#
# Indices 1 2 3 4 5 6 
#
# 1 0.028936 -0.007206 -0.004824 0.000000 0.000000 0.000000
# 2 -0.007206 0.019024 -0.008200 -0.000001 0.000000 0.000000
# 3 -0.004824 -0.008200 0.014493 0.000001 0.000000 0.000000
# 4 0.000000 -0.000001 0.000001 0.040369 0.000000 0.000000
# 5 0.000000 0.000000 0.000000 0.000000 0.072401 0.000002
# 6 0.000000 0.000000 0.000000 0.000000 0.000002 0.058445
#
#
# Mechanical properties :
#
#
# Convention : Reuss Voigt Hill
#
# Bulk Modulus (GPa) = 45.46790 58.24466 51.85628
# Shear Modulus (GPa) = 17.76460 19.51656 18.64058
#
# Velocity S-wave (km/s) = 3.22349 3.37870 3.30201
# Velocity P-wave (km/s) = 6.36000 7.02063 6.69846
#
# Compressibility (1/GPa) = 0.02199354
#
# Stress axis : x y z
#
# Youngs Moduli (GPa) = 34.55903 52.56582 68.99914
#
# Poissons Ratio (x) = 0.37881 0.33282
# Poissons Ratio (y) = 0.24905 0.56577
# Poissons Ratio (z) = 0.16670 0.43102
#
# Static dielectric constant tensor:
#      x y z
#    x 3.142250 0.000000 0.000000 
#    y 0.000000 3.225750 0.000000 
#    z 0.000000 0.000000 3.405030 
# 
# 
# High freq. dielectric constant tensor:
#      x y z
#    x 1.637250 0.000000 0.000000 
#    y 0.000000 1.640070 0.000000 
#    z 0.000000 0.000000 1.656700 
# 
# From -- ./inp_files/17164.got.cif
#   From: 2010.03.12/outbox.cif.g09.slc.cpg/sg44_9_cif.got.tgz:17164.got - 2010.04.14 02:36:11.
