data_PCOD8188456
_publ_section_title
;
Structure prediction by ZEFSAII (Michael W. Deem and Ramdas Pophale) SiO2 
 PCOD8188456
Probable space group: I M M 2
;
_chemical_formula_sum "Si O2"
_cell_formula_units_Z 56
_cell_length_a 13.578833
_cell_length_b 9.462861
_cell_length_c 28.719360
_cell_angle_alpha 90.000000
_cell_angle_beta 90.000000
_cell_angle_gamma 90.000000
_cell_volume 3690.282940
_symmetry_space_group_name_H-M "I M M 2"
_symmetry_group_IT_number 44
_symmetry_cell_setting 'orthorhombic'
loop_
_space_group_symop_operation_xyz
x,y,z
-x,-y,z
-x,y,z
x,-y,z
1/2+x,1/2+y,1/2+z
1/2-x,1/2-y,1/2+z
1/2-x,1/2+y,1/2+z
1/2+x,1/2-y,1/2+z
loop_
_atom_site_type_symbol
_atom_site_label
_atom_site_fract_x
_atom_site_fract_y
_atom_site_fract_z
Si Si1 0.277694 0.334143 0.140630
Si Si2 0.616962 0.156102 0.957972
Si Si3 0.613227 0.665624 0.872288
Si Si4 0.612540 0.336069 0.235126
Si Si5 0.113912 0.836957 0.186494
Si Si6 0.114609 0.335253 0.562113
Si Si7 0.224229 0.835985 0.280392
O O1 0.262289 0.500000 0.132333
O O2 0.351735 0.302712 0.183000
O O3 0.172561 0.262776 0.150971
O O4 0.322178 0.264731 0.094873
O O5 0.500000 0.154791 0.957891
O O6 0.657444 0.262203 0.918703
O O7 0.657378 0.000000 0.946239
O O8 0.650875 0.200897 0.009713
O O9 0.500000 0.709491 0.864005
O O10 0.623323 0.500000 0.879497
O O11 0.675087 0.718115 0.827993
O O12 0.500000 0.287147 0.239203
O O13 0.625625 0.500000 0.246860
O O14 0.675118 0.248946 0.272599
O O15 0.146857 0.806061 0.239276
O O16 0.000000 0.797918 0.182004
O O17 0.134077 0.000000 0.173499
O O18 0.133316 0.500000 0.573578
O O19 0.000000 0.298535 0.568637
O O20 0.251571 0.000000 0.283305
#
# Coordination Sequence:
#
# PCOD8188456 Si02
#       7
#     8   8   8   8   8   8   8
#     4  10  19  29  43  64  88 113 142 176 214 254
#     4   8  15  27  41  59  84 112 141 172 205 244
#     4   9  16  26  41  62  88 114 138 168 207 249
#     4   9  18  31  43  58  84 114 142 174 210 247
#     4   9  17  30  46  62  84 115 147 177 208 245
#     4   9  17  29  44  62  86 115 145 176 209 249
#     4   9  17  28  43  64  86 110 143 176 206 244
#
# _framework density 15.174988000000001
#
# number of rings (size 3 to 8) (size 9 to 14) (size 15 to 20)
#    0.000    3.000    0.000    2.143    0.000    4.857 
#    0.000    1.429    0.000    2.571    0.000    1.000 
#    0.000    5.714    0.000    0.000    0.000    0.000 
#
# Total GULP energy -347164.848294 kJ/mol
# GULP energy per Si atom -12398.744582 kJ/mol
# Density = 1.514045 g / cm^3
# Si number density = 15.174988 Si / 1000 Ang^3
#
#
#
# Elastic Constant Matrix: (Units=GPa)
#
#
# Indices 1 2 3 4 5 6 
#
# 1 95.3780 52.6001 54.7962 0.0000 0.0000 0.0000
# 2 52.6001 70.3349 62.2739 0.0000 0.0000 0.0000
# 3 54.7962 62.2739 116.4581 0.0000 0.0000 0.0000
# 4 0.0000 0.0000 0.0000 29.1833 0.0000 0.0000
# 5 0.0000 0.0000 0.0000 0.0000 23.8161 0.0000
# 6 0.0000 0.0000 0.0000 0.0000 0.0000 22.9797
#
#
#
# Elastic Compliance Matrix: (Units=1/GPa)
#
#
# Indices 1 2 3 4 5 6 
#
# 1 0.018202 -0.011451 -0.002441 0.000000 0.000000 0.000000
# 2 -0.011451 0.034205 -0.012903 0.000000 0.000000 0.000000
# 3 -0.002441 -0.012903 0.016635 0.000000 0.000000 0.000000
# 4 0.000000 0.000000 0.000000 0.034266 0.000000 0.000000
# 5 0.000000 0.000000 0.000000 0.000000 0.041988 0.000000
# 6 0.000000 0.000000 0.000000 0.000000 0.000000 0.043517
#
#
# Mechanical properties :
#
#
# Convention : Reuss Voigt Hill
#
# Bulk Modulus (GPa) = 64.71497 69.05683 66.88590
# Shear Modulus (GPa) = 20.19752 22.69588 21.44670
#
# Velocity S-wave (km/s) = 3.65221 3.87151 3.76346
# Velocity P-wave (km/s) = 7.77967 8.09880 7.94084
#
# Compressibility (1/GPa) = 0.01545237
#
# Stress axis : x y z
#
# Youngs Moduli (GPa) = 54.93775 29.23515 60.11433
#
# Poissons Ratio (x) = 0.33478 0.14676
# Poissons Ratio (y) = 0.62910 0.77564
# Poissons Ratio (z) = 0.13412 0.37721
#
# Static dielectric constant tensor:
#      x y z
#    x 2.745100 0.000000 0.000000 
#    y 0.000000 2.959830 0.000000 
#    z 0.000000 0.000000 2.978470 
# 
# 
# High freq. dielectric constant tensor:
#      x y z
#    x 1.553170 0.000000 0.000000 
#    y 0.000000 1.584370 0.000000 
#    z 0.000000 0.000000 1.576360 
# 
# From -- ./inp_files/25460.got.cif
#   From: 2010.03.12/outbox.cif.g09.slc.cpg/sg44_13_cif.got.tgz:25460.got - 2010.04.14 02:36:11.
