data_PCOD8188521
_publ_section_title
;
Structure prediction by ZEFSAII (Michael W. Deem and Ramdas Pophale) SiO2 
 PCOD8188521
Probable space group: I M M 2
;
_chemical_formula_sum "Si O2"
_cell_formula_units_Z 64
_cell_length_a 30.364325
_cell_length_b 8.894055
_cell_length_c 14.619497
_cell_angle_alpha 90.000000
_cell_angle_beta 90.000000
_cell_angle_gamma 90.000000
_cell_volume 3948.170257
_symmetry_space_group_name_H-M "I M M 2"
_symmetry_group_IT_number 44
_symmetry_cell_setting 'orthorhombic'
loop_
_space_group_symop_operation_xyz
x,y,z
-x,-y,z
-x,y,z
x,-y,z
1/2+x,1/2+y,1/2+z
1/2-x,1/2-y,1/2+z
1/2-x,1/2+y,1/2+z
1/2+x,1/2-y,1/2+z
loop_
_atom_site_type_symbol
_atom_site_label
_atom_site_fract_x
_atom_site_fract_y
_atom_site_fract_z
Si Si1 0.323004 0.678228 0.851830
Si Si2 0.724976 0.822669 0.346731
Si Si3 0.794194 0.821564 0.029145
Si Si4 0.370463 0.321950 0.033041
Si Si5 0.550526 0.824088 0.951986
Si Si6 0.364808 0.677512 0.669470
Si Si7 0.450903 0.676255 0.758288
Si Si8 0.206718 0.322039 0.639679
O O1 0.322905 0.500000 0.845495
O O2 0.273949 0.738253 0.862927
O O3 0.343185 0.747839 0.760202
O O4 0.350649 0.733928 0.937393
O O5 0.697954 0.743657 0.427851
O O6 0.710802 0.773239 0.245458
O O7 0.720664 0.000000 0.358715
O O8 0.837674 0.760090 0.082910
O O9 0.749317 0.765510 0.080885
O O10 0.793366 0.000000 0.024469
O O11 0.372768 0.500000 0.045257
O O12 0.338925 0.254791 0.110457
O O13 0.419770 0.253070 0.031589
O O14 0.500000 0.788709 0.977309
O O15 0.561789 0.758963 0.851891
O O16 0.560162 0.000000 0.950335
O O17 0.358652 0.500000 0.669467
O O18 0.416940 0.720205 0.675976
O O19 0.500000 0.720182 0.725136
O O20 0.446936 0.500000 0.780533
O O21 0.202639 0.500000 0.629978
#
# Coordination Sequence:
#
# PCOD8188521 Si02
#       8
#     8   8   8   8   8   8   8   8
#     4   9  15  25  44  67  91 123 156 187 230 276
#     4  10  19  33  48  64  94 130 161 195 237 285
#     4  10  19  30  47  68  91 123 162 199 236 283
#     4  11  20  31  50  71  94 126 163 201 235 279
#     4  10  20  32  46  68 100 130 155 190 236 285
#     4   9  15  27  45  66  93 125 157 190 235 284
#     4   9  16  27  46  70  94 124 163 199 233 281
#     4  10  20  32  47  67  93 126 160 196 241 290
#
# _framework density 16.210039999999999
#
# number of rings (size 3 to 8) (size 9 to 14) (size 15 to 20)
#    0.000    2.250    3.750    0.750    0.000    1.250 
#    0.000    0.625    0.000    0.000    0.000    0.875 
#    0.000    3.000    0.000    0.000    0.000    0.000 
#
# Total GULP energy -396546.467096 kJ/mol
# GULP energy per Si atom -12392.077097 kJ/mol
# Density = 1.617315 g / cm^3
# Si number density = 16.210040 Si / 1000 Ang^3
#
#
#
# Elastic Constant Matrix: (Units=GPa)
#
#
# Indices 1 2 3 4 5 6 
#
# 1 111.8819 29.6150 50.7435 0.0000 0.0000 0.0000
# 2 29.6150 34.5340 28.4005 0.0000 0.0000 0.0000
# 3 50.7435 28.4005 100.9858 0.0000 0.0000 0.0000
# 4 0.0000 0.0000 0.0000 23.2039 0.0000 0.0000
# 5 0.0000 0.0000 0.0000 0.0000 25.5844 0.0000
# 6 0.0000 0.0000 0.0000 0.0000 0.0000 18.8334
#
#
#
# Elastic Compliance Matrix: (Units=1/GPa)
#
#
# Indices 1 2 3 4 5 6 
#
# 1 0.012901 -0.007457 -0.004385 0.000000 0.000000 0.000000
# 2 -0.007457 0.041979 -0.008059 0.000000 0.000000 0.000000
# 3 -0.004385 -0.008059 0.014372 0.000000 0.000000 0.000000
# 4 0.000000 0.000000 0.000000 0.043096 0.000000 0.000000
# 5 0.000000 0.000000 0.000000 0.000000 0.039086 0.000000
# 6 0.000000 0.000000 0.000000 0.000000 0.000000 0.053097
#
#
# Mechanical properties :
#
#
# Convention : Reuss Voigt Hill
#
# Bulk Modulus (GPa) = 33.95565 51.65774 42.80670
# Shear Modulus (GPa) = 19.67337 22.76720 21.22028
#
# Velocity S-wave (km/s) = 3.48753 3.75175 3.62205
# Velocity P-wave (km/s) = 6.10000 7.12070 6.63002
#
# Compressibility (1/GPa) = 0.02945018
#
# Stress axis : x y z
#
# Youngs Moduli (GPa) = 77.51521 23.82134 69.57790
#
# Poissons Ratio (x) = 0.17763 0.30512
# Poissons Ratio (y) = 0.57800 0.56073
# Poissons Ratio (z) = 0.33993 0.19198
#
# Static dielectric constant tensor:
#      x y z
#    x 3.289320 0.000000 0.000000 
#    y 0.000000 2.811350 0.000000 
#    z 0.000000 0.000000 3.013900 
# 
# 
# High freq. dielectric constant tensor:
#      x y z
#    x 1.624140 0.000000 0.000000 
#    y 0.000000 1.603040 0.000000 
#    z 0.000000 0.000000 1.598180 
# 
# From -- ./inp_files/17158.got.cif
#   From: 2010.03.12/outbox.cif.g09.slc.cpg/sg44_9_cif.got.tgz:17158.got - 2010.04.14 02:36:11.
