data_PCOD8188075
_publ_section_title
;
Structure prediction by ZEFSAII (Michael W. Deem and Ramdas Pophale) SiO2 
 PCOD8188075
Probable space group: I M M 2
;
_chemical_formula_sum "Si O2"
_cell_formula_units_Z 56
_cell_length_a 8.730347
_cell_length_b 18.385007
_cell_length_c 20.963365
_cell_angle_alpha 90.000000
_cell_angle_beta 90.000000
_cell_angle_gamma 90.000000
_cell_volume 3364.777113
_symmetry_space_group_name_H-M "I M M 2"
_symmetry_group_IT_number 44
_symmetry_cell_setting 'orthorhombic'
loop_
_space_group_symop_operation_xyz
x,y,z
-x,-y,z
-x,y,z
x,-y,z
1/2+x,1/2+y,1/2+z
1/2-x,1/2-y,1/2+z
1/2-x,1/2+y,1/2+z
1/2+x,1/2-y,1/2+z
loop_
_atom_site_type_symbol
_atom_site_label
_atom_site_fract_x
_atom_site_fract_y
_atom_site_fract_z
Si Si1 0.178927 0.286580 0.539900
Si Si2 0.180341 0.916601 0.607564
Si Si3 0.818125 0.345222 0.982641
Si Si4 0.180357 0.082660 0.099728
Si Si5 0.675068 0.651354 0.733535
Si Si6 0.180483 0.418711 0.853785
Si Si7 0.323061 0.787494 0.659592
O O1 0.261796 0.238879 0.484984
O O2 0.240725 0.369304 0.544199
O O3 0.216055 0.248181 0.606410
O O4 0.000000 0.287689 0.525886
O O5 0.247615 0.892517 0.539683
O O6 0.260511 0.870153 0.665196
O O7 0.000000 0.902940 0.607703
O O8 0.221836 0.000000 0.620438
O O9 0.755715 0.379433 0.916908
O O10 0.000000 0.348285 0.987383
O O11 0.230621 0.109121 0.170104
O O12 0.000000 0.092067 0.092332
O O13 0.234188 0.000000 0.090222
O O14 0.500000 0.630988 0.748658
O O15 0.777828 0.628228 0.792292
O O16 0.693903 0.738924 0.723450
O O17 0.250914 0.500000 0.848879
O O18 0.000000 0.423693 0.858082
O O19 0.500000 0.786735 0.636799
#
# Coordination Sequence:
#
# PCOD8188075 Si02
#       7
#     8   8   8   8   8   8   8
#     4  10  18  28  44  66  90 115 147 187 229 267
#     4  10  19  29  44  69  95 116 144 185 230 269
#     4  10  19  32  47  62  87 123 158 186 217 263
#     4   9  17  30  47  67  92 121 151 182 220 268
#     4   9  18  31  46  65  89 119 153 185 217 257
#     4  10  21  33  45  65  91 120 154 187 218 256
#     4   9  17  30  46  63  86 118 153 183 218 268
#
# _framework density 16.643004999999999
#
# number of rings (size 3 to 8) (size 9 to 14) (size 15 to 20)
#    0.000    2.429    0.000    6.000    0.000    6.857 
#    0.000    0.000    0.000    0.000    0.000    1.000 
#    0.000    5.714    0.000    0.000    0.000    0.000 
#
# Total GULP energy -347049.803575 kJ/mol
# GULP energy per Si atom -12394.635842 kJ/mol
# Density = 1.660512 g / cm^3
# Si number density = 16.643005 Si / 1000 Ang^3
#
#
#
# Elastic Constant Matrix: (Units=GPa)
#
#
# Indices 1 2 3 4 5 6 
#
# 1 50.7693 44.1499 21.7229 0.0000 0.0000 0.0000
# 2 44.1499 152.6050 56.2575 0.0000 0.0000 0.0000
# 3 21.7229 56.2575 66.6420 0.0000 0.0000 0.0000
# 4 0.0000 0.0000 0.0000 25.9592 0.0000 0.0000
# 5 0.0000 0.0000 0.0000 0.0000 21.3736 0.0000
# 6 0.0000 0.0000 0.0000 0.0000 0.0000 28.0105
#
#
#
# Elastic Compliance Matrix: (Units=1/GPa)
#
#
# Indices 1 2 3 4 5 6 
#
# 1 0.026774 -0.006575 -0.003177 0.000000 0.000000 0.000000
# 2 -0.006575 0.011128 -0.007251 0.000000 0.000000 0.000000
# 3 -0.003177 -0.007251 0.022162 0.000000 0.000000 0.000000
# 4 0.000000 0.000000 0.000000 0.038522 0.000000 0.000000
# 5 0.000000 0.000000 0.000000 0.000000 0.046787 0.000000
# 6 0.000000 0.000000 0.000000 0.000000 0.000000 0.035701
#
#
# Mechanical properties :
#
#
# Convention : Reuss Voigt Hill
#
# Bulk Modulus (GPa) = 38.37492 57.14185 47.75839
# Shear Modulus (GPa) = 22.34486 24.92772 23.63629
#
# Velocity S-wave (km/s) = 3.66812 3.87433 3.77263
# Velocity P-wave (km/s) = 6.40686 7.37715 6.90906
#
# Compressibility (1/GPa) = 0.02605868
#
# Stress axis : x y z
#
# Youngs Moduli (GPa) = 37.34994 89.86351 45.12188
#
# Poissons Ratio (x) = 0.59082 0.14336
# Poissons Ratio (y) = 0.24556 0.32717
# Poissons Ratio (z) = 0.11867 0.65159
#
# Static dielectric constant tensor:
#      x y z
#    x 3.090130 0.000000 0.000000 
#    y 0.000000 3.671610 0.000000 
#    z 0.000000 0.000000 2.898040 
# 
# 
# High freq. dielectric constant tensor:
#      x y z
#    x 1.646660 0.000000 0.000000 
#    y 0.000000 1.651260 0.000000 
#    z 0.000000 0.000000 1.593510 
# 
# From -- ./inp_files/23375.got.cif
#   From: 2010.03.12/outbox.cif.g09.slc.cpg/sg44_12_cif.got.tgz:23375.got - 2010.04.14 02:36:11.
