data_PCOD8188594
_publ_section_title
;
Structure prediction by ZEFSAII (Michael W. Deem and Ramdas Pophale) SiO2 
 PCOD8188594
Probable space group: I M M 2
;
_chemical_formula_sum "Si O2"
_cell_formula_units_Z 64
_cell_length_a 9.577434
_cell_length_b 27.829215
_cell_length_c 13.858759
_cell_angle_alpha 90.000000
_cell_angle_beta 90.000000
_cell_angle_gamma 90.000000
_cell_volume 3693.809266
_symmetry_space_group_name_H-M "I M M 2"
_symmetry_group_IT_number 44
_symmetry_cell_setting 'orthorhombic'
loop_
_space_group_symop_operation_xyz
x,y,z
-x,-y,z
-x,y,z
x,-y,z
1/2+x,1/2+y,1/2+z
1/2-x,1/2-y,1/2+z
1/2-x,1/2+y,1/2+z
1/2+x,1/2-y,1/2+z
loop_
_atom_site_type_symbol
_atom_site_label
_atom_site_fract_x
_atom_site_fract_y
_atom_site_fract_z
Si Si1 0.661028 0.667504 0.085450
Si Si2 0.161661 0.313021 0.264942
Si Si3 0.657482 0.339174 0.447870
Si Si4 0.160965 0.553931 0.769824
Si Si5 0.255583 0.705017 0.782645
Si Si6 0.646482 0.231787 0.477165
Si Si7 0.160267 0.635365 0.620013
Si Si8 0.151732 0.115042 0.395652
O O1 0.500000 0.674947 0.117208
O O2 0.761352 0.660420 0.176380
O O3 0.713817 0.714767 0.029515
O O4 0.678750 0.624109 0.009560
O O5 0.244172 0.334852 0.355174
O O6 0.165414 0.254759 0.255693
O O7 0.000000 0.328826 0.270072
O O8 0.500000 0.359696 0.425163
O O9 0.640629 0.287764 0.496041
O O10 0.737498 0.370125 0.528652
O O11 0.214854 0.500000 0.749192
O O12 0.190871 0.586308 0.677010
O O13 0.235981 0.576402 0.862528
O O14 0.000000 0.554094 0.797480
O O15 0.141552 0.719617 0.862908
O O16 0.187564 0.682200 0.686919
O O17 0.351147 0.664531 0.833662
O O18 0.500000 0.209720 0.519446
O O19 0.000000 0.638049 0.584964
O O20 0.000000 0.091650 0.382280
#
# Coordination Sequence:
#
# PCOD8188594 Si02
#       8
#     8   8   8   8   8   8   8   8
#     4  10  20  31  44  65  94 126 159 199 241 276
#     4  11  21  32  47  65  90 128 173 209 235 271
#     4  10  21  33  44  62  91 125 161 204 244 275
#     4   9  19  35  54  77 102 124 148 185 233 284
#     4   9  18  29  45  67  96 128 163 204 240 270
#     4   9  17  29  44  63  89 124 166 202 235 277
#     4  10  19  31  49  70  94 126 161 194 235 287
#     4   9  18  32  49  70  97 127 157 191 236 286
#
# _framework density 17.326287000000001
#
# number of rings (size 3 to 8) (size 9 to 14) (size 15 to 20)
#    0.000    2.375    0.000    2.625    0.000   13.250 
#    0.000    0.000    0.000    0.000    0.000    0.875 
#    0.000    5.000    0.000    0.000    0.000    0.000 
#
# Total GULP energy -396443.132729 kJ/mol
# GULP energy per Si atom -12388.847898 kJ/mol
# Density = 1.728685 g / cm^3
# Si number density = 17.326287 Si / 1000 Ang^3
#
#
#
# Elastic Constant Matrix: (Units=GPa)
#
#
# Indices 1 2 3 4 5 6 
#
# 1 138.4173 37.9009 63.1882 -0.0001 0.0000 0.0000
# 2 37.9009 63.4816 37.2822 0.0001 0.0000 0.0000
# 3 63.1882 37.2822 96.4976 0.0003 -0.0001 0.0000
# 4 -0.0001 0.0001 0.0003 11.6133 0.0000 0.0000
# 5 0.0000 0.0000 -0.0001 0.0000 27.9685 0.0001
# 6 0.0000 0.0000 0.0000 0.0000 0.0001 13.1092
#
#
#
# Elastic Compliance Matrix: (Units=1/GPa)
#
#
# Indices 1 2 3 4 5 6 
#
# 1 0.010714 -0.002945 -0.005878 0.000000 0.000000 0.000000
# 2 -0.002945 0.021185 -0.006257 0.000000 0.000000 0.000000
# 3 -0.005878 -0.006257 0.016629 0.000000 0.000000 0.000000
# 4 0.000000 0.000000 0.000000 0.086108 0.000000 0.000000
# 5 0.000000 0.000000 0.000000 0.000000 0.035754 0.000000
# 6 0.000000 0.000000 0.000000 0.000000 0.000000 0.076282
#
#
# Mechanical properties :
#
#
# Convention : Reuss Voigt Hill
#
# Bulk Modulus (GPa) = 54.43757 63.90434 59.17096
# Shear Modulus (GPa) = 17.67058 21.20656 19.43857
#
# Velocity S-wave (km/s) = 3.19701 3.50230 3.35313
# Velocity P-wave (km/s) = 6.71678 7.30190 7.01544
#
# Compressibility (1/GPa) = 0.01836967
#
# Stress axis : x y z
#
# Youngs Moduli (GPa) = 93.33379 47.20278 60.13433
#
# Poissons Ratio (x) = 0.13899 0.35348
# Poissons Ratio (y) = 0.27483 0.37625
# Poissons Ratio (z) = 0.54864 0.29534
#
# Static dielectric constant tensor:
#      x y z
#    x 3.510860 0.000000 0.000000 
#    y 0.000000 2.921580 0.000000 
#    z 0.000000 0.000000 3.269090 
# 
# 
# High freq. dielectric constant tensor:
#      x y z
#    x 1.684350 0.000000 0.000000 
#    y 0.000000 1.612100 0.000000 
#    z 0.000000 0.000000 1.669090 
# 
# From -- ./inp_files/17128.got.cif
#   From: 2010.03.12/outbox.cif.g09.slc.cpg/sg44_9_cif.got.tgz:17128.got - 2010.04.14 02:36:11.
