data_PCOD8188495
_publ_section_title
;
Structure prediction by ZEFSAII (Michael W. Deem and Ramdas Pophale) SiO2 
 PCOD8188495
Probable space group: I M M 2
;
_chemical_formula_sum "Si O2"
_cell_formula_units_Z 56
_cell_length_a 9.229033
_cell_length_b 18.264488
_cell_length_c 20.484407
_cell_angle_alpha 90.000000
_cell_angle_beta 90.000000
_cell_angle_gamma 90.000000
_cell_volume 3452.924619
_symmetry_space_group_name_H-M "I M M 2"
_symmetry_group_IT_number 44
_symmetry_cell_setting 'orthorhombic'
loop_
_space_group_symop_operation_xyz
x,y,z
-x,-y,z
-x,y,z
x,-y,z
1/2+x,1/2+y,1/2+z
1/2-x,1/2-y,1/2+z
1/2-x,1/2+y,1/2+z
1/2+x,1/2-y,1/2+z
loop_
_atom_site_type_symbol
_atom_site_label
_atom_site_fract_x
_atom_site_fract_y
_atom_site_fract_z
Si Si1 0.831260 0.583283 0.146270
Si Si2 0.839641 0.281823 0.070207
Si Si3 0.830431 0.839576 0.760787
Si Si4 0.166479 0.915741 0.897275
Si Si5 0.668857 0.842819 0.014880
Si Si6 0.163036 0.791928 0.210921
Si Si7 0.831407 0.415880 0.651515
O O1 0.798425 0.500000 0.126406
O O2 0.792175 0.633784 0.083114
O O3 0.734994 0.604469 0.208255
O O4 0.000000 0.595393 0.165007
O O5 0.838419 0.244783 0.140622
O O6 0.000000 0.277777 0.039067
O O7 0.731314 0.239664 0.021950
O O8 0.800763 0.872645 0.831364
O O9 0.753251 0.760385 0.759240
O O10 0.000000 0.829688 0.745891
O O11 0.264638 0.883099 0.953534
O O12 0.000000 0.907376 0.918415
O O13 0.208124 0.000000 0.886053
O O14 0.500000 0.835196 0.003365
O O15 0.707292 0.890600 0.078367
O O16 0.240793 0.870647 0.205120
O O17 0.000000 0.802597 0.237846
O O18 0.786576 0.500000 0.658829
O O19 0.000000 0.402938 0.665665
#
# Coordination Sequence:
#
# PCOD8188495 Si02
#       7
#     8   8   8   8   8   8   8
#     4   9  17  29  46  69  94 118 146 182 223 265
#     4   8  15  28  44  62  87 118 147 177 218 266
#     4  10  19  31  46  64  89 121 154 185 220 263
#     4  10  21  34  46  63  89 121 154 184 216 259
#     4  10  19  30  45  65  89 118 152 187 220 256
#     4   9  17  29  45  65  88 116 150 185 224 267
#     4   9  17  29  45  67  94 120 147 183 226 268
#
# _framework density 16.218135
#
# number of rings (size 3 to 8) (size 9 to 14) (size 15 to 20)
#    0.000    2.714    0.000    3.000    0.000    7.143 
#    0.000    0.000    0.000    0.000    0.000    1.000 
#    0.000    3.429    0.000    0.000    0.000    0.000 
#
# Total GULP energy -347154.504886 kJ/mol
# GULP energy per Si atom -12398.375175 kJ/mol
# Density = 1.618122 g / cm^3
# Si number density = 16.218135 Si / 1000 Ang^3
#
#
#
# Elastic Constant Matrix: (Units=GPa)
#
#
# Indices 1 2 3 4 5 6 
#
# 1 102.0513 71.9658 50.3082 0.0000 0.0000 0.0000
# 2 71.9658 148.1423 50.9979 0.0000 0.0000 0.0000
# 3 50.3082 50.9979 53.6556 0.0000 0.0000 0.0000
# 4 0.0000 0.0000 0.0000 24.2400 0.0000 0.0000
# 5 0.0000 0.0000 0.0000 0.0000 24.5285 0.0000
# 6 0.0000 0.0000 0.0000 0.0000 0.0000 26.5376
#
#
#
# Elastic Compliance Matrix: (Units=1/GPa)
#
#
# Indices 1 2 3 4 5 6 
#
# 1 0.020395 -0.004942 -0.014426 0.000000 0.000000 0.000000
# 2 -0.004942 0.011230 -0.006041 0.000000 0.000000 0.000000
# 3 -0.014426 -0.006041 0.037905 0.000000 0.000000 0.000000
# 4 0.000000 0.000000 0.000000 0.041254 0.000000 0.000000
# 5 0.000000 0.000000 0.000000 0.000000 0.040769 0.000000
# 6 0.000000 0.000000 0.000000 0.000000 0.000000 0.037682
#
#
# Mechanical properties :
#
#
# Convention : Reuss Voigt Hill
#
# Bulk Modulus (GPa) = 53.43655 72.26588 62.85121
# Shear Modulus (GPa) = 20.30115 23.76637 22.03376
#
# Velocity S-wave (km/s) = 3.54185 3.83223 3.68990
# Velocity P-wave (km/s) = 7.05312 8.01478 7.54928
#
# Compressibility (1/GPa) = 0.01871378
#
# Stress axis : x y z
#
# Youngs Moduli (GPa) = 49.03048 89.04393 26.38169
#
# Poissons Ratio (x) = 0.44003 0.38059
# Poissons Ratio (y) = 0.24229 0.15937
# Poissons Ratio (z) = 0.70732 0.53789
#
# Static dielectric constant tensor:
#      x y z
#    x 3.213170 0.000000 0.000000 
#    y 0.000000 3.365030 0.000000 
#    z 0.000000 0.000000 2.723820 
# 
# 
# High freq. dielectric constant tensor:
#      x y z
#    x 1.633660 0.000000 0.000000 
#    y 0.000000 1.630080 0.000000 
#    z 0.000000 0.000000 1.578880 
# 
# From -- ./inp_files/23221.got.cif
#   From: 2010.03.12/outbox.cif.g09.slc.cpg/sg44_12_cif.got.tgz:23221.got - 2010.04.14 02:36:11.
