data_PCOD8188710
_publ_section_title
;
Structure prediction by ZEFSAII (Michael W. Deem and Ramdas Pophale) SiO2 
 PCOD8188710
Probable space group: I M M 2
;
_chemical_formula_sum "Si O2"
_cell_formula_units_Z 48
_cell_length_a 20.479190
_cell_length_b 9.308213
_cell_length_c 14.434440
_cell_angle_alpha 90.000000
_cell_angle_beta 90.000000
_cell_angle_gamma 90.000000
_cell_volume 2751.560255
_symmetry_space_group_name_H-M "I M M 2"
_symmetry_group_IT_number 44
_symmetry_cell_setting 'orthorhombic'
loop_
_space_group_symop_operation_xyz
x,y,z
-x,-y,z
-x,y,z
x,-y,z
1/2+x,1/2+y,1/2+z
1/2-x,1/2-y,1/2+z
1/2-x,1/2+y,1/2+z
1/2+x,1/2-y,1/2+z
loop_
_atom_site_type_symbol
_atom_site_label
_atom_site_fract_x
_atom_site_fract_y
_atom_site_fract_z
Si Si1 0.925695 0.331851 0.579550
Si Si2 0.688559 0.829777 0.597329
Si Si3 0.927454 0.329125 0.967498
Si Si4 0.314457 0.667589 0.979733
Si Si5 0.125330 0.329646 0.775012
Si Si6 0.773168 0.168393 0.273093
O O1 0.910310 0.500000 0.572732
O O2 0.879244 0.250891 0.508474
O O3 0.913213 0.276982 0.684232
O O4 0.000000 0.297240 0.552190
O O5 0.624694 0.774431 0.542559
O O6 0.752544 0.781197 0.540175
O O7 0.685742 0.753643 0.696562
O O8 0.687301 0.000000 0.611057
O O9 0.924845 0.500000 0.962742
O O10 0.909356 0.265622 0.866297
O O11 0.000000 0.275597 0.995111
O O12 0.326396 0.500000 0.994873
O O13 0.302517 0.704254 0.872907
O O14 0.125343 0.500000 0.782442
O O15 0.199273 0.273528 0.769789
O O16 0.776529 0.000000 0.250911
#
# Coordination Sequence:
#
# PCOD8188710 Si02
#       6
#     8   8   8   8   8   8
#     4  10  20  33  52  79 106 133 169 212 258 305
#     4  10  19  32  51  77 104 131 169 212 250 296
#     4   9  16  28  49  76 104 132 163 206 257 301
#     4  10  20  34  52  74 103 138 174 208 249 306
#     4   9  15  27  49  77 104 127 159 205 253 303
#     4  10  19  33  53  76 101 133 171 207 248 301
#
# _framework density 17.444648000000001
#
# number of rings (size 3 to 8) (size 9 to 14) (size 15 to 20)
#    0.000    2.333    3.333    0.500    0.000    3.000 
#    0.000    0.833    0.000    4.500    0.000    0.000 
#    0.000    0.000    0.000    0.000    0.000    0.000 
#
# Total GULP energy -297599.291987 kJ/mol
# GULP energy per Si atom -12399.970499 kJ/mol
# Density = 1.740494 g / cm^3
# Si number density = 17.444648 Si / 1000 Ang^3
#
#
#
# Elastic Constant Matrix: (Units=GPa)
#
#
# Indices 1 2 3 4 5 6 
#
# 1 138.7851 34.8423 70.4625 0.0000 0.0000 0.0000
# 2 34.8423 27.6280 40.0409 0.0000 0.0000 0.0000
# 3 70.4625 40.0409 126.3362 0.0000 0.0000 0.0000
# 4 0.0000 0.0000 0.0000 28.8811 0.0000 0.0000
# 5 0.0000 0.0000 0.0000 0.0000 32.0769 0.0000
# 6 0.0000 0.0000 0.0000 0.0000 0.0000 22.4394
#
#
#
# Elastic Compliance Matrix: (Units=1/GPa)
#
#
# Indices 1 2 3 4 5 6 
#
# 1 0.011235 -0.009409 -0.003284 0.000000 0.000000 0.000000
# 2 -0.009409 0.074826 -0.018467 0.000000 0.000000 0.000000
# 3 -0.003284 -0.018467 0.015600 0.000000 0.000000 0.000000
# 4 0.000000 0.000000 0.000000 0.034625 0.000000 0.000000
# 5 0.000000 0.000000 0.000000 0.000000 0.031175 0.000000
# 6 0.000000 0.000000 0.000000 0.000000 0.000000 0.044565
#
#
# Mechanical properties :
#
#
# Convention : Reuss Voigt Hill
#
# Bulk Modulus (GPa) = 25.41964 64.82673 45.12319
# Shear Modulus (GPa) = 17.39376 26.50637 21.95006
#
# Velocity S-wave (km/s) = 3.16109 3.90225 3.55106
# Velocity P-wave (km/s) = 5.28456 7.58587 6.53728
#
# Compressibility (1/GPa) = 0.03933967
#
# Stress axis : x y z
#
# Youngs Moduli (GPa) = 89.00844 13.36438 64.10235
#
# Poissons Ratio (x) = 0.12575 0.21051
# Poissons Ratio (y) = 0.83749 1.18380
# Poissons Ratio (z) = 0.29230 0.24681
#
# Static dielectric constant tensor:
#      x y z
#    x 3.343110 0.000000 0.000000 
#    y 0.000000 2.818090 0.000000 
#    z 0.000000 0.000000 3.287830 
# 
# 
# High freq. dielectric constant tensor:
#      x y z
#    x 1.677440 0.000000 0.000000 
#    y 0.000000 1.630600 0.000000 
#    z 0.000000 0.000000 1.679510 
# 
# From -- ./inp_files/11169.got.cif
#   From: 2010.03.12/outbox.cif.g09.slc.cpg/sg44_6_cif.got.tgz:11169.got - 2010.04.14 02:36:11.
