data_PCOD8188640
_publ_section_title
;
Structure prediction by ZEFSAII (Michael W. Deem and Ramdas Pophale) SiO2 
 PCOD8188640
Probable space group: I M M 2
;
_chemical_formula_sum "Si O2"
_cell_formula_units_Z 64
_cell_length_a 8.971918
_cell_length_b 28.754770
_cell_length_c 12.307367
_cell_angle_alpha 90.000000
_cell_angle_beta 90.000000
_cell_angle_gamma 90.000000
_cell_volume 3175.121473
_symmetry_space_group_name_H-M "I M M 2"
_symmetry_group_IT_number 44
_symmetry_cell_setting 'orthorhombic'
loop_
_space_group_symop_operation_xyz
x,y,z
-x,-y,z
-x,y,z
x,-y,z
1/2+x,1/2+y,1/2+z
1/2-x,1/2-y,1/2+z
1/2-x,1/2+y,1/2+z
1/2+x,1/2-y,1/2+z
loop_
_atom_site_type_symbol
_atom_site_label
_atom_site_fract_x
_atom_site_fract_y
_atom_site_fract_z
Si Si1 0.826736 0.948094 0.215160
Si Si2 0.172123 0.630835 0.183093
Si Si3 0.164900 0.331572 0.414836
Si Si4 0.334692 0.550605 0.281915
Si Si5 0.332250 0.066018 0.992757
Si Si6 0.176365 0.845987 0.285294
Si Si7 0.325092 0.311151 0.017836
Si Si8 0.174164 0.219743 0.088879
O O1 0.727820 0.949273 0.108444
O O2 0.775753 0.901239 0.282086
O O3 0.000000 0.941960 0.184567
O O4 0.803789 0.000000 0.272087
O O5 0.204736 0.662532 0.288722
O O6 0.213581 0.578384 0.212844
O O7 0.280646 0.643274 0.084748
O O8 0.000000 0.633658 0.148288
O O9 0.167012 0.378877 0.481540
O O10 0.288984 0.299424 0.469019
O O11 0.000000 0.308582 0.425102
O O12 0.500000 0.574065 0.282136
O O13 0.345650 0.500000 0.228056
O O14 0.277828 0.544472 0.404530
O O15 0.500000 0.046671 0.977761
O O16 0.234708 0.820545 0.395100
O O17 0.236968 0.815069 0.183069
O O18 0.000000 0.844107 0.283954
O O19 0.500000 0.302786 0.017145
O O20 0.248239 0.270314 0.087732
O O21 0.000000 0.226651 0.103871
#
# Coordination Sequence:
#
# PCOD8188640 Si02
#       8
#     8   8   8   8   8   8   8   8
#     4  10  19  34  58  85 114 155 205 250 301 365
#     4  10  22  40  60  85 120 156 196 246 299 352
#     4   9  19  35  55  82 116 153 188 232 289 350
#     4  10  20  34  55  84 117 157 204 249 296 355
#     4  10  19  31  50  81 122 159 191 238 299 358
#     4   9  21  41  61  85 121 159 195 252 307 357
#     4  11  24  42  62  85 118 159 203 249 303 361
#     4  11  22  38  62  89 117 152 194 241 300 360
#
# _framework density 20.156707000000001
#
# number of rings (size 3 to 8) (size 9 to 14) (size 15 to 20)
#    0.000    2.000    1.250    3.000    1.750    5.250 
#    0.000    3.750    0.000    2.250    0.000    0.000 
#    0.000    0.000    0.000    0.000    0.000    0.000 
#
# Total GULP energy -396475.718481 kJ/mol
# GULP energy per Si atom -12389.866203 kJ/mol
# Density = 2.011083 g / cm^3
# Si number density = 20.156707 Si / 1000 Ang^3
#
#
#
# Elastic Constant Matrix: (Units=GPa)
#
#
# Indices 1 2 3 4 5 6 
#
# 1 65.0785 26.4125 27.7408 0.0000 0.0001 0.0001
# 2 26.4125 103.9024 44.7043 -0.0006 0.0000 -0.0001
# 3 27.7408 44.7043 90.0025 -0.0021 -0.0003 -0.0003
# 4 0.0000 -0.0006 -0.0021 0.0795 0.0001 0.0000
# 5 0.0001 0.0000 -0.0003 0.0001 25.2374 -0.0002
# 6 0.0001 -0.0001 -0.0003 0.0000 -0.0002 18.1667
#
#
#
# Elastic Compliance Matrix: (Units=1/GPa)
#
#
# Indices 1 2 3 4 5 6 
#
# 1 0.018324 -0.002834 -0.004240 -0.000140 0.000000 0.000000
# 2 -0.002834 0.012678 -0.005424 -0.000048 0.000000 0.000000
# 3 -0.004240 -0.005424 0.015112 0.000358 0.000000 0.000000
# 4 -0.000140 -0.000048 0.000358 12.582528 -0.000071 -0.000013
# 5 0.000000 0.000000 0.000000 -0.000071 0.039624 0.000000
# 6 0.000000 0.000000 0.000000 -0.000013 0.000000 0.055046
#
#
# Mechanical properties :
#
#
# Convention : Reuss Voigt Hill
#
# Bulk Modulus (GPa) = 47.35271 50.74431 49.04851
# Shear Modulus (GPa) = 0.39199 19.37177 9.88188
#
# Velocity S-wave (km/s) = 0.44147 3.10346 2.21657
# Velocity P-wave (km/s) = 4.87885 6.17021 5.56213
#
# Compressibility (1/GPa) = 0.02111811
#
# Stress axis : x y z
#
# Youngs Moduli (GPa) = 54.57451 78.87417 66.17304
#
# Poissons Ratio (x) = 0.22349 0.28060
# Poissons Ratio (y) = 0.15464 0.35892
# Poissons Ratio (z) = 0.23141 0.42782
#
# Static dielectric constant tensor:
#      x y z
#    x 3.647180 0.000000 0.000000 
#    y 0.000000 3.964510 0.000000 
#    z 0.000000 0.000000 3.584790 
# 
# 
# High freq. dielectric constant tensor:
#      x y z
#    x 1.777720 0.000000 0.000000 
#    y 0.000000 1.798400 0.000000 
#    z 0.000000 0.000000 1.761150 
# 
# From -- ./inp_files/11471.got.cif
#   From: 2010.03.12/outbox.cif.g09.slc.cpg/sg44_6_cif.got.tgz:11471.got - 2010.04.14 02:36:11.
