data_PCOD8188013
_publ_section_title
;
Structure prediction by ZEFSAII (Michael W. Deem and Ramdas Pophale) SiO2 
 PCOD8188013
Probable space group: I M M 2
;
_chemical_formula_sum "Si O2"
_cell_formula_units_Z 64
_cell_length_a 9.153346
_cell_length_b 26.156240
_cell_length_c 18.338930
_cell_angle_alpha 90.000000
_cell_angle_beta 90.000000
_cell_angle_gamma 90.000000
_cell_volume 4390.653709
_symmetry_space_group_name_H-M "I M M 2"
_symmetry_group_IT_number 44
_symmetry_cell_setting 'orthorhombic'
loop_
_space_group_symop_operation_xyz
x,y,z
-x,-y,z
-x,y,z
x,-y,z
1/2+x,1/2+y,1/2+z
1/2-x,1/2-y,1/2+z
1/2-x,1/2+y,1/2+z
1/2+x,1/2-y,1/2+z
loop_
_atom_site_type_symbol
_atom_site_label
_atom_site_fract_x
_atom_site_fract_y
_atom_site_fract_z
Si Si1 0.164350 0.789539 0.082660
Si Si2 0.332759 0.759951 0.439078
Si Si3 0.331591 0.653085 0.025086
Si Si4 0.167723 0.206615 0.665097
Si Si5 0.668826 0.557261 0.935385
Si Si6 0.165125 0.858023 0.207720
Si Si7 0.328766 0.941601 0.289085
Si Si8 0.170431 0.752677 0.289664
O O1 0.291217 0.754245 0.114225
O O2 0.182999 0.845023 0.121101
O O3 0.000000 0.769224 0.104258
O O4 0.178920 0.788761 0.994764
O O5 0.500000 0.770241 0.416871
O O6 0.272587 0.810349 0.478575
O O7 0.241540 0.746662 0.368191
O O8 0.500000 0.667581 0.007343
O O9 0.303682 0.657423 0.112616
O O10 0.296972 0.594787 0.002635
O O11 0.265733 0.207564 0.737920
O O12 0.000000 0.210586 0.689354
O O13 0.500000 0.559536 0.912827
O O14 0.714910 0.500000 0.959160
O O15 0.758809 0.575748 0.865292
O O16 0.270424 0.905085 0.225276
O O17 0.207436 0.807938 0.255177
O O18 0.000000 0.874594 0.225976
O O19 0.500000 0.934463 0.295826
O O20 0.286040 0.000000 0.270352
O O21 0.000000 0.743703 0.298004
#
# Coordination Sequence:
#
# PCOD8188013 Si02
#       8
#     8   8   8   8   8   8   8   8
#     4   8  16  29  41  56  79 103 128 161 197 232
#     4  10  18  27  41  60  81 106 134 161 194 236
#     4   9  17  28  41  58  80 105 134 167 199 231
#     4   9  16  26  40  57  77 102 132 163 196 234
#     4   9  17  29  43  57  76 105 137 165 195 231
#     4   9  17  29  43  56  74 104 136 162 192 230
#     4  10  20  30  39  56  81 104 130 167 201 226
#     4  10  19  29  40  57  82 107 133 165 196 229
#
# _framework density 14.576418
#
# number of rings (size 3 to 8) (size 9 to 14) (size 15 to 20)
#    0.000    2.750    0.000    3.000    0.000    7.750 
#    0.000    0.000    0.000    0.000    0.000    0.000 
#    0.000    1.000    0.000    7.500    0.000    3.000 
#
# Total GULP energy -396573.718564 kJ/mol
# GULP energy per Si atom -12392.928705 kJ/mol
# Density = 1.454324 g / cm^3
# Si number density = 14.576418 Si / 1000 Ang^3
#
#
#
# Elastic Constant Matrix: (Units=GPa)
#
#
# Indices 1 2 3 4 5 6 
#
# 1 73.8013 34.3283 48.0362 0.0000 0.0000 0.0000
# 2 34.3283 65.8628 45.6612 0.0000 0.0000 0.0000
# 3 48.0362 45.6612 101.5662 0.0000 0.0000 0.0000
# 4 0.0000 0.0000 0.0000 24.2851 0.0000 0.0000
# 5 0.0000 0.0000 0.0000 0.0000 23.9194 0.0000
# 6 0.0000 0.0000 0.0000 0.0000 0.0000 17.5921
#
#
#
# Elastic Compliance Matrix: (Units=1/GPa)
#
#
# Indices 1 2 3 4 5 6 
#
# 1 0.021050 -0.005912 -0.007298 0.000000 0.000000 0.000000
# 2 -0.005912 0.023718 -0.007867 0.000000 0.000000 0.000000
# 3 -0.007298 -0.007867 0.016834 0.000000 0.000000 0.000000
# 4 0.000000 0.000000 0.000000 0.041178 0.000000 0.000000
# 5 0.000000 0.000000 0.000000 0.000000 0.041807 0.000000
# 6 0.000000 0.000000 0.000000 0.000000 0.000000 0.056844
#
#
# Mechanical properties :
#
#
# Convention : Reuss Voigt Hill
#
# Bulk Modulus (GPa) = 51.41692 55.25353 53.33523
# Shear Modulus (GPa) = 19.99462 20.70629 20.35045
#
# Velocity S-wave (km/s) = 3.70768 3.77309 3.74052
# Velocity P-wave (km/s) = 7.32665 7.54784 7.43807
#
# Compressibility (1/GPa) = 0.01944885
#
# Stress axis : x y z
#
# Youngs Moduli (GPa) = 47.50630 42.16119 59.40318
#
# Poissons Ratio (x) = 0.24926 0.43351
# Poissons Ratio (y) = 0.28086 0.46733
# Poissons Ratio (z) = 0.34669 0.33168
#
# Static dielectric constant tensor:
#      x y z
#    x 2.948770 0.000000 0.000000 
#    y 0.000000 2.703090 0.000000 
#    z 0.000000 0.000000 2.964830 
# 
# 
# High freq. dielectric constant tensor:
#      x y z
#    x 1.571750 0.000000 0.000000 
#    y 0.000000 1.516920 0.000000 
#    z 0.000000 0.000000 1.548550 
# 
# From -- ./inp_files/20843.got.cif
#   From: 2010.03.12/outbox.cif.g09.slc.cpg/sg44_11_cif.got.tgz:20843.got - 2010.04.14 02:36:11.
