data_PCOD8188904
_publ_section_title
;
Structure prediction by ZEFSAII (Michael W. Deem and Ramdas Pophale) SiO2 
 PCOD8188904
Probable space group: I M M 2
;
_chemical_formula_sum "Si O2"
_cell_formula_units_Z 64
_cell_length_a 9.455495
_cell_length_b 28.456271
_cell_length_c 12.828835
_cell_angle_alpha 90.000000
_cell_angle_beta 90.000000
_cell_angle_gamma 90.000000
_cell_volume 3451.830620
_symmetry_space_group_name_H-M "I M M 2"
_symmetry_group_IT_number 44
_symmetry_cell_setting 'orthorhombic'
loop_
_space_group_symop_operation_xyz
x,y,z
-x,-y,z
-x,y,z
x,-y,z
1/2+x,1/2+y,1/2+z
1/2-x,1/2-y,1/2+z
1/2-x,1/2+y,1/2+z
1/2+x,1/2-y,1/2+z
loop_
_atom_site_type_symbol
_atom_site_label
_atom_site_fract_x
_atom_site_fract_y
_atom_site_fract_z
Si Si1 0.656663 0.183683 0.982800
Si Si2 0.165560 0.202212 0.794170
Si Si3 0.333756 0.444857 0.004907
Si Si4 0.656600 0.922238 0.915925
Si Si5 0.164756 0.098670 0.727280
Si Si6 0.166756 0.699492 0.711224
Si Si7 0.161761 0.447949 0.634180
Si Si8 0.331345 0.110140 0.326994
O O1 0.500000 0.207322 0.983323
O O2 0.760109 0.210775 0.905018
O O3 0.643590 0.132197 0.938090
O O4 0.725442 0.183468 0.098330
O O5 0.207254 0.154084 0.733582
O O6 0.215880 0.246887 0.726764
O O7 0.000000 0.203335 0.816193
O O8 0.500000 0.439270 0.982998
O O9 0.289889 0.500000 0.998884
O O10 0.248427 0.412937 0.923727
O O11 0.292808 0.423389 0.116839
O O12 0.500000 0.943666 0.894103
O O13 0.753592 0.931248 0.815249
O O14 0.731120 0.944913 0.018786
O O15 0.000000 0.092167 0.749450
O O16 0.213431 0.664651 0.806389
O O17 0.000000 0.695071 0.705840
O O18 0.175912 0.500000 0.679394
O O19 0.226966 0.414830 0.722082
O O20 0.000000 0.432129 0.616537
O O21 0.500000 0.103219 0.343175
#
# Coordination Sequence:
#
# PCOD8188904 Si02
#       8
#     8   8   8   8   8   8   8   8
#     4   9  16  30  50  70  97 132 165 204 256 310
#     4   9  18  32  50  74 101 134 174 216 259 306
#     4  10  22  39  55  73 105 146 181 219 267 313
#     4   9  16  29  50  74  98 125 161 207 256 303
#     4   9  19  35  52  70  99 138 176 211 256 310
#     4   9  17  31  52  75 102 136 171 210 262 316
#     4   9  16  27  47  75 102 125 153 197 253 306
#     4  10  19  34  55  78 102 133 174 215 258 313
#
# _framework density 18.540887000000001
#
# number of rings (size 3 to 8) (size 9 to 14) (size 15 to 20)
#    0.000    2.750    1.250    0.375    0.000    2.750 
#    0.000    3.750    0.000    0.750    0.000    0.000 
#    0.000    0.000    0.000    0.000    0.000    0.000 
#
# Total GULP energy -396490.246901 kJ/mol
# GULP energy per Si atom -12390.320216 kJ/mol
# Density = 1.849869 g / cm^3
# Si number density = 18.540887 Si / 1000 Ang^3
#
#
#
# Elastic Constant Matrix: (Units=GPa)
#
#
# Indices 1 2 3 4 5 6 
#
# 1 35.1814 20.1643 39.3066 0.0000 -0.0001 0.0000
# 2 20.1643 70.6079 40.9044 -0.0004 0.0000 0.0000
# 3 39.3066 40.9044 132.2313 -0.0011 0.0001 -0.0003
# 4 0.0000 -0.0004 -0.0011 25.7823 0.0000 -0.0002
# 5 -0.0001 0.0000 0.0001 0.0000 28.5377 0.0000
# 6 0.0000 0.0000 -0.0003 -0.0002 0.0000 12.5389
#
#
#
# Elastic Compliance Matrix: (Units=1/GPa)
#
#
# Indices 1 2 3 4 5 6 
#
# 1 0.044660 -0.006169 -0.011367 -0.000001 0.000000 0.000000
# 2 -0.006169 0.018107 -0.003768 0.000000 0.000000 0.000000
# 3 -0.011367 -0.003768 0.012107 0.000000 0.000000 0.000000
# 4 -0.000001 0.000000 0.000000 0.038786 0.000000 0.000000
# 5 0.000000 0.000000 0.000000 0.000000 0.035041 0.000000
# 6 0.000000 0.000000 0.000000 0.000000 0.000000 0.079752
#
#
# Mechanical properties :
#
#
# Convention : Reuss Voigt Hill
#
# Bulk Modulus (GPa) = 30.99162 48.75236 39.87199
# Shear Modulus (GPa) = 17.74209 22.54815 20.14512
#
# Velocity S-wave (km/s) = 3.09676 3.49109 3.29982
# Velocity P-wave (km/s) = 5.43490 6.52701 6.00583
#
# Compressibility (1/GPa) = 0.03226678
#
# Stress axis : x y z
#
# Youngs Moduli (GPa) = 22.39151 55.22731 82.59749
#
# Poissons Ratio (x) = 0.34069 0.93890
# Poissons Ratio (y) = 0.13813 0.31119
# Poissons Ratio (z) = 0.25453 0.20807
#
# Static dielectric constant tensor:
#      x y z
#    x 3.280710 0.000000 0.000000 
#    y 0.000000 3.524010 0.000000 
#    z 0.000000 0.000000 3.568550 
# 
# 
# High freq. dielectric constant tensor:
#      x y z
#    x 1.679710 0.000000 0.000000 
#    y 0.000000 1.721360 0.000000 
#    z 0.000000 0.000000 1.724110 
# 
# From -- ./inp_files/10120.got.cif
#   From: 2010.03.12/outbox.cif.g09.slc.cpg/sg44_6_cif.got.tgz:10120.got - 2010.04.14 02:36:11.
