data_PCOD8188100
_publ_section_title
;
Structure prediction by ZEFSAII (Michael W. Deem and Ramdas Pophale) SiO2 
 PCOD8188100
Probable space group: I M M 2
;
_chemical_formula_sum "Si O2"
_cell_formula_units_Z 64
_cell_length_a 18.805893
_cell_length_b 9.081850
_cell_length_c 20.908787
_cell_angle_alpha 90.000000
_cell_angle_beta 90.000000
_cell_angle_gamma 90.000000
_cell_volume 3571.059808
_symmetry_space_group_name_H-M "I M M 2"
_symmetry_group_IT_number 44
_symmetry_cell_setting 'orthorhombic'
loop_
_space_group_symop_operation_xyz
x,y,z
-x,-y,z
-x,y,z
x,-y,z
1/2+x,1/2+y,1/2+z
1/2-x,1/2-y,1/2+z
1/2-x,1/2+y,1/2+z
1/2+x,1/2-y,1/2+z
loop_
_atom_site_type_symbol
_atom_site_label
_atom_site_fract_x
_atom_site_fract_y
_atom_site_fract_z
Si Si1 0.320732 0.176541 0.278620
Si Si2 0.918609 0.672463 0.894553
Si Si3 0.338286 0.325951 0.506081
Si Si4 0.079480 0.674357 0.392004
Si Si5 0.162640 0.161651 0.147496
Si Si6 0.177594 0.676848 0.505313
Si Si7 0.671749 0.173440 0.772166
Si Si8 0.168981 0.339393 0.642082
O O1 0.374101 0.228794 0.333572
O O2 0.244365 0.247073 0.292249
O O3 0.352009 0.236985 0.209858
O O4 0.311991 0.000000 0.275502
O O5 0.908121 0.500000 0.904156
O O6 0.892699 0.750862 0.958277
O O7 0.000000 0.714671 0.881852
O O8 0.342193 0.500000 0.496968
O O9 0.363397 0.281638 0.577943
O O10 0.258041 0.269310 0.491656
O O11 0.077267 0.500000 0.398845
O O12 0.126455 0.739719 0.450174
O O13 0.113562 0.719214 0.324608
O O14 0.000000 0.740488 0.395812
O O15 0.141226 0.274692 0.203516
O O16 0.246607 0.144669 0.143283
O O17 0.129910 0.000000 0.162627
O O18 0.177259 0.500000 0.508857
O O19 0.149623 0.740608 0.574647
O O20 0.685460 0.000000 0.770433
O O21 0.132598 0.500000 0.641109
#
# Coordination Sequence:
#
# PCOD8188100 Si02
#       8
#     8   8   8   8   8   8   8   8
#     4   9  17  31  49  67  93 126 156 190 234 281
#     4  10  21  34  46  65  96 130 160 194 240 290
#     4   9  17  31  52  73  91 116 153 197 240 281
#     4   9  17  27  38  59  94 126 147 177 225 271
#     4   8  15  29  48  69  93 118 146 186 237 285
#     4   8  13  24  44  67  88 112 147 188 226 267
#     4  10  18  28  47  72  94 119 156 197 231 270
#     4   7  11  22  42  65  85 109 143 182 221 261
#
# _framework density 17.921849999999999
#
# number of rings (size 3 to 8) (size 9 to 14) (size 15 to 20)
#    0.000    3.250    0.000    3.375    0.000    2.250 
#    0.000    1.250    0.000    7.500    0.000    0.000 
#    0.000    0.000    0.000    0.000    0.000    0.000 
#
# Total GULP energy -396455.102136 kJ/mol
# GULP energy per Si atom -12389.221942 kJ/mol
# Density = 1.788106 g / cm^3
# Si number density = 17.921850 Si / 1000 Ang^3
#
#
#
# Elastic Constant Matrix: (Units=GPa)
#
#
# Indices 1 2 3 4 5 6 
#
# 1 67.1527 19.8866 46.6091 0.0000 0.0000 0.0000
# 2 19.8866 26.8668 29.9107 0.0000 0.0000 0.0000
# 3 46.6091 29.9107 150.1354 0.0000 0.0000 0.0000
# 4 0.0000 0.0000 0.0000 23.2312 0.0000 0.0000
# 5 0.0000 0.0000 0.0000 0.0000 6.8122 0.0000
# 6 0.0000 0.0000 0.0000 0.0000 0.0000 16.0338
#
#
#
# Elastic Compliance Matrix: (Units=1/GPa)
#
#
# Indices 1 2 3 4 5 6 
#
# 1 0.021138 -0.010718 -0.004427 0.000000 0.000000 0.000000
# 2 -0.010718 0.053263 -0.007284 0.000000 0.000000 0.000000
# 3 -0.004427 -0.007284 0.009486 0.000000 0.000000 0.000000
# 4 0.000000 0.000000 0.000000 0.043046 0.000000 0.000000
# 5 0.000000 0.000000 0.000000 0.000000 0.146795 0.000000
# 6 0.000000 0.000000 0.000000 0.000000 0.000000 0.062368
#
#
# Mechanical properties :
#
#
# Convention : Reuss Voigt Hill
#
# Bulk Modulus (GPa) = 25.62145 48.55197 37.08671
# Shear Modulus (GPa) = 12.69152 19.06534 15.87843
#
# Velocity S-wave (km/s) = 2.66401 3.26514 2.97977
# Velocity P-wave (km/s) = 4.87749 6.43153 5.70765
#
# Compressibility (1/GPa) = 0.03902979
#
# Stress axis : x y z
#
# Youngs Moduli (GPa) = 47.30807 18.77478 105.41663
#
# Poissons Ratio (x) = 0.20122 0.46668
# Poissons Ratio (y) = 0.50703 0.76786
# Poissons Ratio (z) = 0.20943 0.13676
#
# Static dielectric constant tensor:
#      x y z
#    x 3.103560 0.000000 0.000000 
#    y 0.000000 2.898170 0.000000 
#    z 0.000000 0.000000 3.931740 
# 
# 
# High freq. dielectric constant tensor:
#      x y z
#    x 1.659440 0.000000 0.000000 
#    y 0.000000 1.645610 0.000000 
#    z 0.000000 0.000000 1.721210 
# 
# From -- ./inp_files/23253.got.cif
#   From: 2010.03.12/outbox.cif.g09.slc.cpg/sg44_12_cif.got.tgz:23253.got - 2010.04.14 02:36:11.
