data_PCOD8188701
_publ_section_title
;
Structure prediction by ZEFSAII (Michael W. Deem and Ramdas Pophale) SiO2 
 PCOD8188701
Probable space group: I M M 2
;
_chemical_formula_sum "Si O2"
_cell_formula_units_Z 56
_cell_length_a 23.756971
_cell_length_b 9.025412
_cell_length_c 13.896157
_cell_angle_alpha 90.000000
_cell_angle_beta 90.000000
_cell_angle_gamma 90.000000
_cell_volume 2979.564669
_symmetry_space_group_name_H-M "I M M 2"
_symmetry_group_IT_number 44
_symmetry_cell_setting 'orthorhombic'
loop_
_space_group_symop_operation_xyz
x,y,z
-x,-y,z
-x,y,z
x,-y,z
1/2+x,1/2+y,1/2+z
1/2-x,1/2-y,1/2+z
1/2-x,1/2+y,1/2+z
1/2+x,1/2-y,1/2+z
loop_
_atom_site_type_symbol
_atom_site_label
_atom_site_fract_x
_atom_site_fract_y
_atom_site_fract_z
Si Si1 0.624622 0.175159 0.767410
Si Si2 0.332618 0.326061 0.052394
Si Si3 0.329413 0.674143 0.265594
Si Si4 0.271753 0.323990 0.862386
Si Si5 0.436926 0.671997 0.381783
Si Si6 0.563474 0.671884 0.932450
Si Si7 0.563578 0.826288 0.575299
O O1 0.683415 0.255747 0.788190
O O2 0.575915 0.229684 0.839175
O O3 0.605364 0.220648 0.660670
O O4 0.632564 0.000000 0.778383
O O5 0.330474 0.500000 0.065519
O O6 0.320168 0.259097 0.157952
O O7 0.287446 0.275226 0.971850
O O8 0.395103 0.278394 0.018357
O O9 0.315538 0.500000 0.271711
O O10 0.289341 0.760783 0.338963
O O11 0.393946 0.706817 0.295214
O O12 0.272832 0.500000 0.851971
O O13 0.500000 0.726255 0.352629
O O14 0.437611 0.500000 0.405961
O O15 0.414866 0.752139 0.477549
O O16 0.500000 0.699586 0.967415
O O17 0.574254 0.500000 0.905535
O O18 0.500000 0.773821 0.599789
O O19 0.565312 0.000000 0.559243
#
# Coordination Sequence:
#
# PCOD8188701 Si02
#       7
#     8   8   8   8   8   8   8
#     4  10  19  32  51  75 104 138 176 215 256 302
#     4   8  17  34  53  73 100 133 168 207 250 302
#     4  10  20  36  57  78 101 133 171 208 252 303
#     4  10  21  37  54  75 103 133 170 213 257 305
#     4   9  19  34  52  77 106 133 166 211 256 297
#     4   9  17  30  50  77 107 139 174 211 253 300
#     4   9  18  32  50  73 103 140 177 210 250 303
#
# _framework density 18.794691
#
# number of rings (size 3 to 8) (size 9 to 14) (size 15 to 20)
#    0.000    2.714    0.000    2.143    0.000    4.286 
#    0.000   12.143    0.000    0.000    0.000    4.000 
#    0.000    0.000    0.000    0.000    0.000    0.000 
#
# Total GULP energy -347133.316914 kJ/mol
# GULP energy per Si atom -12397.618461 kJ/mol
# Density = 1.875191 g / cm^3
# Si number density = 18.794691 Si / 1000 Ang^3
#
#
#
# Elastic Constant Matrix: (Units=GPa)
#
#
# Indices 1 2 3 4 5 6 
#
# 1 108.6943 32.5455 62.9654 0.0000 0.0000 0.0000
# 2 32.5455 42.6373 36.1119 0.0000 0.0000 0.0000
# 3 62.9654 36.1119 136.7808 0.0000 0.0000 0.0000
# 4 0.0000 0.0000 0.0000 22.8468 0.0000 0.0000
# 5 0.0000 0.0000 0.0000 0.0000 22.6540 0.0000
# 6 0.0000 0.0000 0.0000 0.0000 0.0000 29.3389
#
#
#
# Elastic Compliance Matrix: (Units=1/GPa)
#
#
# Indices 1 2 3 4 5 6 
#
# 1 0.013879 -0.006675 -0.004627 0.000000 0.000000 0.000000
# 2 -0.006675 0.033419 -0.005750 0.000000 0.000000 0.000000
# 3 -0.004627 -0.005750 0.010959 0.000000 0.000000 0.000000
# 4 0.000000 0.000000 0.000000 0.043770 0.000000 0.000000
# 5 0.000000 0.000000 0.000000 0.000000 0.044142 0.000000
# 6 0.000000 0.000000 0.000000 0.000000 0.000000 0.034084
#
#
# Mechanical properties :
#
#
# Convention : Reuss Voigt Hill
#
# Bulk Modulus (GPa) = 41.40326 61.26200 51.33263
# Shear Modulus (GPa) = 22.48109 25.40058 23.94083
#
# Velocity S-wave (km/s) = 3.46228 3.68023 3.57292
# Velocity P-wave (km/s) = 6.16930 7.12214 6.66278
#
# Compressibility (1/GPa) = 0.02415269
#
# Stress axis : x y z
#
# Youngs Moduli (GPa) = 72.05093 29.92288 91.24995
#
# Poissons Ratio (x) = 0.19975 0.42218
# Poissons Ratio (y) = 0.48097 0.52470
# Poissons Ratio (z) = 0.33336 0.17206
#
# Static dielectric constant tensor:
#      x y z
#    x 3.501360 0.000000 0.000000 
#    y 0.000000 3.291600 0.000000 
#    z 0.000000 0.000000 3.569490 
# 
# 
# High freq. dielectric constant tensor:
#      x y z
#    x 1.731770 0.000000 0.000000 
#    y 0.000000 1.711530 0.000000 
#    z 0.000000 0.000000 1.726540 
# 
# From -- ./inp_files/16455.got.cif
#   From: 2010.03.12/outbox.cif.g09.slc.cpg/sg44_9_cif.got.tgz:16455.got - 2010.04.14 02:36:11.
