data_PCOD8188358
_publ_section_title
;
Structure prediction by ZEFSAII (Michael W. Deem and Ramdas Pophale) SiO2 
 PCOD8188358
Probable space group: I M M 2
;
_chemical_formula_sum "Si O2"
_cell_formula_units_Z 64
_cell_length_a 30.526909
_cell_length_b 9.000879
_cell_length_c 11.890891
_cell_angle_alpha 90.000000
_cell_angle_beta 90.000000
_cell_angle_gamma 90.000000
_cell_volume 3267.248397
_symmetry_space_group_name_H-M "I M M 2"
_symmetry_group_IT_number 44
_symmetry_cell_setting 'orthorhombic'
loop_
_space_group_symop_operation_xyz
x,y,z
-x,-y,z
-x,y,z
x,-y,z
1/2+x,1/2+y,1/2+z
1/2-x,1/2-y,1/2+z
1/2-x,1/2+y,1/2+z
1/2+x,1/2-y,1/2+z
loop_
_atom_site_type_symbol
_atom_site_label
_atom_site_fract_x
_atom_site_fract_y
_atom_site_fract_z
Si Si1 0.624993 0.174066 0.173790
Si Si2 0.922840 0.171471 0.304943
Si Si3 0.165119 0.331008 0.301698
Si Si4 0.951160 0.169869 0.546103
Si Si5 0.548380 0.676741 0.565103
Si Si6 0.210159 0.330840 0.529516
Si Si7 0.799351 0.325054 0.062728
Si Si8 0.128872 0.823204 0.913499
O O1 0.581522 0.217401 0.105965
O O2 0.626217 0.267129 0.287257
O O3 0.623219 0.000000 0.201134
O O4 0.667359 0.215123 0.100085
O O5 0.876160 0.236235 0.337518
O O6 0.953709 0.200250 0.412010
O O7 0.942561 0.241941 0.190465
O O8 0.915919 0.000000 0.280554
O O9 0.149474 0.500000 0.291543
O O10 0.201735 0.313133 0.396936
O O11 0.183968 0.273226 0.184246
O O12 0.000000 0.196069 0.594229
O O13 0.935969 0.000000 0.568785
O O14 0.500000 0.732757 0.526529
O O15 0.548765 0.500000 0.567071
O O16 0.585808 0.735242 0.480298
O O17 0.223734 0.500000 0.558037
O O18 0.248780 0.219115 0.558711
O O19 0.803835 0.500000 0.043243
O O20 0.827188 0.240746 0.968608
O O21 0.131557 0.000000 0.914959
#
# Coordination Sequence:
#
# PCOD8188358 Si02
#       8
#     8   8   8   8   8   8   8   8
#     4  11  24  42  62  86 119 159 204 253 302 355
#     4  10  18  33  60  91 120 152 194 244 293 349
#     4  10  21  39  61  87 121 155 189 242 300 352
#     4  10  21  37  60  91 123 157 199 247 299 358
#     4   9  18  34  58  88 118 151 193 240 290 344
#     4  10  23  42  62  86 118 157 198 244 299 357
#     4  11  24  40  62  91 121 154 196 246 298 354
#     4  11  23  40  62  87 120 160 200 246 300 356
#
# _framework density 19.588349000000001
#
# number of rings (size 3 to 8) (size 9 to 14) (size 15 to 20)
#    0.000    1.750    2.500    1.500    1.750    4.250 
#    0.000    1.250    0.000    3.750    0.000    0.000 
#    0.000    0.000    0.000    0.000    0.000    0.000 
#
# Total GULP energy -396838.081863 kJ/mol
# GULP energy per Si atom -12401.190058 kJ/mol
# Density = 1.954376 g / cm^3
# Si number density = 19.588349 Si / 1000 Ang^3
#
#
#
# Elastic Constant Matrix: (Units=GPa)
#
#
# Indices 1 2 3 4 5 6 
#
# 1 121.5081 38.5826 33.0431 0.0000 0.0000 0.0000
# 2 38.5826 56.6829 33.2419 0.0000 0.0000 0.0000
# 3 33.0431 33.2419 91.1852 0.0000 0.0000 0.0000
# 4 0.0000 0.0000 0.0000 27.6572 0.0000 0.0000
# 5 0.0000 0.0000 0.0000 0.0000 22.7152 0.0000
# 6 0.0000 0.0000 0.0000 0.0000 0.0000 28.9220
#
#
#
# Elastic Compliance Matrix: (Units=1/GPa)
#
#
# Indices 1 2 3 4 5 6 
#
# 1 0.010669 -0.006353 -0.001550 0.000000 0.000000 0.000000
# 2 -0.006353 0.026222 -0.007257 0.000000 0.000000 0.000000
# 3 -0.001550 -0.007257 0.014174 0.000000 0.000000 0.000000
# 4 0.000000 0.000000 0.000000 0.036157 0.000000 0.000000
# 5 0.000000 0.000000 0.000000 0.000000 0.044023 0.000000
# 6 0.000000 0.000000 0.000000 0.000000 0.000000 0.034576
#
#
# Mechanical properties :
#
#
# Convention : Reuss Voigt Hill
#
# Bulk Modulus (GPa) = 48.20546 53.23459 50.72003
# Shear Modulus (GPa) = 24.62371 26.82614 25.72492
#
# Velocity S-wave (km/s) = 3.54935 3.70468 3.62785
# Velocity P-wave (km/s) = 6.43893 6.74798 6.59527
#
# Compressibility (1/GPa) = 0.02074454
#
# Stress axis : x y z
#
# Youngs Moduli (GPa) = 93.73252 38.13549 70.55123
#
# Poissons Ratio (x) = 0.24227 0.10936
# Poissons Ratio (y) = 0.59546 0.51201
# Poissons Ratio (z) = 0.14529 0.27676
#
# Static dielectric constant tensor:
#      x y z
#    x 3.663220 0.000000 0.000000 
#    y 0.000000 3.390190 0.000000 
#    z 0.000000 0.000000 3.712820 
# 
# 
# High freq. dielectric constant tensor:
#      x y z
#    x 1.769860 0.000000 0.000000 
#    y 0.000000 1.746450 0.000000 
#    z 0.000000 0.000000 1.771870 
# 
# From -- ./inp_files/11438.got.cif
#   From: 2010.03.12/outbox.cif.g09.slc.cpg/sg44_6_cif.got.tgz:11438.got - 2010.04.14 02:36:11.
