data_PCOD8188894
_publ_section_title
;
Structure prediction by ZEFSAII (Michael W. Deem and Ramdas Pophale) SiO2 
 PCOD8188894
Probable space group: I M M 2
;
_chemical_formula_sum "Si O2"
_cell_formula_units_Z 56
_cell_length_a 9.346014
_cell_length_b 17.368598
_cell_length_c 18.515727
_cell_angle_alpha 90.000000
_cell_angle_beta 90.000000
_cell_angle_gamma 90.000000
_cell_volume 3005.605381
_symmetry_space_group_name_H-M "I M M 2"
_symmetry_group_IT_number 44
_symmetry_cell_setting 'orthorhombic'
loop_
_space_group_symop_operation_xyz
x,y,z
-x,-y,z
-x,y,z
x,-y,z
1/2+x,1/2+y,1/2+z
1/2-x,1/2-y,1/2+z
1/2-x,1/2+y,1/2+z
1/2+x,1/2-y,1/2+z
loop_
_atom_site_type_symbol
_atom_site_label
_atom_site_fract_x
_atom_site_fract_y
_atom_site_fract_z
Si Si1 0.834091 0.713915 0.339980
Si Si2 0.330215 0.085740 0.566113
Si Si3 0.830694 0.351072 0.913700
Si Si4 0.338476 0.500000 0.682272
Si Si5 0.331304 0.000000 0.326499
Si Si6 0.170029 0.291189 0.177017
Si Si7 0.165900 0.852946 0.085706
Si Si8 0.834990 0.587777 0.452763
O O1 0.747394 0.775628 0.385821
O O2 0.770493 0.710450 0.258694
O O3 0.814957 0.629714 0.375663
O O4 0.000000 0.738719 0.339243
O O5 0.500000 0.078463 0.564578
O O6 0.281930 0.133729 0.495905
O O7 0.277674 0.130827 0.637517
O O8 0.262578 0.000000 0.566430
O O9 0.778060 0.424238 0.867768
O O10 0.000000 0.338395 0.907491
O O11 0.500000 0.500000 0.712438
O O12 0.229681 0.500000 0.747082
O O13 0.307403 0.573170 0.633958
O O14 0.500000 0.000000 0.321532
O O15 0.227814 0.219017 0.130801
O O16 0.000000 0.287908 0.179609
O O17 0.000000 0.840696 0.066289
O O18 0.249006 0.862725 0.011155
O O19 0.777258 0.500000 0.446346
O O20 0.000000 0.587445 0.476312
#
# Coordination Sequence:
#
# PCOD8188894 Si02
#       8
#     8   8   8   4   4   8   8   8
#     4  10  21  36  53  77 108 140 175 216 265 318
#     4   9  16  29  51  77 102 130 169 216 259 301
#     4  10  19  34  54  78 107 137 174 217 261 313
#     4  10  20  32  50  76 107 140 174 216 263 314
#     4  10  20  32  50  78 111 142 172 212 265 322
#     4   9  18  31  50  75 102 133 170 215 260 302
#     4  10  19  34  54  77 103 134 176 219 259 309
#     4  10  21  36  54  77 107 141 175 216 266 318
#
# _framework density 18.631854000000001
#
# number of rings (size 3 to 8) (size 9 to 14) (size 15 to 20)
#    0.000    2.286    1.429    1.714    0.000    4.571 
#    0.000    3.571    0.000    0.857    0.000    0.000 
#    0.000    0.000    0.000    0.000    0.000    0.000 
#
# Total GULP energy -347195.184379 kJ/mol
# GULP energy per Si atom -12399.828014 kJ/mol
# Density = 1.858945 g / cm^3
# Si number density = 18.631854 Si / 1000 Ang^3
#
#
#
# Elastic Constant Matrix: (Units=GPa)
#
#
# Indices 1 2 3 4 5 6 
#
# 1 22.4275 25.9911 25.6626 0.0000 0.0000 0.0000
# 2 25.9911 129.7354 77.6488 0.0000 0.0000 0.0000
# 3 25.6626 77.6488 131.0610 0.0000 0.0000 0.0000
# 4 0.0000 0.0000 0.0000 49.5582 0.0000 0.0000
# 5 0.0000 0.0000 0.0000 0.0000 26.0319 0.0000
# 6 0.0000 0.0000 0.0000 0.0000 0.0000 47.9128
#
#
#
# Elastic Compliance Matrix: (Units=1/GPa)
#
#
# Indices 1 2 3 4 5 6 
#
# 1 0.062449 -0.008045 -0.007461 0.000000 0.000000 0.000000
# 2 -0.008045 0.012979 -0.006115 0.000000 0.000000 0.000000
# 3 -0.007461 -0.006115 0.012714 0.000000 0.000000 0.000000
# 4 0.000000 0.000000 0.000000 0.020178 0.000000 0.000000
# 5 0.000000 0.000000 0.000000 0.000000 0.038414 0.000000
# 6 0.000000 0.000000 0.000000 0.000000 0.000000 0.020871
#
#
# Mechanical properties :
#
#
# Convention : Reuss Voigt Hill
#
# Bulk Modulus (GPa) = 22.27171 60.20321 41.23746
# Shear Modulus (GPa) = 22.14196 34.96202 28.55199
#
# Velocity S-wave (km/s) = 3.45105 4.33652 3.91887
# Velocity P-wave (km/s) = 5.27818 7.57997 6.53128
#
# Compressibility (1/GPa) = 0.04490001
#
# Stress axis : x y z
#
# Youngs Moduli (GPa) = 16.01296 77.04507 78.65559
#
# Poissons Ratio (x) = 0.61985 0.58689
# Poissons Ratio (y) = 0.12883 0.48094
# Poissons Ratio (z) = 0.11948 0.47109
#
# Static dielectric constant tensor:
#      x y z
#    x 3.051710 0.000000 0.000000 
#    y 0.000000 3.618280 0.000000 
#    z 0.000000 0.000000 3.568290 
# 
# 
# High freq. dielectric constant tensor:
#      x y z
#    x 1.678510 0.000000 0.000000 
#    y 0.000000 1.739030 0.000000 
#    z 0.000000 0.000000 1.732950 
# 
# From -- ./inp_files/23139.got.cif
#   From: 2010.03.12/outbox.cif.g09.slc.cpg/sg44_12_cif.got.tgz:23139.got - 2010.04.14 02:36:11.
