data_PCOD8188357
_publ_section_title
;
Structure prediction by ZEFSAII (Michael W. Deem and Ramdas Pophale) SiO2 
 PCOD8188357
Probable space group: I M M 2
;
_chemical_formula_sum "Si O2"
_cell_formula_units_Z 64
_cell_length_a 30.850815
_cell_length_b 8.820804
_cell_length_c 12.139070
_cell_angle_alpha 90.000000
_cell_angle_beta 90.000000
_cell_angle_gamma 90.000000
_cell_volume 3303.392887
_symmetry_space_group_name_H-M "I M M 2"
_symmetry_group_IT_number 44
_symmetry_cell_setting 'orthorhombic'
loop_
_space_group_symop_operation_xyz
x,y,z
-x,-y,z
-x,y,z
x,-y,z
1/2+x,1/2+y,1/2+z
1/2-x,1/2-y,1/2+z
1/2-x,1/2+y,1/2+z
1/2+x,1/2-y,1/2+z
loop_
_atom_site_type_symbol
_atom_site_label
_atom_site_fract_x
_atom_site_fract_y
_atom_site_fract_z
Si Si1 0.376571 0.180051 0.237410
Si Si2 0.071184 0.169923 0.116080
Si Si3 0.873070 0.180667 0.497516
Si Si4 0.450425 0.323475 0.378578
Si Si5 0.326975 0.670642 0.612456
Si Si6 0.547977 0.679026 0.849994
Si Si7 0.199831 0.321695 0.893590
Si Si8 0.705173 0.680334 0.845335
O O1 0.372332 0.245774 0.116416
O O2 0.421131 0.234933 0.291816
O O3 0.335648 0.242758 0.307849
O O4 0.376811 0.000000 0.232710
O O5 0.122202 0.170625 0.128234
O O6 0.052436 0.250155 0.226450
O O7 0.052365 0.000000 0.110701
O O8 0.056498 0.248092 0.001327
O O9 0.915665 0.242525 0.433003
O O10 0.830320 0.238491 0.433124
O O11 0.874208 0.000000 0.509310
O O12 0.500000 0.301970 0.341734
O O13 0.436610 0.500000 0.377521
O O14 0.310448 0.500000 0.587117
O O15 0.313795 0.782325 0.516221
O O16 0.306308 0.737514 0.723458
O O17 0.500000 0.717811 0.896353
O O18 0.555544 0.500000 0.839077
O O19 0.202149 0.500000 0.880503
O O20 0.247459 0.251868 0.872278
O O21 0.704532 0.500000 0.847467
#
# Coordination Sequence:
#
# PCOD8188357 Si02
#       8
#     8   8   8   8   8   8   8   8
#     4  11  24  39  54  76 111 151 185 223 274 330
#     4   9  15  28  52  84 113 133 163 216 274 320
#     4  10  20  36  57  79 106 142 184 228 272 321
#     4  10  20  35  58  86 111 139 181 229 271 320
#     4  10  18  33  60  85 107 138 179 225 274 326
#     4   9  16  28  51  83 111 133 164 213 273 326
#     4  10  22  38  54  77 111 147 183 224 273 328
#     4   9  19  36  57  81 109 142 181 230 280 325
#
# _framework density 19.374020000000002
#
# number of rings (size 3 to 8) (size 9 to 14) (size 15 to 20)
#    0.000    2.250    2.500    0.750    1.750    2.750 
#    0.000    2.500    0.000    0.750    0.000    0.000 
#    0.000    0.000    0.000    0.000    0.000    0.000 
#
# Total GULP energy -396714.796435 kJ/mol
# GULP energy per Si atom -12397.337389 kJ/mol
# Density = 1.932992 g / cm^3
# Si number density = 19.374020 Si / 1000 Ang^3
#
#
#
# Elastic Constant Matrix: (Units=GPa)
#
#
# Indices 1 2 3 4 5 6 
#
# 1 141.8933 22.2125 71.9722 0.0000 0.0000 0.0000
# 2 22.2125 20.2195 20.7937 0.0000 0.0000 0.0000
# 3 71.9722 20.7937 161.4071 0.0000 0.0000 0.0000
# 4 0.0000 0.0000 0.0000 12.0048 0.0000 0.0000
# 5 0.0000 0.0000 0.0000 0.0000 53.3000 0.0000
# 6 0.0000 0.0000 0.0000 0.0000 0.0000 10.0489
#
#
#
# Elastic Compliance Matrix: (Units=1/GPa)
#
#
# Indices 1 2 3 4 5 6 
#
# 1 0.009975 -0.007359 -0.003500 0.000000 0.000000 0.000000
# 2 -0.007359 0.062439 -0.004763 0.000000 0.000000 0.000000
# 3 -0.003500 -0.004763 0.008370 0.000000 0.000000 0.000000
# 4 0.000000 0.000000 0.000000 0.083300 0.000000 0.000000
# 5 0.000000 0.000000 0.000000 0.000000 0.018762 0.000000
# 6 0.000000 0.000000 0.000000 0.000000 0.000000 0.099513
#
#
# Mechanical properties :
#
#
# Convention : Reuss Voigt Hill
#
# Bulk Modulus (GPa) = 20.18518 61.49742 40.84130
# Shear Modulus (GPa) = 15.14626 28.97350 22.05988
#
# Velocity S-wave (km/s) = 2.79907 3.87134 3.37802
# Velocity P-wave (km/s) = 4.57031 7.19682 6.02834
#
# Compressibility (1/GPa) = 0.04954129
#
# Stress axis : x y z
#
# Youngs Moduli (GPa) = 100.25374 16.01559 119.47974
#
# Poissons Ratio (x) = 0.11785 0.41815
# Poissons Ratio (y) = 0.73774 0.56903
# Poissons Ratio (z) = 0.35086 0.07628
#
# Static dielectric constant tensor:
#      x y z
#    x 3.767070 0.000000 0.000000 
#    y 0.000000 3.035050 0.000000 
#    z 0.000000 0.000000 3.646240 
# 
# 
# High freq. dielectric constant tensor:
#      x y z
#    x 1.770700 0.000000 0.000000 
#    y 0.000000 1.696410 0.000000 
#    z 0.000000 0.000000 1.765580 
# 
# From -- ./inp_files/11424.got.cif
#   From: 2010.03.12/outbox.cif.g09.slc.cpg/sg44_6_cif.got.tgz:11424.got - 2010.04.14 02:36:11.
