data_PCOD8188568
_publ_section_title
;
Structure prediction by ZEFSAII (Michael W. Deem and Ramdas Pophale) SiO2 
 PCOD8188568
Probable space group: I M M 2
;
_chemical_formula_sum "Si O2"
_cell_formula_units_Z 56
_cell_length_a 18.584816
_cell_length_b 8.538484
_cell_length_c 20.874884
_cell_angle_alpha 90.000000
_cell_angle_beta 90.000000
_cell_angle_gamma 90.000000
_cell_volume 3312.555058
_symmetry_space_group_name_H-M "I M M 2"
_symmetry_group_IT_number 44
_symmetry_cell_setting 'orthorhombic'
loop_
_space_group_symop_operation_xyz
x,y,z
-x,-y,z
-x,y,z
x,-y,z
1/2+x,1/2+y,1/2+z
1/2-x,1/2-y,1/2+z
1/2-x,1/2+y,1/2+z
1/2+x,1/2-y,1/2+z
loop_
_atom_site_type_symbol
_atom_site_label
_atom_site_fract_x
_atom_site_fract_y
_atom_site_fract_z
Si Si1 0.717009 0.680920 0.127230
Si Si2 0.417320 0.181940 0.812283
Si Si3 0.779312 0.182691 0.001694
Si Si4 0.842550 0.183276 0.434393
Si Si5 0.846842 0.182549 0.188628
Si Si6 0.920655 0.185742 0.561650
Si Si7 0.578417 0.683277 0.558042
O O1 0.724337 0.500000 0.146764
O O2 0.747641 0.706377 0.056405
O O3 0.761370 0.783535 0.178751
O O4 0.632653 0.732212 0.120759
O O5 0.500000 0.234659 0.805334
O O6 0.381065 0.280263 0.868290
O O7 0.376195 0.217007 0.746915
O O8 0.410801 0.000000 0.828716
O O9 0.865521 0.219449 0.999811
O O10 0.767946 0.000000 0.018925
O O11 0.736097 0.230048 0.937287
O O12 0.891561 0.247809 0.493005
O O13 0.828838 0.000000 0.439279
O O14 0.888896 0.242597 0.125479
O O15 0.858406 0.000000 0.202526
O O16 0.000000 0.257571 0.574425
O O17 0.924973 0.000000 0.557044
O O18 0.500000 0.762058 0.544937
O O19 0.567592 0.500000 0.564678
#
# Coordination Sequence:
#
# PCOD8188568 Si02
#       7
#     8   8   8   8   8   8   8
#     4   9  16  27  44  65  90 119 152 191 231 272
#     4  11  23  35  47  67  94 121 152 191 229 266
#     4   9  16  27  44  65  90 119 152 191 231 272
#     4  10  19  31  47  65  90 125 159 188 221 269
#     4  10  19  31  47  65  90 125 159 188 221 269
#     4   8  14  25  43  67  91 116 148 185 224 266
#     4   8  14  25  43  67  91 116 148 185 224 266
#
# _framework density 16.905380999999998
#
# number of rings (size 3 to 8) (size 9 to 14) (size 15 to 20)
#    0.000    2.714    0.000    4.714    0.000    2.286 
#    0.000    0.000    0.000   17.143    0.000    1.000 
#    0.000    8.000    0.000    0.000    0.000    0.000 
#
# Total GULP energy -346923.307799 kJ/mol
# GULP energy per Si atom -12390.118136 kJ/mol
# Density = 1.686690 g / cm^3
# Si number density = 16.905381 Si / 1000 Ang^3
#
#
#
# Elastic Constant Matrix: (Units=GPa)
#
#
# Indices 1 2 3 4 5 6 
#
# 1 158.4032 23.9446 52.9219 0.0000 0.0000 0.0000
# 2 23.9446 36.3017 8.0504 0.0000 0.0000 0.0000
# 3 52.9219 8.0504 54.0278 0.0000 0.0000 0.0000
# 4 0.0000 0.0000 0.0000 21.5513 0.0000 0.0000
# 5 0.0000 0.0000 0.0000 0.0000 26.6449 0.0000
# 6 0.0000 0.0000 0.0000 0.0000 0.0000 18.7794
#
#
#
# Elastic Compliance Matrix: (Units=1/GPa)
#
#
# Indices 1 2 3 4 5 6 
#
# 1 0.010079 -0.004611 -0.009185 0.000000 0.000000 0.000000
# 2 -0.004611 0.030598 -0.000043 0.000000 0.000000 0.000000
# 3 -0.009185 -0.000043 0.027513 0.000000 0.000000 0.000000
# 4 0.000000 0.000000 0.000000 0.046401 0.000000 0.000000
# 5 0.000000 0.000000 0.000000 0.000000 0.037531 0.000000
# 6 0.000000 0.000000 0.000000 0.000000 0.000000 0.053250
#
#
# Mechanical properties :
#
#
# Convention : Reuss Voigt Hill
#
# Bulk Modulus (GPa) = 24.68449 46.50739 35.59594
# Shear Modulus (GPa) = 20.27963 24.31617 22.29790
#
# Velocity S-wave (km/s) = 3.46728 3.79670 3.63572
# Velocity P-wave (km/s) = 5.53738 6.84032 6.22305
#
# Compressibility (1/GPa) = 0.04051127
#
# Stress axis : x y z
#
# Youngs Moduli (GPa) = 99.21771 32.68213 36.34673
#
# Poissons Ratio (x) = 0.15070 0.33386
# Poissons Ratio (y) = 0.45749 0.00155
# Poissons Ratio (z) = 0.91136 0.00139
#
# Static dielectric constant tensor:
#      x y z
#    x 3.850240 0.000000 0.000000 
#    y 0.000000 2.983690 0.000000 
#    z 0.000000 0.000000 2.859710 
# 
# 
# High freq. dielectric constant tensor:
#      x y z
#    x 1.663310 0.000000 0.000000 
#    y 0.000000 1.641950 0.000000 
#    z 0.000000 0.000000 1.603310 
# 
# From -- ./inp_files/22258.got.cif
#   From: 2010.03.12/outbox.cif.g09.slc.cpg/sg44_12_cif.got.tgz:22258.got - 2010.04.14 02:36:11.
