data_PCOD8188317
_publ_section_title
;
Structure prediction by ZEFSAII (Michael W. Deem and Ramdas Pophale) SiO2 
 PCOD8188317
Probable space group: I M M 2
;
_chemical_formula_sum "Si O2"
_cell_formula_units_Z 48
_cell_length_a 8.196276
_cell_length_b 10.087781
_cell_length_c 28.069036
_cell_angle_alpha 90.000000
_cell_angle_beta 90.000000
_cell_angle_gamma 90.000000
_cell_volume 2320.810695
_symmetry_space_group_name_H-M "I M M 2"
_symmetry_group_IT_number 44
_symmetry_cell_setting 'orthorhombic'
loop_
_space_group_symop_operation_xyz
x,y,z
-x,-y,z
-x,y,z
x,-y,z
1/2+x,1/2+y,1/2+z
1/2-x,1/2-y,1/2+z
1/2-x,1/2+y,1/2+z
1/2+x,1/2-y,1/2+z
loop_
_atom_site_type_symbol
_atom_site_label
_atom_site_fract_x
_atom_site_fract_y
_atom_site_fract_z
Si Si1 0.810905 0.000000 0.350940
Si Si2 0.695154 0.348538 0.017791
Si Si3 0.195517 0.500000 0.362354
Si Si4 0.808840 0.244489 0.416338
Si Si5 0.188889 0.245298 0.196961
Si Si6 0.305747 0.000000 0.753650
Si Si7 0.813502 0.500000 0.750314
Si Si8 0.310327 0.850237 0.097857
O O1 0.766344 0.126255 0.381578
O O2 0.689286 0.000000 0.306900
O O3 0.000000 0.000000 0.334682
O O4 0.500000 0.351462 0.017596
O O5 0.758876 0.500000 0.025489
O O6 0.764910 0.249868 0.058556
O O7 0.764819 0.288906 0.968259
O O8 0.265575 0.624802 0.391813
O O9 0.263264 0.500000 0.307879
O O10 0.000000 0.500000 0.360366
O O11 0.000000 0.264155 0.422678
O O12 0.258810 0.373763 0.224145
O O13 0.285823 0.218008 0.148707
O O14 0.000000 0.262475 0.184105
O O15 0.214299 0.125865 0.232840
O O16 0.500000 0.000000 0.756224
O O17 0.000000 0.500000 0.731529
O O18 0.500000 0.865046 0.087722
O O19 0.232454 0.000000 0.095883
#
# Coordination Sequence:
#
# PCOD8188317 Si02
#       8
#     4   8   4   8   8   4   4   8
#     4  10  18  32  55  80 106 143 187 232 279 328
#     4   9  17  30  48  76 112 147 184 227 277 331
#     4   9  16  26  43  71 108 139 167 217 280 325
#     4   9  16  27  48  78 109 140 181 229 274 324
#     4  11  22  39  61  82 111 149 190 237 285 339
#     4   9  20  36  54  83 115 143 184 233 280 333
#     4  12  24  38  57  84 115 147 188 236 289 352
#     4  10  21  35  53  80 115 147 184 233 285 338
#
# _framework density 20.682427000000001
#
# number of rings (size 3 to 8) (size 9 to 14) (size 15 to 20)
#    0.000    2.167    1.667    2.250    2.333    2.667 
#    0.000    1.250    0.000    1.000    0.000    0.000 
#    0.000    0.000    0.000    0.000    0.000    0.000 
#
# Total GULP energy -297525.772497 kJ/mol
# GULP energy per Si atom -12396.907187 kJ/mol
# Density = 2.063535 g / cm^3
# Si number density = 20.682427 Si / 1000 Ang^3
#
#
#
# Elastic Constant Matrix: (Units=GPa)
#
#
# Indices 1 2 3 4 5 6 
#
# 1 12.5892 4.0404 0.8382 0.0000 0.0000 0.0000
# 2 4.0404 213.0312 102.7538 0.0000 0.0000 0.0000
# 3 0.8382 102.7538 176.1562 0.0000 0.0000 0.0000
# 4 0.0000 0.0000 0.0000 62.1372 0.0000 0.0000
# 5 0.0000 0.0000 0.0000 0.0000 21.2288 0.0000
# 6 0.0000 0.0000 0.0000 0.0000 0.0000 19.2687
#
#
#
# Elastic Compliance Matrix: (Units=1/GPa)
#
#
# Indices 1 2 3 4 5 6 
#
# 1 0.079982 -0.001855 0.000702 0.000000 0.000000 0.000000
# 2 -0.001855 0.006575 -0.003826 0.000000 0.000000 0.000000
# 3 0.000702 -0.003826 0.007905 0.000000 0.000000 0.000000
# 4 0.000000 0.000000 0.000000 0.016093 0.000000 0.000000
# 5 0.000000 0.000000 0.000000 0.000000 0.047106 0.000000
# 6 0.000000 0.000000 0.000000 0.000000 0.000000 0.051898
#
#
# Mechanical properties :
#
#
# Convention : Reuss Voigt Hill
#
# Bulk Modulus (GPa) = 11.83403 68.56018 40.19710
# Shear Modulus (GPa) = 20.18677 40.13656 30.16166
#
# Velocity S-wave (km/s) = 3.12755 4.41002 3.82294
# Velocity P-wave (km/s) = 4.33316 7.69103 6.24212
#
# Compressibility (1/GPa) = 0.08450209
#
# Stress axis : x y z
#
# Youngs Moduli (GPa) = 12.50282 152.09157 126.49517
#
# Poissons Ratio (x) = 0.28219 -0.08876
# Poissons Ratio (y) = 0.02320 0.48403
# Poissons Ratio (z) = -0.00877 0.58197
#
# Static dielectric constant tensor:
#      x y z
#    x 3.054620 0.000000 0.000000 
#    y 0.000000 4.110750 0.000000 
#    z 0.000000 0.000000 3.909760 
# 
# 
# High freq. dielectric constant tensor:
#      x y z
#    x 1.747390 0.000000 0.000000 
#    y 0.000000 1.827450 0.000000 
#    z 0.000000 0.000000 1.823320 
# 
# From -- ./inp_files/27045.got.cif
#   From: 2010.03.12/outbox.cif.g09.slc.cpg/sg44_14_cif.got.tgz:27045.got - 2010.04.14 02:36:11.
