data_PCOD8188235
_publ_section_title
;
Structure prediction by ZEFSAII (Michael W. Deem and Ramdas Pophale) SiO2 
 PCOD8188235
Probable space group: I M M 2
;
_chemical_formula_sum "Si O2"
_cell_formula_units_Z 64
_cell_length_a 23.442334
_cell_length_b 8.871905
_cell_length_c 18.834253
_cell_angle_alpha 90.000000
_cell_angle_beta 90.000000
_cell_angle_gamma 90.000000
_cell_volume 3917.113288
_symmetry_space_group_name_H-M "I M M 2"
_symmetry_group_IT_number 44
_symmetry_cell_setting 'orthorhombic'
loop_
_space_group_symop_operation_xyz
x,y,z
-x,-y,z
-x,y,z
x,-y,z
1/2+x,1/2+y,1/2+z
1/2-x,1/2-y,1/2+z
1/2-x,1/2+y,1/2+z
1/2+x,1/2-y,1/2+z
loop_
_atom_site_type_symbol
_atom_site_label
_atom_site_fract_x
_atom_site_fract_y
_atom_site_fract_z
Si Si1 0.230737 0.677783 0.742890
Si Si2 0.123950 0.176510 0.385779
Si Si3 0.771492 0.328280 0.025205
Si Si4 0.165276 0.676396 0.164335
Si Si5 0.253225 0.177096 0.884188
Si Si6 0.063208 0.821039 0.527345
Si Si7 0.565318 0.324678 0.737839
Si Si8 0.664359 0.325871 0.122762
O O1 0.233463 0.500000 0.748482
O O2 0.291807 0.735760 0.715777
O O3 0.218247 0.746781 0.820081
O O4 0.179639 0.726115 0.690844
O O5 0.182115 0.267344 0.382512
O O6 0.087993 0.237011 0.452687
O O7 0.086303 0.211254 0.316952
O O8 0.138815 0.000000 0.392844
O O9 0.777333 0.500000 0.999362
O O10 0.820542 0.287270 0.082224
O O11 0.709903 0.301838 0.060287
O O12 0.777895 0.220735 0.957567
O O13 0.173368 0.500000 0.179510
O O14 0.101266 0.729541 0.180556
O O15 0.251522 0.000000 0.874360
O O16 0.103466 0.770445 0.592642
O O17 0.000000 0.753123 0.539289
O O18 0.060747 0.000000 0.524328
O O19 0.500000 0.273175 0.731070
O O20 0.572572 0.500000 0.720149
O O21 0.663637 0.500000 0.146444
#
# Coordination Sequence:
#
# PCOD8188235 Si02
#       8
#     8   8   8   8   8   8   8   8
#     4  11  21  33  50  69  95 130 165 202 250 300
#     4  10  18  31  47  68 100 137 173 203 234 279
#     4   9  18  33  50  69  96 129 162 200 249 299
#     4  10  20  34  51  72  97 128 165 207 250 292
#     4  12  22  31  48  74 100 128 164 204 249 296
#     4   9  16  28  49  73  98 133 172 203 235 280
#     4  10  20  32  49  73 101 137 176 207 238 285
#     4   9  17  31  49  72  99 126 163 206 243 284
#
# _framework density 16.338563000000001
#
# number of rings (size 3 to 8) (size 9 to 14) (size 15 to 20)
#    0.000    2.000    2.500    3.750    0.000    4.250 
#    0.000    0.000    0.000    2.250    0.000    0.875 
#    0.000    5.000    0.000    0.000    0.000    0.000 
#
# Total GULP energy -396845.919789 kJ/mol
# GULP energy per Si atom -12401.434993 kJ/mol
# Density = 1.630138 g / cm^3
# Si number density = 16.338563 Si / 1000 Ang^3
#
#
#
# Elastic Constant Matrix: (Units=GPa)
#
#
# Indices 1 2 3 4 5 6 
#
# 1 92.5217 35.6715 59.7478 0.0000 0.0000 0.0000
# 2 35.6715 91.5796 58.4381 0.0000 0.0000 0.0000
# 3 59.7478 58.4381 116.9060 0.0000 0.0000 0.0000
# 4 0.0000 0.0000 0.0000 26.4099 0.0000 0.0000
# 5 0.0000 0.0000 0.0000 0.0000 23.6657 0.0000
# 6 0.0000 0.0000 0.0000 0.0000 0.0000 20.0068
#
#
#
# Elastic Compliance Matrix: (Units=1/GPa)
#
#
# Indices 1 2 3 4 5 6 
#
# 1 0.016275 -0.001515 -0.007560 0.000000 0.000000 0.000000
# 2 -0.001515 0.016175 -0.007311 0.000000 0.000000 0.000000
# 3 -0.007560 -0.007311 0.016072 0.000000 0.000000 0.000000
# 4 0.000000 0.000000 0.000000 0.037865 0.000000 0.000000
# 5 0.000000 0.000000 0.000000 0.000000 0.042255 0.000000
# 6 0.000000 0.000000 0.000000 0.000000 0.000000 0.049983
#
#
# Mechanical properties :
#
#
# Convention : Reuss Voigt Hill
#
# Bulk Modulus (GPa) = 63.49524 67.63579 65.56552
# Shear Modulus (GPa) = 23.07902 23.82647 23.45275
#
# Velocity S-wave (km/s) = 3.76247 3.82291 3.79281
# Velocity P-wave (km/s) = 7.60404 7.80849 7.70694
#
# Compressibility (1/GPa) = 0.01574921
#
# Stress axis : x y z
#
# Youngs Moduli (GPa) = 61.44564 61.82428 62.21834
#
# Poissons Ratio (x) = 0.09365 0.47039
# Poissons Ratio (y) = 0.09308 0.45489
# Poissons Ratio (z) = 0.46455 0.45201
#
# Static dielectric constant tensor:
#      x y z
#    x 3.079900 0.000000 0.000000 
#    y 0.000000 2.949000 0.000000 
#    z 0.000000 0.000000 3.202360 
# 
# 
# High freq. dielectric constant tensor:
#      x y z
#    x 1.603750 0.000000 0.000000 
#    y 0.000000 1.619770 0.000000 
#    z 0.000000 0.000000 1.627460 
# 
# From -- ./inp_files/20885.got.cif
#   From: 2010.03.12/outbox.cif.g09.slc.cpg/sg44_11_cif.got.tgz:20885.got - 2010.04.14 02:36:11.
