data_PCOD8188661
_publ_section_title
;
Structure prediction by ZEFSAII (Michael W. Deem and Ramdas Pophale) SiO2 
 PCOD8188661
Probable space group: I M M 2
;
_chemical_formula_sum "Si O2"
_cell_formula_units_Z 64
_cell_length_a 9.048058
_cell_length_b 28.909906
_cell_length_c 12.719845
_cell_angle_alpha 90.000000
_cell_angle_beta 90.000000
_cell_angle_gamma 90.000000
_cell_volume 3327.238055
_symmetry_space_group_name_H-M "I M M 2"
_symmetry_group_IT_number 44
_symmetry_cell_setting 'orthorhombic'
loop_
_space_group_symop_operation_xyz
x,y,z
-x,-y,z
-x,y,z
x,-y,z
1/2+x,1/2+y,1/2+z
1/2-x,1/2-y,1/2+z
1/2-x,1/2+y,1/2+z
1/2+x,1/2-y,1/2+z
loop_
_atom_site_type_symbol
_atom_site_label
_atom_site_fract_x
_atom_site_fract_y
_atom_site_fract_z
Si Si1 0.823844 0.390985 0.868910
Si Si2 0.162240 0.178839 0.063913
Si Si3 0.164814 0.075852 0.982759
Si Si4 0.825929 0.298897 0.769395
Si Si5 0.164259 0.449327 0.677101
Si Si6 0.675679 0.894671 0.781033
Si Si7 0.824544 0.553004 0.069612
Si Si8 0.325388 0.699955 0.335497
O O1 0.772918 0.337126 0.856356
O O2 0.761726 0.416472 0.764680
O O3 0.000000 0.395122 0.870633
O O4 0.759793 0.416051 0.972974
O O5 0.157201 0.126234 0.030739
O O6 0.282564 0.185907 0.152943
O O7 0.000000 0.194809 0.104106
O O8 0.208611 0.206254 0.959143
O O9 0.241363 0.045032 0.071226
O O10 0.000000 0.057200 0.958246
O O11 0.259982 0.074990 0.876377
O O12 0.761568 0.247765 0.788552
O O13 0.000000 0.295949 0.775380
O O14 0.154448 0.500000 0.728800
O O15 0.000000 0.430971 0.647829
O O16 0.500000 0.891616 0.791192
O O17 0.725768 0.921118 0.675563
O O18 0.740593 0.842710 0.781485
O O19 0.763209 0.500000 0.066005
O O20 0.000000 0.551417 0.063272
O O21 0.500000 0.691960 0.316647
#
# Coordination Sequence:
#
# PCOD8188661 Si02
#       8
#     8   8   8   8   8   8   8   8
#     4   9  17  31  52  79 110 142 177 223 277 330
#     4   9  18  33  51  71 102 139 173 216 271 325
#     4  10  20  35  54  75 105 143 177 219 278 335
#     4  10  19  32  54  80 106 140 184 226 270 326
#     4  10  19  31  52  82 110 136 174 224 270 322
#     4  10  20  34  56  82 108 141 186 233 272 324
#     4   9  18  33  54  81 112 144 179 226 283 333
#     4   9  20  36  52  76 110 148 183 224 279 334
#
# _framework density 19.235175000000002
#
# number of rings (size 3 to 8) (size 9 to 14) (size 15 to 20)
#    0.000    2.500    1.250    1.875    0.000    5.750 
#    0.000    3.750    0.000    4.125    0.000    0.000 
#    0.000    0.000    0.000    0.000    0.000    0.000 
#
# Total GULP energy -396588.861248 kJ/mol
# GULP energy per Si atom -12393.401914 kJ/mol
# Density = 1.919139 g / cm^3
# Si number density = 19.235175 Si / 1000 Ang^3
#
#
#
# Elastic Constant Matrix: (Units=GPa)
#
#
# Indices 1 2 3 4 5 6 
#
# 1 47.6439 27.9007 30.8869 0.0007 0.0000 0.0063
# 2 27.9007 97.6641 60.7869 -0.0001 0.0000 -0.0115
# 3 30.8869 60.7869 130.9939 0.0038 -0.0002 0.0257
# 4 0.0007 -0.0001 0.0038 19.5893 -0.0001 0.0288
# 5 0.0000 0.0000 -0.0002 -0.0001 20.6573 0.0046
# 6 0.0063 -0.0115 0.0257 0.0288 0.0046 416.4393
#
#
#
# Elastic Compliance Matrix: (Units=1/GPa)
#
#
# Indices 1 2 3 4 5 6 
#
# 1 0.026518 -0.005180 -0.003849 0.000000 0.000000 0.000000
# 2 -0.005180 0.015409 -0.005929 0.000001 0.000000 0.000001
# 3 -0.003849 -0.005929 0.011293 -0.000002 0.000000 -0.000001
# 4 0.000000 0.000001 -0.000002 0.051048 0.000000 -0.000004
# 5 0.000000 0.000000 0.000000 0.000000 0.048409 -0.000001
# 6 0.000000 0.000001 -0.000001 -0.000004 -0.000001 0.002401
#
#
# Mechanical properties :
#
#
# Convention : Reuss Voigt Hill
#
# Bulk Modulus (GPa) = 42.91154 57.27233 50.09194
# Shear Modulus (GPa) = 25.93864 101.78567 63.86215
#
# Velocity S-wave (km/s) = 3.67618 7.28226 5.76826
# Velocity P-wave (km/s) = 6.35424 10.02735 8.39417
#
# Compressibility (1/GPa) = 0.02330375
#
# Stress axis : x y z
#
# Youngs Moduli (GPa) = 37.71078 64.89538 88.55137
#
# Poissons Ratio (x) = 0.33616 0.34082
# Poissons Ratio (y) = 0.19534 0.52504
# Poissons Ratio (z) = 0.14514 0.38478
#
# Static dielectric constant tensor:
#      x y z
#    x 3.399100 0.000000 0.000000 
#    y 0.000000 3.750060 0.000000 
#    z 0.000000 0.000000 3.701550 
# 
# 
# High freq. dielectric constant tensor:
#      x y z
#    x 1.714420 0.000000 0.000000 
#    y 0.000000 1.755780 0.000000 
#    z 0.000000 0.000000 1.746810 
# 
# From -- ./inp_files/11496.got.cif
#   From: 2010.03.12/outbox.cif.g09.slc.cpg/sg44_6_cif.got.tgz:11496.got - 2010.04.14 02:36:11.
