data_PCOD8188790
_publ_section_title
;
Structure prediction by ZEFSAII (Michael W. Deem and Ramdas Pophale) SiO2 
 PCOD8188790
Probable space group: I M M 2
;
_chemical_formula_sum "Si O2"
_cell_formula_units_Z 64
_cell_length_a 30.084766
_cell_length_b 8.866467
_cell_length_c 14.312824
_cell_angle_alpha 90.000000
_cell_angle_beta 90.000000
_cell_angle_gamma 90.000000
_cell_volume 3817.882610
_symmetry_space_group_name_H-M "I M M 2"
_symmetry_group_IT_number 44
_symmetry_cell_setting 'orthorhombic'
loop_
_space_group_symop_operation_xyz
x,y,z
-x,-y,z
-x,y,z
x,-y,z
1/2+x,1/2+y,1/2+z
1/2-x,1/2-y,1/2+z
1/2-x,1/2+y,1/2+z
1/2+x,1/2-y,1/2+z
loop_
_atom_site_type_symbol
_atom_site_label
_atom_site_fract_x
_atom_site_fract_y
_atom_site_fract_z
Si Si1 0.134195 0.177325 0.066390
Si Si2 0.712606 0.176115 0.678421
Si Si3 0.950741 0.827522 0.818673
Si Si4 0.137989 0.172688 0.724814
Si Si5 0.269041 0.176182 0.890339
Si Si6 0.550160 0.823612 0.514195
Si Si7 0.177334 0.675895 0.895795
Si Si8 0.200093 0.825416 0.562609
O O1 0.169672 0.240153 0.139222
O O2 0.084226 0.239480 0.084623
O O3 0.134297 0.000000 0.074308
O O4 0.144784 0.229908 0.961576
O O5 0.714797 0.220023 0.787358
O O6 0.757799 0.226071 0.626258
O O7 0.704773 0.000000 0.664687
O O8 0.914668 0.794699 0.736952
O O9 0.000000 0.795778 0.777124
O O10 0.946803 0.000000 0.853475
O O11 0.941269 0.721843 0.906732
O O12 0.166417 0.283261 0.789708
O O13 0.154314 0.203449 0.619516
O O14 0.149797 0.000000 0.752263
O O15 0.227150 0.276652 0.919713
O O16 0.257314 0.000000 0.896203
O O17 0.304762 0.223358 0.969422
O O18 0.500000 0.779546 0.543867
O O19 0.558593 0.000000 0.522727
O O20 0.171193 0.500000 0.915741
O O21 0.204666 0.000000 0.534553
#
# Coordination Sequence:
#
# PCOD8188790 Si02
#       8
#     8   8   8   8   8   8   8   8
#     4  12  23  34  51  74 101 136 175 209 249 301
#     4  10  21  36  52  72 100 132 168 211 256 301
#     4   9  17  29  48  73 100 133 170 206 247 298
#     4  10  19  33  50  71 102 137 170 208 251 296
#     4  11  22  37  53  71  99 133 171 214 255 297
#     4  10  20  33  50  74 104 135 166 204 252 301
#     4  12  22  31  48  72 102 136 171 209 248 297
#     4  10  20  34  51  72 100 134 170 209 253 299
#
# _framework density 16.763218999999999
#
# number of rings (size 3 to 8) (size 9 to 14) (size 15 to 20)
#    0.000    1.500    3.750    3.000    0.000    2.250 
#    0.000    0.000    0.000    0.000    0.000    0.875 
#    0.000    3.000    0.000    0.000    0.000    0.000 
#
# Total GULP energy -396780.365544 kJ/mol
# GULP energy per Si atom -12399.386423 kJ/mol
# Density = 1.672506 g / cm^3
# Si number density = 16.763219 Si / 1000 Ang^3
#
#
#
# Elastic Constant Matrix: (Units=GPa)
#
#
# Indices 1 2 3 4 5 6 
#
# 1 102.8842 40.5406 31.3085 0.0000 0.0000 0.0000
# 2 40.5406 66.3621 32.4762 0.0000 0.0000 0.0000
# 3 31.3085 32.4762 77.6423 0.0000 0.0000 0.0000
# 4 0.0000 0.0000 0.0000 25.0657 0.0000 0.0000
# 5 0.0000 0.0000 0.0000 0.0000 25.3435 0.0000
# 6 0.0000 0.0000 0.0000 0.0000 0.0000 21.4910
#
#
#
# Elastic Compliance Matrix: (Units=1/GPa)
#
#
# Indices 1 2 3 4 5 6 
#
# 1 0.013160 -0.006843 -0.002444 0.000000 0.000000 0.000000
# 2 -0.006843 0.022506 -0.006654 0.000000 0.000000 0.000000
# 3 -0.002444 -0.006654 0.016649 0.000000 0.000000 0.000000
# 4 0.000000 0.000000 0.000000 0.039895 0.000000 0.000000
# 5 0.000000 0.000000 0.000000 0.000000 0.039458 0.000000
# 6 0.000000 0.000000 0.000000 0.000000 0.000000 0.046531
#
#
# Mechanical properties :
#
#
# Convention : Reuss Voigt Hill
#
# Bulk Modulus (GPa) = 48.94561 50.61546 49.78054
# Shear Modulus (GPa) = 23.05292 23.88427 23.46859
#
# Velocity S-wave (km/s) = 3.71240 3.77875 3.74572
# Velocity P-wave (km/s) = 6.90199 7.02129 6.96190
#
# Compressibility (1/GPa) = 0.02043084
#
# Stress axis : x y z
#
# Youngs Moduli (GPa) = 75.98778 44.43284 60.06540
#
# Poissons Ratio (x) = 0.30407 0.14681
# Poissons Ratio (y) = 0.52001 0.39969
# Poissons Ratio (z) = 0.18573 0.29567
#
# Static dielectric constant tensor:
#      x y z
#    x 3.357690 0.000000 0.000000 
#    y 0.000000 3.134880 0.000000 
#    z 0.000000 0.000000 2.948790 
# 
# 
# High freq. dielectric constant tensor:
#      x y z
#    x 1.643090 0.000000 0.000000 
#    y 0.000000 1.651530 0.000000 
#    z 0.000000 0.000000 1.613170 
# 
# From -- ./inp_files/17144.got.cif
#   From: 2010.03.12/outbox.cif.g09.slc.cpg/sg44_9_cif.got.tgz:17144.got - 2010.04.14 02:36:11.
