data_PCOD8188574
_publ_section_title
;
Structure prediction by ZEFSAII (Michael W. Deem and Ramdas Pophale) SiO2 
 PCOD8188574
Probable space group: I M M 2
;
_chemical_formula_sum "Si O2"
_cell_formula_units_Z 48
_cell_length_a 9.180849
_cell_length_b 38.498593
_cell_length_c 7.663183
_cell_angle_alpha 90.000000
_cell_angle_beta 90.000000
_cell_angle_gamma 90.000000
_cell_volume 2708.550262
_symmetry_space_group_name_H-M "I M M 2"
_symmetry_group_IT_number 44
_symmetry_cell_setting 'orthorhombic'
loop_
_space_group_symop_operation_xyz
x,y,z
-x,-y,z
-x,y,z
x,-y,z
1/2+x,1/2+y,1/2+z
1/2-x,1/2-y,1/2+z
1/2-x,1/2+y,1/2+z
1/2+x,1/2-y,1/2+z
loop_
_atom_site_type_symbol
_atom_site_label
_atom_site_fract_x
_atom_site_fract_y
_atom_site_fract_z
Si Si1 0.673220 0.961212 0.061410
Si Si2 0.326779 0.038788 0.673844
Si Si3 0.670584 0.214978 0.066082
Si Si4 0.327427 0.835483 0.367528
Si Si5 0.829414 0.285008 0.168931
Si Si6 0.325652 0.913210 0.367629
O O1 0.500000 0.960866 0.066738
O O2 0.735514 0.933243 0.197743
O O3 0.727891 0.000000 0.110630
O O4 0.728071 0.951065 0.867627
O O5 0.500000 0.039131 0.668522
O O6 0.264480 0.066759 0.537520
O O7 0.272106 0.000000 0.624622
O O8 0.500000 0.221531 0.092005
O O9 0.726356 0.184425 0.193598
O O10 0.750007 0.249989 0.117561
O O11 0.707309 0.204212 0.867499
O O12 0.500000 0.838003 0.367556
O O13 0.273610 0.815548 0.541361
O O14 0.261227 0.874245 0.367603
O O15 0.000000 0.278459 0.143009
O O16 0.500000 0.912765 0.367654
#
# Coordination Sequence:
#
# PCOD8188574 Si02
#       6
#     8   8   8   8   8   8
#     4   8  13  20  30  45  65  92 129 168 202 241
#     4   8  13  20  30  45  65  92 129 168 202 241
#     4  10  19  31  48  66  85 111 143 181 222 263
#     4   9  18  29  39  58  83 105 138 182 221 261
#     4  10  19  31  48  66  85 111 143 181 222 263
#     4   9  15  22  33  47  69  99 128 166 214 251
#
# _framework density 17.721657
#
# number of rings (size 3 to 8) (size 9 to 14) (size 15 to 20)
#    0.000    3.000    1.667    1.500    0.000    3.333 
#    0.000    6.667    0.000    0.000    0.000    0.000 
#    0.000    0.000    0.000    0.000    0.000   13.333 
#
# Total GULP energy -297465.592682 kJ/mol
# GULP energy per Si atom -12394.399695 kJ/mol
# Density = 1.768132 g / cm^3
# Si number density = 17.721657 Si / 1000 Ang^3
#
#
#
# Elastic Constant Matrix: (Units=GPa)
#
#
# Indices 1 2 3 4 5 6 
#
# 1 7.8694 13.1676 15.6627 -0.0021 -0.0007 -0.0011
# 2 13.1676 182.7982 115.5289 -0.0059 0.0007 0.0015
# 3 15.6627 115.5289 183.7276 -0.0024 -0.0026 0.0041
# 4 -0.0021 -0.0059 -0.0024 28.7161 0.0003 0.0014
# 5 -0.0007 0.0007 -0.0026 0.0003 9.7868 0.0002
# 6 -0.0011 0.0015 0.0041 0.0014 0.0002 12.0642
#
#
#
# Elastic Compliance Matrix: (Units=1/GPa)
#
#
# Indices 1 2 3 4 5 6 
#
# 1 0.155421 -0.004683 -0.010305 0.000010 0.000009 0.000018
# 2 -0.004683 0.009219 -0.005398 0.000001 -0.000002 0.000000
# 3 -0.010305 -0.005398 0.009716 -0.000001 0.000002 -0.000004
# 4 0.000010 0.000001 -0.000001 0.034824 -0.000001 -0.000004
# 5 0.000009 -0.000002 0.000002 -0.000001 0.102178 -0.000002
# 6 0.000018 0.000000 -0.000004 -0.000004 -0.000002 0.082890
#
#
# Mechanical properties :
#
#
# Convention : Reuss Voigt Hill
#
# Bulk Modulus (GPa) = 7.48591 73.67929 40.58260
# Shear Modulus (GPa) = 10.42650 25.44915 17.93783
#
# Velocity S-wave (km/s) = 2.42822 3.79363 3.18496
# Velocity P-wave (km/s) = 3.47779 7.80096 6.03945
#
# Compressibility (1/GPa) = 0.13358430
#
# Stress axis : x y z
#
# Youngs Moduli (GPa) = 6.43415 108.46739 102.92682
#
# Poissons Ratio (x) = 0.50791 1.06068
# Poissons Ratio (y) = 0.03013 0.55560
# Poissons Ratio (z) = 0.06630 0.58551
#
# Static dielectric constant tensor:
#      x y z
#    x 2.599970 0.000020 0.000070 
#    y 0.000020 3.660620 -0.000140 
#    z 0.000070 -0.000140 3.849840 
# 
# 
# High freq. dielectric constant tensor:
#      x y z
#    x 1.601220 0.000000 0.000000 
#    y 0.000000 1.687520 0.000000 
#    z 0.000000 0.000000 1.706840 
# 
# From -- ./inp_files/4913.got.cif
#   From: 2010.03.12/outbox.cif.g09.slc.cpg/sg44_3_cif.got.tgz:4913.got - 2010.04.14 02:36:11.
