data_PCOD8188608
_publ_section_title
;
Structure prediction by ZEFSAII (Michael W. Deem and Ramdas Pophale) SiO2 
 PCOD8188608
Probable space group: I M M 2
;
_chemical_formula_sum "Si O2"
_cell_formula_units_Z 56
_cell_length_a 23.407976
_cell_length_b 9.067580
_cell_length_c 13.833358
_cell_angle_alpha 90.000000
_cell_angle_beta 90.000000
_cell_angle_gamma 90.000000
_cell_volume 2936.181350
_symmetry_space_group_name_H-M "I M M 2"
_symmetry_group_IT_number 44
_symmetry_cell_setting 'orthorhombic'
loop_
_space_group_symop_operation_xyz
x,y,z
-x,-y,z
-x,y,z
x,-y,z
1/2+x,1/2+y,1/2+z
1/2-x,1/2-y,1/2+z
1/2-x,1/2+y,1/2+z
1/2+x,1/2-y,1/2+z
loop_
_atom_site_type_symbol
_atom_site_label
_atom_site_fract_x
_atom_site_fract_y
_atom_site_fract_z
Si Si1 0.617301 0.826669 0.614780
Si Si2 0.065918 0.172844 0.293972
Si Si3 0.436579 0.331573 0.445394
Si Si4 0.672200 0.328676 0.326931
Si Si5 0.659822 0.674052 0.109643
Si Si6 0.065891 0.671605 0.493517
Si Si7 0.227814 0.327957 0.997147
O O1 0.607420 0.743855 0.715140
O O2 0.570398 0.773803 0.537587
O O3 0.679673 0.781277 0.574904
O O4 0.611034 0.000000 0.632104
O O5 0.082261 0.244299 0.395739
O O6 0.000000 0.205941 0.267328
O O7 0.078082 0.000000 0.300683
O O8 0.500000 0.308646 0.402611
O O9 0.427381 0.500000 0.480266
O O10 0.391900 0.289903 0.361864
O O11 0.685702 0.500000 0.334982
O O12 0.677798 0.274541 0.216976
O O13 0.718773 0.249166 0.393976
O O14 0.647035 0.500000 0.107823
O O15 0.603189 0.761455 0.079987
O O16 0.710860 0.718763 0.037928
O O17 0.079535 0.500000 0.479644
O O18 0.000000 0.698019 0.520884
O O19 0.223839 0.500000 0.977944
#
# Coordination Sequence:
#
# PCOD8188608 Si02
#       7
#     8   8   8   8   8   8   8
#     4  10  19  31  49  75 109 145 180 223 272 316
#     4  10  20  34  53  78 109 145 183 222 265 315
#     4   9  17  30  48  72 103 138 178 223 269 320
#     4   9  19  35  55  79 106 138 178 222 266 315
#     4  10  21  38  59  81 106 139 178 218 264 317
#     4  10  22  39  57  80 109 138 173 218 265 316
#     4   9  20  37  54  77 110 143 178 222 267 314
#
# _framework density 19.072392000000001
#
# number of rings (size 3 to 8) (size 9 to 14) (size 15 to 20)
#    0.000    2.429    0.000    1.714    0.000    7.143 
#    0.000    2.857    0.000    0.000    0.000    0.000 
#    0.000    0.000    0.000    0.000    0.000    0.000 
#
# Total GULP energy -347276.297433 kJ/mol
# GULP energy per Si atom -12402.724908 kJ/mol
# Density = 1.902898 g / cm^3
# Si number density = 19.072392 Si / 1000 Ang^3
#
#
#
# Elastic Constant Matrix: (Units=GPa)
#
#
# Indices 1 2 3 4 5 6 
#
# 1 88.7593 41.0853 57.3733 0.0000 0.0000 0.0000
# 2 41.0853 76.9765 59.4060 0.0000 0.0000 0.0000
# 3 57.3733 59.4060 138.7074 0.0000 0.0000 0.0000
# 4 0.0000 0.0000 0.0000 35.0124 0.0000 0.0000
# 5 0.0000 0.0000 0.0000 0.0000 25.9434 0.0000
# 6 0.0000 0.0000 0.0000 0.0000 0.0000 25.2078
#
#
#
# Elastic Compliance Matrix: (Units=1/GPa)
#
#
# Indices 1 2 3 4 5 6 
#
# 1 0.016740 -0.005364 -0.004627 0.000000 0.000000 0.000000
# 2 -0.005364 0.021124 -0.006828 0.000000 0.000000 0.000000
# 3 -0.004627 -0.006828 0.012048 0.000000 0.000000 0.000000
# 4 0.000000 0.000000 0.000000 0.028561 0.000000 0.000000
# 5 0.000000 0.000000 0.000000 0.000000 0.038545 0.000000
# 6 0.000000 0.000000 0.000000 0.000000 0.000000 0.039670
#
#
# Mechanical properties :
#
#
# Convention : Reuss Voigt Hill
#
# Bulk Modulus (GPa) = 61.45097 68.90804 65.17951
# Shear Modulus (GPa) = 25.54267 27.00461 26.27364
#
# Velocity S-wave (km/s) = 3.66354 3.76693 3.71560
# Velocity P-wave (km/s) = 7.08415 7.42481 7.25648
#
# Compressibility (1/GPa) = 0.01627314
#
# Stress axis : x y z
#
# Youngs Moduli (GPa) = 59.73660 47.34051 83.00430
#
# Poissons Ratio (x) = 0.25394 0.38405
# Poissons Ratio (y) = 0.32044 0.56676
# Poissons Ratio (z) = 0.27639 0.32325
#
# Static dielectric constant tensor:
#      x y z
#    x 3.487610 0.000000 0.000000 
#    y 0.000000 3.473120 0.000000 
#    z 0.000000 0.000000 3.450010 
# 
# 
# High freq. dielectric constant tensor:
#      x y z
#    x 1.738790 0.000000 0.000000 
#    y 0.000000 1.740810 0.000000 
#    z 0.000000 0.000000 1.738280 
# 
# From -- ./inp_files/19180.got.cif
#   From: 2010.03.12/outbox.cif.g09.slc.cpg/sg44_10_cif.got.tgz:19180.got - 2010.04.14 02:36:11.
