data_PCOD8188771
_publ_section_title
;
Structure prediction by ZEFSAII (Michael W. Deem and Ramdas Pophale) SiO2 
 PCOD8188771
Probable space group: I M M 2
;
_chemical_formula_sum "Si O2"
_cell_formula_units_Z 64
_cell_length_a 28.415036
_cell_length_b 8.793920
_cell_length_c 12.763844
_cell_angle_alpha 90.000000
_cell_angle_beta 90.000000
_cell_angle_gamma 90.000000
_cell_volume 3189.423638
_symmetry_space_group_name_H-M "I M M 2"
_symmetry_group_IT_number 44
_symmetry_cell_setting 'orthorhombic'
loop_
_space_group_symop_operation_xyz
x,y,z
-x,-y,z
-x,y,z
x,-y,z
1/2+x,1/2+y,1/2+z
1/2-x,1/2-y,1/2+z
1/2-x,1/2+y,1/2+z
1/2+x,1/2-y,1/2+z
loop_
_atom_site_type_symbol
_atom_site_label
_atom_site_fract_x
_atom_site_fract_y
_atom_site_fract_z
Si Si1 0.792831 0.677555 0.859090
Si Si2 0.318587 0.669926 0.147863
Si Si3 0.555057 0.179440 0.660815
Si Si4 0.448472 0.832694 0.274613
Si Si5 0.611321 0.820897 0.458732
Si Si6 0.105569 0.818473 0.358755
Si Si7 0.699702 0.179149 0.932672
Si Si8 0.424420 0.665837 0.079916
O O1 0.779158 0.500000 0.864398
O O2 0.811390 0.716529 0.744025
O O3 0.833085 0.715111 0.946887
O O4 0.748330 0.784817 0.875396
O O5 0.297420 0.500000 0.167247
O O6 0.373388 0.655981 0.130032
O O7 0.295230 0.742019 0.045217
O O8 0.500000 0.220447 0.642564
O O9 0.587569 0.241762 0.565173
O O10 0.574449 0.265041 0.762104
O O11 0.561397 0.000000 0.676954
O O12 0.500000 0.838750 0.326726
O O13 0.414956 0.745961 0.357857
O O14 0.455200 0.760913 0.160195
O O15 0.427499 0.000000 0.255512
O O16 0.601554 0.000000 0.456320
O O17 0.157481 0.744655 0.360791
O O18 0.078138 0.762596 0.463557
O O19 0.111786 0.000000 0.358888
O O20 0.692546 0.000000 0.945580
O O21 0.447502 0.500000 0.071192
#
# Coordination Sequence:
#
# PCOD8188771 Si02
#       8
#     8   8   8   8   8   8   8   8
#     4  11  21  36  60  88 119 159 205 253 310 372
#     4  10  20  37  58  82 115 153 193 243 299 360
#     4  10  21  39  63  89 121 165 214 260 310 372
#     4  10  19  32  54  84 114 145 186 235 287 348
#     4   9  19  36  58  85 117 155 199 249 301 355
#     4  10  22  41  61  84 118 158 203 256 311 368
#     4  11  23  39  60  88 120 158 203 255 315 376
#     4   9  19  35  55  78 109 147 185 234 295 352
#
# _framework density 20.066320999999999
#
# number of rings (size 3 to 8) (size 9 to 14) (size 15 to 20)
#    0.000    2.000    1.250    3.375    0.000    6.000 
#    0.000    8.125    0.000    1.500    0.000    0.000 
#    0.000    0.000    0.000    0.000    0.000    0.000 
#
# Total GULP energy -396633.594475 kJ/mol
# GULP energy per Si atom -12394.799827 kJ/mol
# Density = 2.002065 g / cm^3
# Si number density = 20.066321 Si / 1000 Ang^3
#
#
#
# Elastic Constant Matrix: (Units=GPa)
#
#
# Indices 1 2 3 4 5 6 
#
# 1 81.1466 28.0320 39.9642 0.0000 0.0000 0.0000
# 2 28.0320 71.3055 22.9450 0.0000 0.0000 0.0000
# 3 39.9642 22.9450 111.9869 0.0000 0.0000 0.0000
# 4 0.0000 0.0000 0.0000 28.3759 0.0000 0.0000
# 5 0.0000 0.0000 0.0000 0.0000 24.1401 0.0000
# 6 0.0000 0.0000 0.0000 0.0000 0.0000 21.4605
#
#
#
# Elastic Compliance Matrix: (Units=1/GPa)
#
#
# Indices 1 2 3 4 5 6 
#
# 1 0.016401 -0.004886 -0.004852 0.000000 0.000000 0.000000
# 2 -0.004886 0.016470 -0.001631 0.000000 0.000000 0.000000
# 3 -0.004852 -0.001631 0.010995 0.000000 0.000000 0.000000
# 4 0.000000 0.000000 0.000000 0.035241 0.000000 0.000000
# 5 0.000000 0.000000 0.000000 0.000000 0.041425 0.000000
# 6 0.000000 0.000000 0.000000 0.000000 0.000000 0.046597
#
#
# Mechanical properties :
#
#
# Convention : Reuss Voigt Hill
#
# Bulk Modulus (GPa) = 47.33014 49.59127 48.46071
# Shear Modulus (GPa) = 25.39240 26.36183 25.87711
#
# Velocity S-wave (km/s) = 3.56114 3.62848 3.59497
# Velocity P-wave (km/s) = 6.36765 6.50552 6.43696
#
# Compressibility (1/GPa) = 0.02112818
#
# Stress axis : x y z
#
# Youngs Moduli (GPa) = 60.97260 60.71699 90.94931
#
# Poissons Ratio (x) = 0.29669 0.44126
# Poissons Ratio (y) = 0.29794 0.14831
# Poissons Ratio (z) = 0.29582 0.09901
#
# Static dielectric constant tensor:
#      x y z
#    x 3.611780 0.000000 0.000000 
#    y 0.000000 3.598720 0.000000 
#    z 0.000000 0.000000 3.810320 
# 
# 
# High freq. dielectric constant tensor:
#      x y z
#    x 1.784210 0.000000 0.000000 
#    y 0.000000 1.767650 0.000000 
#    z 0.000000 0.000000 1.786520 
# 
# From -- ./inp_files/15050.got.cif
#   From: 2010.03.12/outbox.cif.g09.slc.cpg/sg44_8_cif.got.tgz:15050.got - 2010.04.14 02:36:11.
