data_PCOD8188513
_publ_section_title
;
Structure prediction by ZEFSAII (Michael W. Deem and Ramdas Pophale) SiO2 
 PCOD8188513
Probable space group: I M M 2
;
_chemical_formula_sum "Si O2"
_cell_formula_units_Z 64
_cell_length_a 28.036744
_cell_length_b 8.956673
_cell_length_c 14.603197
_cell_angle_alpha 90.000000
_cell_angle_beta 90.000000
_cell_angle_gamma 90.000000
_cell_volume 3667.095658
_symmetry_space_group_name_H-M "I M M 2"
_symmetry_group_IT_number 44
_symmetry_cell_setting 'orthorhombic'
loop_
_space_group_symop_operation_xyz
x,y,z
-x,-y,z
-x,y,z
x,-y,z
1/2+x,1/2+y,1/2+z
1/2-x,1/2-y,1/2+z
1/2-x,1/2+y,1/2+z
1/2+x,1/2-y,1/2+z
loop_
_atom_site_type_symbol
_atom_site_label
_atom_site_fract_x
_atom_site_fract_y
_atom_site_fract_z
Si Si1 0.672541 0.825781 0.222360
Si Si2 0.137679 0.176088 0.094958
Si Si3 0.222175 0.829074 0.212615
Si Si4 0.447620 0.677638 0.713985
Si Si5 0.944735 0.173296 0.420717
Si Si6 0.637592 0.826178 0.027237
Si Si7 0.722197 0.672112 0.920432
Si Si8 0.177015 0.175057 0.905181
O O1 0.725216 0.758304 0.200118
O O2 0.637750 0.797466 0.136851
O O3 0.653599 0.742233 0.313071
O O4 0.676856 0.000000 0.247444
O O5 0.183664 0.248805 0.145959
O O6 0.089815 0.244229 0.140488
O O7 0.137645 0.000000 0.113968
O O8 0.139885 0.211238 0.987130
O O9 0.203894 0.811965 0.316448
O O10 0.226744 0.000000 0.182779
O O11 0.500000 0.741695 0.689301
O O12 0.449484 0.500000 0.710816
O O13 0.433418 0.725818 0.817099
O O14 0.912499 0.267271 0.489959
O O15 0.000000 0.203023 0.444563
O O16 0.931915 0.000000 0.433129
O O17 0.642778 0.000000 0.004986
O O18 0.682692 0.743641 0.984741
O O19 0.729032 0.500000 0.947513
O O20 0.772485 0.753983 0.932176
O O21 0.184794 0.000000 0.892980
#
# Coordination Sequence:
#
# PCOD8188513 Si02
#       8
#     8   8   8   8   8   8   8   8
#     4   9  19  34  47  62  90 129 166 200 242 289
#     4   9  15  24  42  67  93 121 153 192 236 280
#     4   8  14  26  44  64  89 122 156 187 226 281
#     4   8  14  26  46  72  99 126 156 188 228 285
#     4   9  18  33  53  76 100 125 154 192 242 298
#     4  11  21  32  50  73  96 127 167 205 241 286
#     4  10  19  31  48  70  99 133 163 194 238 290
#     4  10  19  30  46  69  96 127 165 207 245 281
#
# _framework density 17.452504000000001
#
# number of rings (size 3 to 8) (size 9 to 14) (size 15 to 20)
#    0.000    2.750    0.000    4.125    0.000    5.250 
#    0.000    0.000    0.000    9.000    0.000    1.750 
#    0.000    0.000    0.000    0.000    0.000    0.000 
#
# Total GULP energy -396659.537501 kJ/mol
# GULP energy per Si atom -12395.610547 kJ/mol
# Density = 1.741278 g / cm^3
# Si number density = 17.452504 Si / 1000 Ang^3
#
#
#
# Elastic Constant Matrix: (Units=GPa)
#
#
# Indices 1 2 3 4 5 6 
#
# 1 89.8580 33.1440 73.6594 0.0000 0.0000 0.0000
# 2 33.1440 64.8605 47.9741 0.0000 0.0000 0.0000
# 3 73.6594 47.9741 127.2843 0.0000 0.0000 0.0000
# 4 0.0000 0.0000 0.0000 24.7966 0.0000 0.0000
# 5 0.0000 0.0000 0.0000 0.0000 30.4480 0.0000
# 6 0.0000 0.0000 0.0000 0.0000 0.0000 19.7460
#
#
#
# Elastic Compliance Matrix: (Units=1/GPa)
#
#
# Indices 1 2 3 4 5 6 
#
# 1 0.021454 -0.002468 -0.011485 0.000000 0.000000 0.000000
# 2 -0.002468 0.021661 -0.006736 0.000000 0.000000 0.000000
# 3 -0.011485 -0.006736 0.017042 0.000000 0.000000 0.000000
# 4 0.000000 0.000000 0.000000 0.040328 0.000000 0.000000
# 5 0.000000 0.000000 0.000000 0.000000 0.032843 0.000000
# 6 0.000000 0.000000 0.000000 0.000000 0.000000 0.050643
#
#
# Mechanical properties :
#
#
# Convention : Reuss Voigt Hill
#
# Bulk Modulus (GPa) = 53.25259 65.72864 59.49061
# Shear Modulus (GPa) = 21.58821 23.47980 22.53400
#
# Velocity S-wave (km/s) = 3.52087 3.67189 3.59717
# Velocity P-wave (km/s) = 6.86351 7.46460 7.17036
#
# Compressibility (1/GPa) = 0.01877843
#
# Stress axis : x y z
#
# Youngs Moduli (GPa) = 46.61221 46.16574 58.67990
#
# Poissons Ratio (x) = 0.11394 0.67394
# Poissons Ratio (y) = 0.11504 0.39526
# Poissons Ratio (z) = 0.53534 0.31097
#
# Static dielectric constant tensor:
#      x y z
#    x 3.301630 0.000000 0.000000 
#    y 0.000000 2.969470 0.000000 
#    z 0.000000 0.000000 3.338610 
# 
# 
# High freq. dielectric constant tensor:
#      x y z
#    x 1.657090 0.000000 0.000000 
#    y 0.000000 1.643300 0.000000 
#    z 0.000000 0.000000 1.676550 
# 
# From -- ./inp_files/19694.got.cif
#   From: 2010.03.12/outbox.cif.g09.slc.cpg/sg44_10_cif.got.tgz:19694.got - 2010.04.14 02:36:11.
