data_PCOD8188234
_publ_section_title
;
Structure prediction by ZEFSAII (Michael W. Deem and Ramdas Pophale) SiO2 
 PCOD8188234
Probable space group: I M M 2
;
_chemical_formula_sum "Si O2"
_cell_formula_units_Z 48
_cell_length_a 8.489636
_cell_length_b 18.526987
_cell_length_c 15.383204
_cell_angle_alpha 90.000000
_cell_angle_beta 90.000000
_cell_angle_gamma 90.000000
_cell_volume 2419.583789
_symmetry_space_group_name_H-M "I M M 2"
_symmetry_group_IT_number 44
_symmetry_cell_setting 'orthorhombic'
loop_
_space_group_symop_operation_xyz
x,y,z
-x,-y,z
-x,y,z
x,-y,z
1/2+x,1/2+y,1/2+z
1/2-x,1/2-y,1/2+z
1/2-x,1/2+y,1/2+z
1/2+x,1/2-y,1/2+z
loop_
_atom_site_type_symbol
_atom_site_label
_atom_site_fract_x
_atom_site_fract_y
_atom_site_fract_z
Si Si1 0.187326 0.155995 0.529640
Si Si2 0.813464 0.500000 0.266434
Si Si3 0.313992 0.111907 0.905067
Si Si4 0.684309 0.079567 0.093943
Si Si5 0.817877 0.000000 0.581155
Si Si6 0.687256 0.734035 0.860234
Si Si7 0.184229 0.224622 0.164617
O O1 0.243532 0.174781 0.431141
O O2 0.242700 0.214805 0.601222
O O3 0.000000 0.156078 0.536572
O O4 0.257218 0.075166 0.545383
O O5 0.757644 0.569084 0.320786
O O6 0.706403 0.500000 0.183000
O O7 0.000000 0.500000 0.244455
O O8 0.500000 0.113362 0.903430
O O9 0.245264 0.192006 0.899911
O O10 0.259940 0.074661 0.993959
O O11 0.500000 0.099146 0.101783
O O12 0.784386 0.142429 0.137341
O O13 0.718290 0.000000 0.135351
O O14 0.000000 0.000000 0.556689
O O15 0.500000 0.733339 0.854691
O O16 0.755711 0.726794 0.762704
O O17 0.000000 0.240251 0.165717
#
# Coordination Sequence:
#
# PCOD8188234 Si02
#       7
#     8   4   8   8   4   8   8
#     4  10  20  39  61  79 109 153 192 227 271 335
#     4  10  18  30  54  83 108 138 178 227 280 333
#     4   9  15  28  54  81 101 134 186 225 257 321
#     4  10  19  35  59  82 109 148 188 221 267 335
#     4  10  22  36  54  83 112 142 186 233 278 323
#     4   9  18  33  55  79 105 144 191 229 268 327
#     4  11  22  36  57  88 115 141 184 238 286 325
#
# _framework density 19.838124000000001
#
# number of rings (size 3 to 8) (size 9 to 14) (size 15 to 20)
#    0.000    2.167    2.500    1.500    0.000    2.333 
#    1.500    2.500    0.000    0.000    0.000    0.000 
#    0.000    0.000    0.000    0.000    0.000    0.000 
#
# Total GULP energy -297334.436337 kJ/mol
# GULP energy per Si atom -12388.934847 kJ/mol
# Density = 1.979297 g / cm^3
# Si number density = 19.838124 Si / 1000 Ang^3
#
#
#
# Elastic Constant Matrix: (Units=GPa)
#
#
# Indices 1 2 3 4 5 6 
#
# 1 19.5382 11.8143 12.0827 0.0000 0.0000 0.0000
# 2 11.8143 160.9076 64.5604 0.0000 0.0000 0.0000
# 3 12.0827 64.5604 133.6895 0.0000 0.0000 0.0000
# 4 0.0000 0.0000 0.0000 29.9208 0.0000 0.0000
# 5 0.0000 0.0000 0.0000 0.0000 24.3785 0.0000
# 6 0.0000 0.0000 0.0000 0.0000 0.0000 16.5026
#
#
#
# Elastic Compliance Matrix: (Units=1/GPa)
#
#
# Indices 1 2 3 4 5 6 
#
# 1 0.055034 -0.002537 -0.003749 0.000000 0.000000 0.000000
# 2 -0.002537 0.007825 -0.003550 0.000000 0.000000 0.000000
# 3 -0.003749 -0.003550 0.009533 0.000000 0.000000 0.000000
# 4 0.000000 0.000000 0.000000 0.033422 0.000000 0.000000
# 5 0.000000 0.000000 0.000000 0.000000 0.041020 0.000000
# 6 0.000000 0.000000 0.000000 0.000000 0.000000 0.060596
#
#
# Mechanical properties :
#
#
# Convention : Reuss Voigt Hill
#
# Bulk Modulus (GPa) = 18.96750 54.56112 36.76431
# Shear Modulus (GPa) = 20.43535 29.20557 24.82046
#
# Velocity S-wave (km/s) = 3.21301 3.84108 3.54100
# Velocity P-wave (km/s) = 4.83182 6.87275 5.94059
#
# Compressibility (1/GPa) = 0.05272176
#
# Stress axis : x y z
#
# Youngs Moduli (GPa) = 18.17063 127.79226 104.89856
#
# Poissons Ratio (x) = 0.32415 0.39326
# Poissons Ratio (y) = 0.04609 0.37235
# Poissons Ratio (z) = 0.06812 0.45362
#
# Static dielectric constant tensor:
#      x y z
#    x 3.142710 0.000000 0.000000 
#    y 0.000000 4.348190 0.000000 
#    z 0.000000 0.000000 3.806190 
# 
# 
# High freq. dielectric constant tensor:
#      x y z
#    x 1.725840 0.000000 0.000000 
#    y 0.000000 1.789710 0.000000 
#    z 0.000000 0.000000 1.775500 
# 
# From -- ./inp_files/16119.got.cif
#   From: 2010.03.12/outbox.cif.g09.slc.cpg/sg44_9_cif.got.tgz:16119.got - 2010.04.14 02:36:11.
