data_PCOD8188380
_publ_section_title
;
Structure prediction by ZEFSAII (Michael W. Deem and Ramdas Pophale) SiO2 
 PCOD8188380
Probable space group: I M M 2
;
_chemical_formula_sum "Si O2"
_cell_formula_units_Z 64
_cell_length_a 32.356378
_cell_length_b 12.230139
_cell_length_c 8.075735
_cell_angle_alpha 90.000000
_cell_angle_beta 90.000000
_cell_angle_gamma 90.000000
_cell_volume 3195.754085
_symmetry_space_group_name_H-M "I M M 2"
_symmetry_group_IT_number 44
_symmetry_cell_setting 'orthorhombic'
loop_
_space_group_symop_operation_xyz
x,y,z
-x,-y,z
-x,y,z
x,-y,z
1/2+x,1/2+y,1/2+z
1/2-x,1/2-y,1/2+z
1/2-x,1/2+y,1/2+z
1/2+x,1/2-y,1/2+z
loop_
_atom_site_type_symbol
_atom_site_label
_atom_site_fract_x
_atom_site_fract_y
_atom_site_fract_z
Si Si1 0.339812 0.624666 0.868620
Si Si2 0.130265 0.626539 0.951626
Si Si3 0.937820 0.121386 0.702795
Si Si4 0.455180 0.233756 0.516896
Si Si5 0.934690 0.875190 0.328405
Si Si6 0.651495 0.686379 0.218462
Si Si7 0.706306 0.779802 0.643798
Si Si8 0.267245 0.378672 0.389080
O O1 0.327812 0.500000 0.910019
O O2 0.385849 0.633217 0.798095
O O3 0.308356 0.670813 0.735849
O O4 0.333862 0.699952 0.030270
O O5 0.131817 0.500000 0.905632
O O6 0.139911 0.693317 0.785088
O O7 0.084330 0.653602 0.021521
O O8 0.166029 0.654676 0.082746
O O9 0.946988 0.166661 0.515067
O O10 0.888615 0.109792 0.724371
O O11 0.956663 0.000000 0.721219
O O12 0.955936 0.196686 0.846830
O O13 0.500000 0.171770 0.518196
O O14 0.455736 0.306788 0.682843
O O15 0.949458 0.000000 0.311072
O O16 0.686027 0.625472 0.323765
O O17 0.737254 0.726049 0.509214
O O18 0.733121 0.865055 0.746997
O O19 0.260571 0.500000 0.467419
#
# Coordination Sequence:
#
# PCOD8188380 Si02
#       8
#     8   8   8   8   8   8   8   8
#     4  10  18  34  59  85 115 152 187 229 293 361
#     4  10  22  42  61  80 111 157 206 252 299 345
#     4   9  18  33  55  84 120 157 189 231 297 369
#     4  11  22  36  57  85 116 153 202 256 305 360
#     4   9  18  33  55  85 119 154 190 234 294 365
#     4   9  19  35  58  84 112 147 191 238 290 354
#     4  11  22  38  58  86 119 154 195 242 289 356
#     4  11  22  36  55  84 117 152 192 241 292 345
#
# _framework density 20.026571000000001
#
# number of rings (size 3 to 8) (size 9 to 14) (size 15 to 20)
#    0.000    2.000    1.250    3.750    0.000    1.750 
#    0.000   10.625    0.000    0.000    0.000    1.750 
#    0.000    0.000    0.000    0.000    0.000    0.000 
#
# Total GULP energy -396557.561443 kJ/mol
# GULP energy per Si atom -12392.423795 kJ/mol
# Density = 1.998099 g / cm^3
# Si number density = 20.026571 Si / 1000 Ang^3
#
#
#
# Elastic Constant Matrix: (Units=GPa)
#
#
# Indices 1 2 3 4 5 6 
#
# 1 84.6928 32.8153 22.8654 0.0001 0.0000 0.0000
# 2 32.8153 100.9716 30.6364 0.0000 0.0000 0.0000
# 3 22.8654 30.6364 93.5334 -0.0001 0.0000 0.0000
# 4 0.0001 0.0000 -0.0001 24.2367 0.0000 0.0000
# 5 0.0000 0.0000 0.0000 0.0000 7.3306 0.0000
# 6 0.0000 0.0000 0.0000 0.0000 0.0000 9.2550
#
#
#
# Elastic Compliance Matrix: (Units=1/GPa)
#
#
# Indices 1 2 3 4 5 6 
#
# 1 0.013879 -0.003865 -0.002127 0.000000 0.000000 0.000000
# 2 -0.003865 0.012073 -0.003010 0.000000 0.000000 0.000000
# 3 -0.002127 -0.003010 0.012197 0.000000 0.000000 0.000000
# 4 0.000000 0.000000 0.000000 0.041260 0.000000 0.000000
# 5 0.000000 0.000000 0.000000 0.000000 0.136414 0.000000
# 6 0.000000 0.000000 0.000000 0.000000 0.000000 0.108050
#
#
# Mechanical properties :
#
#
# Convention : Reuss Voigt Hill
#
# Bulk Modulus (GPa) = 49.63794 50.20356 49.92075
# Shear Modulus (GPa) = 14.34341 21.02318 17.68330
#
# Velocity S-wave (km/s) = 2.67913 3.24352 2.97474
# Velocity P-wave (km/s) = 5.86602 6.25701 6.06466
#
# Compressibility (1/GPa) = 0.02014588
#
# Stress axis : x y z
#
# Youngs Moduli (GPa) = 72.04984 82.82846 81.98681
#
# Poissons Ratio (x) = 0.32016 0.17438
# Poissons Ratio (y) = 0.27850 0.24674
# Poissons Ratio (z) = 0.15324 0.24928
#
# Static dielectric constant tensor:
#      x y z
#    x 3.736220 0.000000 0.000000 
#    y 0.000000 3.274910 0.000000 
#    z 0.000000 0.000000 3.800200 
# 
# 
# High freq. dielectric constant tensor:
#      x y z
#    x 1.793020 0.000000 0.000000 
#    y 0.000000 1.748120 0.000000 
#    z 0.000000 0.000000 1.785010 
# 
# From -- ./inp_files/10129.got.cif
#   From: 2010.03.12/outbox.cif.g09.slc.cpg/sg44_6_cif.got.tgz:10129.got - 2010.04.14 02:36:11.
