data_PCOD8188783
_publ_section_title
;
Structure prediction by ZEFSAII (Michael W. Deem and Ramdas Pophale) SiO2 
 PCOD8188783
Probable space group: I M M 2
;
_chemical_formula_sum "Si O2"
_cell_formula_units_Z 64
_cell_length_a 25.045928
_cell_length_b 8.792403
_cell_length_c 15.119943
_cell_angle_alpha 90.000000
_cell_angle_beta 90.000000
_cell_angle_gamma 90.000000
_cell_volume 3329.621502
_symmetry_space_group_name_H-M "I M M 2"
_symmetry_group_IT_number 44
_symmetry_cell_setting 'orthorhombic'
loop_
_space_group_symop_operation_xyz
x,y,z
-x,-y,z
-x,y,z
x,-y,z
1/2+x,1/2+y,1/2+z
1/2-x,1/2-y,1/2+z
1/2-x,1/2+y,1/2+z
1/2+x,1/2-y,1/2+z
loop_
_atom_site_type_symbol
_atom_site_label
_atom_site_fract_x
_atom_site_fract_y
_atom_site_fract_z
Si Si1 0.151194 0.680206 0.194280
Si Si2 0.113019 0.678741 0.890184
Si Si3 0.858018 0.178552 0.568315
Si Si4 0.738389 0.178955 0.165484
Si Si5 0.335911 0.825045 0.894086
Si Si6 0.561824 0.178659 0.204139
Si Si7 0.717742 0.675453 0.348336
Si Si8 0.558629 0.819836 0.569098
O O1 0.157894 0.500000 0.186724
O O2 0.203227 0.752478 0.149318
O O3 0.145639 0.728825 0.296616
O O4 0.099994 0.743703 0.141707
O O5 0.125279 0.500000 0.892152
O O6 0.085067 0.728651 0.799001
O O7 0.167871 0.770337 0.906630
O O8 0.074692 0.727816 0.970093
O O9 0.802466 0.256357 0.594057
O O10 0.867210 0.223260 0.465630
O O11 0.907462 0.235547 0.626388
O O12 0.853239 0.000000 0.579366
O O13 0.716307 0.220618 0.261639
O O14 0.740970 0.000000 0.154028
O O15 0.272075 0.800743 0.902968
O O16 0.351405 0.000000 0.910031
O O17 0.500000 0.225667 0.199909
O O18 0.569588 0.000000 0.190085
O O19 0.712119 0.500000 0.319295
O O20 0.500000 0.751551 0.589050
O O21 0.557168 0.000000 0.576585
#
# Coordination Sequence:
#
# PCOD8188783 Si02
#       8
#     8   8   8   8   8   8   8   8
#     4   9  19  37  59  85 116 151 192 241 291 340
#     4  10  19  32  55  87 119 154 191 230 279 340
#     4  12  24  37  57  84 115 152 196 242 291 343
#     4  11  21  35  56  82 114 151 189 232 288 347
#     4   9  20  37  55  79 116 153 191 239 290 346
#     4  10  21  38  59  83 116 157 196 235 284 345
#     4  10  20  35  55  83 118 152 188 231 283 341
#     4   9  18  34  58  88 118 149 192 240 283 336
#
# _framework density 19.221405000000001
#
# number of rings (size 3 to 8) (size 9 to 14) (size 15 to 20)
#    0.000    2.000    1.250    3.750    1.750    4.250 
#    0.000    0.625    0.000    4.500    0.000    0.000 
#    0.000    0.000    0.000    0.000    0.000    0.000 
#
# Total GULP energy -396850.468936 kJ/mol
# GULP energy per Si atom -12401.577154 kJ/mol
# Density = 1.917766 g / cm^3
# Si number density = 19.221405 Si / 1000 Ang^3
#
#
#
# Elastic Constant Matrix: (Units=GPa)
#
#
# Indices 1 2 3 4 5 6 
#
# 1 140.6612 38.7656 68.4836 0.0000 0.0000 0.0000
# 2 38.7656 66.6636 36.4008 0.0000 0.0000 0.0000
# 3 68.4836 36.4008 107.1470 0.0000 0.0000 0.0000
# 4 0.0000 0.0000 0.0000 19.7204 0.0000 0.0000
# 5 0.0000 0.0000 0.0000 0.0000 29.3817 0.0000
# 6 0.0000 0.0000 0.0000 0.0000 0.0000 26.7480
#
#
#
# Elastic Compliance Matrix: (Units=1/GPa)
#
#
# Indices 1 2 3 4 5 6 
#
# 1 0.010815 -0.003087 -0.005864 0.000000 0.000000 0.000000
# 2 -0.003087 0.019298 -0.004583 0.000000 0.000000 0.000000
# 3 -0.005864 -0.004583 0.014638 0.000000 0.000000 0.000000
# 4 0.000000 0.000000 0.000000 0.050709 0.000000 0.000000
# 5 0.000000 0.000000 0.000000 0.000000 0.034035 0.000000
# 6 0.000000 0.000000 0.000000 0.000000 0.000000 0.037386
#
#
# Mechanical properties :
#
#
# Convention : Reuss Voigt Hill
#
# Bulk Modulus (GPa) = 56.55022 66.86354 61.70688
# Shear Modulus (GPa) = 25.01967 26.55814 25.78891
#
# Velocity S-wave (km/s) = 3.61176 3.72115 3.66686
# Velocity P-wave (km/s) = 6.84671 7.30234 7.07819
#
# Compressibility (1/GPa) = 0.01768340
#
# Stress axis : x y z
#
# Youngs Moduli (GPa) = 92.46490 51.81768 68.31685
#
# Poissons Ratio (x) = 0.15997 0.40058
# Poissons Ratio (y) = 0.28546 0.31309
# Poissons Ratio (z) = 0.54218 0.23748
#
# Static dielectric constant tensor:
#      x y z
#    x 3.649180 0.000000 0.000000 
#    y 0.000000 3.284750 0.000000 
#    z 0.000000 0.000000 3.551630 
# 
# 
# High freq. dielectric constant tensor:
#      x y z
#    x 1.743840 0.000000 0.000000 
#    y 0.000000 1.729000 0.000000 
#    z 0.000000 0.000000 1.749710 
# 
# From -- ./inp_files/19486.got.cif
#   From: 2010.03.12/outbox.cif.g09.slc.cpg/sg44_10_cif.got.tgz:19486.got - 2010.04.14 02:36:11.
