data_PCOD8188860
_publ_section_title
;
Structure prediction by ZEFSAII (Michael W. Deem and Ramdas Pophale) SiO2 
 PCOD8188860
Probable space group: I M M 2
;
_chemical_formula_sum "Si O2"
_cell_formula_units_Z 64
_cell_length_a 19.433321
_cell_length_b 8.959176
_cell_length_c 20.740465
_cell_angle_alpha 90.000000
_cell_angle_beta 90.000000
_cell_angle_gamma 90.000000
_cell_volume 3611.050664
_symmetry_space_group_name_H-M "I M M 2"
_symmetry_group_IT_number 44
_symmetry_cell_setting 'orthorhombic'
loop_
_space_group_symop_operation_xyz
x,y,z
-x,-y,z
-x,y,z
x,-y,z
1/2+x,1/2+y,1/2+z
1/2-x,1/2-y,1/2+z
1/2-x,1/2+y,1/2+z
1/2+x,1/2-y,1/2+z
loop_
_atom_site_type_symbol
_atom_site_label
_atom_site_fract_x
_atom_site_fract_y
_atom_site_fract_z
Si Si1 0.783205 0.826449 0.852940
Si Si2 0.207721 0.823682 0.470815
Si Si3 0.213111 0.324806 0.600008
Si Si4 0.576129 0.330671 0.788648
Si Si5 0.423771 0.671515 0.297130
Si Si6 0.075718 0.324399 0.664238
Si Si7 0.216581 0.827738 0.231511
Si Si8 0.578063 0.174261 0.920907
O O1 0.753371 0.733978 0.911972
O O2 0.865806 0.798570 0.851307
O O3 0.751317 0.773391 0.785650
O O4 0.765309 0.000000 0.862822
O O5 0.239761 0.765098 0.537869
O O6 0.129681 0.763583 0.466708
O O7 0.207812 0.000000 0.469388
O O8 0.220059 0.500000 0.586041
O O9 0.133765 0.277059 0.613152
O O10 0.259398 0.276378 0.660912
O O11 0.500000 0.299454 0.759342
O O12 0.580466 0.500000 0.815672
O O13 0.633719 0.305992 0.734010
O O14 0.591670 0.219424 0.847170
O O15 0.500000 0.715896 0.323569
O O16 0.422463 0.500000 0.275946
O O17 0.404235 0.763642 0.234016
O O18 0.075555 0.500000 0.671570
O O19 0.000000 0.266396 0.641987
O O20 0.237552 0.000000 0.243710
O O21 0.500000 0.213023 0.941458
O O22 0.593344 0.000000 0.928477
#
# Coordination Sequence:
#
# PCOD8188860 Si02
#       8
#     8   8   8   8   8   8   8   8
#     4  11  21  34  56  81 107 140 178 221 270 321
#     4  12  25  38  53  75 107 145 187 228 271 318
#     4  10  21  36  52  74 107 144 183 222 266 316
#     4   9  17  30  51  80 111 141 174 215 262 313
#     4   9  18  32  52  80 110 137 170 215 264 315
#     4   9  17  30  50  76 106 140 174 208 252 311
#     4  10  19  33  55  81 108 140 177 221 266 316
#     4  10  20  34  53  78 108 142 179 218 265 321
#
# _framework density 17.723372999999999
#
# number of rings (size 3 to 8) (size 9 to 14) (size 15 to 20)
#    0.000    2.000    2.500    1.875    0.000    2.750 
#    0.000    1.250    0.000    0.750    0.000    3.500 
#    0.000    0.000    0.000    0.000    0.000    0.000 
#
# Total GULP energy -396732.892318 kJ/mol
# GULP energy per Si atom -12397.902885 kJ/mol
# Density = 1.768303 g / cm^3
# Si number density = 17.723373 Si / 1000 Ang^3
#
#
#
# Elastic Constant Matrix: (Units=GPa)
#
#
# Indices 1 2 3 4 5 6 
#
# 1 95.0388 35.7925 54.5776 0.0000 0.0000 0.0000
# 2 35.7925 67.1271 44.3948 0.0000 0.0000 0.0000
# 3 54.5776 44.3948 108.8688 0.0000 0.0000 0.0000
# 4 0.0000 0.0000 0.0000 28.1662 0.0000 0.0000
# 5 0.0000 0.0000 0.0000 0.0000 21.0251 0.0000
# 6 0.0000 0.0000 0.0000 0.0000 0.0000 20.7510
#
#
#
# Elastic Compliance Matrix: (Units=1/GPa)
#
#
# Indices 1 2 3 4 5 6 
#
# 1 0.015640 -0.004318 -0.006079 0.000000 0.000000 0.000000
# 2 -0.004318 0.021591 -0.006639 0.000000 0.000000 0.000000
# 3 -0.006079 -0.006639 0.014940 0.000000 0.000000 0.000000
# 4 0.000000 0.000000 0.000000 0.035504 0.000000 0.000000
# 5 0.000000 0.000000 0.000000 0.000000 0.047562 0.000000
# 6 0.000000 0.000000 0.000000 0.000000 0.000000 0.048190
#
#
# Mechanical properties :
#
#
# Convention : Reuss Voigt Hill
#
# Bulk Modulus (GPa) = 55.25992 60.06274 57.66133
# Shear Modulus (GPa) = 22.36800 23.07311 22.72055
#
# Velocity S-wave (km/s) = 3.55641 3.61203 3.58432
# Velocity P-wave (km/s) = 6.93620 7.16646 7.05227
#
# Compressibility (1/GPa) = 0.01809630
#
# Stress axis : x y z
#
# Youngs Moduli (GPa) = 63.94030 46.31608 66.93223
#
# Poissons Ratio (x) = 0.20002 0.40691
# Poissons Ratio (y) = 0.27613 0.44439
# Poissons Ratio (z) = 0.38872 0.30751
#
# Static dielectric constant tensor:
#      x y z
#    x 3.738160 0.000000 0.000000 
#    y 0.000000 3.292070 0.000000 
#    z 0.000000 0.000000 3.058330 
# 
# 
# High freq. dielectric constant tensor:
#      x y z
#    x 1.694250 0.000000 0.000000 
#    y 0.000000 1.686420 0.000000 
#    z 0.000000 0.000000 1.655070 
# 
# From -- ./inp_files/22291.got.cif
#   From: 2010.03.12/outbox.cif.g09.slc.cpg/sg44_12_cif.got.tgz:22291.got - 2010.04.14 02:36:11.
