data_PCOD8188185
_publ_section_title
;
Structure prediction by ZEFSAII (Michael W. Deem and Ramdas Pophale) SiO2 
 PCOD8188185
Probable space group: I M M 2
;
_chemical_formula_sum "Si O2"
_cell_formula_units_Z 64
_cell_length_a 20.808373
_cell_length_b 8.647247
_cell_length_c 19.774741
_cell_angle_alpha 90.000000
_cell_angle_beta 90.000000
_cell_angle_gamma 90.000000
_cell_volume 3558.170810
_symmetry_space_group_name_H-M "I M M 2"
_symmetry_group_IT_number 44
_symmetry_cell_setting 'orthorhombic'
loop_
_space_group_symop_operation_xyz
x,y,z
-x,-y,z
-x,y,z
x,-y,z
1/2+x,1/2+y,1/2+z
1/2-x,1/2-y,1/2+z
1/2-x,1/2+y,1/2+z
1/2+x,1/2-y,1/2+z
loop_
_atom_site_type_symbol
_atom_site_label
_atom_site_fract_x
_atom_site_fract_y
_atom_site_fract_z
Si Si1 0.426906 0.821726 0.799290
Si Si2 0.373345 0.818886 0.526293
Si Si3 0.879895 0.182323 0.165834
Si Si4 0.315255 0.318027 0.885637
Si Si5 0.689992 0.184489 0.304583
Si Si6 0.765648 0.682199 0.664576
Si Si7 0.570132 0.182699 0.385615
Si Si8 0.234611 0.317404 0.516131
O O1 0.500000 0.796415 0.823827
O O2 0.422523 0.766563 0.721828
O O3 0.380593 0.723237 0.847292
O O4 0.406869 0.000000 0.804184
O O5 0.402576 0.729471 0.590744
O O6 0.418971 0.776266 0.463833
O O7 0.302193 0.766440 0.505099
O O8 0.372391 0.000000 0.541947
O O9 0.806926 0.242745 0.173426
O O10 0.886793 0.000000 0.175837
O O11 0.312191 0.500000 0.896233
O O12 0.253761 0.257378 0.843421
O O13 0.315408 0.237384 0.959258
O O14 0.691872 0.246780 0.226916
O O15 0.626151 0.256285 0.338873
O O16 0.688387 0.000000 0.307514
O O17 0.762956 0.500000 0.671004
O O18 0.793113 0.729568 0.590729
O O19 0.500000 0.247977 0.364054
O O20 0.571871 0.000000 0.375853
O O21 0.245999 0.500000 0.512360
#
# Coordination Sequence:
#
# PCOD8188185 Si02
#       8
#     8   8   8   8   8   8   8   8
#     4  11  24  39  54  77 109 142 176 220 273 328
#     4  10  18  30  48  74 108 144 182 219 264 318
#     4  10  19  33  52  75 104 140 181 219 261 314
#     4  11  20  34  57  80 103 137 180 224 270 319
#     4   9  15  28  50  75  99 129 174 220 262 307
#     4   8  15  28  48  73 101 133 167 215 265 307
#     4   9  17  28  45  72 105 138 173 217 264 310
#     4  10  19  31  50  77 107 138 176 220 273 324
#
# _framework density 17.986768999999999
#
# number of rings (size 3 to 8) (size 9 to 14) (size 15 to 20)
#    0.000    2.250    2.500    2.625    0.000    1.500 
#    0.000    1.250    0.000    1.875    0.000    3.500 
#    0.000    0.000    0.000    0.000    0.000    0.000 
#
# Total GULP energy -396678.375012 kJ/mol
# GULP energy per Si atom -12396.199219 kJ/mol
# Density = 1.794583 g / cm^3
# Si number density = 17.986769 Si / 1000 Ang^3
#
#
#
# Elastic Constant Matrix: (Units=GPa)
#
#
# Indices 1 2 3 4 5 6 
#
# 1 95.5370 12.2940 58.8199 0.0000 0.0000 0.0000
# 2 12.2940 26.2127 20.2917 0.0000 0.0000 0.0000
# 3 58.8199 20.2917 126.3161 0.0000 0.0000 0.0000
# 4 0.0000 0.0000 0.0000 26.5421 0.0000 0.0000
# 5 0.0000 0.0000 0.0000 0.0000 24.1466 0.0000
# 6 0.0000 0.0000 0.0000 0.0000 0.0000 18.7346
#
#
#
# Elastic Compliance Matrix: (Units=1/GPa)
#
#
# Indices 1 2 3 4 5 6 
#
# 1 0.014750 -0.001828 -0.006575 0.000000 0.000000 0.000000
# 2 -0.001828 0.043794 -0.006184 0.000000 0.000000 0.000000
# 3 -0.006575 -0.006184 0.011972 0.000000 0.000000 0.000000
# 4 0.000000 0.000000 0.000000 0.037676 0.000000 0.000000
# 5 0.000000 0.000000 0.000000 0.000000 0.041414 0.000000
# 6 0.000000 0.000000 0.000000 0.000000 0.000000 0.053377
#
#
# Mechanical properties :
#
#
# Convention : Reuss Voigt Hill
#
# Bulk Modulus (GPa) = 24.18846 47.87520 36.03183
# Shear Modulus (GPa) = 20.33034 24.32866 22.32950
#
# Velocity S-wave (km/s) = 3.36563 3.68174 3.52723
# Velocity P-wave (km/s) = 5.34607 6.68942 6.05511
#
# Compressibility (1/GPa) = 0.04134203
#
# Stress axis : x y z
#
# Youngs Moduli (GPa) = 67.79444 22.83420 83.53034
#
# Poissons Ratio (x) = 0.04175 0.54921
# Poissons Ratio (y) = 0.12395 0.51653
# Poissons Ratio (z) = 0.44575 0.14120
#
# Static dielectric constant tensor:
#      x y z
#    x 3.274110 0.000000 0.000000 
#    y 0.000000 3.072820 0.000000 
#    z 0.000000 0.000000 3.667950 
# 
# 
# High freq. dielectric constant tensor:
#      x y z
#    x 1.668430 0.000000 0.000000 
#    y 0.000000 1.674200 0.000000 
#    z 0.000000 0.000000 1.706200 
# 
# From -- ./inp_files/24384.got.cif
#   From: 2010.03.12/outbox.cif.g09.slc.cpg/sg44_13_cif.got.tgz:24384.got - 2010.04.14 02:36:11.
