data_PCOD8188158
_publ_section_title
;
Structure prediction by ZEFSAII (Michael W. Deem and Ramdas Pophale) SiO2 
 PCOD8188158
Probable space group: I M M 2
;
_chemical_formula_sum "Si O2"
_cell_formula_units_Z 64
_cell_length_a 26.510106
_cell_length_b 10.157677
_cell_length_c 12.678900
_cell_angle_alpha 90.000000
_cell_angle_beta 90.000000
_cell_angle_gamma 90.000000
_cell_volume 3414.188063
_symmetry_space_group_name_H-M "I M M 2"
_symmetry_group_IT_number 44
_symmetry_cell_setting 'orthorhombic'
loop_
_space_group_symop_operation_xyz
x,y,z
-x,-y,z
-x,y,z
x,-y,z
1/2+x,1/2+y,1/2+z
1/2-x,1/2-y,1/2+z
1/2-x,1/2+y,1/2+z
1/2+x,1/2-y,1/2+z
loop_
_atom_site_type_symbol
_atom_site_label
_atom_site_fract_x
_atom_site_fract_y
_atom_site_fract_z
Si Si1 0.165781 0.854792 0.569640
Si Si2 0.446275 0.849425 0.907983
Si Si3 0.585515 0.150983 0.324553
Si Si4 0.193938 0.648097 0.743822
Si Si5 0.371046 0.156897 0.736044
Si Si6 0.300581 0.651023 0.834397
Si Si7 0.943837 0.216179 0.615634
Si Si8 0.555789 0.843953 0.551426
O O1 0.191801 0.750265 0.647190
O O2 0.180495 0.810255 0.451361
O O3 0.105099 0.872413 0.589123
O O4 0.188877 0.000000 0.590659
O O5 0.500000 0.782241 0.878214
O O6 0.402325 0.790169 0.837170
O O7 0.449234 0.000000 0.876246
O O8 0.436873 0.835938 0.032851
O O9 0.645424 0.167029 0.317255
O O10 0.557348 0.230787 0.233734
O O11 0.568685 0.212730 0.435989
O O12 0.568360 0.000000 0.315198
O O13 0.195003 0.500000 0.695511
O O14 0.240545 0.669951 0.822788
O O15 0.321602 0.247109 0.746045
O O16 0.401888 0.202402 0.633388
O O17 0.358532 0.000000 0.736922
O O18 0.316280 0.500000 0.808648
O O19 0.000000 0.148907 0.600518
O O20 0.500000 0.794571 0.585820
O O21 0.556722 0.000000 0.547340
#
# Coordination Sequence:
#
# PCOD8188158 Si02
#       8
#     8   8   8   8   8   8   8   8
#     4  10  21  37  56  80 111 141 173 219 270 321
#     4   9  16  26  43  71 105 138 173 217 264 307
#     4   9  17  30  49  76 105 136 179 226 271 318
#     4   9  20  37  57  78 103 137 179 226 271 315
#     4  10  19  31  51  78 107 140 179 221 262 312
#     4  10  21  38  56  78 109 143 176 218 270 321
#     4  10  18  29  49  76 107 144 179 213 260 320
#     4   9  17  29  48  76 109 141 175 220 269 313
#
# _framework density 18.745304999999998
#
# number of rings (size 3 to 8) (size 9 to 14) (size 15 to 20)
#    0.000    2.500    1.250    1.125    0.000    5.500 
#    0.000    2.500    0.000    6.000    0.000    0.000 
#    0.000    0.000    0.000    0.000    0.000    0.000 
#
# Total GULP energy -396428.234785 kJ/mol
# GULP energy per Si atom -12388.382337 kJ/mol
# Density = 1.870264 g / cm^3
# Si number density = 18.745305 Si / 1000 Ang^3
#
#
#
# Elastic Constant Matrix: (Units=GPa)
#
#
# Indices 1 2 3 4 5 6 
#
# 1 87.5548 25.4025 38.4795 0.0000 0.0000 0.0000
# 2 25.4025 57.4555 29.6705 0.0000 0.0000 0.0000
# 3 38.4795 29.6705 105.3512 0.0000 0.0000 0.0000
# 4 0.0000 0.0000 0.0000 19.9393 0.0000 0.0000
# 5 0.0000 0.0000 0.0000 0.0000 26.1372 0.0000
# 6 0.0000 0.0000 0.0000 0.0000 0.0000 15.4611
#
#
#
# Elastic Compliance Matrix: (Units=1/GPa)
#
#
# Indices 1 2 3 4 5 6 
#
# 1 0.014455 -0.004288 -0.004072 0.000000 0.000000 0.000000
# 2 -0.004288 0.021639 -0.004528 0.000000 0.000000 0.000000
# 3 -0.004072 -0.004528 0.012255 0.000000 0.000000 0.000000
# 4 0.000000 0.000000 0.000000 0.050152 0.000000 0.000000
# 5 0.000000 0.000000 0.000000 0.000000 0.038260 0.000000
# 6 0.000000 0.000000 0.000000 0.000000 0.000000 0.064679
#
#
# Mechanical properties :
#
#
# Convention : Reuss Voigt Hill
#
# Bulk Modulus (GPa) = 44.30209 48.60740 46.45474
# Shear Modulus (GPa) = 21.30018 22.76145 22.03081
#
# Velocity S-wave (km/s) = 3.37455 3.48839 3.43194
# Velocity P-wave (km/s) = 6.23446 6.49706 6.36712
#
# Compressibility (1/GPa) = 0.02257230
#
# Stress axis : x y z
#
# Youngs Moduli (GPa) = 69.17934 46.21289 81.60185
#
# Poissons Ratio (x) = 0.19817 0.33229
# Poissons Ratio (y) = 0.29665 0.36950
# Poissons Ratio (z) = 0.28170 0.20925
#
# Static dielectric constant tensor:
#      x y z
#    x 3.664860 0.000000 0.000000 
#    y 0.000000 3.092090 0.000000 
#    z 0.000000 0.000000 3.454720 
# 
# 
# High freq. dielectric constant tensor:
#      x y z
#    x 1.738150 0.000000 0.000000 
#    y 0.000000 1.687650 0.000000 
#    z 0.000000 0.000000 1.726190 
# 
# From -- ./inp_files/14693.got.cif
#   From: 2010.03.12/outbox.cif.g09.slc.cpg/sg44_8_cif.got.tgz:14693.got - 2010.04.14 02:36:11.
