data_PCOD8188986
_publ_section_title
;
Structure prediction by ZEFSAII (Michael W. Deem and Ramdas Pophale) SiO2 
 PCOD8188986
Probable space group: I M M 2
;
_chemical_formula_sum "Si O2"
_cell_formula_units_Z 48
_cell_length_a 14.385045
_cell_length_b 18.294236
_cell_length_c 9.702743
_cell_angle_alpha 90.000000
_cell_angle_beta 90.000000
_cell_angle_gamma 90.000000
_cell_volume 2553.406916
_symmetry_space_group_name_H-M "I M M 2"
_symmetry_group_IT_number 44
_symmetry_cell_setting 'orthorhombic'
loop_
_space_group_symop_operation_xyz
x,y,z
-x,-y,z
-x,y,z
x,-y,z
1/2+x,1/2+y,1/2+z
1/2-x,1/2-y,1/2+z
1/2-x,1/2+y,1/2+z
1/2+x,1/2-y,1/2+z
loop_
_atom_site_type_symbol
_atom_site_label
_atom_site_fract_x
_atom_site_fract_y
_atom_site_fract_z
Si Si1 0.210840 0.172554 0.862130
Si Si2 0.398996 0.766295 0.812032
Si Si3 0.250367 0.082411 0.599225
Si Si4 0.602692 0.418560 0.571785
Si Si5 0.396465 0.395874 0.879525
Si Si6 0.608107 0.202083 0.505402
O O1 0.321433 0.182448 0.878744
O O2 0.198334 0.131762 0.715693
O O3 0.179901 0.120870 0.983588
O O4 0.155712 0.250326 0.881016
O O5 0.500000 0.803966 0.832833
O O6 0.394417 0.691105 0.893408
O O7 0.383043 0.751838 0.648061
O O8 0.173399 0.067919 0.484779
O O9 0.338566 0.125130 0.532261
O O10 0.280527 0.000000 0.650136
O O11 0.500000 0.380548 0.558408
O O12 0.595281 0.500000 0.513968
O O13 0.636110 0.419886 0.728552
O O14 0.500000 0.425784 0.908828
O O15 0.500000 0.186421 0.467683
#
# Coordination Sequence:
#
# PCOD8188986 Si02
#       6
#     8   8   8   8   8   8
#     4  11  20  35  60  85 113 143 190 245 293 334
#     4   9  18  34  57  82 107 139 187 234 274 333
#     4  11  24  38  55  87 124 154 188 242 306 351
#     4  10  20  34  56  83 111 147 188 230 284 351
#     4  10  19  35  56  79 110 150 188 225 279 349
#     4  10  20  37  60  83 110 151 197 238 280 342
#
# _framework density 18.798414000000001
#
# number of rings (size 3 to 8) (size 9 to 14) (size 15 to 20)
#    0.000    1.833    3.333    1.500    0.000    2.667 
#    0.000    0.000    0.000    1.500    0.000    0.000 
#    0.000    0.000    0.000    0.000    0.000    0.000 
#
# Total GULP energy -297400.013984 kJ/mol
# GULP energy per Si atom -12391.667249 kJ/mol
# Density = 1.875563 g / cm^3
# Si number density = 18.798414 Si / 1000 Ang^3
#
#
#
# Elastic Constant Matrix: (Units=GPa)
#
#
# Indices 1 2 3 4 5 6 
#
# 1 135.1711 48.9803 62.9988 0.0000 0.0000 0.0000
# 2 48.9803 100.9175 44.3135 0.0000 0.0000 0.0000
# 3 62.9988 44.3135 70.2762 0.0000 0.0000 0.0000
# 4 0.0000 0.0000 0.0000 6.0190 0.0000 0.0000
# 5 0.0000 0.0000 0.0000 0.0000 30.5226 0.0000
# 6 0.0000 0.0000 0.0000 0.0000 0.0000 -6.0564
#
#
#
# Elastic Compliance Matrix: (Units=1/GPa)
#
#
# Indices 1 2 3 4 5 6 
#
# 1 0.012900 -0.001636 -0.010532 0.000000 0.000000 0.000000
# 2 -0.001636 0.013911 -0.007305 0.000000 0.000000 0.000000
# 3 -0.010532 -0.007305 0.028277 0.000000 0.000000 0.000000
# 4 0.000000 0.000000 0.000000 0.166141 0.000000 0.000000
# 5 0.000000 0.000000 0.000000 0.000000 0.032763 0.000000
# 6 0.000000 0.000000 0.000000 0.000000 0.000000 -0.165114
#
#
# Mechanical properties :
#
#
# Convention : Reuss Voigt Hill
#
# Bulk Modulus (GPa) = 61.95280 68.77221 65.36250
# Shear Modulus (GPa) = 37.53618 16.10184 26.81901
#
# Velocity S-wave (km/s) = 4.47338 2.92987 3.78122
# Velocity P-wave (km/s) = 7.72719 6.93606 7.34229
#
# Compressibility (1/GPa) = 0.01614132
#
# Stress axis : x y z
#
# Youngs Moduli (GPa) = 77.52222 71.88644 35.36414
#
# Poissons Ratio (x) = 0.11761 0.37246
# Poissons Ratio (y) = 0.12683 0.25833
# Poissons Ratio (z) = 0.81647 0.52513
#
# Static dielectric constant tensor:
#      x y z
#    x 3.546070 0.000000 0.000000 
#    y 0.000000 3.492880 0.000000 
#    z 0.000000 0.000000 3.307580 
# 
# 
# High freq. dielectric constant tensor:
#      x y z
#    x 1.727740 0.000000 0.000000 
#    y 0.000000 1.732610 0.000000 
#    z 0.000000 0.000000 1.708710 
# 
# From -- ./inp_files/7109.got.cif
#   From: 2010.03.12/outbox.cif.g09.slc.cpg/sg44_4_cif.got.tgz:7109.got - 2010.04.14 02:36:11.
