data_PCOD8188836
_publ_section_title
;
Structure prediction by ZEFSAII (Michael W. Deem and Ramdas Pophale) SiO2 
 PCOD8188836
Probable space group: I M M 2
;
_chemical_formula_sum "Si O2"
_cell_formula_units_Z 64
_cell_length_a 32.340060
_cell_length_b 8.968167
_cell_length_c 11.769205
_cell_angle_alpha 90.000000
_cell_angle_beta 90.000000
_cell_angle_gamma 90.000000
_cell_volume 3413.434988
_symmetry_space_group_name_H-M "I M M 2"
_symmetry_group_IT_number 44
_symmetry_cell_setting 'orthorhombic'
loop_
_space_group_symop_operation_xyz
x,y,z
-x,-y,z
-x,y,z
x,-y,z
1/2+x,1/2+y,1/2+z
1/2-x,1/2-y,1/2+z
1/2-x,1/2+y,1/2+z
1/2+x,1/2-y,1/2+z
loop_
_atom_site_type_symbol
_atom_site_label
_atom_site_fract_x
_atom_site_fract_y
_atom_site_fract_z
Si Si1 0.547652 0.323562 0.392060
Si Si2 0.310635 0.176975 0.346962
Si Si3 0.860530 0.176796 0.262401
Si Si4 0.403614 0.168163 0.959798
Si Si5 0.379192 0.177873 0.522448
Si Si6 0.451558 0.663450 0.139283
Si Si7 0.780210 0.175797 0.399025
Si Si8 0.820470 0.331988 0.596527
O O1 0.500000 0.277443 0.415580
O O2 0.553087 0.500000 0.407989
O O3 0.576415 0.237472 0.481475
O O4 0.561724 0.275985 0.264144
O O5 0.343181 0.238512 0.438818
O O6 0.264459 0.240866 0.365658
O O7 0.324448 0.233232 0.223064
O O8 0.310292 0.000000 0.354586
O O9 0.896090 0.228860 0.350127
O O10 0.868410 0.258605 0.145107
O O11 0.815610 0.228838 0.310249
O O12 0.863278 0.000000 0.246524
O O13 0.412960 0.000000 0.919004
O O14 0.441266 0.227055 0.035700
O O15 0.365233 0.174907 0.043413
O O16 0.380732 0.000000 0.527605
O O17 0.500000 0.643819 0.143371
O O18 0.431253 0.500000 0.117649
O O19 0.788755 0.233255 0.525431
O O20 0.779925 0.000000 0.402866
O O21 0.802872 0.500000 0.598948
#
# Coordination Sequence:
#
# PCOD8188836 Si02
#       8
#     8   8   8   8   8   8   8   8
#     4   9  19  37  59  83 114 149 184 225 274 329
#     4   9  19  34  52  76 108 141 172 218 274 323
#     4  10  21  37  56  76 105 146 189 229 272 326
#     4  10  19  33  54  79 106 139 178 219 269 323
#     4  11  22  36  56  82 112 145 184 232 282 334
#     4   9  18  33  55  83 113 143 175 218 271 324
#     4   9  19  35  53  74 102 139 180 222 267 317
#     4   9  18  33  52  73 100 134 171 213 263 314
#
# _framework density 18.749441000000001
#
# number of rings (size 3 to 8) (size 9 to 14) (size 15 to 20)
#    0.000    2.500    0.000    2.625    1.750    3.000 
#    0.000    4.375    0.000    3.750    0.000    0.000 
#    0.000    0.000    0.000    0.000    0.000    0.000 
#
# Total GULP energy -396730.563229 kJ/mol
# GULP energy per Si atom -12397.830101 kJ/mol
# Density = 1.870677 g / cm^3
# Si number density = 18.749441 Si / 1000 Ang^3
#
#
#
# Elastic Constant Matrix: (Units=GPa)
#
#
# Indices 1 2 3 4 5 6 
#
# 1 74.6554 32.7030 57.5142 0.0000 0.0000 0.0000
# 2 32.7030 53.5979 41.0464 0.0000 0.0000 0.0000
# 3 57.5142 41.0464 153.3591 0.0000 0.0000 0.0000
# 4 0.0000 0.0000 0.0000 32.5123 0.0000 0.0000
# 5 0.0000 0.0000 0.0000 0.0000 24.5667 0.0000
# 6 0.0000 0.0000 0.0000 0.0000 0.0000 22.4955
#
#
#
# Elastic Compliance Matrix: (Units=1/GPa)
#
#
# Indices 1 2 3 4 5 6 
#
# 1 0.021713 -0.008820 -0.005782 0.000000 0.000000 0.000000
# 2 -0.008820 0.027050 -0.003932 0.000000 0.000000 0.000000
# 3 -0.005782 -0.003932 0.009742 0.000000 0.000000 0.000000
# 4 0.000000 0.000000 0.000000 0.030758 0.000000 0.000000
# 5 0.000000 0.000000 0.000000 0.000000 0.040706 0.000000
# 6 0.000000 0.000000 0.000000 0.000000 0.000000 0.044453
#
#
# Mechanical properties :
#
#
# Convention : Reuss Voigt Hill
#
# Bulk Modulus (GPa) = 46.65080 60.45995 53.55538
# Shear Modulus (GPa) = 22.86896 25.93814 24.40355
#
# Velocity S-wave (km/s) = 3.49623 3.72346 3.61163
# Velocity P-wave (km/s) = 6.42132 7.12754 6.78362
#
# Compressibility (1/GPa) = 0.02143586
#
# Stress axis : x y z
#
# Youngs Moduli (GPa) = 46.05463 36.96796 102.65172
#
# Poissons Ratio (x) = 0.32606 0.59358
# Poissons Ratio (y) = 0.40621 0.40365
# Poissons Ratio (z) = 0.26631 0.14537
#
# Static dielectric constant tensor:
#      x y z
#    x 3.467420 0.000000 0.000000 
#    y 0.000000 3.357440 0.000000 
#    z 0.000000 0.000000 3.528050 
# 
# 
# High freq. dielectric constant tensor:
#      x y z
#    x 1.722390 0.000000 0.000000 
#    y 0.000000 1.716060 0.000000 
#    z 0.000000 0.000000 1.732250 
# 
# From -- ./inp_files/11537.got.cif
#   From: 2010.03.12/outbox.cif.g09.slc.cpg/sg44_6_cif.got.tgz:11537.got - 2010.04.14 02:36:11.
