data_PCOD8188005
_publ_section_title
;
Structure prediction by ZEFSAII (Michael W. Deem and Ramdas Pophale) SiO2 
 PCOD8188005
Probable space group: I M M 2
;
_chemical_formula_sum "Si O2"
_cell_formula_units_Z 64
_cell_length_a 18.589623
_cell_length_b 8.846700
_cell_length_c 26.120485
_cell_angle_alpha 90.000000
_cell_angle_beta 90.000000
_cell_angle_gamma 90.000000
_cell_volume 4295.691842
_symmetry_space_group_name_H-M "I M M 2"
_symmetry_group_IT_number 44
_symmetry_cell_setting 'orthorhombic'
loop_
_space_group_symop_operation_xyz
x,y,z
-x,-y,z
-x,y,z
x,-y,z
1/2+x,1/2+y,1/2+z
1/2-x,1/2-y,1/2+z
1/2-x,1/2+y,1/2+z
1/2+x,1/2-y,1/2+z
loop_
_atom_site_type_symbol
_atom_site_label
_atom_site_fract_x
_atom_site_fract_y
_atom_site_fract_z
Si Si1 0.653807 0.672174 0.042130
Si Si2 0.708501 0.823615 0.199277
Si Si3 0.921596 0.676186 0.153883
Si Si4 0.418505 0.322649 0.149688
Si Si5 0.082264 0.674546 0.449315
Si Si6 0.666080 0.178870 0.752191
Si Si7 0.582731 0.677039 0.843704
Si Si8 0.281780 0.826652 0.606466
O O1 0.635479 0.500000 0.026568
O O2 0.610893 0.718262 0.093276
O O3 0.740224 0.691891 0.052469
O O4 0.632787 0.782637 0.996604
O O5 0.627553 0.758570 0.194296
O O6 0.753521 0.745546 0.245123
O O7 0.747939 0.789822 0.146061
O O8 0.704777 0.000000 0.210277
O O9 0.934116 0.500000 0.160766
O O10 0.884829 0.738158 0.205839
O O11 0.867944 0.706830 0.105245
O O12 0.000000 0.754103 0.144975
O O13 0.500000 0.263971 0.153845
O O14 0.412948 0.500000 0.159036
O O15 0.093715 0.500000 0.435505
O O16 0.104927 0.773708 0.400669
O O17 0.000000 0.708494 0.464925
O O18 0.633795 0.235453 0.805099
O O19 0.671347 0.000000 0.752980
O O20 0.500000 0.722367 0.832925
O O21 0.595166 0.500000 0.837572
O O22 0.269420 0.000000 0.626550
#
# Coordination Sequence:
#
# PCOD8188005 Si02
#       8
#     8   8   8   8   8   8   8   8
#     4   9  16  27  42  58  79 109 141 171 206 247
#     4  10  18  27  40  59  83 109 139 174 209 244
#     4   8  13  22  39  61  81 104 136 170 200 234
#     4   9  17  29  44  61  83 112 143 173 209 253
#     4  10  20  31  42  58  80 106 138 174 208 243
#     4  10  18  29  44  60  82 112 144 173 204 245
#     4  10  20  32  45  62  84 108 136 172 211 248
#     4   8  15  27  40  56  80 109 139 170 207 250
#
# _framework density 14.898648
#
# number of rings (size 3 to 8) (size 9 to 14) (size 15 to 20)
#    0.000    2.750    0.000    4.500    0.000    4.750 
#    0.000    0.000    0.000    3.375    0.000    0.000 
#    0.000    1.000    0.000    5.000    0.000    3.375 
#
# Total GULP energy -396579.308679 kJ/mol
# GULP energy per Si atom -12393.103396 kJ/mol
# Density = 1.486474 g / cm^3
# Si number density = 14.898648 Si / 1000 Ang^3
#
#
#
# Elastic Constant Matrix: (Units=GPa)
#
#
# Indices 1 2 3 4 5 6 
#
# 1 117.0373 30.2061 47.5319 0.0000 0.0000 0.0000
# 2 30.2061 57.0213 27.3387 0.0000 0.0000 0.0000
# 3 47.5319 27.3387 65.0537 0.0000 0.0000 0.0000
# 4 0.0000 0.0000 0.0000 23.2034 0.0000 0.0000
# 5 0.0000 0.0000 0.0000 0.0000 25.7217 0.0000
# 6 0.0000 0.0000 0.0000 0.0000 0.0000 17.6527
#
#
#
# Elastic Compliance Matrix: (Units=1/GPa)
#
#
# Indices 1 2 3 4 5 6 
#
# 1 0.012499 -0.002808 -0.007952 0.000000 0.000000 0.000000
# 2 -0.002808 0.022593 -0.007443 0.000000 0.000000 0.000000
# 3 -0.007952 -0.007443 0.024310 0.000000 0.000000 0.000000
# 4 0.000000 0.000000 0.000000 0.043097 0.000000 0.000000
# 5 0.000000 0.000000 0.000000 0.000000 0.038878 0.000000
# 6 0.000000 0.000000 0.000000 0.000000 0.000000 0.056649
#
#
# Mechanical properties :
#
#
# Convention : Reuss Voigt Hill
#
# Bulk Modulus (GPa) = 43.48674 49.91840 46.70257
# Shear Modulus (GPa) = 20.65288 22.25128 21.45208
#
# Velocity S-wave (km/s) = 3.72724 3.86879 3.79868
# Velocity P-wave (km/s) = 6.91194 7.31674 7.11722
#
# Compressibility (1/GPa) = 0.02299552
#
# Stress axis : x y z
#
# Youngs Moduli (GPa) = 80.00910 44.26058 41.13553
#
# Poissons Ratio (x) = 0.12430 0.32711
# Poissons Ratio (y) = 0.22470 0.30617
# Poissons Ratio (z) = 0.63623 0.32943
#
# Static dielectric constant tensor:
#      x y z
#    x 3.204080 0.000000 0.000000 
#    y 0.000000 2.776070 0.000000 
#    z 0.000000 0.000000 2.633550 
# 
# 
# High freq. dielectric constant tensor:
#      x y z
#    x 1.566510 0.000000 0.000000 
#    y 0.000000 1.567590 0.000000 
#    z 0.000000 0.000000 1.530670 
# 
# From -- ./inp_files/25873.got.cif
#   From: 2010.03.12/outbox.cif.g09.slc.cpg/sg44_13_cif.got.tgz:25873.got - 2010.04.14 02:36:11.
