data_PCOD8188220
_publ_section_title
;
Structure prediction by ZEFSAII (Michael W. Deem and Ramdas Pophale) SiO2 
 PCOD8188220
Probable space group: I M M 2
;
_chemical_formula_sum "Si O2"
_cell_formula_units_Z 40
_cell_length_a 26.158790
_cell_length_b 8.506168
_cell_length_c 9.146074
_cell_angle_alpha 90.000000
_cell_angle_beta 90.000000
_cell_angle_gamma 90.000000
_cell_volume 2035.102643
_symmetry_space_group_name_H-M "I M M 2"
_symmetry_group_IT_number 44
_symmetry_cell_setting 'orthorhombic'
loop_
_space_group_symop_operation_xyz
x,y,z
-x,-y,z
-x,y,z
x,-y,z
1/2+x,1/2+y,1/2+z
1/2-x,1/2-y,1/2+z
1/2-x,1/2+y,1/2+z
1/2+x,1/2-y,1/2+z
loop_
_atom_site_type_symbol
_atom_site_label
_atom_site_fract_x
_atom_site_fract_y
_atom_site_fract_z
Si Si1 0.397429 0.816622 0.316220
Si Si2 0.000000 0.182125 0.841470
Si Si3 0.890441 0.687380 0.147713
Si Si4 0.696434 0.682048 0.153093
Si Si5 0.295993 0.185393 0.836696
Si Si6 0.500000 0.818382 0.654601
O O1 0.447869 0.725609 0.254954
O O2 0.383255 0.755769 0.479924
O O3 0.351093 0.783079 0.207848
O O4 0.409340 0.000000 0.315156
O O5 0.000000 0.296302 0.980927
O O6 0.000000 0.000000 0.885314
O O7 0.889803 0.500000 0.149411
O O8 0.844882 0.752224 0.247604
O O9 0.945552 0.751894 0.211798
O O10 0.683238 0.500000 0.171243
O O11 0.746149 0.728577 0.244773
O O12 0.707948 0.720844 0.986093
O O13 0.300777 0.000000 0.866026
O O14 0.500000 0.000000 0.693668
#
# Coordination Sequence:
#
# PCOD8188220 Si02
#       6
#     8   4   8   8   8   4
#     4  10  19  35  58  81 108 145 184 221 268 323
#     4  10  18  30  51  82 115 142 176 222 266 314
#     4   8  15  30  54  80 104 136 181 226 263 313
#     4  11  23  37  54  79 108 140 182 230 276 324
#     4  10  21  37  55  76 106 143 181 223 275 330
#     4   8  14  28  51  78 107 142 184 222 260 314
#
# _framework density 19.655028999999999
#
# number of rings (size 3 to 8) (size 9 to 14) (size 15 to 20)
#    0.000    2.400    0.000    4.500    0.000    3.200 
#    0.000    6.000    0.000    2.400    0.000    0.000 
#    0.000    0.000    0.000    0.000    0.000    0.000 
#
# Total GULP energy -247885.847667 kJ/mol
# GULP energy per Si atom -12394.292383 kJ/mol
# Density = 1.961029 g / cm^3
# Si number density = 19.655029 Si / 1000 Ang^3
#
#
#
# Elastic Constant Matrix: (Units=GPa)
#
#
# Indices 1 2 3 4 5 6 
#
# 1 169.9869 31.5569 55.7196 0.0000 0.0000 0.0000
# 2 31.5569 42.1034 20.8020 0.0000 0.0000 0.0000
# 3 55.7196 20.8020 91.7341 0.0000 0.0000 0.0000
# 4 0.0000 0.0000 0.0000 22.8248 0.0000 0.0000
# 5 0.0000 0.0000 0.0000 0.0000 32.8723 0.0000
# 6 0.0000 0.0000 0.0000 0.0000 0.0000 23.0582
#
#
#
# Elastic Compliance Matrix: (Units=1/GPa)
#
#
# Indices 1 2 3 4 5 6 
#
# 1 0.007901 -0.003999 -0.003892 0.000000 0.000000 0.000000
# 2 -0.003999 0.028772 -0.004095 0.000000 0.000000 0.000000
# 3 -0.003892 -0.004095 0.014194 0.000000 0.000000 0.000000
# 4 0.000000 0.000000 0.000000 0.043812 0.000000 0.000000
# 5 0.000000 0.000000 0.000000 0.000000 0.030421 0.000000
# 6 0.000000 0.000000 0.000000 0.000000 0.000000 0.043369
#
#
# Mechanical properties :
#
#
# Convention : Reuss Voigt Hill
#
# Bulk Modulus (GPa) = 37.18384 57.77572 47.47978
# Shear Modulus (GPa) = 24.82554 28.80079 26.81317
#
# Velocity S-wave (km/s) = 3.55782 3.83210 3.69750
# Velocity P-wave (km/s) = 5.98638 7.00276 6.51442
#
# Compressibility (1/GPa) = 0.02689340
#
# Stress axis : x y z
#
# Youngs Moduli (GPa) = 126.56619 34.75649 70.45238
#
# Poissons Ratio (x) = 0.13898 0.27422
# Poissons Ratio (y) = 0.50611 0.28854
# Poissons Ratio (z) = 0.49264 0.14234
#
# Static dielectric constant tensor:
#      x y z
#    x 4.194080 0.000000 0.000000 
#    y 0.000000 3.258080 0.000000 
#    z 0.000000 0.000000 3.322450 
# 
# 
# High freq. dielectric constant tensor:
#      x y z
#    x 1.795570 0.000000 0.000000 
#    y 0.000000 1.743010 0.000000 
#    z 0.000000 0.000000 1.731520 
# 
# From -- ./inp_files/4632.got.cif
#   From: 2010.03.12/outbox.cif.g09.slc.cpg/sg44_3_cif.got.tgz:4632.got - 2010.04.14 02:36:11.
