data_PCOD8188307
_publ_section_title
;
Structure prediction by ZEFSAII (Michael W. Deem and Ramdas Pophale) SiO2 
 PCOD8188307
Probable space group: I M M 2
;
_chemical_formula_sum "Si O2"
_cell_formula_units_Z 56
_cell_length_a 19.947157
_cell_length_b 9.455787
_cell_length_c 15.399083
_cell_angle_alpha 90.000000
_cell_angle_beta 90.000000
_cell_angle_gamma 90.000000
_cell_volume 2904.514484
_symmetry_space_group_name_H-M "I M M 2"
_symmetry_group_IT_number 44
_symmetry_cell_setting 'orthorhombic'
loop_
_space_group_symop_operation_xyz
x,y,z
-x,-y,z
-x,y,z
x,-y,z
1/2+x,1/2+y,1/2+z
1/2-x,1/2-y,1/2+z
1/2-x,1/2+y,1/2+z
1/2+x,1/2-y,1/2+z
loop_
_atom_site_type_symbol
_atom_site_label
_atom_site_fract_x
_atom_site_fract_y
_atom_site_fract_z
Si Si1 0.184063 0.834967 0.476130
Si Si2 0.926168 0.153376 0.718246
Si Si3 0.574193 0.832902 0.564886
Si Si4 0.579444 0.837948 0.064151
Si Si5 0.397430 0.840670 0.369361
Si Si6 0.784978 0.332363 0.130646
Si Si7 0.249559 0.841965 0.298124
O O1 0.117083 0.741758 0.486892
O O2 0.242532 0.789751 0.544540
O O3 0.200365 0.800605 0.376305
O O4 0.167686 0.000000 0.489620
O O5 0.891550 0.261324 0.651078
O O6 0.935080 0.227142 0.810685
O O7 0.000000 0.124366 0.681686
O O8 0.888364 0.000000 0.723015
O O9 0.500000 0.773201 0.593477
O O10 0.589284 0.789185 0.466377
O O11 0.637505 0.777078 0.621350
O O12 0.572690 0.000000 0.572372
O O13 0.500000 0.826443 0.050865
O O14 0.602235 0.000000 0.069965
O O15 0.320385 0.834288 0.345035
O O16 0.425650 0.000000 0.355074
O O17 0.783561 0.500000 0.142442
O O18 0.754376 0.264293 0.217486
O O19 0.234810 0.000000 0.263620
#
# Coordination Sequence:
#
# PCOD8188307 Si02
#       7
#     8   8   8   8   8   8   8
#     4  10  20  37  58  80 112 147 183 229 283 339
#     4  10  20  32  47  73 110 146 177 213 268 335
#     4   9  17  32  56  82 109 146 190 237 288 336
#     4  10  21  36  54  78 107 140 183 232 278 329
#     4  10  18  32  54  80 107 138 183 234 280 332
#     4  10  20  36  57  83 113 148 191 237 279 334
#     4  10  21  36  55  81 112 145 183 231 283 338
#
# _framework density 19.280331
#
# number of rings (size 3 to 8) (size 9 to 14) (size 15 to 20)
#    0.000    2.143    1.429    2.143    0.000    6.286 
#    0.000    1.429    0.000    3.857    0.000    0.000 
#    0.000    0.000    0.000    0.000    0.000    0.000 
#
# Total GULP energy -346941.284933 kJ/mol
# GULP energy per Si atom -12390.760176 kJ/mol
# Density = 1.923645 g / cm^3
# Si number density = 19.280331 Si / 1000 Ang^3
#
#
#
# Elastic Constant Matrix: (Units=GPa)
#
#
# Indices 1 2 3 4 5 6 
#
# 1 63.2321 23.6088 11.8572 0.0000 0.0000 0.0000
# 2 23.6088 88.2334 36.5496 0.0000 0.0000 0.0000
# 3 11.8572 36.5496 60.1456 0.0000 0.0000 0.0000
# 4 0.0000 0.0000 0.0000 26.5612 0.0000 0.0000
# 5 0.0000 0.0000 0.0000 0.0000 7.5448 0.0000
# 6 0.0000 0.0000 0.0000 0.0000 0.0000 20.5769
#
#
#
# Elastic Compliance Matrix: (Units=1/GPa)
#
#
# Indices 1 2 3 4 5 6 
#
# 1 0.017600 -0.004373 -0.000812 0.000000 0.000000 0.000000
# 2 -0.004373 0.016233 -0.009002 0.000000 0.000000 0.000000
# 3 -0.000812 -0.009002 0.022257 0.000000 0.000000 0.000000
# 4 0.000000 0.000000 0.000000 0.037649 0.000000 0.000000
# 5 0.000000 0.000000 0.000000 0.000000 0.132541 0.000000
# 6 0.000000 0.000000 0.000000 0.000000 0.000000 0.048598
#
#
# Mechanical properties :
#
#
# Convention : Reuss Voigt Hill
#
# Bulk Modulus (GPa) = 36.08204 39.51582 37.79893
# Shear Modulus (GPa) = 16.00049 20.24296 18.12172
#
# Velocity S-wave (km/s) = 2.88390 3.24377 3.06912
# Velocity P-wave (km/s) = 5.46299 5.87957 5.67510
#
# Compressibility (1/GPa) = 0.02771462
#
# Stress axis : x y z
#
# Youngs Moduli (GPa) = 56.81914 61.60418 44.92958
#
# Poissons Ratio (x) = 0.26937 0.03650
# Poissons Ratio (y) = 0.24845 0.40447
# Poissons Ratio (z) = 0.04616 0.55458
#
# Static dielectric constant tensor:
#      x y z
#    x 3.975130 0.000000 0.000000 
#    y 0.000000 3.506000 0.000000 
#    z 0.000000 0.000000 3.436600 
# 
# 
# High freq. dielectric constant tensor:
#      x y z
#    x 1.755400 0.000000 0.000000 
#    y 0.000000 1.733300 0.000000 
#    z 0.000000 0.000000 1.733230 
# 
# From -- ./inp_files/16438.got.cif
#   From: 2010.03.12/outbox.cif.g09.slc.cpg/sg44_9_cif.got.tgz:16438.got - 2010.04.14 02:36:11.
