data_PCOD8188344
_publ_section_title
;
Structure prediction by ZEFSAII (Michael W. Deem and Ramdas Pophale) SiO2 
 PCOD8188344
Probable space group: I M M 2
;
_chemical_formula_sum "Si O2"
_cell_formula_units_Z 64
_cell_length_a 20.500988
_cell_length_b 9.173986
_cell_length_c 19.780555
_cell_angle_alpha 90.000000
_cell_angle_beta 90.000000
_cell_angle_gamma 90.000000
_cell_volume 3720.243249
_symmetry_space_group_name_H-M "I M M 2"
_symmetry_group_IT_number 44
_symmetry_cell_setting 'orthorhombic'
loop_
_space_group_symop_operation_xyz
x,y,z
-x,-y,z
-x,y,z
x,-y,z
1/2+x,1/2+y,1/2+z
1/2-x,1/2-y,1/2+z
1/2-x,1/2+y,1/2+z
1/2+x,1/2-y,1/2+z
loop_
_atom_site_type_symbol
_atom_site_label
_atom_site_fract_x
_atom_site_fract_y
_atom_site_fract_z
Si Si1 0.819817 0.672814 0.699330
Si Si2 0.877929 0.169601 0.049546
Si Si3 0.308697 0.673624 0.777089
Si Si4 0.879960 0.669926 0.916364
Si Si5 0.928323 0.826861 0.192257
Si Si6 0.574999 0.668096 0.285115
Si Si7 0.272773 0.668103 0.922116
Si Si8 0.226545 0.332314 0.553459
O O1 0.828816 0.500000 0.709574
O O2 0.756074 0.729720 0.739279
O O3 0.882837 0.755375 0.726937
O O4 0.812356 0.714654 0.620530
O O5 0.917096 0.222727 0.115228
O O6 0.802408 0.202096 0.064857
O O7 0.889593 0.000000 0.033268
O O8 0.904770 0.263499 0.987034
O O9 0.308650 0.500000 0.772969
O O10 0.373142 0.740087 0.741453
O O11 0.309379 0.725819 0.855000
O O12 0.897555 0.500000 0.913312
O O13 0.916113 0.751450 0.856201
O O14 0.803213 0.698284 0.909719
O O15 0.000000 0.773006 0.215643
O O16 0.923268 0.000000 0.195209
O O17 0.500000 0.680899 0.262774
O O18 0.596299 0.500000 0.292875
O O19 0.286840 0.500000 0.934280
O O20 0.300685 0.748290 0.988069
O O21 0.215226 0.500000 0.537983
#
# Coordination Sequence:
#
# PCOD8188344 Si02
#       8
#     8   8   8   8   8   8   8   8
#     4  10  18  33  55  75  97 131 171 211 252 295
#     4   9  16  28  46  71 105 138 168 205 245 286
#     4   9  15  28  48  71  99 130 167 208 247 285
#     4  10  19  32  50  72  99 135 174 205 241 295
#     4   9  16  26  45  73 102 133 168 204 244 292
#     4  11  24  38  51  72 102 132 164 209 262 310
#     4   9  17  29  48  72 100 131 163 206 252 290
#     4   9  17  29  49  74 100 130 164 205 250 295
#
# _framework density 17.203175000000002
#
# number of rings (size 3 to 8) (size 9 to 14) (size 15 to 20)
#    0.000    2.500    2.500    0.750    0.000    2.500 
#    0.000    1.250    0.000    1.500    0.000    1.750 
#    0.000    0.000    0.000    0.000    0.000    0.000 
#
# Total GULP energy -396753.506477 kJ/mol
# GULP energy per Si atom -12398.547077 kJ/mol
# Density = 1.716402 g / cm^3
# Si number density = 17.203175 Si / 1000 Ang^3
#
#
#
# Elastic Constant Matrix: (Units=GPa)
#
#
# Indices 1 2 3 4 5 6 
#
# 1 86.4710 36.2391 67.9586 0.0000 0.0000 0.0000
# 2 36.2391 56.5391 48.5919 0.0000 0.0000 0.0000
# 3 67.9586 48.5919 142.1564 0.0000 0.0000 0.0000
# 4 0.0000 0.0000 0.0000 29.9398 0.0000 0.0000
# 5 0.0000 0.0000 0.0000 0.0000 22.1380 0.0000
# 6 0.0000 0.0000 0.0000 0.0000 0.0000 16.7567
#
#
#
# Elastic Compliance Matrix: (Units=1/GPa)
#
#
# Indices 1 2 3 4 5 6 
#
# 1 0.020103 -0.006550 -0.007371 0.000000 0.000000 0.000000
# 2 -0.006550 0.027178 -0.006159 0.000000 0.000000 0.000000
# 3 -0.007371 -0.006159 0.012664 0.000000 0.000000 0.000000
# 4 0.000000 0.000000 0.000000 0.033400 0.000000 0.000000
# 5 0.000000 0.000000 0.000000 0.000000 0.045171 0.000000
# 6 0.000000 0.000000 0.000000 0.000000 0.000000 0.059678
#
#
# Mechanical properties :
#
#
# Convention : Reuss Voigt Hill
#
# Bulk Modulus (GPa) = 50.54453 65.63842 58.09147
# Shear Modulus (GPa) = 20.41246 22.59205 21.50225
#
# Velocity S-wave (km/s) = 3.44837 3.62781 3.53923
# Velocity P-wave (km/s) = 6.73051 7.46898 7.10934
#
# Compressibility (1/GPa) = 0.01978454
#
# Stress axis : x y z
#
# Youngs Moduli (GPa) = 49.74443 36.79426 78.96595
#
# Poissons Ratio (x) = 0.24099 0.58209
# Poissons Ratio (y) = 0.32581 0.48634
# Poissons Ratio (z) = 0.36669 0.22661
#
# Static dielectric constant tensor:
#      x y z
#    x 3.119490 0.000000 0.000000 
#    y 0.000000 2.997090 0.000000 
#    z 0.000000 0.000000 3.421560 
# 
# 
# High freq. dielectric constant tensor:
#      x y z
#    x 1.640560 0.000000 0.000000 
#    y 0.000000 1.637690 0.000000 
#    z 0.000000 0.000000 1.672850 
# 
# From -- ./inp_files/22292.got.cif
#   From: 2010.03.12/outbox.cif.g09.slc.cpg/sg44_12_cif.got.tgz:22292.got - 2010.04.14 02:36:11.
