data_PCOD8188708
_publ_section_title
;
Structure prediction by ZEFSAII (Michael W. Deem and Ramdas Pophale) SiO2 
 PCOD8188708
Probable space group: I M M 2
;
_chemical_formula_sum "Si O2"
_cell_formula_units_Z 64
_cell_length_a 24.382672
_cell_length_b 13.064258
_cell_length_c 10.998296
_cell_angle_alpha 90.000000
_cell_angle_beta 90.000000
_cell_angle_gamma 90.000000
_cell_volume 3503.413900
_symmetry_space_group_name_H-M "I M M 2"
_symmetry_group_IT_number 44
_symmetry_cell_setting 'orthorhombic'
loop_
_space_group_symop_operation_xyz
x,y,z
-x,-y,z
-x,y,z
x,-y,z
1/2+x,1/2+y,1/2+z
1/2-x,1/2-y,1/2+z
1/2-x,1/2+y,1/2+z
1/2+x,1/2-y,1/2+z
loop_
_atom_site_type_symbol
_atom_site_label
_atom_site_fract_x
_atom_site_fract_y
_atom_site_fract_z
Si Si1 0.243781 0.882995 0.644910
Si Si2 0.438474 0.386384 0.065422
Si Si3 0.777401 0.283282 0.465081
Si Si4 0.842875 0.721435 0.231005
Si Si5 0.562792 0.197843 0.907816
Si Si6 0.372490 0.115788 0.115789
Si Si7 0.138978 0.807299 0.765733
Si Si8 0.663094 0.378217 0.516181
O O1 0.232630 0.828350 0.518432
O O2 0.309314 0.871565 0.668503
O O3 0.203752 0.830008 0.744708
O O4 0.227548 0.000000 0.634523
O O5 0.500000 0.360847 0.112042
O O6 0.434669 0.500000 0.011708
O O7 0.397073 0.377783 0.177441
O O8 0.423276 0.312548 0.953606
O O9 0.799456 0.248965 0.334779
O O10 0.821042 0.350733 0.536736
O O11 0.724433 0.355219 0.471821
O O12 0.900069 0.680297 0.287442
O O13 0.852224 0.817113 0.139713
O O14 0.500000 0.181847 0.868418
O O15 0.575896 0.124164 0.022730
O O16 0.376550 0.188902 0.234681
O O17 0.367332 0.000000 0.163276
O O18 0.124658 0.835679 0.905650
O O19 0.654588 0.500000 0.536174
#
# Coordination Sequence:
#
# PCOD8188708 Si02
#       8
#     8   8   8   8   8   8   8   8
#     4  10  19  32  52  73  99 137 174 217 267 315
#     4   9  17  31  54  80 104 134 172 218 269 314
#     4   9  19  34  49  74 104 134 177 219 263 318
#     4  10  21  34  50  75 108 139 178 221 261 323
#     4   9  19  35  54  79 108 136 175 226 270 317
#     4   9  18  33  55  79 103 133 172 222 274 317
#     4  10  19  32  51  76 106 138 177 216 261 321
#     4  11  21  33  51  75 108 148 182 216 263 322
#
# _framework density 18.267894999999999
#
# number of rings (size 3 to 8) (size 9 to 14) (size 15 to 20)
#    0.000    2.375    1.250    2.250    0.000    3.250 
#    0.000    3.125    0.000    0.750    0.000    0.000 
#    0.000    4.000    0.000    0.000    0.000    0.000 
#
# Total GULP energy -396450.253349 kJ/mol
# GULP energy per Si atom -12389.070417 kJ/mol
# Density = 1.822632 g / cm^3
# Si number density = 18.267895 Si / 1000 Ang^3
#
#
#
# Elastic Constant Matrix: (Units=GPa)
#
#
# Indices 1 2 3 4 5 6 
#
# 1 76.2649 14.0347 8.2276 0.0000 0.0000 0.0000
# 2 14.0347 120.9380 29.9050 0.0000 0.0000 0.0000
# 3 8.2276 29.9050 57.1527 0.0000 0.0000 0.0000
# 4 0.0000 0.0000 0.0000 13.2374 0.0000 0.0000
# 5 0.0000 0.0000 0.0000 0.0000 24.0796 0.0000
# 6 0.0000 0.0000 0.0000 0.0000 0.0000 13.9909
#
#
#
# Elastic Compliance Matrix: (Units=1/GPa)
#
#
# Indices 1 2 3 4 5 6 
#
# 1 0.013480 -0.001246 -0.001289 0.000000 0.000000 0.000000
# 2 -0.001246 0.009613 -0.004850 0.000000 0.000000 0.000000
# 3 -0.001289 -0.004850 0.020221 0.000000 0.000000 0.000000
# 4 0.000000 0.000000 0.000000 0.075543 0.000000 0.000000
# 5 0.000000 0.000000 0.000000 0.000000 0.041529 0.000000
# 6 0.000000 0.000000 0.000000 0.000000 0.000000 0.071475
#
#
# Mechanical properties :
#
#
# Convention : Reuss Voigt Hill
#
# Bulk Modulus (GPa) = 35.03403 39.85447 37.44425
# Shear Modulus (GPa) = 19.52014 23.74080 21.63047
#
# Velocity S-wave (km/s) = 3.27241 3.60890 3.44476
# Velocity P-wave (km/s) = 5.78773 6.26335 6.03023
#
# Compressibility (1/GPa) = 0.02854368
#
# Stress axis : x y z
#
# Youngs Moduli (GPa) = 74.18136 104.02951 49.45474
#
# Poissons Ratio (x) = 0.12959 0.06374
# Poissons Ratio (y) = 0.09241 0.23988
# Poissons Ratio (z) = 0.09561 0.50459
#
# Static dielectric constant tensor:
#      x y z
#    x 3.447620 0.000000 0.000000 
#    y 0.000000 3.254500 0.000000 
#    z 0.000000 0.000000 3.323990 
# 
# 
# High freq. dielectric constant tensor:
#      x y z
#    x 1.699210 0.000000 0.000000 
#    y 0.000000 1.699980 0.000000 
#    z 0.000000 0.000000 1.691600 
# 
# From -- ./inp_files/14935.got.cif
#   From: 2010.03.12/outbox.cif.g09.slc.cpg/sg44_8_cif.got.tgz:14935.got - 2010.04.14 02:36:11.
