data_PCOD8188196
_publ_section_title
;
Structure prediction by ZEFSAII (Michael W. Deem and Ramdas Pophale) SiO2 
 PCOD8188196
Probable space group: I M M 2
;
_chemical_formula_sum "Si O2"
_cell_formula_units_Z 52
_cell_length_a 15.529599
_cell_length_b 8.069351
_cell_length_c 24.363724
_cell_angle_alpha 90.000000
_cell_angle_beta 90.000000
_cell_angle_gamma 90.000000
_cell_volume 3053.110477
_symmetry_space_group_name_H-M "I M M 2"
_symmetry_group_IT_number 44
_symmetry_cell_setting 'orthorhombic'
loop_
_space_group_symop_operation_xyz
x,y,z
-x,-y,z
-x,y,z
x,-y,z
1/2+x,1/2+y,1/2+z
1/2-x,1/2-y,1/2+z
1/2-x,1/2+y,1/2+z
1/2+x,1/2-y,1/2+z
loop_
_atom_site_type_symbol
_atom_site_label
_atom_site_fract_x
_atom_site_fract_y
_atom_site_fract_z
Si Si1 0.900001 0.694193 0.433620
Si Si2 0.399806 0.691628 0.814721
Si Si3 0.095144 0.500000 0.604666
Si Si4 0.223687 0.500000 0.704322
Si Si5 0.730736 0.823573 0.732380
Si Si6 0.338029 0.312520 0.043847
Si Si7 0.904388 0.000000 0.144805
Si Si8 0.667738 0.819493 0.608399
O O1 0.884811 0.500000 0.440647
O O2 0.866576 0.752397 0.374325
O O3 0.843755 0.793088 0.478243
O O4 0.000000 0.741978 0.441138
O O5 0.500000 0.729635 0.808908
O O6 0.377394 0.500000 0.805642
O O7 0.354601 0.802179 0.768475
O O8 0.167963 0.500000 0.650178
O O9 0.102325 0.331630 0.569377
O O10 0.000000 0.500000 0.631157
O O11 0.205299 0.334649 0.740687
O O12 0.327263 0.500000 0.689554
O O13 0.710653 0.825038 0.668093
O O14 0.774519 0.000000 0.748176
O O15 0.368189 0.500000 0.060547
O O16 0.240150 0.285069 0.062771
O O17 0.898572 0.165471 0.106737
O O18 0.000000 0.000000 0.172897
O O19 0.623506 0.000000 0.597237
#
# Coordination Sequence:
#
# PCOD8188196 Si02
#       8
#     8   8   4   4   8   8   4   8
#     4  10  20  32  46  69 102 138 176 214 249 301
#     4  10  20  32  46  69 102 138 176 213 249 302
#     4  12  22  34  54  78 104 140 176 215 265 311
#     4  10  20  36  48  74 106 132 172 221 243 315
#     4  10  18  31  50  66  91 133 167 206 256 288
#     4  11  20  34  53  72 102 142 176 218 260 303
#     4  10  18  30  50  70  98 130 162 206 256 296
#     4   9  19  33  49  71  99 134 172 215 256 302
#
# _framework density 17.031811000000001
#
# number of rings (size 3 to 8) (size 9 to 14) (size 15 to 20)
#    0.000    1.846    4.615    1.385    0.000    5.538 
#    0.000    3.077    0.000    0.000    0.000    0.000 
#    0.000    1.231    0.000    0.000    0.000    0.000 
#
# Total GULP energy -322122.887946 kJ/mol
# GULP energy per Si atom -12389.341844 kJ/mol
# Density = 1.699305 g / cm^3
# Si number density = 17.031811 Si / 1000 Ang^3
#
#
#
# Elastic Constant Matrix: (Units=GPa)
#
#
# Indices 1 2 3 4 5 6 
#
# 1 30.0770 17.1434 18.1324 0.0000 0.0000 0.0000
# 2 17.1434 153.6959 19.1436 0.0000 0.0000 0.0000
# 3 18.1324 19.1436 72.1315 0.0000 0.0000 0.0000
# 4 0.0000 0.0000 0.0000 23.4824 0.0000 0.0000
# 5 0.0000 0.0000 0.0000 0.0000 17.6896 0.0000
# 6 0.0000 0.0000 0.0000 0.0000 0.0000 13.9449
#
#
#
# Elastic Compliance Matrix: (Units=1/GPa)
#
#
# Indices 1 2 3 4 5 6 
#
# 1 0.040823 -0.003387 -0.009363 0.000000 0.000000 0.000000
# 2 -0.003387 0.007010 -0.001009 0.000000 0.000000 0.000000
# 3 -0.009363 -0.001009 0.016485 0.000000 0.000000 0.000000
# 4 0.000000 0.000000 0.000000 0.042585 0.000000 0.000000
# 5 0.000000 0.000000 0.000000 0.000000 0.056530 0.000000
# 6 0.000000 0.000000 0.000000 0.000000 0.000000 0.071711
#
#
# Mechanical properties :
#
#
# Convention : Reuss Voigt Hill
#
# Bulk Modulus (GPa) = 27.17424 40.52702 33.85063
# Shear Modulus (GPa) = 18.18647 24.45571 21.32109
#
# Velocity S-wave (km/s) = 3.27126 3.79342 3.54197
# Velocity P-wave (km/s) = 5.50071 6.55997 6.05355
#
# Compressibility (1/GPa) = 0.03679955
#
# Stress axis : x y z
#
# Youngs Moduli (GPa) = 24.49579 142.65662 60.66110
#
# Poissons Ratio (x) = 0.48321 0.56798
# Poissons Ratio (y) = 0.08297 0.06120
# Poissons Ratio (z) = 0.22936 0.14393
#
# Static dielectric constant tensor:
#      x y z
#    x 2.761610 0.000000 0.000000 
#    y 0.000000 4.391010 0.000000 
#    z 0.000000 0.000000 3.103180 
# 
# 
# High freq. dielectric constant tensor:
#      x y z
#    x 1.595690 0.000000 0.000000 
#    y 0.000000 1.698420 0.000000 
#    z 0.000000 0.000000 1.636640 
# 
# From -- ./inp_files/25663.got.cif
#   From: 2010.03.12/outbox.cif.g09.slc.cpg/sg44_13_cif.got.tgz:25663.got - 2010.04.14 02:36:11.
