data_PCOD8188475
_publ_section_title
;
Structure prediction by ZEFSAII (Michael W. Deem and Ramdas Pophale) SiO2 
 PCOD8188475
Probable space group: I M M 2
;
_chemical_formula_sum "Si O2"
_cell_formula_units_Z 64
_cell_length_a 33.120700
_cell_length_b 8.923282
_cell_length_c 11.849222
_cell_angle_alpha 90.000000
_cell_angle_beta 90.000000
_cell_angle_gamma 90.000000
_cell_volume 3501.982417
_symmetry_space_group_name_H-M "I M M 2"
_symmetry_group_IT_number 44
_symmetry_cell_setting 'orthorhombic'
loop_
_space_group_symop_operation_xyz
x,y,z
-x,-y,z
-x,y,z
x,-y,z
1/2+x,1/2+y,1/2+z
1/2-x,1/2-y,1/2+z
1/2-x,1/2+y,1/2+z
1/2+x,1/2-y,1/2+z
loop_
_atom_site_type_symbol
_atom_site_label
_atom_site_fract_x
_atom_site_fract_y
_atom_site_fract_z
Si Si1 0.454139 0.323929 0.790290
Si Si2 0.727843 0.826595 0.486375
Si Si3 0.108298 0.165958 0.939560
Si Si4 0.180949 0.173371 0.534735
Si Si5 0.668705 0.670335 0.646598
Si Si6 0.680543 0.675010 0.291816
Si Si7 0.954612 0.666838 0.058038
Si Si8 0.873924 0.677478 0.357531
O O1 0.500000 0.279301 0.828687
O O2 0.447072 0.500000 0.803102
O O3 0.447886 0.281489 0.659960
O O4 0.420031 0.238779 0.862218
O O5 0.775558 0.800575 0.479530
O O6 0.709390 0.743183 0.595896
O O7 0.711748 0.766770 0.367455
O O8 0.716581 0.000000 0.499878
O O9 0.134842 0.209127 0.831243
O O10 0.090048 0.000000 0.925553
O O11 0.135416 0.175489 0.050463
O O12 0.072100 0.283744 0.951321
O O13 0.183882 0.227577 0.663685
O O14 0.147649 0.273419 0.472733
O O15 0.167714 0.000000 0.527992
O O16 0.678193 0.500000 0.683889
O O17 0.651993 0.759155 0.753717
O O18 0.690875 0.500000 0.308024
O O19 0.942306 0.500000 0.098568
O O20 0.000000 0.669745 0.013729
O O21 0.875387 0.500000 0.348595
#
# Coordination Sequence:
#
# PCOD8188475 Si02
#       8
#     8   8   8   8   8   8   8   8
#     4  10  20  35  56  81 113 151 187 228 282 345
#     4  10  21  36  57  85 111 142 185 234 284 332
#     4   9  17  31  53  76 101 141 182 220 267 322
#     4  10  23  41  58  79 110 149 190 233 282 337
#     4  10  20  35  55  79 111 148 184 224 275 334
#     4   9  20  39  58  76 105 147 188 228 276 332
#     4  10  19  29  46  77 113 144 175 219 275 331
#     4  12  24  36  56  85 116 149 188 237 287 337
#
# _framework density 18.275362000000001
#
# number of rings (size 3 to 8) (size 9 to 14) (size 15 to 20)
#    0.000    2.000    1.250    3.375    1.750    5.000 
#    0.000    0.000    0.000    0.750    0.000    1.750 
#    0.000    0.000    0.000    0.000    0.000    0.000 
#
# Total GULP energy -396809.167210 kJ/mol
# GULP energy per Si atom -12400.286475 kJ/mol
# Density = 1.823377 g / cm^3
# Si number density = 18.275362 Si / 1000 Ang^3
#
#
#
# Elastic Constant Matrix: (Units=GPa)
#
#
# Indices 1 2 3 4 5 6 
#
# 1 107.1513 64.0635 47.2742 0.0000 0.0000 0.0000
# 2 64.0635 118.6900 45.2836 0.0000 0.0000 0.0000
# 3 47.2742 45.2836 86.7260 0.0000 0.0000 0.0000
# 4 0.0000 0.0000 0.0000 24.9442 0.0000 0.0000
# 5 0.0000 0.0000 0.0000 0.0000 24.7865 0.0000
# 6 0.0000 0.0000 0.0000 0.0000 0.0000 31.5125
#
#
#
# Elastic Compliance Matrix: (Units=1/GPa)
#
#
# Indices 1 2 3 4 5 6 
#
# 1 0.015369 -0.006368 -0.005053 0.000000 0.000000 0.000000
# 2 -0.006368 0.013160 -0.003400 0.000000 0.000000 0.000000
# 3 -0.005053 -0.003400 0.016060 0.000000 0.000000 0.000000
# 4 0.000000 0.000000 0.000000 0.040090 0.000000 0.000000
# 5 0.000000 0.000000 0.000000 0.000000 0.040344 0.000000
# 6 0.000000 0.000000 0.000000 0.000000 0.000000 0.031733
#
#
# Mechanical properties :
#
#
# Convention : Reuss Voigt Hill
#
# Bulk Modulus (GPa) = 66.90087 69.53441 68.21764
# Shear Modulus (GPa) = 26.12606 26.64504 26.38555
#
# Velocity S-wave (km/s) = 3.78508 3.82249 3.80383
# Velocity P-wave (km/s) = 7.46921 7.59030 7.53000
#
# Compressibility (1/GPa) = 0.01494749
#
# Stress axis : x y z
#
# Youngs Moduli (GPa) = 65.06639 75.99028 62.26576
#
# Poissons Ratio (x) = 0.48388 0.31461
# Poissons Ratio (y) = 0.41432 0.21172
# Poissons Ratio (z) = 0.32876 0.25838
#
# Static dielectric constant tensor:
#      x y z
#    x 3.534770 0.000000 0.000000 
#    y 0.000000 3.463070 0.000000 
#    z 0.000000 0.000000 3.221580 
# 
# 
# High freq. dielectric constant tensor:
#      x y z
#    x 1.711480 0.000000 0.000000 
#    y 0.000000 1.716400 0.000000 
#    z 0.000000 0.000000 1.680200 
# 
# From -- ./inp_files/15081.got.cif
#   From: 2010.03.12/outbox.cif.g09.slc.cpg/sg44_8_cif.got.tgz:15081.got - 2010.04.14 02:36:11.
