data_PCOD8188374
_publ_section_title
;
Structure prediction by ZEFSAII (Michael W. Deem and Ramdas Pophale) SiO2 
 PCOD8188374
Probable space group: I M M 2
;
_chemical_formula_sum "Si O2"
_cell_formula_units_Z 40
_cell_length_a 9.056787
_cell_length_b 11.654043
_cell_length_c 20.089285
_cell_angle_alpha 90.000000
_cell_angle_beta 90.000000
_cell_angle_gamma 90.000000
_cell_volume 2120.387573
_symmetry_space_group_name_H-M "I M M 2"
_symmetry_group_IT_number 44
_symmetry_cell_setting 'orthorhombic'
loop_
_space_group_symop_operation_xyz
x,y,z
-x,-y,z
-x,y,z
x,-y,z
1/2+x,1/2+y,1/2+z
1/2-x,1/2-y,1/2+z
1/2-x,1/2+y,1/2+z
1/2+x,1/2-y,1/2+z
loop_
_atom_site_type_symbol
_atom_site_label
_atom_site_fract_x
_atom_site_fract_y
_atom_site_fract_z
Si Si1 0.830365 0.221659 0.069860
Si Si2 0.674035 0.731779 0.816125
Si Si3 0.824245 0.372172 0.188870
Si Si4 0.825278 0.500000 0.793683
Si Si5 0.173235 0.629701 0.446472
Si Si6 0.833149 0.000000 0.157222
O O1 0.773692 0.326034 0.116406
O O2 0.000000 0.238597 0.049990
O O3 0.804644 0.108322 0.111955
O O4 0.739281 0.214024 0.002068
O O5 0.500000 0.706444 0.812833
O O6 0.732682 0.789283 0.747708
O O7 0.758537 0.612759 0.828793
O O8 0.714200 0.819396 0.874837
O O9 0.759435 0.500000 0.198429
O O10 0.000000 0.374175 0.192618
O O11 0.783092 0.500000 0.716353
O O12 0.000000 0.500000 0.802352
O O13 0.238075 0.500000 0.451205
O O14 0.000000 0.626323 0.457328
O O15 0.000000 0.000000 0.186691
#
# Coordination Sequence:
#
# PCOD8188374 Si02
#       6
#     8   8   8   4   8   4
#     4  10  19  33  56  82 111 147 186 227 272 328
#     4  10  20  38  60  80 109 148 188 225 275 341
#     4   9  17  32  57  84 106 138 188 234 266 315
#     4  12  24  36  56  86 114 141 182 239 286 323
#     4  10  21  36  57  85 113 144 183 232 280 326
#     4  10  18  34  58  84 108 145 188 223 272 337
#
# _framework density 18.864477000000001
#
# number of rings (size 3 to 8) (size 9 to 14) (size 15 to 20)
#    0.000    2.000    3.000    1.500    0.000    4.000 
#    1.800    0.000    0.000    3.000    0.000    0.000 
#    0.000    0.000    0.000    0.000    0.000    0.000 
#
# Total GULP energy -247993.355427 kJ/mol
# GULP energy per Si atom -12399.667771 kJ/mol
# Density = 1.882154 g / cm^3
# Si number density = 18.864477 Si / 1000 Ang^3
#
#
#
# Elastic Constant Matrix: (Units=GPa)
#
#
# Indices 1 2 3 4 5 6 
#
# 1 46.3737 35.4800 37.8042 0.0000 0.0000 0.0000
# 2 35.4800 125.3424 44.6340 0.0000 0.0000 0.0000
# 3 37.8042 44.6340 118.9954 0.0000 0.0000 0.0000
# 4 0.0000 0.0000 0.0000 36.8009 0.0000 0.0000
# 5 0.0000 0.0000 0.0000 0.0000 30.6703 0.0000
# 6 0.0000 0.0000 0.0000 0.0000 0.0000 -9.9509
#
#
#
# Elastic Compliance Matrix: (Units=1/GPa)
#
#
# Indices 1 2 3 4 5 6 
#
# 1 0.033128 -0.006497 -0.008087 0.000000 0.000000 0.000000
# 2 -0.006497 0.010482 -0.001868 0.000000 0.000000 0.000000
# 3 -0.008087 -0.001868 0.011674 0.000000 0.000000 0.000000
# 4 0.000000 0.000000 0.000000 0.027173 0.000000 0.000000
# 5 0.000000 0.000000 0.000000 0.000000 0.032605 0.000000
# 6 0.000000 0.000000 0.000000 0.000000 0.000000 -0.100493
#
#
# Mechanical properties :
#
#
# Convention : Reuss Voigt Hill
#
# Bulk Modulus (GPa) = 44.68500 58.50533 51.59517
# Shear Modulus (GPa) = 91.01940 23.02364 57.02152
#
# Velocity S-wave (km/s) = 6.95369 3.49732 5.50387
# Velocity P-wave (km/s) = 9.39205 6.88398 8.23407
#
# Compressibility (1/GPa) = 0.02237887
#
# Stress axis : x y z
#
# Youngs Moduli (GPa) = 30.18598 95.39800 85.66370
#
# Poissons Ratio (x) = 0.61984 0.69280
# Poissons Ratio (y) = 0.19613 0.15999
# Poissons Ratio (z) = 0.24413 0.17817
#
# Static dielectric constant tensor:
#      x y z
#    x 3.133590 0.000000 0.000000 
#    y 0.000000 3.653430 0.000000 
#    z 0.000000 0.000000 3.473850 
# 
# 
# High freq. dielectric constant tensor:
#      x y z
#    x 1.693950 0.000000 0.000000 
#    y 0.000000 1.742280 0.000000 
#    z 0.000000 0.000000 1.735040 
# 
# From -- ./inp_files/22761.got.cif
#   From: 2010.03.12/outbox.cif.g09.slc.cpg/sg44_12_cif.got.tgz:22761.got - 2010.04.14 02:36:11.
