data_PCOD8188678
_publ_section_title
;
Structure prediction by ZEFSAII (Michael W. Deem and Ramdas Pophale) SiO2 
 PCOD8188678
Probable space group: I M M 2
;
_chemical_formula_sum "Si O2"
_cell_formula_units_Z 32
_cell_length_a 12.629422
_cell_length_b 13.430503
_cell_length_c 12.112380
_cell_angle_alpha 90.000000
_cell_angle_beta 90.000000
_cell_angle_gamma 90.000000
_cell_volume 2054.495719
_symmetry_space_group_name_H-M "I M M 2"
_symmetry_group_IT_number 44
_symmetry_cell_setting 'orthorhombic'
loop_
_space_group_symop_operation_xyz
x,y,z
-x,-y,z
-x,y,z
x,-y,z
1/2+x,1/2+y,1/2+z
1/2-x,1/2-y,1/2+z
1/2-x,1/2+y,1/2+z
1/2+x,1/2-y,1/2+z
loop_
_atom_site_type_symbol
_atom_site_label
_atom_site_fract_x
_atom_site_fract_y
_atom_site_fract_z
Si Si1 0.000000 0.882041 0.508040
Si Si2 0.197620 0.882032 0.649474
Si Si3 0.625783 0.388610 0.389087
Si Si4 0.117147 0.759157 0.090717
Si Si5 0.000000 0.118545 0.254946
O O1 0.104947 0.841727 0.569114
O O2 0.000000 0.846079 0.381639
O O3 0.000000 0.000000 0.515949
O O4 0.170252 0.848943 0.773422
O O5 0.308279 0.832680 0.618088
O O6 0.210456 0.000000 0.638714
O O7 0.500000 0.389346 0.383921
O O8 0.667823 0.500000 0.412117
O O9 0.666672 0.317775 0.486712
O O10 0.000000 0.716223 0.060989
O O11 0.104395 0.836317 0.194051
O O12 0.000000 0.000000 0.242741
#
# Coordination Sequence:
#
# PCOD8188678 Si02
#       5
#     4   8   8   8   4
#     4   9  18  31  49  68  93 127 160 197 237 274
#     4  10  19  32  49  71  98 128 160 198 237 282
#     4   9  16  31  52  71  91 119 165 207 233 269
#     4   9  20  29  48  74  96 124 157 191 246 283
#     4   9  18  33  48  72  99 121 159 201 242 282
#
# _framework density 15.575597999999999
#
# number of rings (size 3 to 8) (size 9 to 14) (size 15 to 20)
#    0.750    2.000    1.250    0.750    3.500    0.500 
#    0.000    0.000    0.000    0.000    0.000    2.625 
#    0.000    0.000    0.000    0.000    0.000    0.000 
#
# Total GULP energy -198299.821513 kJ/mol
# GULP energy per Si atom -12393.738845 kJ/mol
# Density = 1.554015 g / cm^3
# Si number density = 15.575598 Si / 1000 Ang^3
#
#
#
# Elastic Constant Matrix: (Units=GPa)
#
#
# Indices 1 2 3 4 5 6 
#
# 1 54.1255 27.7559 40.6227 0.0000 0.0000 0.0000
# 2 27.7559 45.7849 44.0530 0.0000 0.0000 0.0000
# 3 40.6227 44.0530 142.2334 0.0000 0.0000 0.0000
# 4 0.0000 0.0000 0.0000 14.4754 0.0000 0.0000
# 5 0.0000 0.0000 0.0000 0.0000 19.5891 0.0000
# 6 0.0000 0.0000 0.0000 0.0000 0.0000 24.4880
#
#
#
# Elastic Compliance Matrix: (Units=1/GPa)
#
#
# Indices 1 2 3 4 5 6 
#
# 1 0.028281 -0.013352 -0.003942 0.000000 0.000000 0.000000
# 2 -0.013352 0.037417 -0.007775 0.000000 0.000000 0.000000
# 3 -0.003942 -0.007775 0.010565 0.000000 0.000000 0.000000
# 4 0.000000 0.000000 0.000000 0.069083 0.000000 0.000000
# 5 0.000000 0.000000 0.000000 0.000000 0.051049 0.000000
# 6 0.000000 0.000000 0.000000 0.000000 0.000000 0.040836
#
#
# Mechanical properties :
#
#
# Convention : Reuss Voigt Hill
#
# Bulk Modulus (GPa) = 38.27874 51.88968 45.08421
# Shear Modulus (GPa) = 16.88751 20.35798 18.62275
#
# Velocity S-wave (km/s) = 3.29634 3.61923 3.46155
# Velocity P-wave (km/s) = 6.25438 7.13107 6.70706
#
# Compressibility (1/GPa) = 0.02612416
#
# Stress axis : x y z
#
# Youngs Moduli (GPa) = 35.35949 26.72595 94.65435
#
# Poissons Ratio (x) = 0.35684 0.37311
# Poissons Ratio (y) = 0.47212 0.73598
# Poissons Ratio (z) = 0.13938 0.20781
#
# Static dielectric constant tensor:
#      x y z
#    x 2.737970 0.000000 0.000000 
#    y 0.000000 2.710060 0.000000 
#    z 0.000000 0.000000 3.263040 
# 
# 
# High freq. dielectric constant tensor:
#      x y z
#    x 1.575750 0.000000 0.000000 
#    y 0.000000 1.572480 0.000000 
#    z 0.000000 0.000000 1.614330 
# 
# From -- ./inp_files/10664.got.cif
#   From: 2010.03.12/outbox.cif.g09.slc.cpg/sg44_6_cif.got.tgz:10664.got - 2010.04.14 02:36:11.
