data_PCOD8188863
_publ_section_title
;
Structure prediction by ZEFSAII (Michael W. Deem and Ramdas Pophale) SiO2 
 PCOD8188863
Probable space group: I M M 2
;
_chemical_formula_sum "Si O2"
_cell_formula_units_Z 64
_cell_length_a 19.565607
_cell_length_b 8.829574
_cell_length_c 20.642313
_cell_angle_alpha 90.000000
_cell_angle_beta 90.000000
_cell_angle_gamma 90.000000
_cell_volume 3566.082906
_symmetry_space_group_name_H-M "I M M 2"
_symmetry_group_IT_number 44
_symmetry_cell_setting 'orthorhombic'
loop_
_space_group_symop_operation_xyz
x,y,z
-x,-y,z
-x,y,z
x,-y,z
1/2+x,1/2+y,1/2+z
1/2-x,1/2-y,1/2+z
1/2-x,1/2+y,1/2+z
1/2+x,1/2-y,1/2+z
loop_
_atom_site_type_symbol
_atom_site_label
_atom_site_fract_x
_atom_site_fract_y
_atom_site_fract_z
Si Si1 0.792167 0.321777 0.887300
Si Si2 0.573958 0.320592 0.194039
Si Si3 0.077303 0.823942 0.840120
Si Si4 0.785550 0.178199 0.638569
Si Si5 0.212122 0.179105 0.019589
Si Si6 0.922677 0.176933 0.227468
Si Si7 0.425729 0.320212 0.580887
Si Si8 0.291042 0.822712 0.770817
O O1 0.785985 0.500000 0.887368
O O2 0.871268 0.271088 0.884348
O O3 0.749888 0.257982 0.827497
O O4 0.761392 0.258101 0.954369
O O5 0.500000 0.262796 0.167189
O O6 0.573197 0.500000 0.198859
O O7 0.584740 0.261332 0.267052
O O8 0.635922 0.267935 0.148722
O O9 0.000000 0.799994 0.865458
O O10 0.097972 0.000000 0.844794
O O11 0.760883 0.274804 0.578178
O O12 0.742490 0.221293 0.702176
O O13 0.780038 0.000000 0.623609
O O14 0.135156 0.238667 0.035293
O O15 0.214185 0.000000 0.010594
O O16 0.914470 0.237955 0.154112
O O17 0.869665 0.268188 0.272224
O O18 0.000000 0.207707 0.252062
O O19 0.905109 0.000000 0.231849
O O20 0.500000 0.262717 0.555164
O O21 0.425548 0.500000 0.583003
O O22 0.287070 0.000000 0.783606
#
# Coordination Sequence:
#
# PCOD8188863 Si02
#       8
#     8   8   8   8   8   8   8   8
#     4  12  25  38  53  76 112 149 188 233 280 326
#     4   8  14  28  53  81 107 137 175 218 263 317
#     4   9  17  33  56  80 109 147 187 221 264 326
#     4  10  19  33  55  82 110 138 177 227 275 324
#     4  11  22  36  55  77 107 145 187 225 273 330
#     4   9  17  32  55  83 113 143 179 222 271 326
#     4   8  15  29  50  76 105 139 179 217 254 311
#     4  11  21  35  57  83 111 143 184 229 277 327
#
# _framework density 17.946861999999999
#
# number of rings (size 3 to 8) (size 9 to 14) (size 15 to 20)
#    0.000    2.250    2.500    3.375    0.000    1.500 
#    0.000    1.250    0.000    2.250    0.000    1.750 
#    0.000    0.000    0.000    0.000    0.000    0.000 
#
# Total GULP energy -396710.297023 kJ/mol
# GULP energy per Si atom -12397.196782 kJ/mol
# Density = 1.790601 g / cm^3
# Si number density = 17.946862 Si / 1000 Ang^3
#
#
#
# Elastic Constant Matrix: (Units=GPa)
#
#
# Indices 1 2 3 4 5 6 
#
# 1 113.1423 42.5346 49.4939 0.0000 0.0000 0.0000
# 2 42.5346 76.8731 47.1405 0.0000 0.0000 0.0000
# 3 49.4939 47.1405 96.8419 0.0000 0.0000 0.0000
# 4 0.0000 0.0000 0.0000 26.2103 0.0000 0.0000
# 5 0.0000 0.0000 0.0000 0.0000 17.9089 0.0000
# 6 0.0000 0.0000 0.0000 0.0000 0.0000 26.9469
#
#
#
# Elastic Compliance Matrix: (Units=1/GPa)
#
#
# Indices 1 2 3 4 5 6 
#
# 1 0.012264 -0.004194 -0.004226 0.000000 0.000000 0.000000
# 2 -0.004194 0.019978 -0.007581 0.000000 0.000000 0.000000
# 3 -0.004226 -0.007581 0.016177 0.000000 0.000000 0.000000
# 4 0.000000 0.000000 0.000000 0.038153 0.000000 0.000000
# 5 0.000000 0.000000 0.000000 0.000000 0.055838 0.000000
# 6 0.000000 0.000000 0.000000 0.000000 0.000000 0.037110
#
#
# Mechanical properties :
#
#
# Convention : Reuss Voigt Hill
#
# Bulk Modulus (GPa) = 60.91949 62.79947 61.85948
# Shear Modulus (GPa) = 23.04199 24.05910 23.55055
#
# Velocity S-wave (km/s) = 3.58704 3.66536 3.62641
# Velocity P-wave (km/s) = 7.15359 7.27880 7.21647
#
# Compressibility (1/GPa) = 0.01641511
#
# Stress axis : x y z
#
# Youngs Moduli (GPa) = 81.54008 50.05450 61.81797
#
# Poissons Ratio (x) = 0.20993 0.26126
# Poissons Ratio (y) = 0.34199 0.46867
# Poissons Ratio (z) = 0.34461 0.37949
#
# Static dielectric constant tensor:
#      x y z
#    x 3.779660 0.000000 0.000000 
#    y 0.000000 3.038590 0.000000 
#    z 0.000000 0.000000 3.146100 
# 
# 
# High freq. dielectric constant tensor:
#      x y z
#    x 1.702560 0.000000 0.000000 
#    y 0.000000 1.671000 0.000000 
#    z 0.000000 0.000000 1.671860 
# 
# From -- ./inp_files/22302.got.cif
#   From: 2010.03.12/outbox.cif.g09.slc.cpg/sg44_12_cif.got.tgz:22302.got - 2010.04.14 02:36:11.
