data_PCOD8188870
_publ_section_title
;
Structure prediction by ZEFSAII (Michael W. Deem and Ramdas Pophale) SiO2 
 PCOD8188870
Probable space group: I M M 2
;
_chemical_formula_sum "Si O2"
_cell_formula_units_Z 64
_cell_length_a 9.092514
_cell_length_b 18.365410
_cell_length_c 20.644788
_cell_angle_alpha 90.000000
_cell_angle_beta 90.000000
_cell_angle_gamma 90.000000
_cell_volume 3447.426647
_symmetry_space_group_name_H-M "I M M 2"
_symmetry_group_IT_number 44
_symmetry_cell_setting 'orthorhombic'
loop_
_space_group_symop_operation_xyz
x,y,z
-x,-y,z
-x,y,z
x,-y,z
1/2+x,1/2+y,1/2+z
1/2-x,1/2-y,1/2+z
1/2-x,1/2+y,1/2+z
1/2+x,1/2-y,1/2+z
loop_
_atom_site_type_symbol
_atom_site_label
_atom_site_fract_x
_atom_site_fract_y
_atom_site_fract_z
Si Si1 0.829422 0.414717 0.086480
Si Si2 0.673126 0.318162 0.981251
Si Si3 0.329921 0.825352 0.212619
Si Si4 0.668933 0.680855 0.837400
Si Si5 0.334652 0.674396 0.341308
Si Si6 0.831342 0.836052 0.983552
Si Si7 0.170305 0.416211 0.592272
Si Si8 0.333583 0.345744 0.202344
O O1 0.800133 0.500000 0.080959
O O2 0.779270 0.388070 0.157190
O O3 0.000000 0.395362 0.077321
O O4 0.734513 0.376073 0.031591
O O5 0.500000 0.306570 0.992785
O O6 0.704019 0.350765 0.909143
O O7 0.751219 0.241070 0.992195
O O8 0.500000 0.842855 0.218838
O O9 0.258483 0.856544 0.278977
O O10 0.264767 0.868848 0.151496
O O11 0.297206 0.740221 0.201995
O O12 0.500000 0.671813 0.819778
O O13 0.709124 0.765418 0.840305
O O14 0.500000 0.710036 0.336979
O O15 0.319409 0.632683 0.409697
O O16 0.314417 0.624805 0.276738
O O17 0.000000 0.824704 0.003796
O O18 0.758392 0.897076 0.027671
O O19 0.195331 0.500000 0.609376
O O20 0.000000 0.397981 0.580001
O O21 0.500000 0.359280 0.177564
#
# Coordination Sequence:
#
# PCOD8188870 Si02
#       8
#     8   8   8   8   8   8   8   8
#     4  11  24  38  51  73 105 138 175 218 259 301
#     4  10  20  35  56  80 105 135 171 209 255 313
#     4   9  18  33  53  76 103 135 171 210 253 305
#     4   9  17  29  50  80 105 126 161 210 258 303
#     4   8  16  31  51  77 105 131 163 205 254 308
#     4  10  19  33  56  82 106 134 171 216 261 303
#     4  10  21  36  52  73 105 144 182 216 253 303
#     4   9  17  32  55  78 100 131 170 211 257 310
#
# _framework density 18.564572999999999
#
# number of rings (size 3 to 8) (size 9 to 14) (size 15 to 20)
#    0.000    2.500    0.000    3.000    0.000    6.750 
#    0.000    1.250    0.000    6.000    0.000    0.000 
#    0.000    0.000    0.000    0.000    0.000    0.000 
#
# Total GULP energy -396629.507119 kJ/mol
# GULP energy per Si atom -12394.672097 kJ/mol
# Density = 1.852232 g / cm^3
# Si number density = 18.564573 Si / 1000 Ang^3
#
#
#
# Elastic Constant Matrix: (Units=GPa)
#
#
# Indices 1 2 3 4 5 6 
#
# 1 76.3778 26.4197 46.6906 0.0000 0.0000 0.0000
# 2 26.4197 36.3013 20.4345 0.0000 0.0000 0.0000
# 3 46.6906 20.4345 120.5712 0.0000 0.0000 0.0000
# 4 0.0000 0.0000 0.0000 4.1084 0.0000 0.0000
# 5 0.0000 0.0000 0.0000 0.0000 34.9169 0.0000
# 6 0.0000 0.0000 0.0000 0.0000 0.0000 23.0222
#
#
#
# Elastic Compliance Matrix: (Units=1/GPa)
#
#
# Indices 1 2 3 4 5 6 
#
# 1 0.020891 -0.011774 -0.006095 0.000000 0.000000 0.000000
# 2 -0.011774 0.037088 -0.001726 0.000000 0.000000 0.000000
# 3 -0.006095 -0.001726 0.010947 0.000000 0.000000 0.000000
# 4 0.000000 0.000000 0.000000 0.243406 0.000000 0.000000
# 5 0.000000 0.000000 0.000000 0.000000 0.028639 0.000000
# 6 0.000000 0.000000 0.000000 0.000000 0.000000 0.043436
#
#
# Mechanical properties :
#
#
# Convention : Reuss Voigt Hill
#
# Bulk Modulus (GPa) = 33.62902 46.70443 40.16672
# Shear Modulus (GPa) = 11.53382 21.72319 16.62850
#
# Velocity S-wave (km/s) = 2.49525 3.42445 2.99609
# Velocity P-wave (km/s) = 5.14351 6.39126 5.80103
#
# Compressibility (1/GPa) = 0.02973622
#
# Stress axis : x y z
#
# Youngs Moduli (GPa) = 47.86733 26.96312 91.35306
#
# Poissons Ratio (x) = 0.31745 0.55676
# Poissons Ratio (y) = 0.56357 0.15771
# Poissons Ratio (z) = 0.29173 0.04655
#
# Static dielectric constant tensor:
#      x y z
#    x 3.469380 0.000000 0.000000 
#    y 0.000000 2.979100 0.000000 
#    z 0.000000 0.000000 3.879150 
# 
# 
# High freq. dielectric constant tensor:
#      x y z
#    x 1.724510 0.000000 0.000000 
#    y 0.000000 1.670940 0.000000 
#    z 0.000000 0.000000 1.745460 
# 
# From -- ./inp_files/23274.got.cif
#   From: 2010.03.12/outbox.cif.g09.slc.cpg/sg44_12_cif.got.tgz:23274.got - 2010.04.14 02:36:11.
