data_PCOD8188117
_publ_section_title
;
Structure prediction by ZEFSAII (Michael W. Deem and Ramdas Pophale) SiO2 
 PCOD8188117
Probable space group: I M M 2
;
_chemical_formula_sum "Si O2"
_cell_formula_units_Z 64
_cell_length_a 18.348836
_cell_length_b 9.589924
_cell_length_c 21.998811
_cell_angle_alpha 90.000000
_cell_angle_beta 90.000000
_cell_angle_gamma 90.000000
_cell_volume 3870.997519
_symmetry_space_group_name_H-M "I M M 2"
_symmetry_group_IT_number 44
_symmetry_cell_setting 'orthorhombic'
loop_
_space_group_symop_operation_xyz
x,y,z
-x,-y,z
-x,y,z
x,-y,z
1/2+x,1/2+y,1/2+z
1/2-x,1/2-y,1/2+z
1/2-x,1/2+y,1/2+z
1/2+x,1/2-y,1/2+z
loop_
_atom_site_type_symbol
_atom_site_label
_atom_site_fract_x
_atom_site_fract_y
_atom_site_fract_z
Si Si1 0.919824 0.351168 0.427210
Si Si2 0.290474 0.838920 0.418013
Si Si3 0.218261 0.835102 0.290870
Si Si4 0.080584 0.343113 0.284396
Si Si5 0.081944 0.165413 0.619518
Si Si6 0.830113 0.162020 0.506026
Si Si7 0.417466 0.339553 0.373099
Si Si8 0.651381 0.338050 0.245058
O O1 0.882590 0.500000 0.445421
O O2 0.925361 0.341232 0.355918
O O3 0.877561 0.219991 0.451569
O O4 0.000000 0.346579 0.455938
O O5 0.235999 0.800812 0.361855
O O6 0.252980 0.806982 0.484050
O O7 0.363895 0.749550 0.415431
O O8 0.312626 0.000000 0.412817
O O9 0.142001 0.769938 0.267217
O O10 0.279051 0.761471 0.249664
O O11 0.217060 0.000000 0.278564
O O12 0.101962 0.500000 0.262062
O O13 0.000000 0.302847 0.257767
O O14 0.141791 0.224527 0.570515
O O15 0.107222 0.212446 0.686045
O O16 0.000000 0.223629 0.606733
O O17 0.079956 0.000000 0.616200
O O18 0.844781 0.000000 0.506838
O O19 0.500000 0.292031 0.386207
O O20 0.405622 0.500000 0.390589
O O21 0.401521 0.315048 0.302166
O O22 0.676106 0.500000 0.240328
#
# Coordination Sequence:
#
# PCOD8188117 Si02
#       8
#     8   8   8   8   8   8   8   8
#     4   9  17  27  39  58  86 120 154 185 218 259
#     4   9  18  29  41  63  93 121 148 180 224 277
#     4  10  18  29  44  65  92 121 154 190 230 277
#     4   9  17  28  42  62  89 120 153 187 225 271
#     4   9  17  29  47  70  93 121 160 199 228 260
#     4  10  18  29  44  64  91 123 157 190 223 265
#     4   9  17  29  47  69  89 112 146 188 231 275
#     4   9  17  30  48  67  89 119 154 193 233 270
#
# _framework density 16.533206
#
# number of rings (size 3 to 8) (size 9 to 14) (size 15 to 20)
#    0.000    2.750    1.250    1.875    0.000    3.750 
#    0.000    1.875    0.000    1.875    0.000    0.875 
#    0.000    3.000    0.000    0.000    0.000    0.125 
#
# Total GULP energy -396447.652239 kJ/mol
# GULP energy per Si atom -12388.989132 kJ/mol
# Density = 1.649558 g / cm^3
# Si number density = 16.533206 Si / 1000 Ang^3
#
#
#
# Elastic Constant Matrix: (Units=GPa)
#
#
# Indices 1 2 3 4 5 6 
#
# 1 127.8690 57.7980 42.6360 0.0000 0.0000 0.0000
# 2 57.7980 49.7111 25.8420 0.0000 0.0000 0.0000
# 3 42.6360 25.8420 60.9785 0.0000 0.0000 0.0000
# 4 0.0000 0.0000 0.0000 13.6674 0.0000 0.0000
# 5 0.0000 0.0000 0.0000 0.0000 22.5524 0.0000
# 6 0.0000 0.0000 0.0000 0.0000 0.0000 27.2754
#
#
#
# Elastic Compliance Matrix: (Units=1/GPa)
#
#
# Indices 1 2 3 4 5 6 
#
# 1 0.017441 -0.017878 -0.004619 0.000000 0.000000 0.000000
# 2 -0.017878 0.044125 -0.006200 0.000000 0.000000 0.000000
# 3 -0.004619 -0.006200 0.022256 0.000000 0.000000 0.000000
# 4 0.000000 0.000000 0.000000 0.073167 0.000000 0.000000
# 5 0.000000 0.000000 0.000000 0.000000 0.044341 0.000000
# 6 0.000000 0.000000 0.000000 0.000000 0.000000 0.036663
#
#
# Mechanical properties :
#
#
# Convention : Reuss Voigt Hill
#
# Bulk Modulus (GPa) = 37.83517 54.56784 46.20150
# Shear Modulus (GPa) = 16.43676 20.18455 18.31065
#
# Velocity S-wave (km/s) = 3.15646 3.49786 3.33153
# Velocity P-wave (km/s) = 6.01817 7.02780 6.54249
#
# Compressibility (1/GPa) = 0.02643044
#
# Stress axis : x y z
#
# Youngs Moduli (GPa) = 57.33457 22.66274 44.93200
#
# Poissons Ratio (x) = 0.40516 0.20752
# Poissons Ratio (y) = 1.02502 0.27856
# Poissons Ratio (z) = 0.26481 0.14050
#
# Static dielectric constant tensor:
#      x y z
#    x 3.297310 0.000000 0.000000 
#    y 0.000000 3.088760 0.000000 
#    z 0.000000 0.000000 2.931370 
# 
# 
# High freq. dielectric constant tensor:
#      x y z
#    x 1.636030 0.000000 0.000000 
#    y 0.000000 1.627040 0.000000 
#    z 0.000000 0.000000 1.594100 
# 
# From -- ./inp_files/25209.got.cif
#   From: 2010.03.12/outbox.cif.g09.slc.cpg/sg44_13_cif.got.tgz:25209.got - 2010.04.14 02:36:11.
