data_PCOD8188834
_publ_section_title
;
Structure prediction by ZEFSAII (Michael W. Deem and Ramdas Pophale) SiO2 
 PCOD8188834
Probable space group: I M M 2
;
_chemical_formula_sum "Si O2"
_cell_formula_units_Z 40
_cell_length_a 25.965175
_cell_length_b 8.378188
_cell_length_c 9.302420
_cell_angle_alpha 90.000000
_cell_angle_beta 90.000000
_cell_angle_gamma 90.000000
_cell_volume 2023.658843
_symmetry_space_group_name_H-M "I M M 2"
_symmetry_group_IT_number 44
_symmetry_cell_setting 'orthorhombic'
loop_
_space_group_symop_operation_xyz
x,y,z
-x,-y,z
-x,y,z
x,-y,z
1/2+x,1/2+y,1/2+z
1/2-x,1/2-y,1/2+z
1/2-x,1/2+y,1/2+z
1/2+x,1/2-y,1/2+z
loop_
_atom_site_type_symbol
_atom_site_label
_atom_site_fract_x
_atom_site_fract_y
_atom_site_fract_z
Si Si1 0.387722 0.817223 0.735590
Si Si2 0.796197 0.186650 0.747138
Si Si3 0.110692 0.191840 0.555785
Si Si4 0.500000 0.181066 0.775955
Si Si5 0.296705 0.314909 0.568698
Si Si6 0.000000 0.179546 0.573834
O O1 0.447455 0.794567 0.685164
O O2 0.353745 0.708289 0.631372
O O3 0.370096 0.000000 0.719181
O O4 0.379571 0.766546 0.900167
O O5 0.844676 0.258236 0.659764
O O6 0.743260 0.221463 0.667364
O O7 0.804895 0.000000 0.759798
O O8 0.794403 0.258315 0.907959
O O9 0.055286 0.254475 0.621619
O O10 0.110761 0.000000 0.541325
O O11 0.500000 0.000000 0.841024
O O12 0.500000 0.312138 0.900864
O O13 0.281819 0.500000 0.569720
O O14 0.000000 0.000000 0.628522
#
# Coordination Sequence:
#
# PCOD8188834 Si02
#       6
#     8   8   8   4   8   4
#     4  10  19  33  54  79 106 136 171 209 251 299
#     4  10  22  38  54  75 103 135 171 211 256 306
#     4   9  17  32  54  79 107 137 171 210 251 296
#     4   8  16  30  49  74 104 136 168 204 245 294
#     4  11  23  37  53  75 102 133 171 213 258 306
#     4   8  14  26  49  78 104 134 170 206 245 292
#
# _framework density 19.766178
#
# number of rings (size 3 to 8) (size 9 to 14) (size 15 to 20)
#    0.000    2.400    0.000    2.400    0.000    6.400 
#    0.000    1.000    0.000    2.400    0.000    4.200 
#    0.000    0.000    0.000    0.000    0.000    0.000 
#
# Total GULP energy -247846.670955 kJ/mol
# GULP energy per Si atom -12392.333548 kJ/mol
# Density = 1.972119 g / cm^3
# Si number density = 19.766178 Si / 1000 Ang^3
#
#
#
# Elastic Constant Matrix: (Units=GPa)
#
#
# Indices 1 2 3 4 5 6 
#
# 1 154.9721 3.0404 67.0146 0.0000 0.0000 0.0000
# 2 3.0404 18.1415 5.4134 0.0000 0.0000 0.0000
# 3 67.0146 5.4134 116.7306 0.0000 0.0000 0.0000
# 4 0.0000 0.0000 0.0000 20.3275 0.0000 0.0000
# 5 0.0000 0.0000 0.0000 0.0000 33.8896 0.0000
# 6 0.0000 0.0000 0.0000 0.0000 0.0000 13.3314
#
#
#
# Elastic Compliance Matrix: (Units=1/GPa)
#
#
# Indices 1 2 3 4 5 6 
#
# 1 0.008584 0.000032 -0.004929 0.000000 0.000000 0.000000
# 2 0.000032 0.055896 -0.002611 0.000000 0.000000 0.000000
# 3 -0.004929 -0.002611 0.011518 0.000000 0.000000 0.000000
# 4 0.000000 0.000000 0.000000 0.049194 0.000000 0.000000
# 5 0.000000 0.000000 0.000000 0.000000 0.029508 0.000000
# 6 0.000000 0.000000 0.000000 0.000000 0.000000 0.075011
#
#
# Mechanical properties :
#
#
# Convention : Reuss Voigt Hill
#
# Bulk Modulus (GPa) = 16.39835 48.97566 32.68701
# Shear Modulus (GPa) = 18.86416 27.80143 23.33279
#
# Velocity S-wave (km/s) = 3.09263 3.75442 3.43948
# Velocity P-wave (km/s) = 4.58984 6.60496 5.68736
#
# Compressibility (1/GPa) = 0.06098175
#
# Stress axis : x y z
#
# Youngs Moduli (GPa) = 116.49891 17.89042 86.82235
#
# Poissons Ratio (x) = -0.00058 0.42798
# Poissons Ratio (y) = -0.00377 0.22667
# Poissons Ratio (z) = 0.57427 0.04671
#
# Static dielectric constant tensor:
#      x y z
#    x 4.044790 0.000000 0.000000 
#    y 0.000000 3.422270 0.000000 
#    z 0.000000 0.000000 3.440250 
# 
# 
# High freq. dielectric constant tensor:
#      x y z
#    x 1.797580 0.000000 0.000000 
#    y 0.000000 1.756090 0.000000 
#    z 0.000000 0.000000 1.734600 
# 
# From -- ./inp_files/4634.got.cif
#   From: 2010.03.12/outbox.cif.g09.slc.cpg/sg44_3_cif.got.tgz:4634.got - 2010.04.14 02:36:11.
