data_PCOD8188184
_publ_section_title
;
Structure prediction by ZEFSAII (Michael W. Deem and Ramdas Pophale) SiO2 
 PCOD8188184
Probable space group: I M M 2
;
_chemical_formula_sum "Si O2"
_cell_formula_units_Z 56
_cell_length_a 18.711878
_cell_length_b 9.802943
_cell_length_c 17.983461
_cell_angle_alpha 90.000000
_cell_angle_beta 90.000000
_cell_angle_gamma 90.000000
_cell_volume 3298.732749
_symmetry_space_group_name_H-M "I M M 2"
_symmetry_group_IT_number 44
_symmetry_cell_setting 'orthorhombic'
loop_
_space_group_symop_operation_xyz
x,y,z
-x,-y,z
-x,y,z
x,-y,z
1/2+x,1/2+y,1/2+z
1/2-x,1/2-y,1/2+z
1/2-x,1/2+y,1/2+z
1/2+x,1/2-y,1/2+z
loop_
_atom_site_type_symbol
_atom_site_label
_atom_site_fract_x
_atom_site_fract_y
_atom_site_fract_z
Si Si1 0.582816 0.842055 0.109490
Si Si2 0.693357 0.655962 0.192375
Si Si3 0.693079 0.845614 0.804714
Si Si4 0.313519 0.153878 0.978387
Si Si5 0.078746 0.850241 0.067133
Si Si6 0.293561 0.157353 0.555403
Si Si7 0.078058 0.149317 0.242111
O O1 0.500000 0.794830 0.109740
O O2 0.627771 0.754498 0.169955
O O3 0.589314 0.000000 0.133113
O O4 0.613852 0.820209 0.025900
O O5 0.665022 0.500000 0.188740
O O6 0.726363 0.692041 0.274470
O O7 0.760692 0.676829 0.137279
O O8 0.677076 0.826499 0.891113
O O9 0.635777 0.757766 0.763153
O O10 0.679325 0.000000 0.779901
O O11 0.285807 0.000000 0.995841
O O12 0.257613 0.269219 0.997662
O O13 0.130330 0.728191 0.044121
O O14 0.073784 0.858088 0.154615
O O15 0.000000 0.818549 0.034006
O O16 0.104980 0.000000 0.037806
O O17 0.301392 0.000000 0.533376
O O18 0.000000 0.191370 0.273758
O O19 0.099416 0.000000 0.273686
#
# Coordination Sequence:
#
# PCOD8188184 Si02
#       7
#     8   8   8   8   8   8   8
#     4   9  18  33  52  74  97 125 166 207 243 292
#     4   9  18  31  48  72  98 125 160 201 247 291
#     4  10  19  32  49  72 100 131 166 205 245 290
#     4   9  19  33  50  70  97 131 163 198 246 300
#     4   9  17  29  46  68  94 125 159 193 233 283
#     4  10  18  30  48  70  97 124 158 204 244 286
#     4   9  18  30  44  67  99 131 160 191 231 282
#
# _framework density 16.976216000000001
#
# number of rings (size 3 to 8) (size 9 to 14) (size 15 to 20)
#    0.000    2.714    1.429    1.286    0.000    3.143 
#    0.000    2.857    0.000    0.857    0.000    2.000 
#    0.000    0.000    0.000    0.000    0.000    0.000 
#
# Total GULP energy -346910.587712 kJ/mol
# GULP energy per Si atom -12389.663847 kJ/mol
# Density = 1.693758 g / cm^3
# Si number density = 16.976216 Si / 1000 Ang^3
#
#
#
# Elastic Constant Matrix: (Units=GPa)
#
#
# Indices 1 2 3 4 5 6 
#
# 1 126.2329 73.3923 31.3810 0.0000 0.0000 0.0000
# 2 73.3923 101.5084 24.3901 0.0000 0.0000 0.0000
# 3 31.3810 24.3901 40.4087 0.0000 0.0000 0.0000
# 4 0.0000 0.0000 0.0000 16.6250 0.0000 0.0000
# 5 0.0000 0.0000 0.0000 0.0000 6.7820 0.0000
# 6 0.0000 0.0000 0.0000 0.0000 0.0000 21.2237
#
#
#
# Elastic Compliance Matrix: (Units=1/GPa)
#
#
# Indices 1 2 3 4 5 6 
#
# 1 0.014771 -0.009268 -0.005877 0.000000 0.000000 0.000000
# 2 -0.009268 0.017337 -0.003267 0.000000 0.000000 0.000000
# 3 -0.005877 -0.003267 0.031284 0.000000 0.000000 0.000000
# 4 0.000000 0.000000 0.000000 0.060150 0.000000 0.000000
# 5 0.000000 0.000000 0.000000 0.000000 0.147450 0.000000
# 6 0.000000 0.000000 0.000000 0.000000 0.000000 0.047117
#
#
# Mechanical properties :
#
#
# Convention : Reuss Voigt Hill
#
# Bulk Modulus (GPa) = 37.64024 58.49743 48.06884
# Shear Modulus (GPa) = 13.74420 18.19190 15.96805
#
# Velocity S-wave (km/s) = 2.84846 3.27710 3.07027
# Velocity P-wave (km/s) = 5.74794 6.98945 6.39888
#
# Compressibility (1/GPa) = 0.02656731
#
# Stress axis : x y z
#
# Youngs Moduli (GPa) = 67.69943 57.67978 31.96565
#
# Poissons Ratio (x) = 0.53455 0.18787
# Poissons Ratio (y) = 0.62741 0.10444
# Poissons Ratio (z) = 0.39789 0.18846
#
# Static dielectric constant tensor:
#      x y z
#    x 3.469570 0.000000 0.000000 
#    y 0.000000 3.466220 0.000000 
#    z 0.000000 0.000000 2.982920 
# 
# 
# High freq. dielectric constant tensor:
#      x y z
#    x 1.648610 0.000000 0.000000 
#    y 0.000000 1.663930 0.000000 
#    z 0.000000 0.000000 1.622240 
# 
# From -- ./inp_files/20661.got.cif
#   From: 2010.03.12/outbox.cif.g09.slc.cpg/sg44_11_cif.got.tgz:20661.got - 2010.04.14 02:36:11.
