data_PCOD8189727
_publ_section_title
;
Structure prediction by ZEFSAII (Michael W. Deem and Ramdas Pophale) SiO2 
 PCOD8189727
Probable space group: I M M 2
;
_chemical_formula_sum "Si O2"
_cell_formula_units_Z 48
_cell_length_a 10.297552
_cell_length_b 8.955787
_cell_length_c 28.130321
_cell_angle_alpha 90.000000
_cell_angle_beta 90.000000
_cell_angle_gamma 90.000000
_cell_volume 2594.253658
_symmetry_space_group_name_H-M "I M M 2"
_symmetry_group_IT_number 44
_symmetry_cell_setting 'orthorhombic'
loop_
_space_group_symop_operation_xyz
x,y,z
-x,-y,z
-x,y,z
x,-y,z
1/2+x,1/2+y,1/2+z
1/2-x,1/2-y,1/2+z
1/2-x,1/2+y,1/2+z
1/2+x,1/2-y,1/2+z
loop_
_atom_site_type_symbol
_atom_site_label
_atom_site_fract_x
_atom_site_fract_y
_atom_site_fract_z
Si Si1 0.000000 0.326025 0.278780
Si Si2 0.000000 0.671787 0.390677
Si Si3 0.733464 0.673986 0.943180
Si Si4 0.500000 0.322432 0.292447
Si Si5 0.649648 0.674185 0.044755
Si Si6 0.853397 0.325912 0.638455
Si Si7 0.242402 0.323092 0.740471
Si Si8 0.000000 0.672761 0.892356
O O1 0.000000 0.303297 0.334740
O O2 0.876242 0.244724 0.257414
O O3 0.000000 0.500000 0.264727
O O4 0.129790 0.743384 0.410876
O O5 0.000000 0.500000 0.404887
O O6 0.698844 0.500000 0.940593
O O7 0.876042 0.710005 0.924422
O O8 0.725996 0.728913 0.997865
O O9 0.500000 0.500000 0.286379
O O10 0.373013 0.253732 0.268924
O O11 0.500000 0.281755 0.347737
O O12 0.500000 0.721164 0.037911
O O13 0.665678 0.500000 0.052464
O O14 0.709352 0.750910 0.091736
O O15 0.855052 0.500000 0.629140
O O16 0.769561 0.285506 0.684662
O O17 0.000000 0.265956 0.646677
O O18 0.236881 0.500000 0.750003
O O19 0.000000 0.500000 0.875607
#
# Coordination Sequence:
#
# PCOD8189727 Si02
#       8
#     4   4   8   4   8   8   8   4
#     4  11  25  41  56  85 122 152 189 238 292 341
#     4  11  23  37  56  81 110 147 189 231 278 331
#     4  10  20  37  58  83 113 146 188 232 274 331
#     4  12  24  38  59  86 117 150 191 246 293 334
#     4   9  17  31  53  81 111 143 182 229 280 331
#     4   9  18  34  56  83 112 142 184 234 277 329
#     4  11  22  40  62  85 114 153 197 235 280 345
#     4  10  22  38  59  82 111 153 193 229 279 342
#
# _framework density 18.502431000000001
#
# number of rings (size 3 to 8) (size 9 to 14) (size 15 to 20)
#    0.000    1.833    1.667    2.750    0.000    6.667 
#    0.000    0.833    0.000    1.000    0.000    0.000 
#    0.000    0.000    0.000    0.000    0.000    0.000 
#
# Total GULP energy -297646.748359 kJ/mol
# GULP energy per Si atom -12401.947848 kJ/mol
# Density = 1.846032 g / cm^3
# Si number density = 18.502431 Si / 1000 Ang^3
#
#
#
# Elastic Constant Matrix: (Units=GPa)
#
#
# Indices 1 2 3 4 5 6 
#
# 1 139.2714 63.1116 72.4147 0.0000 0.0000 0.0000
# 2 63.1116 92.0805 76.1348 0.0000 0.0000 0.0000
# 3 72.4147 76.1348 150.0457 0.0000 0.0000 0.0000
# 4 0.0000 0.0000 0.0000 36.1588 0.0000 0.0000
# 5 0.0000 0.0000 0.0000 0.0000 36.4044 0.0000
# 6 0.0000 0.0000 0.0000 0.0000 0.0000 31.1015
#
#
#
# Elastic Compliance Matrix: (Units=1/GPa)
#
#
# Indices 1 2 3 4 5 6 
#
# 1 0.010951 -0.005402 -0.002544 0.000000 0.000000 0.000000
# 2 -0.005402 0.021375 -0.008238 0.000000 0.000000 0.000000
# 3 -0.002544 -0.008238 0.012073 0.000000 0.000000 0.000000
# 4 0.000000 0.000000 0.000000 0.027656 0.000000 0.000000
# 5 0.000000 0.000000 0.000000 0.000000 0.027469 0.000000
# 6 0.000000 0.000000 0.000000 0.000000 0.000000 0.032153
#
#
# Mechanical properties :
#
#
# Convention : Reuss Voigt Hill
#
# Bulk Modulus (GPa) = 83.13375 89.41329 86.27352
# Shear Modulus (GPa) = 29.75211 32.04871 30.90041
#
# Velocity S-wave (km/s) = 4.01435 4.16641 4.09109
# Velocity P-wave (km/s) = 8.15570 8.46022 8.30936
#
# Compressibility (1/GPa) = 0.01202881
#
# Stress axis : x y z
#
# Youngs Moduli (GPa) = 91.31497 46.78446 82.83193
#
# Poissons Ratio (x) = 0.25275 0.21072
# Poissons Ratio (y) = 0.49332 0.68240
# Poissons Ratio (z) = 0.23230 0.38543
#
# Static dielectric constant tensor:
#      x y z
#    x 3.311710 0.000000 0.000000 
#    y 0.000000 3.448160 0.000000 
#    z 0.000000 0.000000 3.685690 
# 
# 
# High freq. dielectric constant tensor:
#      x y z
#    x 1.705290 0.000000 0.000000 
#    y 0.000000 1.718440 0.000000 
#    z 0.000000 0.000000 1.735620 
# 
# From -- ./inp_files/26996.got.cif
#   From: 2010.03.12/outbox.cif.g09.slc.cpg/sg44_14_cif.got.tgz:26996.got - 2010.04.14 02:36:11.
