data_PCOD8189356
_publ_section_title
;
Structure prediction by ZEFSAII (Michael W. Deem and Ramdas Pophale) SiO2 
 PCOD8189356
Probable space group: I M M 2
;
_chemical_formula_sum "Si O2"
_cell_formula_units_Z 48
_cell_length_a 7.795129
_cell_length_b 7.694297
_cell_length_c 38.282675
_cell_angle_alpha 90.000000
_cell_angle_beta 90.000000
_cell_angle_gamma 90.000000
_cell_volume 2296.119724
_symmetry_space_group_name_H-M "I M M 2"
_symmetry_group_IT_number 44
_symmetry_cell_setting 'orthorhombic'
loop_
_space_group_symop_operation_xyz
x,y,z
-x,-y,z
-x,y,z
x,-y,z
1/2+x,1/2+y,1/2+z
1/2-x,1/2-y,1/2+z
1/2-x,1/2+y,1/2+z
1/2+x,1/2-y,1/2+z
loop_
_atom_site_type_symbol
_atom_site_label
_atom_site_fract_x
_atom_site_fract_y
_atom_site_fract_z
Si Si1 0.189252 0.793937 0.406330
Si Si2 0.703448 0.803905 0.482261
Si Si3 0.000000 0.293611 0.860537
Si Si4 0.296691 0.807967 0.657877
Si Si5 0.796043 0.000000 0.031818
Si Si6 0.189694 0.293883 0.235929
Si Si7 0.705247 0.500000 0.610298
Si Si8 0.500000 0.298317 0.280406
O O1 0.223475 0.731691 0.445757
O O2 0.331261 0.717255 0.379868
O O3 0.000000 0.729834 0.394537
O O4 0.201835 0.000000 0.405747
O O5 0.500000 0.802895 0.479374
O O6 0.769823 0.674037 0.512365
O O7 0.769088 0.000000 0.490471
O O8 0.000000 0.229034 0.821344
O O9 0.000000 0.500000 0.861654
O O10 0.500000 0.818474 0.655032
O O11 0.248372 0.744367 0.696880
O O12 0.222858 0.671049 0.629905
O O13 0.218960 0.000000 0.650165
O O14 0.721707 0.000000 0.070984
O O15 0.000000 0.000000 0.032578
O O16 0.177010 0.500000 0.238958
O O17 0.328029 0.215518 0.263289
O O18 0.000000 0.214717 0.243906
O O19 0.500000 0.500000 0.610669
O O20 0.500000 0.500000 0.271085
#
# Coordination Sequence:
#
# PCOD8189356 Si02
#       8
#     8   8   4   8   4   8   4   4
#     4   9  17  32  55  76  97 135 181 219 263 320
#     4   9  16  30  50  72 101 138 179 224 270 318
#     4  10  20  36  52  74 110 136 166 224 276 320
#     4   8  14  26  45  68  97 136 178 222 267 313
#     4   9  18  28  43  75 111 142 175 225 278 325
#     4   8  15  30  51  73  99 133 177 221 259 311
#     4   9  16  26  42  72 110 138 174 222 274 324
#     4  10  20  34  52  76 104 140 172 212 276 326
#
# _framework density 20.904831999999999
#
# number of rings (size 3 to 8) (size 9 to 14) (size 15 to 20)
#    0.000    3.167    0.833    1.000    0.000    1.333 
#    3.000    3.750    0.000    0.000    4.333    0.000 
#    0.000    0.000    0.000    0.000    0.000    0.000 
#
# Total GULP energy -297450.643929 kJ/mol
# GULP energy per Si atom -12393.776830 kJ/mol
# Density = 2.085725 g / cm^3
# Si number density = 20.904832 Si / 1000 Ang^3
#
#
#
# Elastic Constant Matrix: (Units=GPa)
#
#
# Indices 1 2 3 4 5 6 
#
# 1 94.1601 21.5947 67.1801 0.0000 0.0000 0.0000
# 2 21.5947 77.4092 55.1707 0.0000 0.0000 0.0000
# 3 67.1801 55.1707 188.1171 0.0000 0.0000 0.0000
# 4 0.0000 0.0000 0.0000 32.0054 0.0000 0.0000
# 5 0.0000 0.0000 0.0000 0.0000 7.1145 0.0000
# 6 0.0000 0.0000 0.0000 0.0000 0.0000 1.4881
#
#
#
# Elastic Compliance Matrix: (Units=1/GPa)
#
#
# Indices 1 2 3 4 5 6 
#
# 1 0.014263 -0.000441 -0.004964 0.000000 0.000000 0.000000
# 2 -0.000441 0.016346 -0.004636 0.000000 0.000000 0.000000
# 3 -0.004964 -0.004636 0.008448 0.000000 0.000000 0.000000
# 4 0.000000 0.000000 0.000000 0.031245 0.000000 0.000000
# 5 0.000000 0.000000 0.000000 0.000000 0.140559 0.000000
# 6 0.000000 0.000000 0.000000 0.000000 0.000000 0.672000
#
#
# Mechanical properties :
#
#
# Convention : Reuss Voigt Hill
#
# Bulk Modulus (GPa) = 52.70300 71.95304 62.32802
# Shear Modulus (GPa) = 5.49892 22.50430 14.00161
#
# Velocity S-wave (km/s) = 1.62363 3.28458 2.59082
# Velocity P-wave (km/s) = 5.36475 6.99133 6.23134
#
# Compressibility (1/GPa) = 0.01897425
#
# Stress axis : x y z
#
# Youngs Moduli (GPa) = 70.11030 61.17777 118.36429
#
# Poissons Ratio (x) = 0.02697 0.58761
# Poissons Ratio (y) = 0.03090 0.54879
# Poissons Ratio (z) = 0.34806 0.28365
#
# Static dielectric constant tensor:
#      x y z
#    x 3.829580 0.000000 0.000000 
#    y 0.000000 3.804390 0.000000 
#    z 0.000000 0.000000 3.863310 
# 
# 
# High freq. dielectric constant tensor:
#      x y z
#    x 1.799330 0.000000 0.000000 
#    y 0.000000 1.797760 0.000000 
#    z 0.000000 0.000000 1.808600 
# 
# From -- ./inp_files/27011.got.cif
#   From: 2010.03.12/outbox.cif.g09.slc.cpg/sg44_14_cif.got.tgz:27011.got - 2010.04.14 02:36:11.
