data_PCOD8189837
_publ_section_title
;
Structure prediction by ZEFSAII (Michael W. Deem and Ramdas Pophale) SiO2 
 PCOD8189837
Probable space group: I M M 2
;
_chemical_formula_sum "Si O2"
_cell_formula_units_Z 64
_cell_length_a 9.463411
_cell_length_b 9.383170
_cell_length_c 41.055459
_cell_angle_alpha 90.000000
_cell_angle_beta 90.000000
_cell_angle_gamma 90.000000
_cell_volume 3645.593143
_symmetry_space_group_name_H-M "I M M 2"
_symmetry_group_IT_number 44
_symmetry_cell_setting 'orthorhombic'
loop_
_space_group_symop_operation_xyz
x,y,z
-x,-y,z
-x,y,z
x,-y,z
1/2+x,1/2+y,1/2+z
1/2-x,1/2-y,1/2+z
1/2-x,1/2+y,1/2+z
1/2+x,1/2-y,1/2+z
loop_
_atom_site_type_symbol
_atom_site_label
_atom_site_fract_x
_atom_site_fract_y
_atom_site_fract_z
Si Si1 0.668014 0.161142 0.540270
Si Si2 0.835336 0.164807 0.102288
Si Si3 0.336300 0.835678 0.165449
Si Si4 0.336997 0.833788 0.915499
Si Si5 0.164915 0.165416 0.978034
Si Si6 0.665135 0.334340 0.228893
Si Si7 0.335045 0.665858 0.782208
Si Si8 0.167767 0.157411 0.354912
O O1 0.500000 0.163217 0.540299
O O2 0.723465 0.241894 0.572350
O O3 0.723045 0.243923 0.508429
O O4 0.726836 0.000000 0.540017
O O5 0.752325 0.214047 0.134280
O O6 0.000000 0.192790 0.108591
O O7 0.806065 0.000000 0.093968
O O8 0.500000 0.810270 0.157416
O O9 0.285440 0.740716 0.195636
O O10 0.305421 0.000000 0.174114
O O11 0.500000 0.792611 0.921401
O O12 0.248427 0.780086 0.946403
O O13 0.274313 0.761318 0.882944
O O14 0.316757 0.000000 0.910180
O O15 0.000000 0.192244 0.971823
O O16 0.195953 0.000000 0.985367
O O17 0.500000 0.308582 0.234778
O O18 0.703261 0.500000 0.226440
O O19 0.747354 0.265830 0.258667
O O20 0.500000 0.697031 0.777014
O O21 0.302172 0.500000 0.775339
O O22 0.286071 0.707463 0.818851
O O23 0.000000 0.153622 0.355634
O O24 0.228297 0.000000 0.361970
#
# Coordination Sequence:
#
# PCOD8189837 Si02
#       8
#     8   8   8   8   8   8   8   8
#     4   9  17  29  46  68  92 118 149 186 228 272
#     4   9  17  30  49  71  92 116 150 190 229 272
#     4   9  18  33  51  69  92 125 160 191 229 279
#     4   9  17  29  46  68  92 119 152 188 226 270
#     4   9  17  30  47  65  88 120 154 186 223 268
#     4  10  21  35  50  71 100 132 163 196 239 289
#     4   9  18  33  53  75  97 124 162 204 242 284
#     4   8  15  29  48  69  93 121 152 188 232 279
#
# _framework density 17.555441999999999
#
# number of rings (size 3 to 8) (size 9 to 14) (size 15 to 20)
#    0.000    3.000    0.000    1.500    0.000    4.500 
#    0.000    3.750    0.000    6.000    0.000    0.000 
#    0.000    0.000    0.000    0.000    0.000    0.000 
#
# Total GULP energy -396776.485194 kJ/mol
# GULP energy per Si atom -12399.265162 kJ/mol
# Density = 1.751549 g / cm^3
# Si number density = 17.555442 Si / 1000 Ang^3
#
#
#
# Elastic Constant Matrix: (Units=GPa)
#
#
# Indices 1 2 3 4 5 6 
#
# 1 38.5342 37.5764 56.5405 0.0000 0.0000 0.0000
# 2 37.5764 99.8060 96.9773 0.0000 0.0000 0.0000
# 3 56.5405 96.9773 190.7346 0.0000 0.0000 0.0000
# 4 0.0000 0.0000 0.0000 36.1287 0.0000 0.0000
# 5 0.0000 0.0000 0.0000 0.0000 31.2960 0.0000
# 6 0.0000 0.0000 0.0000 0.0000 0.0000 19.0643
#
#
#
# Elastic Compliance Matrix: (Units=1/GPa)
#
#
# Indices 1 2 3 4 5 6 
#
# 1 0.049431 -0.008642 -0.010259 0.000000 0.000000 0.000000
# 2 -0.008642 0.021313 -0.008275 0.000000 0.000000 0.000000
# 3 -0.010259 -0.008275 0.012491 0.000000 0.000000 0.000000
# 4 0.000000 0.000000 0.000000 0.027679 0.000000 0.000000
# 5 0.000000 0.000000 0.000000 0.000000 0.031953 0.000000
# 6 0.000000 0.000000 0.000000 0.000000 0.000000 0.052454
#
#
# Mechanical properties :
#
#
# Convention : Reuss Voigt Hill
#
# Bulk Modulus (GPa) = 34.62143 79.02925 56.82534
# Shear Modulus (GPa) = 19.28251 26.49650 22.88950
#
# Velocity S-wave (km/s) = 3.31777 3.88919 3.61479
# Velocity P-wave (km/s) = 5.86863 8.07975 7.06128
#
# Compressibility (1/GPa) = 0.02888384
#
# Stress axis : x y z
#
# Youngs Moduli (GPa) = 20.23002 46.91875 80.05575
#
# Poissons Ratio (x) = 0.40548 0.82131
# Poissons Ratio (y) = 0.17483 0.66244
# Poissons Ratio (z) = 0.20754 0.38824
#
# Static dielectric constant tensor:
#      x y z
#    x 2.973370 0.000000 0.000000 
#    y 0.000000 3.329790 0.000000 
#    z 0.000000 0.000000 3.473380 
# 
# 
# High freq. dielectric constant tensor:
#      x y z
#    x 1.645590 0.000000 0.000000 
#    y 0.000000 1.676960 0.000000 
#    z 0.000000 0.000000 1.691050 
# 
# From -- ./inp_files/27454.got.cif
#   From: 2010.03.12/outbox.cif.g09.slc.cpg/sg44_14_cif.got.tgz:27454.got - 2010.04.14 02:36:11.
