data_PCOD8189197
_publ_section_title
;
Structure prediction by ZEFSAII (Michael W. Deem and Ramdas Pophale) SiO2 
 PCOD8189197
Probable space group: I M M 2
;
_chemical_formula_sum "Si O2"
_cell_formula_units_Z 48
_cell_length_a 7.678694
_cell_length_b 7.911652
_cell_length_c 37.741570
_cell_angle_alpha 90.000000
_cell_angle_beta 90.000000
_cell_angle_gamma 90.000000
_cell_volume 2292.843959
_symmetry_space_group_name_H-M "I M M 2"
_symmetry_group_IT_number 44
_symmetry_cell_setting 'orthorhombic'
loop_
_space_group_symop_operation_xyz
x,y,z
-x,-y,z
-x,y,z
x,-y,z
1/2+x,1/2+y,1/2+z
1/2-x,1/2-y,1/2+z
1/2-x,1/2+y,1/2+z
1/2+x,1/2-y,1/2+z
loop_
_atom_site_type_symbol
_atom_site_label
_atom_site_fract_x
_atom_site_fract_y
_atom_site_fract_z
Si Si1 0.798619 0.000000 0.329551
Si Si2 0.691889 0.696269 0.600499
Si Si3 0.701006 0.805868 0.778446
Si Si4 0.206541 0.311050 0.024826
Si Si5 0.697191 0.000000 0.408352
Si Si6 0.292237 0.315495 0.450334
Si Si7 0.000000 0.693503 0.645999
Si Si8 0.000000 0.806923 0.723719
O O1 0.748327 0.828400 0.308742
O O2 0.696217 0.000000 0.366069
O O3 0.000000 0.000000 0.338902
O O4 0.500000 0.782666 0.604728
O O5 0.670145 0.500000 0.607941
O O6 0.769041 0.723124 0.561059
O O7 0.825878 0.777816 0.629100
O O8 0.500000 0.780513 0.766662
O O9 0.825432 0.764054 0.745520
O O10 0.732364 0.000000 0.791679
O O11 0.281366 0.500000 0.023773
O O12 0.000000 0.310875 0.023561
O O13 0.277435 0.213446 0.990309
O O14 0.785412 0.829797 0.424287
O O15 0.500000 0.000000 0.421985
O O16 0.500000 0.312490 0.449457
O O17 0.224705 0.500000 0.437584
O O18 0.000000 0.698726 0.688280
O O19 0.000000 0.500000 0.633634
O O20 0.000000 0.000000 0.711941
#
# Coordination Sequence:
#
# PCOD8189197 Si02
#       8
#     4   8   8   8   4   8   4   4
#     4  10  22  38  60  84 112 154 188 233 291 352
#     4   9  18  33  51  74 106 145 189 232 287 348
#     4   9  20  39  60  87 118 147 192 240 282 344
#     4   9  15  26  48  74 100 137 187 239 281 330
#     4  10  20  32  50  82 114 142 182 240 288 339
#     4   9  16  28  47  74 109 145 186 235 288 339
#     4  10  22  36  52  80 116 148 182 240 294 341
#     4  10  22  38  60  86 114 152 190 235 291 356
#
# _framework density 20.934699999999999
#
# number of rings (size 3 to 8) (size 9 to 14) (size 15 to 20)
#    0.000    2.667    0.833    0.500    2.333    4.000 
#    0.000    0.000    1.833    0.000    0.000    0.000 
#    0.000    0.000    0.000    0.000    0.000    0.000 
#
# Total GULP energy -297438.661533 kJ/mol
# GULP energy per Si atom -12393.277564 kJ/mol
# Density = 2.088705 g / cm^3
# Si number density = 20.934700 Si / 1000 Ang^3
#
#
#
# Elastic Constant Matrix: (Units=GPa)
#
#
# Indices 1 2 3 4 5 6 
#
# 1 70.5109 31.5589 49.4559 0.0000 0.0000 0.0000
# 2 31.5589 118.7680 61.8846 0.0000 0.0000 0.0000
# 3 49.4559 61.8846 153.2531 0.0000 0.0000 0.0000
# 4 0.0000 0.0000 0.0000 31.6678 0.0000 0.0000
# 5 0.0000 0.0000 0.0000 0.0000 -0.2197 0.0000
# 6 0.0000 0.0000 0.0000 0.0000 0.0000 9.2493
#
#
#
# Elastic Compliance Matrix: (Units=1/GPa)
#
#
# Indices 1 2 3 4 5 6 
#
# 1 0.018826 -0.002326 -0.005136 0.000000 0.000000 0.000000
# 2 -0.002326 0.010951 -0.003671 0.000000 0.000000 0.000000
# 3 -0.005136 -0.003671 0.009665 0.000000 0.000000 0.000000
# 4 0.000000 0.000000 0.000000 0.031578 0.000001 0.000000
# 5 0.000000 0.000000 0.000000 0.000001 -4.551319 0.000000
# 6 0.000000 0.000000 0.000000 0.000000 0.000000 0.108116
#
#
# Mechanical properties :
#
#
# Convention : Reuss Voigt Hill
#
# Bulk Modulus (GPa) = 58.22524 69.81453 64.01989
# Shear Modulus (GPa) = -1.15096 21.44831 10.14867
#
# Velocity S-wave (km/s) = -0.74228 3.20431 2.20416
# Velocity P-wave (km/s) = 5.20947 6.86376 6.09302
#
# Compressibility (1/GPa) = 0.01717468
#
# Stress axis : x y z
#
# Youngs Moduli (GPa) = 53.11913 91.31686 103.46596
#
# Poissons Ratio (x) = 0.21243 0.53138
# Poissons Ratio (y) = 0.12357 0.37986
# Poissons Ratio (z) = 0.27281 0.33525
#
# Static dielectric constant tensor:
#      x y z
#    x 3.741440 0.000000 0.000000 
#    y 0.000000 3.949800 0.000000 
#    z 0.000000 0.000000 3.553220 
# 
# 
# High freq. dielectric constant tensor:
#      x y z
#    x 1.801500 0.000000 0.000000 
#    y 0.000000 1.821310 0.000000 
#    z 0.000000 0.000000 1.803100 
# 
# From -- ./inp_files/27038.got.cif
#   From: 2010.03.12/outbox.cif.g09.slc.cpg/sg44_14_cif.got.tgz:27038.got - 2010.04.14 02:36:11.
