data_PCOD8189512
_publ_section_title
;
Structure prediction by ZEFSAII (Michael W. Deem and Ramdas Pophale) SiO2 
 PCOD8189512
Probable space group: I M M 2
;
_chemical_formula_sum "Si O2"
_cell_formula_units_Z 48
_cell_length_a 22.483068
_cell_length_b 9.178228
_cell_length_c 13.031846
_cell_angle_alpha 90.000000
_cell_angle_beta 90.000000
_cell_angle_gamma 90.000000
_cell_volume 2689.182988
_symmetry_space_group_name_H-M "I M M 2"
_symmetry_group_IT_number 44
_symmetry_cell_setting 'orthorhombic'
loop_
_space_group_symop_operation_xyz
x,y,z
-x,-y,z
-x,y,z
x,-y,z
1/2+x,1/2+y,1/2+z
1/2-x,1/2-y,1/2+z
1/2-x,1/2+y,1/2+z
1/2+x,1/2-y,1/2+z
loop_
_atom_site_type_symbol
_atom_site_label
_atom_site_fract_x
_atom_site_fract_y
_atom_site_fract_z
Si Si1 0.866446 0.672664 0.858440
Si Si2 0.566648 0.826733 0.560034
Si Si3 0.628874 0.826799 0.765202
Si Si4 0.263015 0.334884 0.281250
Si Si5 0.126230 0.164924 0.663528
Si Si6 0.569447 0.669495 0.953804
O O1 0.865069 0.500000 0.851452
O O2 0.798642 0.734814 0.863426
O O3 0.899953 0.737277 0.757258
O O4 0.900306 0.730137 0.958699
O O5 0.500000 0.763757 0.560583
O O6 0.600306 0.767515 0.660277
O O7 0.565932 0.000000 0.560447
O O8 0.697102 0.772426 0.765439
O O9 0.592481 0.760905 0.858585
O O10 0.624728 0.000000 0.771899
O O11 0.260037 0.500000 0.323456
O O12 0.301152 0.331065 0.173974
O O13 0.104855 0.226427 0.554260
O O14 0.102186 0.000000 0.676303
O O15 0.500000 0.699813 0.970396
O O16 0.582448 0.500000 0.933555
#
# Coordination Sequence:
#
# PCOD8189512 Si02
#       6
#     8   8   8   8   8   8
#     4   9  17  31  53  79 103 130 170 213 255 300
#     4   9  18  32  51  76 104 133 167 208 253 302
#     4  10  20  35  55  76 102 138 174 209 252 305
#     4   8  17  34  52  75 105 134 166 207 257 307
#     4   8  17  35  53  72 104 137 166 207 260 307
#     4  10  21  36  54  77 105 137 173 213 258 308
#
# _framework density 17.849287
#
# number of rings (size 3 to 8) (size 9 to 14) (size 15 to 20)
#    1.000    2.000    0.000    0.500    0.000    4.333 
#    0.000    5.000    0.000    2.500    0.000    0.000 
#    0.000    0.000    0.000    0.000    0.000    0.000 
#
# Total GULP energy -297383.892418 kJ/mol
# GULP energy per Si atom -12390.995517 kJ/mol
# Density = 1.780866 g / cm^3
# Si number density = 17.849287 Si / 1000 Ang^3
#
#
#
# Elastic Constant Matrix: (Units=GPa)
#
#
# Indices 1 2 3 4 5 6 
#
# 1 120.6173 25.8093 57.3403 0.0000 0.0000 0.0000
# 2 25.8093 40.5128 35.7122 0.0000 0.0000 0.0000
# 3 57.3403 35.7122 136.5562 0.0000 0.0000 0.0000
# 4 0.0000 0.0000 0.0000 27.8048 0.0000 0.0000
# 5 0.0000 0.0000 0.0000 0.0000 33.7360 0.0000
# 6 0.0000 0.0000 0.0000 0.0000 0.0000 20.4957
#
#
#
# Elastic Compliance Matrix: (Units=1/GPa)
#
#
# Indices 1 2 3 4 5 6 
#
# 1 0.010777 -0.003738 -0.003548 0.000000 0.000000 0.000000
# 2 -0.003738 0.033376 -0.007159 0.000000 0.000000 0.000000
# 3 -0.003548 -0.007159 0.010685 0.000000 0.000000 0.000000
# 4 0.000000 0.000000 0.000000 0.035965 0.000000 0.000000
# 5 0.000000 0.000000 0.000000 0.000000 0.029642 0.000000
# 6 0.000000 0.000000 0.000000 0.000000 0.000000 0.048791
#
#
# Mechanical properties :
#
#
# Convention : Reuss Voigt Hill
#
# Bulk Modulus (GPa) = 38.53855 59.48998 49.01426
# Shear Modulus (GPa) = 24.18102 28.32895 26.25498
#
# Velocity S-wave (km/s) = 3.68466 3.98819 3.83943
# Velocity P-wave (km/s) = 6.30399 7.38979 6.86838
#
# Compressibility (1/GPa) = 0.02594805
#
# Stress axis : x y z
#
# Youngs Moduli (GPa) = 92.78884 29.96205 93.59104
#
# Poissons Ratio (x) = 0.11201 0.33203
# Poissons Ratio (y) = 0.34689 0.66998
# Poissons Ratio (z) = 0.32918 0.21449
#
# Static dielectric constant tensor:
#      x y z
#    x 3.428890 0.000000 0.000000 
#    y 0.000000 3.049630 0.000000 
#    z 0.000000 0.000000 3.292650 
# 
# 
# High freq. dielectric constant tensor:
#      x y z
#    x 1.690670 0.000000 0.000000 
#    y 0.000000 1.669160 0.000000 
#    z 0.000000 0.000000 1.685090 
# 
# From -- ./inp_files/14271.got.cif
#   From: 2010.03.12/outbox.cif.g09.slc.cpg/sg44_8_cif.got.tgz:14271.got - 2010.04.14 02:36:11.
