data_PCOD8189106
_publ_section_title
;
Structure prediction by ZEFSAII (Michael W. Deem and Ramdas Pophale) SiO2 
 PCOD8189106
Probable space group: I M M 2
;
_chemical_formula_sum "Si O2"
_cell_formula_units_Z 48
_cell_length_a 8.017732
_cell_length_b 9.715283
_cell_length_c 34.348859
_cell_angle_alpha 90.000000
_cell_angle_beta 90.000000
_cell_angle_gamma 90.000000
_cell_volume 2675.588413
_symmetry_space_group_name_H-M "I M M 2"
_symmetry_group_IT_number 44
_symmetry_cell_setting 'orthorhombic'
loop_
_space_group_symop_operation_xyz
x,y,z
-x,-y,z
-x,y,z
x,-y,z
1/2+x,1/2+y,1/2+z
1/2-x,1/2-y,1/2+z
1/2-x,1/2+y,1/2+z
1/2+x,1/2-y,1/2+z
loop_
_atom_site_type_symbol
_atom_site_label
_atom_site_fract_x
_atom_site_fract_y
_atom_site_fract_z
Si Si1 0.184504 0.163893 0.308840
Si Si2 0.306269 0.345002 0.536279
Si Si3 0.691280 0.347172 0.969415
Si Si4 0.500000 0.164185 0.260608
Si Si5 0.000000 0.335731 0.672446
Si Si6 0.190119 0.341355 0.889109
Si Si7 0.814792 0.163686 0.124119
O O1 0.331605 0.222131 0.281151
O O2 0.205676 0.221813 0.352976
O O3 0.000000 0.207770 0.293461
O O4 0.201272 0.000000 0.309962
O O5 0.500000 0.342213 0.525978
O O6 0.235993 0.500000 0.531813
O O7 0.210956 0.245811 0.507188
O O8 0.275146 0.290114 0.580011
O O9 0.500000 0.361512 0.959099
O O10 0.767853 0.500000 0.977555
O O11 0.774541 0.273764 0.931380
O O12 0.500000 0.218814 0.216489
O O13 0.500000 0.000000 0.261544
O O14 0.831882 0.277942 0.651786
O O15 0.000000 0.500000 0.670583
O O16 0.240031 0.500000 0.894378
O O17 0.000000 0.321914 0.876902
O O18 0.000000 0.218265 0.136827
O O19 0.818732 0.000000 0.125731
#
# Coordination Sequence:
#
# PCOD8189106 Si02
#       7
#     8   8   8   4   4   8   8
#     4   9  15  23  35  50  73 107 143 179 218 264
#     4   9  18  32  48  65  86 117 158 196 232 277
#     4  10  20  30  42  66  94 119 153 194 233 275
#     4   9  16  24  32  52  78 103 143 183 217 263
#     4   9  16  24  38  56  77 107 143 183 225 269
#     4   9  15  25  40  55  77 111 148 182 220 268
#     4   8  15  27  41  58  79 106 144 184 221 269
#
# _framework density 17.939981
#
# number of rings (size 3 to 8) (size 9 to 14) (size 15 to 20)
#    0.000    3.000    0.833    2.000    1.167    4.000 
#    0.000    3.333    0.000    0.000    0.000    0.000 
#    0.000    0.000    0.000    3.000    0.000   14.333 
#
# Total GULP energy -297386.547895 kJ/mol
# GULP energy per Si atom -12391.106162 kJ/mol
# Density = 1.789915 g / cm^3
# Si number density = 17.939981 Si / 1000 Ang^3
#
#
#
# Elastic Constant Matrix: (Units=GPa)
#
#
# Indices 1 2 3 4 5 6 
#
# 1 123.0034 12.2243 75.6612 0.0000 0.0000 0.0000
# 2 12.2243 19.3000 18.9067 0.0000 0.0000 0.0000
# 3 75.6612 18.9067 138.9671 0.0000 0.0000 0.0000
# 4 0.0000 0.0000 0.0000 12.5272 0.0000 0.0000
# 5 0.0000 0.0000 0.0000 0.0000 31.3915 0.0000
# 6 0.0000 0.0000 0.0000 0.0000 0.0000 9.8504
#
#
#
# Elastic Compliance Matrix: (Units=1/GPa)
#
#
# Indices 1 2 3 4 5 6 
#
# 1 0.012257 -0.001415 -0.006481 0.000000 0.000000 0.000000
# 2 -0.001415 0.059944 -0.007385 0.000000 0.000000 0.000000
# 3 -0.006481 -0.007385 0.011729 0.000000 0.000000 0.000000
# 4 0.000000 0.000000 0.000000 0.079826 0.000000 0.000000
# 5 0.000000 0.000000 0.000000 0.000000 0.031856 0.000000
# 6 0.000000 0.000000 0.000000 0.000000 0.000000 0.101519
#
#
# Mechanical properties :
#
#
# Convention : Reuss Voigt Hill
#
# Bulk Modulus (GPa) = 18.73753 54.98389 36.86071
# Shear Modulus (GPa) = 14.47251 22.38570 18.42910
#
# Velocity S-wave (km/s) = 2.84336 3.53627 3.20857
# Velocity P-wave (km/s) = 4.60943 6.88396 5.85815
#
# Compressibility (1/GPa) = 0.05336884
#
# Stress axis : x y z
#
# Youngs Moduli (GPa) = 81.58655 16.68218 85.25670
#
# Poissons Ratio (x) = 0.02360 0.55254
# Poissons Ratio (y) = 0.11541 0.62965
# Poissons Ratio (z) = 0.52875 0.12320
#
# Static dielectric constant tensor:
#      x y z
#    x 3.534480 0.000000 0.000000 
#    y 0.000000 2.585580 0.000000 
#    z 0.000000 0.000000 3.452960 
# 
# 
# High freq. dielectric constant tensor:
#      x y z
#    x 1.710210 0.000000 0.000000 
#    y 0.000000 1.596220 0.000000 
#    z 0.000000 0.000000 1.702240 
# 
# From -- ./inp_files/26961.got.cif
#   From: 2010.03.12/outbox.cif.g09.slc.cpg/sg44_14_cif.got.tgz:26961.got - 2010.04.14 02:36:11.
