data_PCOD8189003
_publ_section_title
;
Structure prediction by ZEFSAII (Michael W. Deem and Ramdas Pophale) SiO2 
 PCOD8189003
Probable space group: I M M 2
;
_chemical_formula_sum "Si O2"
_cell_formula_units_Z 64
_cell_length_a 9.203971
_cell_length_b 30.531819
_cell_length_c 11.979539
_cell_angle_alpha 90.000000
_cell_angle_beta 90.000000
_cell_angle_gamma 90.000000
_cell_volume 3366.417893
_symmetry_space_group_name_H-M "I M M 2"
_symmetry_group_IT_number 44
_symmetry_cell_setting 'orthorhombic'
loop_
_space_group_symop_operation_xyz
x,y,z
-x,-y,z
-x,y,z
x,-y,z
1/2+x,1/2+y,1/2+z
1/2-x,1/2-y,1/2+z
1/2-x,1/2+y,1/2+z
1/2+x,1/2-y,1/2+z
loop_
_atom_site_type_symbol
_atom_site_label
_atom_site_fract_x
_atom_site_fract_y
_atom_site_fract_z
Si Si1 0.672526 0.373040 0.814310
Si Si2 0.330838 0.949347 0.707028
Si Si3 0.169862 0.794091 0.162820
Si Si4 0.829605 0.694904 0.211482
Si Si5 0.333906 0.451943 0.666507
Si Si6 0.835203 0.672009 0.457843
Si Si7 0.673583 0.376122 0.068491
Si Si8 0.334743 0.929422 0.955745
O O1 0.500000 0.373766 0.814878
O O2 0.730789 0.329176 0.752822
O O3 0.734676 0.415667 0.749100
O O4 0.728538 0.374654 0.940786
O O5 0.500000 0.935772 0.697502
O O6 0.237274 0.919961 0.623498
O O7 0.274555 0.940314 0.832591
O O8 0.306933 0.000000 0.675191
O O9 0.209188 0.745855 0.203869
O O10 0.000000 0.800991 0.147761
O O11 0.239735 0.800159 0.042194
O O12 0.779024 0.679654 0.333118
O O13 0.735699 0.667743 0.123728
O O14 0.000000 0.685608 0.190956
O O15 0.500000 0.439477 0.642157
O O16 0.320547 0.500000 0.723231
O O17 0.255668 0.455096 0.547615
O O18 0.820031 0.621293 0.485552
O O19 0.000000 0.688616 0.468934
O O20 0.500000 0.376727 0.078775
O O21 0.500000 0.945749 0.962448
#
# Coordination Sequence:
#
# PCOD8189003 Si02
#       8
#     8   8   8   8   8   8   8   8
#     4   9  20  38  56  79 111 148 187 229 283 337
#     4  10  21  39  61  83 114 154 189 228 284 344
#     4  10  21  38  61  84 111 149 190 233 282 336
#     4  10  22  40  60  83 115 154 189 228 284 345
#     4  10  20  35  57  82 110 145 183 229 282 335
#     4  10  20  36  60  85 113 147 184 231 285 335
#     4  11  23  38  60  85 113 149 191 241 282 327
#     4  10  19  35  58  83 112 147 182 223 280 338
#
# _framework density 19.011305
#
# number of rings (size 3 to 8) (size 9 to 14) (size 15 to 20)
#    0.000    2.000    2.500    0.750    1.750    3.000 
#    0.000    3.750    0.000    0.000    0.000    0.000 
#    0.000    0.000    0.000    0.000    0.000    0.000 
#
# Total GULP energy -396849.593185 kJ/mol
# GULP energy per Si atom -12401.549787 kJ/mol
# Density = 1.896803 g / cm^3
# Si number density = 19.011305 Si / 1000 Ang^3
#
#
#
# Elastic Constant Matrix: (Units=GPa)
#
#
# Indices 1 2 3 4 5 6 
#
# 1 49.6821 39.3625 44.1266 -0.0005 -0.0002 0.0001
# 2 39.3625 120.0093 60.0404 -0.0017 -0.0001 0.0003
# 3 44.1266 60.0404 143.8554 -0.0058 -0.0011 0.0010
# 4 -0.0005 -0.0017 -0.0058 23.2719 0.0000 0.0003
# 5 -0.0002 -0.0001 -0.0011 0.0000 28.3983 -0.0001
# 6 0.0001 0.0003 0.0010 0.0003 -0.0001 22.6018
#
#
#
# Elastic Compliance Matrix: (Units=1/GPa)
#
#
# Indices 1 2 3 4 5 6 
#
# 1 0.031720 -0.006997 -0.006809 -0.000001 0.000000 0.000000
# 2 -0.006997 0.012075 -0.002893 0.000000 0.000000 0.000000
# 3 -0.006809 -0.002893 0.010248 0.000002 0.000000 0.000000
# 4 -0.000001 0.000000 0.000002 0.042970 0.000000 0.000000
# 5 0.000000 0.000000 0.000000 0.000000 0.035213 0.000000
# 6 0.000000 0.000000 0.000000 0.000000 0.000000 0.044244
#
#
# Mechanical properties :
#
#
# Convention : Reuss Voigt Hill
#
# Bulk Modulus (GPa) = 48.44329 66.73397 57.58863
# Shear Modulus (GPa) = 23.06784 26.18889 24.62837
#
# Velocity S-wave (km/s) = 3.48713 3.71555 3.60315
# Velocity P-wave (km/s) = 6.46143 7.32022 6.90419
#
# Compressibility (1/GPa) = 0.02064269
#
# Stress axis : x y z
#
# Youngs Moduli (GPa) = 31.52607 82.81330 97.58185
#
# Poissons Ratio (x) = 0.57946 0.66447
# Poissons Ratio (y) = 0.22059 0.28235
# Poissons Ratio (z) = 0.21467 0.23962
#
# Static dielectric constant tensor:
#      x y z
#    x 3.267070 0.000000 0.000000 
#    y 0.000000 3.621230 0.000000 
#    z 0.000000 0.000000 3.557500 
# 
# 
# High freq. dielectric constant tensor:
#      x y z
#    x 1.716020 0.000000 0.000000 
#    y 0.000000 1.755250 0.000000 
#    z 0.000000 0.000000 1.741140 
# 
# From -- ./inp_files/11452.got.cif
#   From: 2010.03.12/outbox.cif.g09.slc.cpg/sg44_6_cif.got.tgz:11452.got - 2010.04.14 02:36:11.
