data_PCOD8189141
_publ_section_title
;
Structure prediction by ZEFSAII (Michael W. Deem and Ramdas Pophale) SiO2 
 PCOD8189141
Probable space group: I M M 2
;
_chemical_formula_sum "Si O2"
_cell_formula_units_Z 48
_cell_length_a 17.835134
_cell_length_b 9.206302
_cell_length_c 17.613827
_cell_angle_alpha 90.000000
_cell_angle_beta 90.000000
_cell_angle_gamma 90.000000
_cell_volume 2892.113418
_symmetry_space_group_name_H-M "I M M 2"
_symmetry_group_IT_number 44
_symmetry_cell_setting 'orthorhombic'
loop_
_space_group_symop_operation_xyz
x,y,z
-x,-y,z
-x,y,z
x,-y,z
1/2+x,1/2+y,1/2+z
1/2-x,1/2-y,1/2+z
1/2-x,1/2+y,1/2+z
1/2+x,1/2-y,1/2+z
loop_
_atom_site_type_symbol
_atom_site_label
_atom_site_fract_x
_atom_site_fract_y
_atom_site_fract_z
Si Si1 0.687336 0.339945 0.980840
Si Si2 0.088371 0.831504 0.001547
Si Si3 0.201054 0.670024 0.706424
Si Si4 0.583881 0.829613 0.079578
Si Si5 0.182922 0.670564 0.879003
Si Si6 0.188840 0.336586 0.110544
O O1 0.652824 0.500000 0.969671
O O2 0.732070 0.289648 0.905450
O O3 0.619485 0.233559 0.002100
O O4 0.748228 0.340267 0.046899
O O5 0.121760 0.762075 0.924949
O O6 0.000000 0.810766 0.998808
O O7 0.111825 0.000000 0.005036
O O8 0.118356 0.752312 0.077463
O O9 0.218923 0.500000 0.698676
O O10 0.131843 0.716948 0.652910
O O11 0.176135 0.711777 0.791029
O O12 0.276592 0.756378 0.684140
O O13 0.500000 0.768157 0.090295
O O14 0.582888 0.000000 0.069288
O O15 0.167562 0.500000 0.894136
O O16 0.163737 0.500000 0.132702
#
# Coordination Sequence:
#
# PCOD8189141 Si02
#       6
#     8   8   8   8   8   8
#     4   8  15  28  44  63  86 114 150 185 217 258
#     4  10  20  32  47  69  96 125 157 194 236 280
#     4   9  17  30  48  69  94 122 150 186 231 275
#     4   9  17  28  43  65  90 116 147 180 217 264
#     4   9  18  31  48  70  94 121 154 190 229 277
#     4   9  17  30  48  68  90 119 156 193 228 274
#
# _framework density 16.596858999999998
#
# number of rings (size 3 to 8) (size 9 to 14) (size 15 to 20)
#    0.000    3.000    0.000    2.000    0.000    7.000 
#    0.000    1.667    0.000    1.000    0.000    2.333 
#    0.000    0.000    0.000    0.000    0.000    0.000 
#
# Total GULP energy -297514.735247 kJ/mol
# GULP energy per Si atom -12396.447302 kJ/mol
# Density = 1.655908 g / cm^3
# Si number density = 16.596859 Si / 1000 Ang^3
#
#
#
# Elastic Constant Matrix: (Units=GPa)
#
#
# Indices 1 2 3 4 5 6 
#
# 1 96.6029 55.2525 58.6370 0.0000 0.0000 0.0000
# 2 55.2525 80.8153 38.8335 0.0000 0.0000 0.0000
# 3 58.6370 38.8335 44.7349 0.0000 0.0000 0.0000
# 4 0.0000 0.0000 0.0000 24.5090 0.0000 0.0000
# 5 0.0000 0.0000 0.0000 0.0000 18.1861 0.0000
# 6 0.0000 0.0000 0.0000 0.0000 0.0000 26.1050
#
#
#
# Elastic Compliance Matrix: (Units=1/GPa)
#
#
# Indices 1 2 3 4 5 6 
#
# 1 0.051702 -0.004776 -0.063624 0.000000 0.000000 0.000000
# 2 -0.004776 0.021670 -0.012552 0.000000 0.000000 0.000000
# 3 -0.063624 -0.012552 0.116646 0.000000 0.000000 0.000000
# 4 0.000000 0.000000 0.000000 0.040801 0.000000 0.000000
# 5 0.000000 0.000000 0.000000 0.000000 0.054987 0.000000
# 6 0.000000 0.000000 0.000000 0.000000 0.000000 0.038307
#
#
# Mechanical properties :
#
#
# Convention : Reuss Voigt Hill
#
# Bulk Modulus (GPa) = 35.56726 58.62212 47.09469
# Shear Modulus (GPa) = 10.09310 18.38871 14.24090
#
# Velocity S-wave (km/s) = 2.46871 3.33222 2.93242
# Velocity P-wave (km/s) = 5.44083 7.08539 6.31686
#
# Compressibility (1/GPa) = 0.02811575
#
# Stress axis : x y z
#
# Youngs Moduli (GPa) = 19.34160 46.14598 8.57296
#
# Poissons Ratio (x) = 0.22037 0.54544
# Poissons Ratio (y) = 0.09237 0.10761
# Poissons Ratio (z) = 1.23059 0.57922
#
# Static dielectric constant tensor:
#      x y z
#    x 3.125740 0.000000 0.000000 
#    y 0.000000 3.258480 0.000000 
#    z 0.000000 0.000000 3.160310 
# 
# 
# High freq. dielectric constant tensor:
#      x y z
#    x 1.623070 0.000000 0.000000 
#    y 0.000000 1.643110 0.000000 
#    z 0.000000 0.000000 1.620690 
# 
# From -- ./inp_files/16089.got.cif
#   From: 2010.03.12/outbox.cif.g09.slc.cpg/sg44_9_cif.got.tgz:16089.got - 2010.04.14 02:36:11.
