data_PCOD8189824
_publ_section_title
;
Structure prediction by ZEFSAII (Michael W. Deem and Ramdas Pophale) SiO2 
 PCOD8189824
Probable space group: I M M 2
;
_chemical_formula_sum "Si O2"
_cell_formula_units_Z 48
_cell_length_a 18.032079
_cell_length_b 7.956886
_cell_length_c 18.156062
_cell_angle_alpha 90.000000
_cell_angle_beta 90.000000
_cell_angle_gamma 90.000000
_cell_volume 2605.017195
_symmetry_space_group_name_H-M "I M M 2"
_symmetry_group_IT_number 44
_symmetry_cell_setting 'orthorhombic'
loop_
_space_group_symop_operation_xyz
x,y,z
-x,-y,z
-x,y,z
x,-y,z
1/2+x,1/2+y,1/2+z
1/2-x,1/2-y,1/2+z
1/2-x,1/2+y,1/2+z
1/2+x,1/2-y,1/2+z
loop_
_atom_site_type_symbol
_atom_site_label
_atom_site_fract_x
_atom_site_fract_y
_atom_site_fract_z
Si Si1 0.583107 0.807747 0.998940
Si Si2 0.082867 0.000000 0.978536
Si Si3 0.681710 0.190387 0.464212
Si Si4 0.209670 0.807816 0.593294
Si Si5 0.679207 0.686280 0.865631
Si Si6 0.175922 0.310512 0.208885
Si Si7 0.416740 0.500000 0.652676
O O1 0.500000 0.737042 0.014481
O O2 0.618334 0.715867 0.928742
O O3 0.578346 0.000000 0.976865
O O4 0.634321 0.790708 0.072363
O O5 0.119360 0.171329 0.948093
O O6 0.085043 0.000000 0.065690
O O7 0.000000 0.000000 0.947524
O O8 0.723123 0.242877 0.539309
O O9 0.739008 0.201586 0.397706
O O10 0.648772 0.000000 0.469899
O O11 0.241303 0.770474 0.675445
O O12 0.187973 0.000000 0.580819
O O13 0.665383 0.500000 0.833953
O O14 0.675644 0.813148 0.797345
O O15 0.153058 0.500000 0.182836
O O16 0.119227 0.172193 0.180530
O O17 0.500000 0.500000 0.683383
#
# Coordination Sequence:
#
# PCOD8189824 Si02
#       7
#     8   4   8   8   8   8   4
#     4  10  21  34  53  83 114 148 183 225 283 334
#     4  11  22  34  58  84 106 149 185 220 285 328
#     4   9  19  35  54  81 110 138 185 238 269 317
#     4   9  19  34  55  79 105 143 187 231 272 319
#     4  10  21  35  56  82 109 148 190 224 277 329
#     4  11  22  37  57  84 112 148 190 228 273 325
#     4  11  24  38  54  82 116 151 183 220 275 332
#
# _framework density 18.425982000000001
#
# number of rings (size 3 to 8) (size 9 to 14) (size 15 to 20)
#    0.000    2.000    2.500    2.000    7.000    2.667 
#    0.000    1.667    0.000    1.000    0.000    0.000 
#    0.000    0.000    0.000    0.000    0.000    0.000 
#
# Total GULP energy -297470.063961 kJ/mol
# GULP energy per Si atom -12394.585998 kJ/mol
# Density = 1.838404 g / cm^3
# Si number density = 18.425982 Si / 1000 Ang^3
#
#
#
# Elastic Constant Matrix: (Units=GPa)
#
#
# Indices 1 2 3 4 5 6 
#
# 1 136.4635 66.2142 37.7285 0.0000 0.0000 0.0000
# 2 66.2142 113.6244 20.1945 0.0000 0.0000 0.0000
# 3 37.7285 20.1945 58.8731 0.0000 0.0000 0.0000
# 4 0.0000 0.0000 0.0000 23.4678 0.0000 0.0000
# 5 0.0000 0.0000 0.0000 0.0000 16.0159 0.0000
# 6 0.0000 0.0000 0.0000 0.0000 0.0000 20.6526
#
#
#
# Elastic Compliance Matrix: (Units=1/GPa)
#
#
# Indices 1 2 3 4 5 6 
#
# 1 0.011670 -0.005827 -0.005480 0.000000 0.000000 0.000000
# 2 -0.005827 0.012282 -0.000479 0.000000 0.000000 0.000000
# 3 -0.005480 -0.000479 0.020662 0.000000 0.000000 0.000000
# 4 0.000000 0.000000 0.000000 0.042612 0.000000 0.000000
# 5 0.000000 0.000000 0.000000 0.000000 0.062438 0.000000
# 6 0.000000 0.000000 0.000000 0.000000 0.000000 0.048420
#
#
# Mechanical properties :
#
#
# Convention : Reuss Voigt Hill
#
# Bulk Modulus (GPa) = 47.52324 61.91504 54.71914
# Shear Modulus (GPa) = 21.86567 24.34884 23.10726
#
# Velocity S-wave (km/s) = 3.44855 3.63911 3.54511
# Velocity P-wave (km/s) = 6.45787 7.16467 6.82043
#
# Compressibility (1/GPa) = 0.02104233
#
# Stress axis : x y z
#
# Youngs Moduli (GPa) = 85.68704 81.42265 48.39841
#
# Poissons Ratio (x) = 0.47444 0.26523
# Poissons Ratio (y) = 0.49929 0.02317
# Poissons Ratio (z) = 0.46958 0.03898
#
# Static dielectric constant tensor:
#      x y z
#    x 3.426320 0.000000 0.000000 
#    y 0.000000 3.498450 0.000000 
#    z 0.000000 0.000000 3.286190 
# 
# 
# High freq. dielectric constant tensor:
#      x y z
#    x 1.695220 0.000000 0.000000 
#    y 0.000000 1.730430 0.000000 
#    z 0.000000 0.000000 1.695000 
# 
# From -- ./inp_files/21732.got.cif
#   From: 2010.03.12/outbox.cif.g09.slc.cpg/sg44_11_cif.got.tgz:21732.got - 2010.04.14 02:36:11.
