data_PCOD8189562
_publ_section_title
;
Structure prediction by ZEFSAII (Michael W. Deem and Ramdas Pophale) SiO2 
 PCOD8189562
Probable space group: I M M 2
;
_chemical_formula_sum "Si O2"
_cell_formula_units_Z 48
_cell_length_a 9.004077
_cell_length_b 7.751778
_cell_length_c 34.121485
_cell_angle_alpha 90.000000
_cell_angle_beta 90.000000
_cell_angle_gamma 90.000000
_cell_volume 2381.597966
_symmetry_space_group_name_H-M "I M M 2"
_symmetry_group_IT_number 44
_symmetry_cell_setting 'orthorhombic'
loop_
_space_group_symop_operation_xyz
x,y,z
-x,-y,z
-x,y,z
x,-y,z
1/2+x,1/2+y,1/2+z
1/2-x,1/2-y,1/2+z
1/2-x,1/2+y,1/2+z
1/2+x,1/2-y,1/2+z
loop_
_atom_site_type_symbol
_atom_site_label
_atom_site_fract_x
_atom_site_fract_y
_atom_site_fract_z
Si Si1 0.174636 0.703022 0.870360
Si Si2 0.669110 0.808722 0.182820
Si Si3 0.677309 0.000000 0.821153
Si Si4 0.337371 0.301558 0.947251
Si Si5 0.676601 0.500000 0.237779
Si Si6 0.171405 0.698587 0.107843
Si Si7 0.666722 0.297670 0.523367
O O1 0.209772 0.500000 0.862327
O O2 0.229083 0.767892 0.913187
O O3 0.000000 0.737797 0.867505
O O4 0.258458 0.823438 0.839372
O O5 0.500000 0.763982 0.173028
O O6 0.728273 0.668920 0.213690
O O7 0.753366 0.808669 0.141657
O O8 0.686701 0.000000 0.201325
O O9 0.500000 0.000000 0.825087
O O10 0.726278 0.000000 0.776389
O O11 0.500000 0.209965 0.945365
O O12 0.361170 0.500000 0.938933
O O13 0.267868 0.279757 0.989752
O O14 0.500000 0.500000 0.247025
O O15 0.199005 0.500000 0.117450
O O16 0.237874 0.745088 0.065170
O O17 0.000000 0.750381 0.107421
O O18 0.500000 0.220509 0.519623
O O19 0.663188 0.500000 0.518663
#
# Coordination Sequence:
#
# PCOD8189562 Si02
#       7
#     8   8   4   8   4   8   8
#     4  10  22  42  68  94 123 165 212 256 307 373
#     4  10  21  38  62  89 118 156 199 246 301 359
#     4  12  26  42  66  98 132 164 202 258 318 378
#     4  10  21  37  57  83 116 154 198 251 309 363
#     4  10  22  42  62  88 124 160 204 252 300 370
#     4  10  20  35  57  83 114 154 202 252 305 362
#     4  10  21  35  52  78 113 155 202 251 300 359
#
# _framework density 20.154536
#
# number of rings (size 3 to 8) (size 9 to 14) (size 15 to 20)
#    0.000    1.833    0.833    2.750    1.167    6.000 
#    0.000    1.667    0.000    0.000    0.000    0.000 
#    0.000    0.000    0.000    0.000    0.000    0.000 
#
# Total GULP energy -297584.547168 kJ/mol
# GULP energy per Si atom -12399.356132 kJ/mol
# Density = 2.010866 g / cm^3
# Si number density = 20.154536 Si / 1000 Ang^3
#
#
#
# Elastic Constant Matrix: (Units=GPa)
#
#
# Indices 1 2 3 4 5 6 
#
# 1 109.1986 41.9033 64.3028 0.0000 0.0000 0.0000
# 2 41.9033 84.5440 49.4386 0.0000 0.0000 0.0000
# 3 64.3028 49.4386 152.8371 0.0000 0.0000 0.0000
# 4 0.0000 0.0000 0.0000 20.1492 0.0000 0.0000
# 5 0.0000 0.0000 0.0000 0.0000 39.3821 0.0000
# 6 0.0000 0.0000 0.0000 0.0000 0.0000 23.3123
#
#
#
# Elastic Compliance Matrix: (Units=1/GPa)
#
#
# Indices 1 2 3 4 5 6 
#
# 1 0.013219 -0.004069 -0.004245 0.000000 0.000000 0.000000
# 2 -0.004069 0.015840 -0.003412 0.000000 0.000000 0.000000
# 3 -0.004245 -0.003412 0.009433 0.000000 0.000000 0.000000
# 4 0.000000 0.000000 0.000000 0.049630 0.000000 0.000000
# 5 0.000000 0.000000 0.000000 0.000000 0.025392 0.000000
# 6 0.000000 0.000000 0.000000 0.000000 0.000000 0.042896
#
#
# Mechanical properties :
#
#
# Convention : Reuss Voigt Hill
#
# Bulk Modulus (GPa) = 66.49368 73.09656 69.79512
# Shear Modulus (GPa) = 27.04520 29.29771 28.17146
#
# Velocity S-wave (km/s) = 3.66716 3.81682 3.74274
# Velocity P-wave (km/s) = 7.14103 7.46799 7.30634
#
# Compressibility (1/GPa) = 0.01503902
#
# Stress axis : x y z
#
# Youngs Moduli (GPa) = 75.64822 63.13058 106.01483
#
# Poissons Ratio (x) = 0.25690 0.45006
# Poissons Ratio (y) = 0.30784 0.36170
# Poissons Ratio (z) = 0.32115 0.21539
#
# Static dielectric constant tensor:
#      x y z
#    x 3.709900 0.000000 0.000000 
#    y 0.000000 3.830870 0.000000 
#    z 0.000000 0.000000 3.695240 
# 
# 
# High freq. dielectric constant tensor:
#      x y z
#    x 1.781290 0.000000 0.000000 
#    y 0.000000 1.795240 0.000000 
#    z 0.000000 0.000000 1.786880 
# 
# From -- ./inp_files/26956.got.cif
#   From: 2010.03.12/outbox.cif.g09.slc.cpg/sg44_14_cif.got.tgz:26956.got - 2010.04.14 02:36:11.
