data_PCOD8189628
_publ_section_title
;
Structure prediction by ZEFSAII (Michael W. Deem and Ramdas Pophale) SiO2 
 PCOD8189628
Probable space group: I M M 2
;
_chemical_formula_sum "Si O2"
_cell_formula_units_Z 64
_cell_length_a 25.122114
_cell_length_b 9.171746
_cell_length_c 15.182493
_cell_angle_alpha 90.000000
_cell_angle_beta 90.000000
_cell_angle_gamma 90.000000
_cell_volume 3498.253607
_symmetry_space_group_name_H-M "I M M 2"
_symmetry_group_IT_number 44
_symmetry_cell_setting 'orthorhombic'
loop_
_space_group_symop_operation_xyz
x,y,z
-x,-y,z
-x,y,z
x,-y,z
1/2+x,1/2+y,1/2+z
1/2-x,1/2-y,1/2+z
1/2-x,1/2+y,1/2+z
1/2+x,1/2-y,1/2+z
loop_
_atom_site_type_symbol
_atom_site_label
_atom_site_fract_x
_atom_site_fract_y
_atom_site_fract_z
Si Si1 0.060470 0.170793 0.469520
Si Si2 0.782580 0.835868 0.683335
Si Si3 0.262497 0.336275 0.386292
Si Si4 0.831351 0.671364 0.156928
Si Si5 0.856704 0.671671 0.347401
Si Si6 0.896871 0.825993 0.654118
Si Si7 0.356843 0.170625 0.465557
Si Si8 0.438937 0.328812 0.340466
O O1 0.097388 0.248500 0.399475
O O2 0.071623 0.229057 0.568364
O O3 0.000000 0.208141 0.445097
O O4 0.072065 0.000000 0.464901
O O5 0.785467 0.833266 0.788439
O O6 0.728328 0.757693 0.649490
O O7 0.836768 0.759778 0.648657
O O8 0.783315 0.000000 0.647220
O O9 0.268018 0.500000 0.424545
O O10 0.200868 0.286388 0.387754
O O11 0.297588 0.225649 0.443307
O O12 0.821503 0.500000 0.171234
O O13 0.860364 0.727496 0.245566
O O14 0.865802 0.703609 0.069850
O O15 0.866311 0.500000 0.353823
O O16 0.925681 0.769047 0.742695
O O17 0.895837 0.000000 0.658383
O O18 0.402852 0.251137 0.412972
O O19 0.359939 0.000000 0.445184
O O20 0.500000 0.292117 0.361970
O O21 0.427348 0.500000 0.346921
#
# Coordination Sequence:
#
# PCOD8189628 Si02
#       8
#     8   8   8   8   8   8   8   8
#     4  10  21  35  53  80 109 135 173 225 270 308
#     4   8  13  26  50  75  99 132 171 208 244 298
#     4   9  17  32  53  77 105 136 173 214 255 308
#     4   8  17  32  50  75 105 138 176 213 255 310
#     4   9  19  37  58  76 101 140 182 220 260 309
#     4   9  16  29  53  79 103 137 177 212 251 311
#     4  11  21  32  52  81 111 139 172 217 266 312
#     4  10  20  36  57  77 102 141 185 219 254 310
#
# _framework density 18.294843
#
# number of rings (size 3 to 8) (size 9 to 14) (size 15 to 20)
#    0.000    2.750    1.250    2.250    1.750    2.500 
#    0.000    2.500    0.000    6.750    0.000    0.000 
#    0.000    0.000    0.000    0.000    0.000    0.000 
#
# Total GULP energy -396599.963395 kJ/mol
# GULP energy per Si atom -12393.748856 kJ/mol
# Density = 1.825320 g / cm^3
# Si number density = 18.294843 Si / 1000 Ang^3
#
#
#
# Elastic Constant Matrix: (Units=GPa)
#
#
# Indices 1 2 3 4 5 6 
#
# 1 136.8674 48.3292 83.9910 0.0000 0.0000 0.0000
# 2 48.3292 40.3159 42.8824 0.0000 0.0000 0.0000
# 3 83.9910 42.8824 127.8878 0.0000 0.0000 0.0000
# 4 0.0000 0.0000 0.0000 24.1788 0.0000 0.0000
# 5 0.0000 0.0000 0.0000 0.0000 30.6906 0.0000
# 6 0.0000 0.0000 0.0000 0.0000 0.0000 26.7667
#
#
#
# Elastic Compliance Matrix: (Units=1/GPa)
#
#
# Indices 1 2 3 4 5 6 
#
# 1 0.015145 -0.011776 -0.005998 0.000000 0.000000 0.000000
# 2 -0.011776 0.047711 -0.008264 0.000000 0.000000 0.000000
# 3 -0.005998 -0.008264 0.014530 0.000000 0.000000 0.000000
# 4 0.000000 0.000000 0.000000 0.041359 0.000000 0.000000
# 5 0.000000 0.000000 0.000000 0.000000 0.032583 0.000000
# 6 0.000000 0.000000 0.000000 0.000000 0.000000 0.037360
#
#
# Mechanical properties :
#
#
# Convention : Reuss Voigt Hill
#
# Bulk Modulus (GPa) = 39.51081 72.83069 56.17075
# Shear Modulus (GPa) = 20.06418 24.98512 22.52465
#
# Velocity S-wave (km/s) = 3.31526 3.69954 3.51266
# Velocity P-wave (km/s) = 6.02479 7.62526 6.87178
#
# Compressibility (1/GPa) = 0.02530953
#
# Stress axis : x y z
#
# Youngs Moduli (GPa) = 66.02686 20.95971 68.82356
#
# Poissons Ratio (x) = 0.24681 0.41282
# Poissons Ratio (y) = 0.77750 0.56878
# Poissons Ratio (z) = 0.39605 0.17322
#
# Static dielectric constant tensor:
#      x y z
#    x 3.417080 0.000000 0.000000 
#    y 0.000000 2.956940 0.000000 
#    z 0.000000 0.000000 3.425380 
# 
# 
# High freq. dielectric constant tensor:
#      x y z
#    x 1.711850 0.000000 0.000000 
#    y 0.000000 1.662830 0.000000 
#    z 0.000000 0.000000 1.710790 
# 
# From -- ./inp_files/16897.got.cif
#   From: 2010.03.12/outbox.cif.g09.slc.cpg/sg44_9_cif.got.tgz:16897.got - 2010.04.14 02:36:11.
