data_PCOD8189614
_publ_section_title
;
Structure prediction by ZEFSAII (Michael W. Deem and Ramdas Pophale) SiO2 
 PCOD8189614
Probable space group: I M M 2
;
_chemical_formula_sum "Si O2"
_cell_formula_units_Z 64
_cell_length_a 8.934002
_cell_length_b 28.596852
_cell_length_c 12.790189
_cell_angle_alpha 90.000000
_cell_angle_beta 90.000000
_cell_angle_gamma 90.000000
_cell_volume 3267.692905
_symmetry_space_group_name_H-M "I M M 2"
_symmetry_group_IT_number 44
_symmetry_cell_setting 'orthorhombic'
loop_
_space_group_symop_operation_xyz
x,y,z
-x,-y,z
-x,y,z
x,-y,z
1/2+x,1/2+y,1/2+z
1/2-x,1/2-y,1/2+z
1/2-x,1/2+y,1/2+z
1/2+x,1/2-y,1/2+z
loop_
_atom_site_type_symbol
_atom_site_label
_atom_site_fract_x
_atom_site_fract_y
_atom_site_fract_z
Si Si1 0.175875 0.359709 0.399420
Si Si2 0.825235 0.109029 0.694334
Si Si3 0.330429 0.756466 0.927031
Si Si4 0.175159 0.212378 0.635203
Si Si5 0.674635 0.445400 0.801383
Si Si6 0.667784 0.292303 0.729215
Si Si7 0.830647 0.444650 0.013848
Si Si8 0.325623 0.120299 0.136343
O O1 0.257303 0.390955 0.311246
O O2 0.243945 0.306553 0.394767
O O3 0.211359 0.382402 0.513072
O O4 0.000000 0.361297 0.375418
O O5 0.790790 0.157832 0.637336
O O6 0.750973 0.070534 0.620150
O O7 0.000000 0.098097 0.703807
O O8 0.500000 0.771339 0.951293
O O9 0.328002 0.709730 0.854640
O O10 0.257559 0.736395 0.031485
O O11 0.275813 0.238695 0.719461
O O12 0.000000 0.222067 0.653314
O O13 0.500000 0.434372 0.810962
O O14 0.707407 0.500000 0.784861
O O15 0.736525 0.419203 0.699294
O O16 0.749853 0.426275 0.908114
O O17 0.500000 0.301147 0.686284
O O18 0.780980 0.328733 0.679133
O O19 0.826471 0.500000 0.012827
O O20 0.000000 0.425516 0.013423
O O21 0.500000 0.112971 0.157438
#
# Coordination Sequence:
#
# PCOD8189614 Si02
#       8
#     8   8   8   8   8   8   8   8
#     4  10  20  38  59  78 114 163 205 243 289 346
#     4  11  23  36  59  90 121 156 197 248 299 350
#     4   9  18  34  52  72 108 155 196 239 290 341
#     4  10  20  36  53  76 113 154 195 240 290 346
#     4  10  22  42  67  93 121 150 184 237 301 357
#     4  11  21  33  54  81 111 153 199 245 292 343
#     4  10  22  42  67  92 119 152 192 238 290 355
#     4  11  23  39  60  86 117 158 201 245 295 354
#
# _framework density 19.585683
#
# number of rings (size 3 to 8) (size 9 to 14) (size 15 to 20)
#    0.000    1.750    2.500    1.875    1.750    3.000 
#    0.000    1.875    0.000    0.750    0.000    0.000 
#    0.000    0.000    0.000    0.000    0.000    0.000 
#
# Total GULP energy -396585.263502 kJ/mol
# GULP energy per Si atom -12393.289484 kJ/mol
# Density = 1.954111 g / cm^3
# Si number density = 19.585683 Si / 1000 Ang^3
#
#
#
# Elastic Constant Matrix: (Units=GPa)
#
#
# Indices 1 2 3 4 5 6 
#
# 1 96.3060 36.8123 59.6634 -0.0001 -0.0003 0.0000
# 2 36.8123 43.5731 39.6266 -0.0006 0.0000 0.0000
# 3 59.6634 39.6266 126.7218 -0.0006 0.0014 0.0005
# 4 -0.0001 -0.0006 -0.0006 38.0136 -0.0001 0.0000
# 5 -0.0003 0.0000 0.0014 -0.0001 30.3068 -0.0003
# 6 0.0000 0.0000 0.0005 0.0000 -0.0003 29.0041
#
#
#
# Elastic Compliance Matrix: (Units=1/GPa)
#
#
# Indices 1 2 3 4 5 6 
#
# 1 0.017348 -0.010101 -0.005009 0.000000 0.000000 0.000000
# 2 -0.010101 0.037951 -0.007112 0.000000 0.000000 0.000000
# 3 -0.005009 -0.007112 0.012474 0.000000 -0.000001 0.000000
# 4 0.000000 0.000000 0.000000 0.026306 0.000000 0.000000
# 5 0.000000 0.000000 -0.000001 0.000000 0.032996 0.000000
# 6 0.000000 0.000000 0.000000 0.000000 0.000000 0.034478
#
#
# Mechanical properties :
#
#
# Convention : Reuss Voigt Hill
#
# Bulk Modulus (GPa) = 42.86486 59.86726 51.36606
# Shear Modulus (GPa) = 23.38934 28.16479 25.77707
#
# Velocity S-wave (km/s) = 3.45948 3.79625 3.63177
# Velocity P-wave (km/s) = 6.15554 7.06035 6.62341
#
# Compressibility (1/GPa) = 0.02332913
#
# Stress axis : x y z
#
# Youngs Moduli (GPa) = 57.64450 26.34966 80.16874
#
# Poissons Ratio (x) = 0.26615 0.40158
# Poissons Ratio (y) = 0.58224 0.57016
# Poissons Ratio (z) = 0.28875 0.18740
#
# Static dielectric constant tensor:
#      x y z
#    x 3.521460 0.000000 0.000000 
#    y 0.000000 3.394420 0.000000 
#    z 0.000000 0.000000 3.679700 
# 
# 
# High freq. dielectric constant tensor:
#      x y z
#    x 1.758660 0.000000 0.000000 
#    y 0.000000 1.745870 0.000000 
#    z 0.000000 0.000000 1.776700 
# 
# From -- ./inp_files/11444.got.cif
#   From: 2010.03.12/outbox.cif.g09.slc.cpg/sg44_6_cif.got.tgz:11444.got - 2010.04.14 02:36:11.
