data_PCOD8189170
_publ_section_title
;
Structure prediction by ZEFSAII (Michael W. Deem and Ramdas Pophale) SiO2 
 PCOD8189170
Probable space group: I M M 2
;
_chemical_formula_sum "Si O2"
_cell_formula_units_Z 64
_cell_length_a 14.299098
_cell_length_b 14.299097
_cell_length_c 16.786701
_cell_angle_alpha 90.000000
_cell_angle_beta 90.000000
_cell_angle_gamma 90.000000
_cell_volume 3432.279211
_symmetry_space_group_name_H-M "I M M 2"
_symmetry_group_IT_number 44
_symmetry_cell_setting 'orthorhombic'
loop_
_space_group_symop_operation_xyz
x,y,z
-x,-y,z
-x,y,z
x,-y,z
1/2+x,1/2+y,1/2+z
1/2-x,1/2-y,1/2+z
1/2-x,1/2+y,1/2+z
1/2+x,1/2-y,1/2+z
loop_
_atom_site_type_symbol
_atom_site_label
_atom_site_fract_x
_atom_site_fract_y
_atom_site_fract_z
Si Si1 0.893584 0.106416 0.007200
Si Si2 0.776687 0.394643 0.936817
Si Si3 0.768398 0.107215 0.613303
Si Si4 0.738956 0.391109 0.651879
Si Si5 0.278177 0.221822 0.757200
Si Si6 0.607215 0.731602 0.901097
Si Si7 0.894643 0.276687 0.577583
Si Si8 0.108891 0.761044 0.862521
O O1 0.832607 0.135170 0.082330
O O2 0.000000 0.124443 0.032274
O O3 0.875557 0.000000 0.982126
O O4 0.864830 0.167393 0.932070
O O5 0.783384 0.500000 0.906960
O O6 0.674326 0.357988 0.910749
O O7 0.860601 0.340876 0.893183
O O8 0.791684 0.387062 0.032148
O O9 0.705597 0.146354 0.686719
O O10 0.857988 0.174326 0.603651
O O11 0.799858 0.000000 0.629629
O O12 0.737626 0.500000 0.675485
O O13 0.709142 0.328920 0.727379
O O14 0.840876 0.360601 0.621217
O O15 0.353646 0.205597 0.827681
O O16 0.171080 0.209142 0.787021
O O17 0.500000 0.700143 0.884771
O O18 0.612938 0.791684 0.982252
O O19 0.000000 0.283384 0.607440
O O20 0.000000 0.762374 0.838915
#
# Coordination Sequence:
#
# PCOD8189170 Si02
#       8
#     8   8   8   8   8   8   8   8
#     4   9  18  34  56  78  96 121 166 216 254 293
#     4   9  18  34  54  75  97 126 171 214 243 285
#     4   9  18  33  53  74  99 132 166 205 252 294
#     4  10  20  34  52  73 100 134 166 202 249 296
#     4  10  20  32  48  76 108 134 162 198 244 304
#     4   9  18  33  53  74  99 132 166 205 252 294
#     4   9  18  34  54  75  97 126 171 214 243 285
#     4  10  20  34  52  73 100 134 166 202 249 296
#
# _framework density 18.646501000000001
#
# number of rings (size 3 to 8) (size 9 to 14) (size 15 to 20)
#    0.000    2.625    0.000    3.000    0.000    6.000 
#    0.000    3.750    0.000    1.875    0.000    0.000 
#    0.000    0.000    0.000    0.000    0.000    0.000 
#
# Total GULP energy -396704.401939 kJ/mol
# GULP energy per Si atom -12397.012561 kJ/mol
# Density = 1.860406 g / cm^3
# Si number density = 18.646501 Si / 1000 Ang^3
#
#
#
# Elastic Constant Matrix: (Units=GPa)
#
#
# Indices 1 2 3 4 5 6 
#
# 1 47.1745 23.7678 15.3761 0.0000 0.0000 0.0000
# 2 23.7678 47.1745 15.3759 0.0000 0.0000 0.0000
# 3 15.3761 15.3759 68.9999 0.0000 0.0000 0.0000
# 4 0.0000 0.0000 0.0000 19.9752 0.0000 0.0000
# 5 0.0000 0.0000 0.0000 0.0000 19.9752 0.0000
# 6 0.0000 0.0000 0.0000 0.0000 0.0000 21.0463
#
#
#
# Elastic Compliance Matrix: (Units=1/GPa)
#
#
# Indices 1 2 3 4 5 6 
#
# 1 0.029163 -0.013560 -0.003477 0.000000 0.000000 0.000000
# 2 -0.013560 0.029163 -0.003477 0.000000 0.000000 0.000000
# 3 -0.003477 -0.003477 0.016042 0.000000 0.000000 0.000000
# 4 0.000000 0.000000 0.000000 0.050062 0.000000 0.000000
# 5 0.000000 0.000000 0.000000 0.000000 0.050062 0.000000
# 6 0.000000 0.000000 0.000000 0.000000 0.000000 0.047514
#
#
# Mechanical properties :
#
#
# Convention : Reuss Voigt Hill
#
# Bulk Modulus (GPa) = 29.99339 30.26539 30.12939
# Shear Modulus (GPa) = 18.23832 19.45462 18.84647
#
# Velocity S-wave (km/s) = 3.13087 3.23358 3.18264
# Velocity P-wave (km/s) = 5.40277 5.49616 5.44967
#
# Compressibility (1/GPa) = 0.03334068
#
# Stress axis : x y z
#
# Youngs Moduli (GPa) = 34.28999 34.29009 62.33471
#
# Poissons Ratio (x) = 0.46497 0.21674
# Poissons Ratio (y) = 0.46496 0.21674
# Poissons Ratio (z) = 0.11923 0.11923
#
# Static dielectric constant tensor:
#      x y z
#    x 3.320910 0.000000 0.000000 
#    y 0.000000 3.320910 0.000000 
#    z 0.000000 0.000000 3.717850 
# 
# 
# High freq. dielectric constant tensor:
#      x y z
#    x 1.708890 0.000000 0.000000 
#    y 0.000000 1.708890 0.000000 
#    z 0.000000 0.000000 1.736660 
# 
# From -- ./inp_files/21954.got.cif
#   From: 2010.03.12/outbox.cif.g09.slc.cpg/sg44_11_cif.got.tgz:21954.got - 2010.04.14 02:36:11.
