data_PCOD8189664
_publ_section_title
;
Structure prediction by ZEFSAII (Michael W. Deem and Ramdas Pophale) SiO2 
 PCOD8189664
Probable space group: I M M 2
;
_chemical_formula_sum "Si O2"
_cell_formula_units_Z 48
_cell_length_a 18.843650
_cell_length_b 8.603091
_cell_length_c 15.136275
_cell_angle_alpha 90.000000
_cell_angle_beta 90.000000
_cell_angle_gamma 90.000000
_cell_volume 2453.796572
_symmetry_space_group_name_H-M "I M M 2"
_symmetry_group_IT_number 44
_symmetry_cell_setting 'orthorhombic'
loop_
_space_group_symop_operation_xyz
x,y,z
-x,-y,z
-x,y,z
x,-y,z
1/2+x,1/2+y,1/2+z
1/2-x,1/2-y,1/2+z
1/2-x,1/2+y,1/2+z
1/2+x,1/2-y,1/2+z
loop_
_atom_site_type_symbol
_atom_site_label
_atom_site_fract_x
_atom_site_fract_y
_atom_site_fract_z
Si Si1 0.679512 0.819299 0.423480
Si Si2 0.829453 0.681028 0.430012
Si Si3 0.177128 0.180823 0.615535
Si Si4 0.082616 0.180326 0.276352
Si Si5 0.581611 0.680712 0.279193
Si Si6 0.173661 0.181642 0.109778
O O1 0.750945 0.727659 0.397034
O O2 0.617525 0.780349 0.355656
O O3 0.653471 0.774011 0.521265
O O4 0.697433 0.000000 0.420141
O O5 0.830415 0.500000 0.451599
O O6 0.850530 0.773153 0.518634
O O7 0.886880 0.718643 0.355900
O O8 0.116047 0.221558 0.685062
O O9 0.247023 0.277556 0.641396
O O10 0.196983 0.000000 0.616637
O O11 0.119082 0.233004 0.185351
O O12 0.000000 0.215724 0.267261
O O13 0.098282 0.000000 0.295743
O O14 0.500000 0.729923 0.273586
O O15 0.590814 0.500000 0.302237
O O16 0.168238 0.000000 0.089166
#
# Coordination Sequence:
#
# PCOD8189664 Si02
#       6
#     8   8   8   8   8   8
#     4  11  22  37  59  85 113 147 187 232 279 328
#     4  11  22  37  59  85 113 147 187 232 279 328
#     4  10  20  36  59  84 110 145 188 233 279 328
#     4  10  22  39  58  82 114 151 187 226 277 334
#     4  10  22  39  58  82 114 151 187 226 277 334
#     4  10  20  36  59  84 110 145 188 233 279 328
#
# _framework density 19.561523999999999
#
# number of rings (size 3 to 8) (size 9 to 14) (size 15 to 20)
#    0.000    1.667    0.000    7.000    0.000    7.333 
#    0.000    3.333    0.000    0.000    0.000    0.000 
#    0.000    0.000    0.000    0.000    0.000    0.000 
#
# Total GULP energy -297736.443334 kJ/mol
# GULP energy per Si atom -12405.685139 kJ/mol
# Density = 1.951700 g / cm^3
# Si number density = 19.561524 Si / 1000 Ang^3
#
#
#
# Elastic Constant Matrix: (Units=GPa)
#
#
# Indices 1 2 3 4 5 6 
#
# 1 90.1241 19.5287 66.8031 0.0000 0.0000 0.0000
# 2 19.5287 53.0063 28.6751 0.0000 0.0000 0.0000
# 3 66.8031 28.6751 111.5480 0.0000 0.0000 0.0000
# 4 0.0000 0.0000 0.0000 15.6967 0.0000 0.0000
# 5 0.0000 0.0000 0.0000 0.0000 9.6618 0.0000
# 6 0.0000 0.0000 0.0000 0.0000 0.0000 28.2217
#
#
#
# Elastic Compliance Matrix: (Units=1/GPa)
#
#
# Indices 1 2 3 4 5 6 
#
# 1 0.020002 -0.001033 -0.011713 0.000000 0.000000 0.000000
# 2 -0.001033 0.021966 -0.005028 0.000000 0.000000 0.000000
# 3 -0.011713 -0.005028 0.017272 0.000000 0.000000 0.000000
# 4 0.000000 0.000000 0.000000 0.063708 0.000000 0.000000
# 5 0.000000 0.000000 0.000000 0.000000 0.103501 0.000000
# 6 0.000000 0.000000 0.000000 0.000000 0.000000 0.035434
#
#
# Mechanical properties :
#
#
# Convention : Reuss Voigt Hill
#
# Bulk Modulus (GPa) = 42.20834 53.85467 48.03151
# Shear Modulus (GPa) = 16.37587 20.02748 18.20168
#
# Velocity S-wave (km/s) = 2.89649 3.20319 3.05369
# Velocity P-wave (km/s) = 5.72802 6.42427 6.08611
#
# Compressibility (1/GPa) = 0.02369200
#
# Stress axis : x y z
#
# Youngs Moduli (GPa) = 49.99597 45.52419 57.89735
#
# Poissons Ratio (x) = 0.04701 0.67815
# Poissons Ratio (y) = 0.05163 0.29113
# Poissons Ratio (z) = 0.58560 0.22891
#
# Static dielectric constant tensor:
#      x y z
#    x 3.492700 0.000000 0.000000 
#    y 0.000000 3.608100 0.000000 
#    z 0.000000 0.000000 3.631560 
# 
# 
# High freq. dielectric constant tensor:
#      x y z
#    x 1.754870 0.000000 0.000000 
#    y 0.000000 1.766770 0.000000 
#    z 0.000000 0.000000 1.773270 
# 
# From -- ./inp_files/16105.got.cif
#   From: 2010.03.12/outbox.cif.g09.slc.cpg/sg44_9_cif.got.tgz:16105.got - 2010.04.14 02:36:11.
