data_PCOD8189270
_publ_section_title
;
Structure prediction by ZEFSAII (Michael W. Deem and Ramdas Pophale) SiO2 
 PCOD8189270
Probable space group: I M M 2
;
_chemical_formula_sum "Si O2"
_cell_formula_units_Z 48
_cell_length_a 9.330996
_cell_length_b 9.327204
_cell_length_c 31.000523
_cell_angle_alpha 90.000000
_cell_angle_beta 90.000000
_cell_angle_gamma 90.000000
_cell_volume 2698.040717
_symmetry_space_group_name_H-M "I M M 2"
_symmetry_group_IT_number 44
_symmetry_cell_setting 'orthorhombic'
loop_
_space_group_symop_operation_xyz
x,y,z
-x,-y,z
-x,y,z
x,-y,z
1/2+x,1/2+y,1/2+z
1/2-x,1/2-y,1/2+z
1/2-x,1/2+y,1/2+z
1/2+x,1/2-y,1/2+z
loop_
_atom_site_type_symbol
_atom_site_label
_atom_site_fract_x
_atom_site_fract_y
_atom_site_fract_z
Si Si1 0.840460 0.670372 0.319450
Si Si2 0.166397 0.166480 0.144422
Si Si3 0.166571 0.664708 0.560778
Si Si4 0.168108 0.832907 0.901924
Si Si5 0.329356 0.840586 0.725466
Si Si6 0.833713 0.831822 0.475479
O O1 0.848317 0.500000 0.317297
O O2 0.731986 0.721683 0.356438
O O3 0.784170 0.723630 0.272411
O O4 0.000000 0.731336 0.329483
O O5 0.247909 0.222652 0.102154
O O6 0.230559 0.243231 0.186783
O O7 0.000000 0.202121 0.137962
O O8 0.195074 0.000000 0.151303
O O9 0.207110 0.500000 0.550180
O O10 0.212475 0.762348 0.520696
O O11 0.000000 0.680641 0.571266
O O12 0.238146 0.739365 0.939020
O O13 0.000000 0.804486 0.901277
O O14 0.204196 0.000000 0.909785
O O15 0.500000 0.844999 0.724299
O O16 0.266224 0.000000 0.719004
O O17 0.000000 0.799594 0.465572
O O18 0.801921 0.000000 0.477457
#
# Coordination Sequence:
#
# PCOD8189270 Si02
#       6
#     8   8   8   8   8   8
#     4   8  14  27  48  70  92 123 163 201 234 275
#     4   9  17  29  46  69  95 121 153 195 237 277
#     4   9  18  33  51  69  92 124 159 194 235 286
#     4  10  20  33  51  75 101 129 162 200 243 292
#     4   8  14  26  45  68  93 123 159 195 231 274
#     4  10  21  36  53  73  97 126 162 203 246 293
#
# _framework density 17.790689
#
# number of rings (size 3 to 8) (size 9 to 14) (size 15 to 20)
#    0.000    3.000    0.000    2.000    0.000    3.333 
#    0.000    3.333    0.000    4.000    0.000    0.000 
#    0.000    0.000    0.000    0.000    0.000    0.000 
#
# Total GULP energy -297536.908286 kJ/mol
# GULP energy per Si atom -12397.371179 kJ/mol
# Density = 1.775020 g / cm^3
# Si number density = 17.790689 Si / 1000 Ang^3
#
#
#
# Elastic Constant Matrix: (Units=GPa)
#
#
# Indices 1 2 3 4 5 6 
#
# 1 63.3848 40.6690 75.3907 0.0000 0.0000 0.0000
# 2 40.6690 66.5904 74.8618 0.0000 0.0000 0.0000
# 3 75.3907 74.8618 197.6582 0.0000 0.0000 0.0000
# 4 0.0000 0.0000 0.0000 31.4735 0.0000 0.0000
# 5 0.0000 0.0000 0.0000 0.0000 31.5680 0.0000
# 6 0.0000 0.0000 0.0000 0.0000 0.0000 18.0293
#
#
#
# Elastic Compliance Matrix: (Units=1/GPa)
#
#
# Indices 1 2 3 4 5 6 
#
# 1 0.032477 -0.010290 -0.008490 0.000000 0.000000 0.000000
# 2 -0.010290 0.029413 -0.007215 0.000000 0.000000 0.000000
# 3 -0.008490 -0.007215 0.011030 0.000000 0.000000 0.000000
# 4 0.000000 0.000000 0.000000 0.031773 0.000000 0.000000
# 5 0.000000 0.000000 0.000000 0.000000 0.031678 0.000000
# 6 0.000000 0.000000 0.000000 0.000000 0.000000 0.055465
#
#
# Mechanical properties :
#
#
# Convention : Reuss Voigt Hill
#
# Bulk Modulus (GPa) = 47.77912 78.83071 63.30492
# Shear Modulus (GPa) = 19.93587 25.32827 22.63207
#
# Velocity S-wave (km/s) = 3.35114 3.77726 3.57056
# Velocity P-wave (km/s) = 6.47210 7.96429 7.25665
#
# Compressibility (1/GPa) = 0.02092964
#
# Stress axis : x y z
#
# Youngs Moduli (GPa) = 30.79069 33.99831 90.66004
#
# Poissons Ratio (x) = 0.34985 0.76971
# Poissons Ratio (y) = 0.31685 0.65413
# Poissons Ratio (z) = 0.26142 0.24530
#
# Static dielectric constant tensor:
#      x y z
#    x 3.120140 0.000000 0.000000 
#    y 0.000000 3.159510 0.000000 
#    z 0.000000 0.000000 3.699450 
# 
# 
# High freq. dielectric constant tensor:
#      x y z
#    x 1.664770 0.000000 0.000000 
#    y 0.000000 1.664510 0.000000 
#    z 0.000000 0.000000 1.705330 
# 
# From -- ./inp_files/26038.got.cif
#   From: 2010.03.12/outbox.cif.g09.slc.cpg/sg44_14_cif.got.tgz:26038.got - 2010.04.14 02:36:11.
