data_PCOD8189264
_publ_section_title
;
Structure prediction by ZEFSAII (Michael W. Deem and Ramdas Pophale) SiO2 
 PCOD8189264
Probable space group: I M M 2
;
_chemical_formula_sum "Si O2"
_cell_formula_units_Z 46
_cell_length_a 7.693216
_cell_length_b 12.171294
_cell_length_c 26.176691
_cell_angle_alpha 90.000000
_cell_angle_beta 90.000000
_cell_angle_gamma 90.000000
_cell_volume 2451.090945
_symmetry_space_group_name_H-M "I M M 2"
_symmetry_group_IT_number 44
_symmetry_cell_setting 'orthorhombic'
loop_
_space_group_symop_operation_xyz
x,y,z
-x,-y,z
-x,y,z
x,-y,z
1/2+x,1/2+y,1/2+z
1/2-x,1/2-y,1/2+z
1/2-x,1/2+y,1/2+z
1/2+x,1/2-y,1/2+z
loop_
_atom_site_type_symbol
_atom_site_label
_atom_site_fract_x
_atom_site_fract_y
_atom_site_fract_z
Si Si1 0.195045 0.181818 0.081460
Si Si2 0.805270 0.623213 0.908892
Si Si3 0.191280 0.625781 0.688856
Si Si4 0.207618 0.000000 0.000703
Si Si5 0.000000 0.738130 0.365040
Si Si6 0.500000 0.367394 0.761063
Si Si7 0.696788 0.377493 0.021019
Si Si8 0.000000 0.500000 0.414038
O O1 0.306332 0.179021 0.132889
O O2 0.206408 0.306227 0.063102
O O3 0.000000 0.147325 0.095963
O O4 0.260884 0.104846 0.035108
O O5 0.748319 0.500000 0.891154
O O6 0.675072 0.713875 0.888745
O O7 0.000000 0.648804 0.889008
O O8 0.807536 0.629254 0.969674
O O9 0.233084 0.500000 0.678793
O O10 0.331476 0.669373 0.728965
O O11 0.000000 0.645518 0.712612
O O12 0.325953 0.000000 0.949496
O O13 0.000000 0.000000 0.986364
O O14 0.000000 0.606769 0.376206
O O15 0.000000 0.781025 0.307175
O O16 0.500000 0.500000 0.775257
O O17 0.500000 0.336108 0.010480
O O18 0.694830 0.500000 0.042982
#
# Coordination Sequence:
#
# PCOD8189264 Si02
#       8
#     8   8   8   4   4   4   8   2
#     4  11  20  33  56  84 122 160 192 236 301 361
#     4  10  20  36  60  88 118 153 198 251 312 362
#     4  10  20  35  58  88 118 147 186 246 311 374
#     4  10  24  38  56  92 128 162 202 244 296 371
#     4  12  24  42  62  86 120 164 206 264 298 358
#     4  10  22  40  64  86 114 142 200 266 324 356
#     4  10  20  33  50  78 119 159 196 236 283 351
#     4  12  28  40  60  88 128 172 228 236 296 372
#
# _framework density 18.767151999999999
#
# number of rings (size 3 to 8) (size 9 to 14) (size 15 to 20)
#    0.000    1.565    2.609    2.870    2.435    3.826 
#    0.000    1.739    1.913    0.000    0.000    0.000 
#    0.000    0.000    0.000    0.000    0.000    0.000 
#
# Total GULP energy -285084.611893 kJ/mol
# GULP energy per Si atom -12394.983126 kJ/mol
# Density = 1.872444 g / cm^3
# Si number density = 18.767152 Si / 1000 Ang^3
#
#
#
# Elastic Constant Matrix: (Units=GPa)
#
#
# Indices 1 2 3 4 5 6 
#
# 1 107.4713 44.5393 41.5102 0.0000 0.0000 0.0000
# 2 44.5393 106.1628 54.5389 0.0000 0.0000 0.0000
# 3 41.5102 54.5389 101.1285 0.0000 0.0000 0.0000
# 4 0.0000 0.0000 0.0000 29.2828 0.0000 0.0000
# 5 0.0000 0.0000 0.0000 0.0000 30.6772 0.0000
# 6 0.0000 0.0000 0.0000 0.0000 0.0000 7.6647
#
#
#
# Elastic Compliance Matrix: (Units=1/GPa)
#
#
# Indices 1 2 3 4 5 6 
#
# 1 0.011899 -0.003435 -0.003032 0.000000 0.000000 0.000000
# 2 -0.003435 0.014021 -0.006152 0.000000 0.000000 0.000000
# 3 -0.003032 -0.006152 0.014451 0.000000 0.000000 0.000000
# 4 0.000000 0.000000 0.000000 0.034150 0.000000 0.000000
# 5 0.000000 0.000000 0.000000 0.000000 0.032598 0.000000
# 6 0.000000 0.000000 0.000000 0.000000 0.000000 0.130469
#
#
# Mechanical properties :
#
#
# Convention : Reuss Voigt Hill
#
# Bulk Modulus (GPa) = 66.07588 66.21550 66.14569
# Shear Modulus (GPa) = 18.66591 25.13653 21.90122
#
# Velocity S-wave (km/s) = 3.15716 3.66374 3.41984
# Velocity P-wave (km/s) = 6.96957 7.29771 7.13553
#
# Compressibility (1/GPa) = 0.01513411
#
# Stress axis : x y z
#
# Youngs Moduli (GPa) = 84.03856 71.32320 69.20149
#
# Poissons Ratio (x) = 0.24496 0.20982
# Poissons Ratio (y) = 0.28864 0.42570
# Poissons Ratio (z) = 0.25481 0.43875
#
# Static dielectric constant tensor:
#      x y z
#    x 3.585730 0.000000 0.000000 
#    y 0.000000 3.378550 0.000000 
#    z 0.000000 0.000000 3.262390 
# 
# 
# High freq. dielectric constant tensor:
#      x y z
#    x 1.748370 0.000000 0.000000 
#    y 0.000000 1.708130 0.000000 
#    z 0.000000 0.000000 1.704130 
# 
# From -- ./inp_files/24824.got.cif
#   From: 2010.03.12/outbox.cif.g09.slc.cpg/sg44_13_cif.got.tgz:24824.got - 2010.04.14 02:36:11.
