data_PCOD8189767
_publ_section_title
;
Structure prediction by ZEFSAII (Michael W. Deem and Ramdas Pophale) SiO2 
 PCOD8189767
Probable space group: I M M 2
;
_chemical_formula_sum "Si O2"
_cell_formula_units_Z 64
_cell_length_a 14.689987
_cell_length_b 18.675320
_cell_length_c 11.328783
_cell_angle_alpha 90.000000
_cell_angle_beta 90.000000
_cell_angle_gamma 90.000000
_cell_volume 3107.940685
_symmetry_space_group_name_H-M "I M M 2"
_symmetry_group_IT_number 44
_symmetry_cell_setting 'orthorhombic'
loop_
_space_group_symop_operation_xyz
x,y,z
-x,-y,z
-x,y,z
x,-y,z
1/2+x,1/2+y,1/2+z
1/2-x,1/2-y,1/2+z
1/2-x,1/2+y,1/2+z
1/2+x,1/2-y,1/2+z
loop_
_atom_site_type_symbol
_atom_site_label
_atom_site_fract_x
_atom_site_fract_y
_atom_site_fract_z
Si Si1 0.226232 0.205965 0.358580
Si Si2 0.104348 0.077871 0.785777
Si Si3 0.895891 0.272835 0.172868
Si Si4 0.605805 0.079386 0.779667
Si Si5 0.824681 0.177610 0.980130
Si Si6 0.392391 0.328085 0.073766
Si Si7 0.321524 0.080982 0.041147
Si Si8 0.897861 0.317179 0.713092
O O1 0.158281 0.215906 0.250553
O O2 0.245382 0.285610 0.404532
O O3 0.172203 0.161600 0.459518
O O4 0.322496 0.170596 0.316365
O O5 0.111011 0.131639 0.895383
O O6 0.142716 0.111601 0.665010
O O7 0.000000 0.064067 0.763487
O O8 0.152223 0.000000 0.809680
O O9 0.865032 0.356376 0.189589
O O10 0.000000 0.266165 0.209394
O O11 0.880277 0.242956 0.040748
O O12 0.500000 0.085839 0.810881
O O13 0.626323 0.000000 0.724688
O O14 0.659051 0.087585 0.902102
O O15 0.773472 0.122601 0.068314
O O16 0.500000 0.334229 0.040982
O O17 0.372110 0.252837 0.137460
O O18 0.399017 0.116249 0.122559
O O19 0.310872 0.000000 0.082396
O O20 0.000000 0.310293 0.767716
#
# Coordination Sequence:
#
# PCOD8189767 Si02
#       8
#     8   8   8   8   8   8   8   8
#     4  12  21  37  61  89 124 157 201 251 306 364
#     4  10  22  41  64  91 122 158 205 258 311 363
#     4  11  22  37  61  94 127 164 202 247 308 371
#     4   9  18  34  58  91 125 156 198 252 308 365
#     4  12  22  36  59  93 126 160 200 252 302 369
#     4  10  20  37  63  91 120 159 206 254 303 363
#     4  11  21  35  58  88 123 163 207 254 307 359
#     4  11  22  38  59  87 123 164 209 254 303 366
#
# _framework density 20.592413000000001
#
# number of rings (size 3 to 8) (size 9 to 14) (size 15 to 20)
#    0.000    1.250    5.000    1.500    0.000    3.250 
#    0.000    0.625    0.000    0.750    0.000    1.750 
#    0.000    0.000    0.000    0.000    0.000    0.000 
#
# Total GULP energy -396524.204032 kJ/mol
# GULP energy per Si atom -12391.381376 kJ/mol
# Density = 2.054554 g / cm^3
# Si number density = 20.592413 Si / 1000 Ang^3
#
#
#
# Elastic Constant Matrix: (Units=GPa)
#
#
# Indices 1 2 3 4 5 6 
#
# 1 87.6169 31.7577 41.2706 0.0000 0.0000 0.0000
# 2 31.7577 145.8775 63.2505 0.0000 0.0000 0.0000
# 3 41.2706 63.2505 96.1970 0.0000 0.0000 0.0000
# 4 0.0000 0.0000 0.0000 35.3901 0.0000 0.0000
# 5 0.0000 0.0000 0.0000 0.0000 35.0646 0.0000
# 6 0.0000 0.0000 0.0000 0.0000 0.0000 21.4197
#
#
#
# Elastic Compliance Matrix: (Units=1/GPa)
#
#
# Indices 1 2 3 4 5 6 
#
# 1 0.014346 -0.000636 -0.005737 0.000000 0.000000 0.000000
# 2 -0.000636 0.009617 -0.006050 0.000000 0.000000 0.000000
# 3 -0.005737 -0.006050 0.016835 0.000000 0.000000 0.000000
# 4 0.000000 0.000000 0.000000 0.028257 0.000000 0.000000
# 5 0.000000 0.000000 0.000000 0.000000 0.028519 0.000000
# 6 0.000000 0.000000 0.000000 0.000000 0.000000 0.046686
#
#
# Mechanical properties :
#
#
# Convention : Reuss Voigt Hill
#
# Bulk Modulus (GPa) = 62.68906 66.91653 64.80279
# Shear Modulus (GPa) = 28.66615 31.26906 29.96761
#
# Velocity S-wave (km/s) = 3.73510 3.90099 3.81894
# Velocity P-wave (km/s) = 7.00786 7.27025 7.14026
#
# Compressibility (1/GPa) = 0.01595175
#
# Stress axis : x y z
#
# Youngs Moduli (GPa) = 69.70606 103.98411 59.40104
#
# Poissons Ratio (x) = 0.06611 0.34077
# Poissons Ratio (y) = 0.04432 0.35940
# Poissons Ratio (z) = 0.39988 0.62915
#
# Static dielectric constant tensor:
#      x y z
#    x 3.760490 0.000000 0.000000 
#    y 0.000000 4.016520 0.000000 
#    z 0.000000 0.000000 3.551510 
# 
# 
# High freq. dielectric constant tensor:
#      x y z
#    x 1.813410 0.000000 0.000000 
#    y 0.000000 1.797000 0.000000 
#    z 0.000000 0.000000 1.781870 
# 
# From -- ./inp_files/13466.got.cif
#   From: 2010.03.12/outbox.cif.g09.slc.cpg/sg44_7_cif.got.tgz:13466.got - 2010.04.14 02:36:11.
