data_PCOD8189458
_publ_section_title
;
Structure prediction by ZEFSAII (Michael W. Deem and Ramdas Pophale) SiO2 
 PCOD8189458
Probable space group: I M M 2
;
_chemical_formula_sum "Si O2"
_cell_formula_units_Z 40
_cell_length_a 8.806893
_cell_length_b 7.667116
_cell_length_c 29.857325
_cell_angle_alpha 90.000000
_cell_angle_beta 90.000000
_cell_angle_gamma 90.000000
_cell_volume 2016.070196
_symmetry_space_group_name_H-M "I M M 2"
_symmetry_group_IT_number 44
_symmetry_cell_setting 'orthorhombic'
loop_
_space_group_symop_operation_xyz
x,y,z
-x,-y,z
-x,y,z
x,-y,z
1/2+x,1/2+y,1/2+z
1/2-x,1/2-y,1/2+z
1/2-x,1/2+y,1/2+z
1/2+x,1/2-y,1/2+z
loop_
_atom_site_type_symbol
_atom_site_label
_atom_site_fract_x
_atom_site_fract_y
_atom_site_fract_z
Si Si1 0.318955 0.195299 0.107070
Si Si2 0.820691 0.500000 0.945211
Si Si3 0.680355 0.500000 0.041834
Si Si4 0.669075 0.297497 0.297291
Si Si5 0.178108 0.296906 0.386941
Si Si6 0.666843 0.204602 0.203237
O O1 0.500000 0.193331 0.111417
O O2 0.266622 0.328603 0.068994
O O3 0.254492 0.260345 0.156004
O O4 0.260029 0.000000 0.095000
O O5 0.757946 0.677628 0.923777
O O6 0.000000 0.500000 0.940774
O O7 0.772003 0.500000 0.996465
O O8 0.500000 0.500000 0.033067
O O9 0.500000 0.210719 0.298998
O O10 0.653403 0.500000 0.304372
O O11 0.770415 0.226304 0.338094
O O12 0.752439 0.258318 0.249369
O O13 0.222177 0.500000 0.395051
O O14 0.000000 0.269702 0.391116
O O15 0.500000 0.292974 0.206643
O O16 0.650543 0.000000 0.200786
#
# Coordination Sequence:
#
# PCOD8189458 Si02
#       6
#     8   4   4   8   8   8
#     4   8  15  28  47  75 110 143 179 229 277 323
#     4  12  26  42  62  86 114 148 194 246 301 356
#     4  10  20  34  56  82 106 140 190 238 289 338
#     4   9  17  28  47  78 112 146 186 229 277 331
#     4  10  22  41  62  84 115 152 192 239 290 349
#     4   8  14  24  41  71 109 145 182 224 271 320
#
# _framework density 19.840577
#
# number of rings (size 3 to 8) (size 9 to 14) (size 15 to 20)
#    0.000    2.800    0.000    2.700    2.800    2.000 
#    0.000    2.000    0.000    1.200    0.000    2.800 
#    0.000    0.000    0.000    0.000    0.000    0.000 
#
# Total GULP energy -247776.809167 kJ/mol
# GULP energy per Si atom -12388.840458 kJ/mol
# Density = 1.979542 g / cm^3
# Si number density = 19.840577 Si / 1000 Ang^3
#
#
#
# Elastic Constant Matrix: (Units=GPa)
#
#
# Indices 1 2 3 4 5 6 
#
# 1 63.1040 35.7539 49.0967 0.0000 0.0000 0.0000
# 2 35.7539 93.7805 75.9575 0.0000 0.0000 0.0000
# 3 49.0967 75.9575 190.9408 0.0000 0.0000 0.0000
# 4 0.0000 0.0000 0.0000 36.0733 0.0000 0.0000
# 5 0.0000 0.0000 0.0000 0.0000 22.2509 0.0000
# 6 0.0000 0.0000 0.0000 0.0000 0.0000 14.7884
#
#
#
# Elastic Compliance Matrix: (Units=1/GPa)
#
#
# Indices 1 2 3 4 5 6 
#
# 1 0.021580 -0.005508 -0.003358 0.000000 0.000000 0.000000
# 2 -0.005508 0.017138 -0.005401 0.000000 0.000000 0.000000
# 3 -0.003358 -0.005401 0.008249 0.000000 0.000000 0.000000
# 4 0.000000 0.000000 0.000000 0.027721 0.000000 0.000000
# 5 0.000000 0.000000 0.000000 0.000000 0.044942 0.000000
# 6 0.000000 0.000000 0.000000 0.000000 0.000000 0.067621
#
#
# Mechanical properties :
#
#
# Convention : Reuss Voigt Hill
#
# Bulk Modulus (GPa) = 54.24958 74.38240 64.31599
# Shear Modulus (GPa) = 22.52969 27.09033 24.81001
#
# Velocity S-wave (km/s) = 3.37343 3.69914 3.54003
# Velocity P-wave (km/s) = 6.52499 7.47103 7.01398
#
# Compressibility (1/GPa) = 0.01843332
#
# Stress axis : x y z
#
# Youngs Moduli (GPa) = 46.33929 58.35048 121.22199
#
# Poissons Ratio (x) = 0.32137 0.40705
# Poissons Ratio (y) = 0.25522 0.65476
# Poissons Ratio (z) = 0.15560 0.31517
#
# Static dielectric constant tensor:
#      x y z
#    x 3.243280 0.000000 0.000000 
#    y 0.000000 3.698700 0.000000 
#    z 0.000000 0.000000 3.992490 
# 
# 
# High freq. dielectric constant tensor:
#      x y z
#    x 1.710730 0.000000 0.000000 
#    y 0.000000 1.775460 0.000000 
#    z 0.000000 0.000000 1.789760 
# 
# From -- ./inp_files/25958.got.cif
#   From: 2010.03.12/outbox.cif.g09.slc.cpg/sg44_13_cif.got.tgz:25958.got - 2010.04.14 02:36:11.
