data_PCOD8189772
_publ_section_title
;
Structure prediction by ZEFSAII (Michael W. Deem and Ramdas Pophale) SiO2 
 PCOD8189772
Probable space group: I M M 2
;
_chemical_formula_sum "Si O2"
_cell_formula_units_Z 48
_cell_length_a 13.198416
_cell_length_b 18.746613
_cell_length_c 8.492306
_cell_angle_alpha 90.000000
_cell_angle_beta 90.000000
_cell_angle_gamma 90.000000
_cell_volume 2101.213882
_symmetry_space_group_name_H-M "I M M 2"
_symmetry_group_IT_number 44
_symmetry_cell_setting 'orthorhombic'
loop_
_space_group_symop_operation_xyz
x,y,z
-x,-y,z
-x,y,z
x,-y,z
1/2+x,1/2+y,1/2+z
1/2-x,1/2-y,1/2+z
1/2-x,1/2+y,1/2+z
1/2+x,1/2-y,1/2+z
loop_
_atom_site_type_symbol
_atom_site_label
_atom_site_fract_x
_atom_site_fract_y
_atom_site_fract_z
Si Si1 0.385685 0.918749 0.883140
Si Si2 0.312133 0.580744 0.861816
Si Si3 0.381154 0.712375 0.696830
Si Si4 0.761755 0.190090 0.900073
Si Si5 0.614572 0.579140 0.203225
Si Si6 0.610124 0.915406 0.521926
O O1 0.500000 0.909246 0.941787
O O2 0.372802 0.890035 0.702352
O O3 0.351424 0.000000 0.902206
O O4 0.312142 0.868206 0.986640
O O5 0.305917 0.500000 0.796969
O O6 0.382092 0.585227 0.015476
O O7 0.199201 0.610284 0.906515
O O8 0.365519 0.628148 0.728130
O O9 0.500000 0.733972 0.705524
O O10 0.337002 0.728764 0.522834
O O11 0.312998 0.751915 0.825450
O O12 0.825590 0.145375 0.774154
O O13 0.500000 0.585233 0.261982
O O14 0.658456 0.500000 0.250870
O O15 0.500000 0.887389 0.461777
O O16 0.609485 0.000000 0.530167
#
# Coordination Sequence:
#
# PCOD8189772 Si02
#       6
#     8   8   8   8   8   8
#     4   9  17  33  63  98 128 161 205 260 321 386
#     4  10  20  39  65  96 133 174 219 270 327 394
#     4  12  29  48  66  93 129 174 225 279 340 398
#     4  12  24  44  66  91 128 174 221 278 329 398
#     4  10  20  37  66 101 135 173 218 264 315 387
#     4   8  14  28  56  94 128 159 200 251 309 373
#
# _framework density 22.843937
#
# number of rings (size 3 to 8) (size 9 to 14) (size 15 to 20)
#    0.000    1.833    1.667    4.000    0.000    2.333 
#    0.000    5.000    0.000    2.000    0.000    0.000 
#    0.000    0.000    0.000    0.000    0.000    0.000 
#
# Total GULP energy -297436.790902 kJ/mol
# GULP energy per Si atom -12393.199621 kJ/mol
# Density = 2.279194 g / cm^3
# Si number density = 22.843937 Si / 1000 Ang^3
#
#
#
# Elastic Constant Matrix: (Units=GPa)
#
#
# Indices 1 2 3 4 5 6 
#
# 1 150.5575 43.5406 36.0458 0.0000 0.0000 0.0000
# 2 43.5406 67.9224 22.2393 0.0000 0.0000 0.0000
# 3 36.0458 22.2393 50.5086 -0.0001 0.0000 0.0000
# 4 0.0000 0.0000 -0.0001 32.4198 0.0000 0.0000
# 5 0.0000 0.0000 0.0000 0.0000 31.6416 0.0000
# 6 0.0000 0.0000 0.0000 0.0000 0.0000 34.3067
#
#
#
# Elastic Compliance Matrix: (Units=1/GPa)
#
#
# Indices 1 2 3 4 5 6 
#
# 1 0.008956 -0.004263 -0.004514 0.000000 0.000000 0.000000
# 2 -0.004263 0.019232 -0.005426 0.000000 0.000000 0.000000
# 3 -0.004514 -0.005426 0.025409 0.000000 0.000000 0.000000
# 4 0.000000 0.000000 0.000000 0.030845 0.000000 0.000000
# 5 0.000000 0.000000 0.000000 0.000000 0.031604 0.000000
# 6 0.000000 0.000000 0.000000 0.000000 0.000000 0.029149
#
#
# Mechanical properties :
#
#
# Convention : Reuss Voigt Hill
#
# Bulk Modulus (GPa) = 39.69668 52.51555 46.10611
# Shear Modulus (GPa) = 27.47296 30.81781 29.14539
#
# Velocity S-wave (km/s) = 3.47167 3.67694 3.57578
# Velocity P-wave (km/s) = 5.78663 6.40822 6.10534
#
# Compressibility (1/GPa) = 0.02519102
#
# Stress axis : x y z
#
# Youngs Moduli (GPa) = 111.66288 51.99728 39.35583
#
# Poissons Ratio (x) = 0.22165 0.17766
# Poissons Ratio (y) = 0.47599 0.21353
# Poissons Ratio (z) = 0.50407 0.28212
#
# Static dielectric constant tensor:
#      x y z
#    x 4.664390 0.000000 0.000000 
#    y 0.000000 4.129770 0.000000 
#    z 0.000000 0.000000 3.561790 
# 
# 
# High freq. dielectric constant tensor:
#      x y z
#    x 1.923430 0.000000 0.000000 
#    y 0.000000 1.905060 0.000000 
#    z 0.000000 0.000000 1.846980 
# 
# From -- ./inp_files/7266.got.cif
#   From: 2010.03.12/outbox.cif.g09.slc.cpg/sg44_4_cif.got.tgz:7266.got - 2010.04.14 02:36:11.
