data_PCOD8189517
_publ_section_title
;
Structure prediction by ZEFSAII (Michael W. Deem and Ramdas Pophale) SiO2 
 PCOD8189517
Probable space group: I M M 2
;
_chemical_formula_sum "Si O2"
_cell_formula_units_Z 48
_cell_length_a 8.898433
_cell_length_b 15.108102
_cell_length_c 19.111019
_cell_angle_alpha 90.000000
_cell_angle_beta 90.000000
_cell_angle_gamma 90.000000
_cell_volume 2569.255455
_symmetry_space_group_name_H-M "I M M 2"
_symmetry_group_IT_number 44
_symmetry_cell_setting 'orthorhombic'
loop_
_space_group_symop_operation_xyz
x,y,z
-x,-y,z
-x,y,z
x,-y,z
1/2+x,1/2+y,1/2+z
1/2-x,1/2-y,1/2+z
1/2-x,1/2+y,1/2+z
1/2+x,1/2-y,1/2+z
loop_
_atom_site_type_symbol
_atom_site_label
_atom_site_fract_x
_atom_site_fract_y
_atom_site_fract_z
Si Si1 0.177587 0.146934 0.475590
Si Si2 0.320872 0.000000 0.071425
Si Si3 0.676704 0.500000 0.219018
Si Si4 0.176013 0.649615 0.830449
Si Si5 0.325726 0.351083 0.327060
Si Si6 0.321909 0.000000 0.569264
Si Si7 0.676791 0.151905 0.970827
Si Si8 0.322209 0.000000 0.226625
O O1 0.233058 0.119297 0.398767
O O2 0.225960 0.248364 0.489862
O O3 0.000000 0.132656 0.480647
O O4 0.257069 0.087793 0.533589
O O5 0.262675 0.087558 0.031581
O O6 0.500000 0.000000 0.074556
O O7 0.250515 0.000000 0.149201
O O8 0.500000 0.500000 0.200412
O O9 0.722888 0.587115 0.262779
O O10 0.774496 0.500000 0.149660
O O11 0.214017 0.749802 0.807907
O O12 0.231106 0.587724 0.767233
O O13 0.000000 0.636890 0.846638
O O14 0.500000 0.363373 0.342912
O O15 0.241851 0.380618 0.397134
O O16 0.500000 0.000000 0.562637
O O17 0.500000 0.145317 0.963458
O O18 0.500000 0.000000 0.219986
#
# Coordination Sequence:
#
# PCOD8189517 Si02
#       8
#     8   4   4   8   8   4   8   4
#     4  10  20  35  55  78 103 134 171 215 263 313
#     4   9  17  30  49  77 107 135 168 205 246 298
#     4  10  21  36  52  75 106 140 175 214 262 314
#     4   9  17  31  52  77 101 131 171 212 251 298
#     4   9  18  32  52  75 101 133 170 211 255 302
#     4  12  25  38  53  75 103 138 177 222 272 322
#     4   9  18  32  54  80 105 135 173 214 254 299
#     4   9  17  28  46  71  98 127 162 201 242 290
#
# _framework density 18.682455999999998
#
# number of rings (size 3 to 8) (size 9 to 14) (size 15 to 20)
#    0.000    2.500    0.000    2.250    0.000    3.333 
#    0.000    5.000    0.000    2.000    0.000    0.000 
#    0.000    0.000    0.000    0.000    0.000    0.000 
#
# Total GULP energy -297621.440888 kJ/mol
# GULP energy per Si atom -12400.893370 kJ/mol
# Density = 1.863993 g / cm^3
# Si number density = 18.682456 Si / 1000 Ang^3
#
#
#
# Elastic Constant Matrix: (Units=GPa)
#
#
# Indices 1 2 3 4 5 6 
#
# 1 50.7674 32.8007 42.7346 0.0000 0.0000 0.0000
# 2 32.8007 126.8632 94.6799 0.0000 0.0000 0.0000
# 3 42.7346 94.6799 167.4852 0.0000 0.0000 0.0000
# 4 0.0000 0.0000 0.0000 18.7234 0.0000 0.0000
# 5 0.0000 0.0000 0.0000 0.0000 30.3198 0.0000
# 6 0.0000 0.0000 0.0000 0.0000 0.0000 19.2485
#
#
#
# Elastic Compliance Matrix: (Units=1/GPa)
#
#
# Indices 1 2 3 4 5 6 
#
# 1 0.025743 -0.003034 -0.004854 0.000000 0.000000 0.000000
# 2 -0.003034 0.013993 -0.007136 0.000000 0.000000 0.000000
# 3 -0.004854 -0.007136 0.011243 0.000000 0.000000 0.000000
# 4 0.000000 0.000000 0.000000 0.053409 0.000000 0.000000
# 5 0.000000 0.000000 0.000000 0.000000 0.032982 0.000000
# 6 0.000000 0.000000 0.000000 0.000000 0.000000 0.051952
#
#
# Mechanical properties :
#
#
# Convention : Reuss Voigt Hill
#
# Bulk Modulus (GPa) = 47.77257 76.17178 61.97217
# Shear Modulus (GPa) = 22.09009 25.31839 23.70424
#
# Velocity S-wave (km/s) = 3.44233 3.68529 3.56588
# Velocity P-wave (km/s) = 6.43629 7.67912 7.08501
#
# Compressibility (1/GPa) = 0.02093252
#
# Stress axis : x y z
#
# Youngs Moduli (GPa) = 38.84495 71.46662 88.94360
#
# Poissons Ratio (x) = 0.21681 0.43170
# Poissons Ratio (y) = 0.11784 0.63470
# Poissons Ratio (z) = 0.18854 0.50998
#
# Static dielectric constant tensor:
#      x y z
#    x 3.224990 0.000000 0.000000 
#    y 0.000000 3.894250 0.000000 
#    z 0.000000 0.000000 3.534600 
# 
# 
# High freq. dielectric constant tensor:
#      x y z
#    x 1.702640 0.000000 0.000000 
#    y 0.000000 1.741390 0.000000 
#    z 0.000000 0.000000 1.722030 
# 
# From -- ./inp_files/16230.got.cif
#   From: 2010.03.12/outbox.cif.g09.slc.cpg/sg44_9_cif.got.tgz:16230.got - 2010.04.14 02:36:11.
