data_PCOD8189163
_publ_section_title
;
Structure prediction by ZEFSAII (Michael W. Deem and Ramdas Pophale) SiO2 
 PCOD8189163
Probable space group: I M M 2
;
_chemical_formula_sum "Si O2"
_cell_formula_units_Z 64
_cell_length_a 9.177687
_cell_length_b 9.750633
_cell_length_c 40.831281
_cell_angle_alpha 90.000000
_cell_angle_beta 90.000000
_cell_angle_gamma 90.000000
_cell_volume 3653.920197
_symmetry_space_group_name_H-M "I M M 2"
_symmetry_group_IT_number 44
_symmetry_cell_setting 'orthorhombic'
loop_
_space_group_symop_operation_xyz
x,y,z
-x,-y,z
-x,y,z
x,-y,z
1/2+x,1/2+y,1/2+z
1/2-x,1/2-y,1/2+z
1/2-x,1/2+y,1/2+z
1/2+x,1/2-y,1/2+z
loop_
_atom_site_type_symbol
_atom_site_label
_atom_site_fract_x
_atom_site_fract_y
_atom_site_fract_z
Si Si1 0.832258 0.840851 0.348170
Si Si2 0.164602 0.163300 0.027245
Si Si3 0.329448 0.841238 0.091739
Si Si4 0.166227 0.839226 0.722704
Si Si5 0.329227 0.652554 0.773189
Si Si6 0.329442 0.659232 0.399562
Si Si7 0.664469 0.836922 0.964403
Si Si8 0.326649 0.347751 0.150076
O O1 0.792480 0.810004 0.310590
O O2 0.725789 0.746860 0.369146
O O3 0.000000 0.802160 0.355451
O O4 0.804902 0.000000 0.356484
O O5 0.244660 0.214187 0.060037
O O6 0.000000 0.220360 0.026751
O O7 0.164841 0.000000 0.026011
O O8 0.251155 0.222759 0.995979
O O9 0.500000 0.815519 0.085738
O O10 0.268929 0.758716 0.123076
O O11 0.296236 0.000000 0.098422
O O12 0.258110 0.761958 0.749635
O O13 0.226768 0.803253 0.686315
O O14 0.000000 0.791255 0.726031
O O15 0.181240 0.000000 0.729211
O O16 0.500000 0.657045 0.767526
O O17 0.270163 0.500000 0.765174
O O18 0.500000 0.683393 0.404804
O O19 0.294571 0.500000 0.392761
O O20 0.247484 0.712514 0.431958
O O21 0.500000 0.778696 0.964061
O O22 0.662756 0.000000 0.966155
O O23 0.500000 0.350425 0.150618
O O24 0.267901 0.500000 0.141505
#
# Coordination Sequence:
#
# PCOD8189163 Si02
#       8
#     8   8   8   8   8   8   8   8
#     4   9  19  36  54  70  93 128 166 200 237 285
#     4   9  16  26  41  63  93 124 151 187 238 285
#     4   9  16  26  43  67  90 114 151 194 230 271
#     4   9  18  32  50  73  99 126 159 199 242 289
#     4   9  19  35  52  71  96 126 161 200 241 286
#     4  10  20  32  48  74 104 129 157 197 243 288
#     4   9  16  27  45  68  94 125 160 196 234 278
#     4   8  15  29  47  66  91 123 155 188 229 277
#
# _framework density 17.515433999999999
#
# number of rings (size 3 to 8) (size 9 to 14) (size 15 to 20)
#    0.000    3.000    0.000    2.625    0.000    6.000 
#    0.000    5.625    0.000    3.375    0.000    1.750 
#    0.000    0.000    0.000    0.000    0.000    0.000 
#
# Total GULP energy -396737.429165 kJ/mol
# GULP energy per Si atom -12398.044661 kJ/mol
# Density = 1.747557 g / cm^3
# Si number density = 17.515434 Si / 1000 Ang^3
#
#
#
# Elastic Constant Matrix: (Units=GPa)
#
#
# Indices 1 2 3 4 5 6 
#
# 1 83.2799 33.8520 67.4272 0.0000 0.0000 0.0000
# 2 33.8520 48.8036 59.9968 0.0000 0.0000 0.0000
# 3 67.4272 59.9968 149.4708 0.0000 0.0000 0.0000
# 4 0.0000 0.0000 0.0000 20.1806 0.0000 0.0000
# 5 0.0000 0.0000 0.0000 0.0000 29.6719 0.0000
# 6 0.0000 0.0000 0.0000 0.0000 0.0000 21.6718
#
#
#
# Elastic Compliance Matrix: (Units=1/GPa)
#
#
# Indices 1 2 3 4 5 6 
#
# 1 0.019608 -0.005383 -0.006684 0.000000 0.000000 0.000000
# 2 -0.005383 0.041929 -0.014402 0.000000 0.000000 0.000000
# 3 -0.006684 -0.014402 0.015486 0.000000 0.000000 0.000000
# 4 0.000000 0.000000 0.000000 0.049552 0.000000 0.000000
# 5 0.000000 0.000000 0.000000 0.000000 0.033702 0.000000
# 6 0.000000 0.000000 0.000000 0.000000 0.000000 0.046143
#
#
# Mechanical properties :
#
#
# Convention : Reuss Voigt Hill
#
# Bulk Modulus (GPa) = 41.52020 67.12294 54.32157
# Shear Modulus (GPa) = 18.69942 22.32341 20.51142
#
# Velocity S-wave (km/s) = 3.27095 3.57389 3.42577
# Velocity P-wave (km/s) = 6.16619 7.44551 6.83584
#
# Compressibility (1/GPa) = 0.02408466
#
# Stress axis : x y z
#
# Youngs Moduli (GPa) = 50.99967 23.84974 64.57255
#
# Poissons Ratio (x) = 0.12839 0.43163
# Poissons Ratio (y) = 0.27455 0.92996
# Poissons Ratio (z) = 0.34091 0.34348
#
# Static dielectric constant tensor:
#      x y z
#    x 3.172180 0.000000 0.000000 
#    y 0.000000 3.031960 0.000000 
#    z 0.000000 0.000000 3.422420 
# 
# 
# High freq. dielectric constant tensor:
#      x y z
#    x 1.667290 0.000000 0.000000 
#    y 0.000000 1.644420 0.000000 
#    z 0.000000 0.000000 1.689560 
# 
# From -- ./inp_files/27195.got.cif
#   From: 2010.03.12/outbox.cif.g09.slc.cpg/sg44_14_cif.got.tgz:27195.got - 2010.04.14 02:36:11.
