data_PCOD8189034
_publ_section_title
;
Structure prediction by ZEFSAII (Michael W. Deem and Ramdas Pophale) SiO2 
 PCOD8189034
Probable space group: I M M 2
;
_chemical_formula_sum "Si O2"
_cell_formula_units_Z 64
_cell_length_a 30.843739
_cell_length_b 8.492993
_cell_length_c 11.889255
_cell_angle_alpha 90.000000
_cell_angle_beta 90.000000
_cell_angle_gamma 90.000000
_cell_volume 3114.457634
_symmetry_space_group_name_H-M "I M M 2"
_symmetry_group_IT_number 44
_symmetry_cell_setting 'orthorhombic'
loop_
_space_group_symop_operation_xyz
x,y,z
-x,-y,z
-x,y,z
x,-y,z
1/2+x,1/2+y,1/2+z
1/2-x,1/2-y,1/2+z
1/2-x,1/2+y,1/2+z
1/2+x,1/2-y,1/2+z
loop_
_atom_site_type_symbol
_atom_site_label
_atom_site_fract_x
_atom_site_fract_y
_atom_site_fract_z
Si Si1 0.210552 0.681429 0.098120
Si Si2 0.828297 0.817026 0.884892
Si Si3 0.869881 0.815169 0.493929
Si Si4 0.047715 0.319101 0.100677
Si Si5 0.199632 0.318622 0.655899
Si Si6 0.425543 0.685221 0.374750
Si Si7 0.627390 0.814830 0.747870
Si Si8 0.952207 0.812765 0.632849
O O1 0.223656 0.500000 0.114304
O O2 0.249989 0.792875 0.131148
O O3 0.169251 0.726751 0.173781
O O4 0.200497 0.712592 0.967791
O O5 0.813071 0.793816 0.758004
O O6 0.877071 0.753411 0.895683
O O7 0.824109 0.000000 0.917309
O O8 0.829196 0.725897 0.548131
O O9 0.869850 0.780838 0.362413
O O10 0.914917 0.751579 0.548308
O O11 0.864325 0.000000 0.515649
O O12 0.058605 0.500000 0.077237
O O13 0.084597 0.250859 0.183085
O O14 0.000000 0.297075 0.156296
O O15 0.045729 0.234086 0.980488
O O16 0.191962 0.500000 0.687219
O O17 0.425669 0.500000 0.362165
O O18 0.443772 0.756540 0.258052
O O19 0.624098 0.000000 0.773531
O O20 0.000000 0.754620 0.592564
O O21 0.951084 0.000000 0.636009
#
# Coordination Sequence:
#
# PCOD8189034 Si02
#       8
#     8   8   8   8   8   8   8   8
#     4  11  24  43  66  91 123 162 206 255 307 365
#     4  11  22  40  66  96 127 159 202 253 307 364
#     4  11  23  41  63  89 122 161 207 258 307 361
#     4  10  21  38  60  88 124 162 202 250 303 361
#     4  12  26  43  65  92 125 164 205 251 306 366
#     4  10  19  35  61  90 124 159 198 249 302 359
#     4  10  23  42  61  86 121 163 205 250 307 366
#     4   9  18  35  59  88 121 157 197 247 307 363
#
# _framework density 20.549323999999999
#
# number of rings (size 3 to 8) (size 9 to 14) (size 15 to 20)
#    0.000    1.500    2.500    2.625    1.750    3.250 
#    0.000    0.000    0.000    1.875    0.000    0.000 
#    0.000    0.000    0.000    0.000    0.000    0.000 
#
# Total GULP energy -396894.381614 kJ/mol
# GULP energy per Si atom -12402.949425 kJ/mol
# Density = 2.050255 g / cm^3
# Si number density = 20.549324 Si / 1000 Ang^3
#
#
#
# Elastic Constant Matrix: (Units=GPa)
#
#
# Indices 1 2 3 4 5 6 
#
# 1 141.9390 29.2632 42.8425 0.0000 0.0000 0.0000
# 2 29.2632 37.9966 12.0254 0.0000 0.0000 0.0000
# 3 42.8425 12.0254 112.1625 0.0000 0.0000 0.0000
# 4 0.0000 0.0000 0.0000 32.4976 0.0000 0.0000
# 5 0.0000 0.0000 0.0000 0.0000 25.9524 0.0000
# 6 0.0000 0.0000 0.0000 0.0000 0.0000 9.5071
#
#
#
# Elastic Compliance Matrix: (Units=1/GPa)
#
#
# Indices 1 2 3 4 5 6 
#
# 1 0.009175 -0.006166 -0.002843 0.000000 0.000000 0.000000
# 2 -0.006166 0.031387 -0.001010 0.000000 0.000000 0.000000
# 3 -0.002843 -0.001010 0.010110 0.000000 0.000000 0.000000
# 4 0.000000 0.000000 0.000000 0.030772 0.000000 0.000000
# 5 0.000000 0.000000 0.000000 0.000000 0.038532 0.000000
# 6 0.000000 0.000000 0.000000 0.000000 0.000000 0.105185
#
#
# Mechanical properties :
#
#
# Convention : Reuss Voigt Hill
#
# Bulk Modulus (GPa) = 32.64483 51.15114 41.89798
# Shear Modulus (GPa) = 19.57646 27.45590 23.51618
#
# Velocity S-wave (km/s) = 3.08986 3.65923 3.38653
# Velocity P-wave (km/s) = 5.35259 6.54211 5.97702
#
# Compressibility (1/GPa) = 0.03063272
#
# Stress axis : x y z
#
# Youngs Moduli (GPa) = 108.99471 31.86079 98.91208
#
# Poissons Ratio (x) = 0.19646 0.28124
# Poissons Ratio (y) = 0.67207 0.09989
# Poissons Ratio (z) = 0.30991 0.03217
#
# Static dielectric constant tensor:
#      x y z
#    x 4.108780 0.000000 0.000000 
#    y 0.000000 3.428030 0.000000 
#    z 0.000000 0.000000 3.641890 
# 
# 
# High freq. dielectric constant tensor:
#      x y z
#    x 1.819600 0.000000 0.000000 
#    y 0.000000 1.784710 0.000000 
#    z 0.000000 0.000000 1.803020 
# 
# From -- ./inp_files/15073.got.cif
#   From: 2010.03.12/outbox.cif.g09.slc.cpg/sg44_8_cif.got.tgz:15073.got - 2010.04.14 02:36:11.
