data_PCOD8189398
_publ_section_title
;
Structure prediction by ZEFSAII (Michael W. Deem and Ramdas Pophale) SiO2 
 PCOD8189398
Probable space group: I M M 2
;
_chemical_formula_sum "Si O2"
_cell_formula_units_Z 56
_cell_length_a 14.278396
_cell_length_b 9.009579
_cell_length_c 22.564022
_cell_angle_alpha 90.000000
_cell_angle_beta 90.000000
_cell_angle_gamma 90.000000
_cell_volume 2902.688517
_symmetry_space_group_name_H-M "I M M 2"
_symmetry_group_IT_number 44
_symmetry_cell_setting 'orthorhombic'
loop_
_space_group_symop_operation_xyz
x,y,z
-x,-y,z
-x,y,z
x,-y,z
1/2+x,1/2+y,1/2+z
1/2-x,1/2-y,1/2+z
1/2-x,1/2+y,1/2+z
1/2+x,1/2-y,1/2+z
loop_
_atom_site_type_symbol
_atom_site_label
_atom_site_fract_x
_atom_site_fract_y
_atom_site_fract_z
Si Si1 0.707425 0.670689 0.375000
Si Si2 0.603631 0.830805 0.926837
Si Si3 0.109580 0.825636 0.757875
Si Si4 0.785303 0.324313 0.650797
Si Si5 0.892312 0.170864 0.548051
Si Si6 0.107328 0.669106 0.979221
Si Si7 0.106001 0.674496 0.114823
O O1 0.679422 0.500000 0.374753
O O2 0.819948 0.696638 0.375048
O O3 0.661212 0.740532 0.316266
O O4 0.669483 0.734414 0.436037
O O5 0.500000 0.801377 0.900070
O O6 0.611516 0.000000 0.950457
O O7 0.623223 0.719777 0.980665
O O8 0.150539 0.739470 0.702442
O O9 0.000000 0.791472 0.763736
O O10 0.128771 0.000000 0.748940
O O11 0.784397 0.500000 0.654644
O O12 0.827972 0.272439 0.588692
O O13 0.678933 0.263497 0.655942
O O14 0.000000 0.191551 0.567225
O O15 0.861058 0.000000 0.554561
O O16 0.139383 0.500000 0.972643
O O17 0.000000 0.688412 0.960562
O O18 0.122496 0.721779 0.046617
O O19 0.122683 0.500000 0.122841
O O20 0.000000 0.715968 0.134006
#
# Coordination Sequence:
#
# PCOD8189398 Si02
#       7
#     8   8   8   8   8   8   8
#     4  10  20  34  54  79 106 140 181 222 264 310
#     4   9  18  33  53  80 113 142 171 214 267 321
#     4  10  22  40  58  76 103 140 182 226 269 320
#     4  12  24  36  54  80 109 141 179 226 276 322
#     4  10  20  34  54  80 110 145 183 222 267 322
#     4   9  18  32  52  80 111 140 171 211 261 316
#     4   9  19  37  59  82 110 145 182 217 258 316
#
# _framework density 19.292459999999998
#
# number of rings (size 3 to 8) (size 9 to 14) (size 15 to 20)
#    0.000    2.143    0.000    4.286    0.000    8.000 
#    0.000    2.143    0.000    2.571    0.000    0.000 
#    0.000    0.000    0.000    0.000    0.000    0.000 
#
# Total GULP energy -347199.632459 kJ/mol
# GULP energy per Si atom -12399.986874 kJ/mol
# Density = 1.924855 g / cm^3
# Si number density = 19.292460 Si / 1000 Ang^3
#
#
#
# Elastic Constant Matrix: (Units=GPa)
#
#
# Indices 1 2 3 4 5 6 
#
# 1 135.1795 53.6363 61.2494 0.0000 0.0000 0.0000
# 2 53.6363 73.5901 32.8667 0.0000 0.0000 0.0000
# 3 61.2494 32.8667 59.5507 0.0000 0.0000 0.0000
# 4 0.0000 0.0000 0.0000 22.5979 0.0000 0.0000
# 5 0.0000 0.0000 0.0000 0.0000 34.5860 0.0000
# 6 0.0000 0.0000 0.0000 0.0000 0.0000 25.3010
#
#
#
# Elastic Compliance Matrix: (Units=1/GPa)
#
#
# Indices 1 2 3 4 5 6 
#
# 1 0.015363 -0.005495 -0.012769 0.000000 0.000000 0.000000
# 2 -0.005495 0.019999 -0.005386 0.000000 0.000000 0.000000
# 3 -0.012769 -0.005386 0.032898 0.000000 0.000000 0.000000
# 4 0.000000 0.000000 0.000000 0.044252 0.000000 0.000000
# 5 0.000000 0.000000 0.000000 0.000000 0.028913 0.000000
# 6 0.000000 0.000000 0.000000 0.000000 0.000000 0.039524
#
#
# Mechanical properties :
#
#
# Convention : Reuss Voigt Hill
#
# Bulk Modulus (GPa) = 47.70785 62.64725 55.17755
# Shear Modulus (GPa) = 21.25509 24.53483 22.89496
#
# Velocity S-wave (km/s) = 3.32283 3.57000 3.44863
# Velocity P-wave (km/s) = 6.28523 7.03819 6.67234
#
# Compressibility (1/GPa) = 0.02096091
#
# Stress axis : x y z
#
# Youngs Moduli (GPa) = 65.08992 50.00181 30.39658
#
# Poissons Ratio (x) = 0.27475 0.38813
# Poissons Ratio (y) = 0.35765 0.16373
# Poissons Ratio (z) = 0.83113 0.26933
#
# Static dielectric constant tensor:
#      x y z
#    x 3.907330 0.000000 0.000000 
#    y 0.000000 3.420160 0.000000 
#    z 0.000000 0.000000 3.358840 
# 
# 
# High freq. dielectric constant tensor:
#      x y z
#    x 1.771960 0.000000 0.000000 
#    y 0.000000 1.740110 0.000000 
#    z 0.000000 0.000000 1.725600 
# 
# From -- ./inp_files/23026.got.cif
#   From: 2010.03.12/outbox.cif.g09.slc.cpg/sg44_12_cif.got.tgz:23026.got - 2010.04.14 02:36:11.
