data_PCOD8189516
_publ_section_title
;
Structure prediction by ZEFSAII (Michael W. Deem and Ramdas Pophale) SiO2 
 PCOD8189516
Probable space group: I M M 2
;
_chemical_formula_sum "Si O2"
_cell_formula_units_Z 40
_cell_length_a 17.425386
_cell_length_b 23.902525
_cell_length_c 5.172442
_cell_angle_alpha 90.000000
_cell_angle_beta 90.000000
_cell_angle_gamma 90.000000
_cell_volume 2154.377565
_symmetry_space_group_name_H-M "I M M 2"
_symmetry_group_IT_number 44
_symmetry_cell_setting 'orthorhombic'
loop_
_space_group_symop_operation_xyz
x,y,z
-x,-y,z
-x,y,z
x,-y,z
1/2+x,1/2+y,1/2+z
1/2-x,1/2-y,1/2+z
1/2-x,1/2+y,1/2+z
1/2+x,1/2-y,1/2+z
loop_
_atom_site_type_symbol
_atom_site_label
_atom_site_fract_x
_atom_site_fract_y
_atom_site_fract_z
Si Si1 0.415183 0.565314 0.716800
Si Si2 0.655573 0.741638 0.874206
Si Si3 0.413196 0.217827 0.387414
Si Si4 0.725469 0.836238 0.592372
Si Si5 0.678659 0.434915 0.227653
O O1 0.500000 0.593127 0.705021
O O2 0.423921 0.500000 0.666246
O O3 0.360917 0.588144 0.488283
O O4 0.379823 0.577115 0.995868
O O5 0.599715 0.752947 0.113887
O O6 0.703542 0.685118 0.916460
O O7 0.603366 0.736616 0.615545
O O8 0.716330 0.793295 0.835974
O O9 0.500000 0.195393 0.403861
O O10 0.354578 0.165230 0.429348
O O11 0.743491 0.899052 0.686204
O O12 0.702659 0.500000 0.243105
#
# Coordination Sequence:
#
# PCOD8189516 Si02
#       5
#     8   8   8   8   8
#     4   9  18  34  51  72 106 146 182 217 259 305
#     4  10  20  35  55  78 102 145 169 220 268 317
#     4  10  20  35  55  80 106 137 176 219 273 323
#     4  10  21  36  58  78 111 139 178 221 271 317
#     4  10  21  33  55  80 106 145 184 218 260 321
#
# _framework density 18.566848
#
# number of rings (size 3 to 8) (size 9 to 14) (size 15 to 20)
#    1.200    1.000    2.000    1.200    2.800    2.400 
#    0.000    6.000    0.000    0.600    0.000    0.000 
#    0.000    0.000    0.000    0.000    0.000    0.000 
#
# Total GULP energy -247818.245630 kJ/mol
# GULP energy per Si atom -12390.912281 kJ/mol
# Density = 1.852459 g / cm^3
# Si number density = 18.566848 Si / 1000 Ang^3
#
#
#
# Elastic Constant Matrix: (Units=GPa)
#
#
# Indices 1 2 3 4 5 6 
#
# 1 71.1666 17.7831 -8.3601 0.0000 0.0000 0.0000
# 2 17.7831 59.6309 0.9111 0.0000 0.0000 0.0000
# 3 -8.3601 0.9111 88.7162 0.0000 0.0000 0.0000
# 4 0.0000 0.0000 0.0000 12.5838 0.0000 0.0000
# 5 0.0000 0.0000 0.0000 0.0000 20.5167 0.0000
# 6 0.0000 0.0000 0.0000 0.0000 0.0000 15.5118
#
#
#
# Elastic Compliance Matrix: (Units=1/GPa)
#
#
# Indices 1 2 3 4 5 6 
#
# 1 0.015379 -0.004609 0.001497 0.000000 0.000000 0.000000
# 2 -0.004609 0.018154 -0.000621 0.000000 0.000000 0.000000
# 3 0.001497 -0.000621 0.011419 0.000000 0.000000 0.000000
# 4 0.000000 0.000000 0.000000 0.079467 0.000000 0.000000
# 5 0.000000 0.000000 0.000000 0.000000 0.048741 0.000000
# 6 0.000000 0.000000 0.000000 0.000000 0.000000 0.064467
#
#
# Mechanical properties :
#
#
# Convention : Reuss Voigt Hill
#
# Bulk Modulus (GPa) = 26.67702 26.68686 26.68194
# Shear Modulus (GPa) = 19.41075 23.66778 21.53926
#
# Velocity S-wave (km/s) = 3.23685 3.57421 3.40971
# Velocity P-wave (km/s) = 5.32625 5.60695 5.46840
#
# Compressibility (1/GPa) = 0.03748544
#
# Stress axis : x y z
#
# Youngs Moduli (GPa) = 65.02334 55.08472 87.57105
#
# Poissons Ratio (x) = 0.25390 -0.13106
# Poissons Ratio (y) = 0.29971 0.05436
# Poissons Ratio (z) = -0.09731 0.03420
#
# Static dielectric constant tensor:
#      x y z
#    x 3.292140 0.000000 0.000000 
#    y 0.000000 3.058050 0.000000 
#    z 0.000000 0.000000 3.514540 
# 
# 
# High freq. dielectric constant tensor:
#      x y z
#    x 1.706020 0.000000 0.000000 
#    y 0.000000 1.674020 0.000000 
#    z 0.000000 0.000000 1.738520 
# 
# From -- ./inp_files/2060.got.cif
#   From: 2010.03.12/outbox.cif.g09.slc.cpg/sg44_2_cif.got.tgz:2060.got - 2010.04.14 02:36:11.
