data_PCOD8189246
_publ_section_title
;
Structure prediction by ZEFSAII (Michael W. Deem and Ramdas Pophale) SiO2 
 PCOD8189246
Probable space group: I M M 2
;
_chemical_formula_sum "Si O2"
_cell_formula_units_Z 64
_cell_length_a 9.176705
_cell_length_b 9.591189
_cell_length_c 41.198475
_cell_angle_alpha 90.000000
_cell_angle_beta 90.000000
_cell_angle_gamma 90.000000
_cell_volume 3626.104873
_symmetry_space_group_name_H-M "I M M 2"
_symmetry_group_IT_number 44
_symmetry_cell_setting 'orthorhombic'
loop_
_space_group_symop_operation_xyz
x,y,z
-x,-y,z
-x,y,z
x,-y,z
1/2+x,1/2+y,1/2+z
1/2-x,1/2-y,1/2+z
1/2-x,1/2+y,1/2+z
1/2+x,1/2-y,1/2+z
loop_
_atom_site_type_symbol
_atom_site_label
_atom_site_fract_x
_atom_site_fract_y
_atom_site_fract_z
Si Si1 0.827164 0.653839 0.591750
Si Si2 0.164512 0.665822 0.969827
Si Si3 0.829326 0.838495 0.533051
Si Si4 0.835702 0.834349 0.781411
Si Si5 0.669738 0.161434 0.844757
Si Si6 0.169861 0.838817 0.406441
Si Si7 0.329448 0.162218 0.717724
Si Si8 0.832070 0.663746 0.664483
O O1 0.763309 0.500000 0.584475
O O2 0.767176 0.760143 0.564778
O O3 0.782337 0.702106 0.627862
O O4 0.000000 0.647626 0.590278
O O5 0.169951 0.500000 0.970111
O O6 0.244062 0.720289 0.937508
O O7 0.000000 0.722593 0.970122
O O8 0.247618 0.722607 0.001560
O O9 0.000000 0.812269 0.527827
O O10 0.794052 0.000000 0.538361
O O11 0.757219 0.779642 0.813860
O O12 0.749653 0.780024 0.749944
O O13 0.000000 0.775819 0.780329
O O14 0.833491 0.000000 0.781678
O O15 0.500000 0.183643 0.837437
O O16 0.721399 0.249806 0.875649
O O17 0.705386 0.000000 0.851634
O O18 0.000000 0.817862 0.413639
O O19 0.207031 0.000000 0.399551
O O20 0.500000 0.187696 0.722148
O O21 0.272275 0.248547 0.687384
O O22 0.293717 0.000000 0.711894
O O23 0.810999 0.500000 0.670954
O O24 0.000000 0.706456 0.670510
#
# Coordination Sequence:
#
# PCOD8189246 Si02
#       8
#     8   8   8   8   8   8   8   8
#     4   8  15  29  48  69  93 121 152 187 229 277
#     4   9  17  29  45  65  90 120 151 185 228 272
#     4   9  16  27  46  70  91 114 150 191 226 266
#     4   9  17  30  49  71  94 123 158 194 234 279
#     4   9  17  30  48  69  93 120 150 186 229 276
#     4   9  17  30  48  68  90 118 152 187 223 268
#     4  10  20  33  50  73  99 127 162 202 241 283
#     4   9  18  33  52  73  98 128 161 197 240 290
#
# _framework density 17.649794
#
# number of rings (size 3 to 8) (size 9 to 14) (size 15 to 20)
#    0.000    3.000    0.000    1.875    0.000    5.000 
#    0.000    3.125    0.000    8.625    0.000    0.000 
#    0.000    0.000    0.000    0.000    0.000    0.000 
#
# Total GULP energy -396765.550409 kJ/mol
# GULP energy per Si atom -12398.923450 kJ/mol
# Density = 1.760962 g / cm^3
# Si number density = 17.649794 Si / 1000 Ang^3
#
#
#
# Elastic Constant Matrix: (Units=GPa)
#
#
# Indices 1 2 3 4 5 6 
#
# 1 82.7640 34.3651 74.5946 0.0000 0.0000 0.0000
# 2 34.3651 48.2384 62.6227 0.0000 0.0000 0.0000
# 3 74.5946 62.6227 186.4563 0.0000 0.0000 0.0000
# 4 0.0000 0.0000 0.0000 30.3310 0.0000 0.0000
# 5 0.0000 0.0000 0.0000 0.0000 30.3874 0.0000
# 6 0.0000 0.0000 0.0000 0.0000 0.0000 16.8061
#
#
#
# Elastic Compliance Matrix: (Units=1/GPa)
#
#
# Indices 1 2 3 4 5 6 
#
# 1 0.020107 -0.006882 -0.005733 0.000000 0.000000 0.000000
# 2 -0.006882 0.039112 -0.010383 0.000000 0.000000 0.000000
# 3 -0.005733 -0.010383 0.011144 0.000000 0.000000 0.000000
# 4 0.000000 0.000000 0.000000 0.032970 0.000000 0.000000
# 5 0.000000 0.000000 0.000000 0.000000 0.032908 0.000000
# 6 0.000000 0.000000 0.000000 0.000000 0.000000 0.059502
#
#
# Mechanical properties :
#
#
# Convention : Reuss Voigt Hill
#
# Bulk Modulus (GPa) = 41.03811 73.40263 57.22037
# Shear Modulus (GPa) = 20.01117 25.22999 22.62058
#
# Velocity S-wave (km/s) = 3.37083 3.78495 3.58388
# Velocity P-wave (km/s) = 6.20095 7.79614 7.04385
#
# Compressibility (1/GPa) = 0.02436760
#
# Stress axis : x y z
#
# Youngs Moduli (GPa) = 49.73408 25.56763 89.73647
#
# Poissons Ratio (x) = 0.17596 0.51443
# Poissons Ratio (y) = 0.34228 0.93171
# Poissons Ratio (z) = 0.28511 0.26546
#
# Static dielectric constant tensor:
#      x y z
#    x 3.191470 0.000000 0.000000 
#    y 0.000000 3.061370 0.000000 
#    z 0.000000 0.000000 3.517330 
# 
# 
# High freq. dielectric constant tensor:
#      x y z
#    x 1.670380 0.000000 0.000000 
#    y 0.000000 1.649440 0.000000 
#    z 0.000000 0.000000 1.696940 
# 
# From -- ./inp_files/27193.got.cif
#   From: 2010.03.12/outbox.cif.g09.slc.cpg/sg44_14_cif.got.tgz:27193.got - 2010.04.14 02:36:11.
