data_PCOD8189366
_publ_section_title
;
Structure prediction by ZEFSAII (Michael W. Deem and Ramdas Pophale) SiO2 
 PCOD8189366
Probable space group: I M M 2
;
_chemical_formula_sum "Si O2"
_cell_formula_units_Z 64
_cell_length_a 19.694296
_cell_length_b 9.057037
_cell_length_c 20.078323
_cell_angle_alpha 90.000000
_cell_angle_beta 90.000000
_cell_angle_gamma 90.000000
_cell_volume 3581.409979
_symmetry_space_group_name_H-M "I M M 2"
_symmetry_group_IT_number 44
_symmetry_cell_setting 'orthorhombic'
loop_
_space_group_symop_operation_xyz
x,y,z
-x,-y,z
-x,y,z
x,-y,z
1/2+x,1/2+y,1/2+z
1/2-x,1/2-y,1/2+z
1/2-x,1/2+y,1/2+z
1/2+x,1/2-y,1/2+z
loop_
_atom_site_type_symbol
_atom_site_label
_atom_site_fract_x
_atom_site_fract_y
_atom_site_fract_z
Si Si1 0.077774 0.327074 0.761730
Si Si2 0.577507 0.327290 0.396312
Si Si3 0.177090 0.672396 0.147360
Si Si4 0.678112 0.327634 0.003786
Si Si5 0.182378 0.825279 0.009496
Si Si6 0.920325 0.668635 0.407185
Si Si7 0.925027 0.324666 0.258155
Si Si8 0.832036 0.168508 0.656091
O O1 0.086593 0.500000 0.770103
O O2 0.103606 0.252655 0.829720
O O3 0.122203 0.275212 0.699738
O O4 0.000000 0.282199 0.747574
O O5 0.500000 0.281857 0.413145
O O6 0.583967 0.500000 0.382910
O O7 0.624516 0.277433 0.457395
O O8 0.164445 0.500000 0.132692
O O9 0.128059 0.737054 0.204483
O O10 0.253373 0.698189 0.172802
O O11 0.160722 0.760671 0.080522
O O12 0.693358 0.500000 0.994833
O O13 0.746286 0.240431 0.984872
O O14 0.617555 0.277646 0.956680
O O15 0.655069 0.293217 0.078991
O O16 0.189256 0.000000 0.015142
O O17 0.896253 0.500000 0.418491
O O18 0.902890 0.722607 0.332386
O O19 0.000000 0.682012 0.420798
O O20 0.927182 0.500000 0.255774
O O21 0.000000 0.261638 0.241471
O O22 0.851918 0.000000 0.671974
#
# Coordination Sequence:
#
# PCOD8189366 Si02
#       8
#     8   8   8   8   8   8   8   8
#     4  10  21  35  52  76 102 127 162 210 255 295
#     4   9  19  36  55  74 100 135 170 203 246 305
#     4   9  18  33  52  75 103 133 168 208 247 292
#     4  10  21  36  53  75 103 134 171 212 253 300
#     4  10  20  34  53  76 102 133 169 208 252 301
#     4   9  18  33  53  77 105 137 173 211 250 296
#     4   8  15  30  52  76 102 134 170 204 242 294
#     4   9  19  34  50  70  99 134 167 202 247 300
#
# _framework density 17.870056999999999
#
# number of rings (size 3 to 8) (size 9 to 14) (size 15 to 20)
#    0.000    2.750    0.000    2.625    0.000    6.500 
#    0.000    5.625    0.000    0.750    0.000    0.000 
#    0.000    0.000    0.000    0.000    0.000    0.000 
#
# Total GULP energy -396827.894187 kJ/mol
# GULP energy per Si atom -12400.871693 kJ/mol
# Density = 1.782938 g / cm^3
# Si number density = 17.870057 Si / 1000 Ang^3
#
#
#
# Elastic Constant Matrix: (Units=GPa)
#
#
# Indices 1 2 3 4 5 6 
#
# 1 91.8149 41.0069 82.3280 0.0000 0.0000 0.0000
# 2 41.0069 58.8460 50.4656 0.0000 0.0000 0.0000
# 3 82.3280 50.4656 125.1809 0.0000 0.0000 0.0000
# 4 0.0000 0.0000 0.0000 32.1810 0.0000 0.0000
# 5 0.0000 0.0000 0.0000 0.0000 37.2547 0.0000
# 6 0.0000 0.0000 0.0000 0.0000 0.0000 25.1199
#
#
#
# Elastic Compliance Matrix: (Units=1/GPa)
#
#
# Indices 1 2 3 4 5 6 
#
# 1 0.027714 -0.005627 -0.015958 0.000000 0.000000 0.000000
# 2 -0.005627 0.027116 -0.007231 0.000000 0.000000 0.000000
# 3 -0.015958 -0.007231 0.021399 0.000000 0.000000 0.000000
# 4 0.000000 0.000000 0.000000 0.031074 0.000000 0.000000
# 5 0.000000 0.000000 0.000000 0.000000 0.026842 0.000000
# 6 0.000000 0.000000 0.000000 0.000000 0.000000 0.039809
#
#
# Mechanical properties :
#
#
# Convention : Reuss Voigt Hill
#
# Bulk Modulus (GPa) = 53.77359 69.27144 61.52252
# Shear Modulus (GPa) = 21.02743 25.71387 23.37065
#
# Velocity S-wave (km/s) = 3.43401 3.79745 3.62029
# Velocity P-wave (km/s) = 6.77348 7.62073 7.20956
#
# Compressibility (1/GPa) = 0.01859649
#
# Stress axis : x y z
#
# Youngs Moduli (GPa) = 36.08290 36.87912 46.73158
#
# Poissons Ratio (x) = 0.20751 0.74576
# Poissons Ratio (y) = 0.20303 0.33791
# Poissons Ratio (z) = 0.57582 0.26667
#
# Static dielectric constant tensor:
#      x y z
#    x 3.424760 0.000000 0.000000 
#    y 0.000000 3.157590 0.000000 
#    z 0.000000 0.000000 3.394430 
# 
# 
# High freq. dielectric constant tensor:
#      x y z
#    x 1.692230 0.000000 0.000000 
#    y 0.000000 1.680340 0.000000 
#    z 0.000000 0.000000 1.695900 
# 
# From -- ./inp_files/24374.got.cif
#   From: 2010.03.12/outbox.cif.g09.slc.cpg/sg44_13_cif.got.tgz:24374.got - 2010.04.14 02:36:11.
