data_PCOD8189571
_publ_section_title
;
Structure prediction by ZEFSAII (Michael W. Deem and Ramdas Pophale) SiO2 
 PCOD8189571
Probable space group: I M M 2
;
_chemical_formula_sum "Si O2"
_cell_formula_units_Z 64
_cell_length_a 28.687258
_cell_length_b 8.818876
_cell_length_c 12.638199
_cell_angle_alpha 90.000000
_cell_angle_beta 90.000000
_cell_angle_gamma 90.000000
_cell_volume 3197.330017
_symmetry_space_group_name_H-M "I M M 2"
_symmetry_group_IT_number 44
_symmetry_cell_setting 'orthorhombic'
loop_
_space_group_symop_operation_xyz
x,y,z
-x,-y,z
-x,y,z
x,-y,z
1/2+x,1/2+y,1/2+z
1/2-x,1/2-y,1/2+z
1/2-x,1/2+y,1/2+z
1/2+x,1/2-y,1/2+z
loop_
_atom_site_type_symbol
_atom_site_label
_atom_site_fract_x
_atom_site_fract_y
_atom_site_fract_z
Si Si1 0.448619 0.172762 0.909020
Si Si2 0.391434 0.677833 0.084205
Si Si3 0.799707 0.822491 0.476164
Si Si4 0.554054 0.179206 0.277818
Si Si5 0.299647 0.179512 0.539152
Si Si6 0.396969 0.678459 0.480190
Si Si7 0.820123 0.334503 0.266029
Si Si8 0.576155 0.166891 0.684403
O O1 0.500000 0.177062 0.959402
O O2 0.452723 0.225460 0.786044
O O3 0.428471 0.000000 0.914765
O O4 0.416905 0.288133 0.973574
O O5 0.395126 0.500000 0.109994
O O6 0.415383 0.771943 0.177081
O O7 0.337550 0.730534 0.064938
O O8 0.747936 0.753586 0.489091
O O9 0.816893 0.785568 0.358932
O O10 0.795489 0.000000 0.487593
O O11 0.500000 0.230478 0.264447
O O12 0.576175 0.254340 0.380575
O O13 0.557410 0.000000 0.289153
O O14 0.344153 0.259918 0.486374
O O15 0.291495 0.218339 0.662989
O O16 0.306772 0.000000 0.522175
O O17 0.394725 0.500000 0.467839
O O18 0.426960 0.720551 0.584720
O O19 0.803128 0.500000 0.306670
O O20 0.871882 0.346604 0.224652
O O21 0.558407 0.000000 0.647828
#
# Coordination Sequence:
#
# PCOD8189571 Si02
#       8
#     8   8   8   8   8   8   8   8
#     4  10  20  35  57  84 114 152 198 240 284 350
#     4  11  23  38  58  88 125 158 196 254 312 359
#     4  10  21  36  57  85 119 157 200 249 305 364
#     4  11  25  45  67  88 117 164 215 257 304 373
#     4   9  20  39  58  82 118 161 204 247 298 362
#     4  11  23  39  62  91 122 153 195 252 312 366
#     4   9  17  32  55  78 108 149 192 241 295 350
#     4   9  18  35  57  82 114 153 194 237 289 352
#
# _framework density 20.016701999999999
#
# number of rings (size 3 to 8) (size 9 to 14) (size 15 to 20)
#    0.000    2.000    1.250    3.000    0.000    7.750 
#    0.000    2.500    0.000    0.000    0.000    0.000 
#    0.000    0.000    0.000    0.000    0.000    0.000 
#
# Total GULP energy -396595.076597 kJ/mol
# GULP energy per Si atom -12393.596144 kJ/mol
# Density = 1.997114 g / cm^3
# Si number density = 20.016702 Si / 1000 Ang^3
#
#
#
# Elastic Constant Matrix: (Units=GPa)
#
#
# Indices 1 2 3 4 5 6 
#
# 1 83.1369 42.4370 54.0393 0.0000 0.0000 0.0000
# 2 42.4370 73.7088 40.3309 0.0000 0.0000 0.0000
# 3 54.0393 40.3309 109.6811 0.0000 0.0000 0.0000
# 4 0.0000 0.0000 0.0000 28.0249 0.0000 0.0000
# 5 0.0000 0.0000 0.0000 0.0000 4.8290 0.0000
# 6 0.0000 0.0000 0.0000 0.0000 0.0000 23.0399
#
#
#
# Elastic Compliance Matrix: (Units=1/GPa)
#
#
# Indices 1 2 3 4 5 6 
#
# 1 0.020893 -0.008008 -0.007349 0.000000 0.000000 0.000000
# 2 -0.008008 0.020053 -0.003428 0.000000 0.000000 0.000000
# 3 -0.007349 -0.003428 0.013999 0.000000 0.000000 0.000000
# 4 0.000000 0.000000 0.000000 0.035683 0.000000 0.000000
# 5 0.000000 0.000000 0.000000 0.000000 0.207084 0.000000
# 6 0.000000 0.000000 0.000000 0.000000 0.000000 0.043403
#
#
# Mechanical properties :
#
#
# Convention : Reuss Voigt Hill
#
# Bulk Modulus (GPa) = 57.55635 60.01569 58.78602
# Shear Modulus (GPa) = 13.00469 19.82671 16.41570
#
# Velocity S-wave (km/s) = 2.55167 3.15065 2.86685
# Velocity P-wave (km/s) = 6.12356 6.57901 6.35536
#
# Compressibility (1/GPa) = 0.01737428
#
# Stress axis : x y z
#
# Youngs Moduli (GPa) = 47.86311 49.86765 71.43359
#
# Poissons Ratio (x) = 0.39932 0.52499
# Poissons Ratio (y) = 0.38327 0.24491
# Poissons Ratio (z) = 0.35176 0.17097
#
# Static dielectric constant tensor:
#      x y z
#    x 4.160120 0.000000 0.000000 
#    y 0.000000 3.525200 0.000000 
#    z 0.000000 0.000000 4.057250 
# 
# 
# High freq. dielectric constant tensor:
#      x y z
#    x 1.786240 0.000000 0.000000 
#    y 0.000000 1.766510 0.000000 
#    z 0.000000 0.000000 1.783150 
# 
# From -- ./inp_files/15114.got.cif
#   From: 2010.03.12/outbox.cif.g09.slc.cpg/sg44_8_cif.got.tgz:15114.got - 2010.04.14 02:36:11.
