data_PCOD8189641
_publ_section_title
;
Structure prediction by ZEFSAII (Michael W. Deem and Ramdas Pophale) SiO2 
 PCOD8189641
Probable space group: I M M 2
;
_chemical_formula_sum "Si O2"
_cell_formula_units_Z 56
_cell_length_a 9.206592
_cell_length_b 16.535725
_cell_length_c 18.162254
_cell_angle_alpha 90.000000
_cell_angle_beta 90.000000
_cell_angle_gamma 90.000000
_cell_volume 2764.979294
_symmetry_space_group_name_H-M "I M M 2"
_symmetry_group_IT_number 44
_symmetry_cell_setting 'orthorhombic'
loop_
_space_group_symop_operation_xyz
x,y,z
-x,-y,z
-x,y,z
x,-y,z
1/2+x,1/2+y,1/2+z
1/2-x,1/2-y,1/2+z
1/2-x,1/2+y,1/2+z
1/2+x,1/2-y,1/2+z
loop_
_atom_site_type_symbol
_atom_site_label
_atom_site_fract_x
_atom_site_fract_y
_atom_site_fract_z
Si Si1 0.335670 0.000000 0.566110
Si Si2 0.330995 0.634889 0.323836
Si Si3 0.668196 0.657660 0.021748
Si Si4 0.833994 0.500000 0.239741
Si Si5 0.332957 0.291996 0.859517
Si Si6 0.667884 0.184404 0.105101
Si Si7 0.167812 0.091665 0.231028
Si Si8 0.839318 0.908323 0.988770
O O1 0.260735 0.921260 0.534095
O O2 0.326528 0.000000 0.652893
O O3 0.500000 0.000000 0.537910
O O4 0.500000 0.637929 0.301992
O O5 0.247180 0.580649 0.265237
O O6 0.267757 0.724934 0.321782
O O7 0.304996 0.594531 0.402727
O O8 0.500000 0.633140 0.017764
O O9 0.716939 0.695529 0.943569
O O10 0.696215 0.720733 0.088649
O O11 0.000000 0.500000 0.268365
O O12 0.500000 0.263058 0.856052
O O13 0.311467 0.375043 0.813792
O O14 0.500000 0.166715 0.119111
O O15 0.754421 0.152832 0.175310
O O16 0.715414 0.138678 0.031478
O O17 0.000000 0.090785 0.208220
O O18 0.230794 0.000000 0.227091
O O19 0.000000 0.871307 0.004404
O O20 0.835734 0.000000 0.016410
#
# Coordination Sequence:
#
# PCOD8189641 Si02
#       8
#     4   8   8   4   8   8   8   8
#     4  11  27  45  65  93 124 165 216 263 315 370
#     4  11  22  38  61  93 128 164 207 256 314 371
#     4  10  23  43  67  93 124 163 210 260 315 374
#     4  11  25  43  63  91 130 171 214 259 311 382
#     4  10  22  42  67  93 123 164 212 259 313 376
#     4  11  23  39  61  93 127 161 204 255 311 368
#     4  10  23  42  65  91 122 165 209 252 306 371
#     4  10  20  36  57  85 123 165 206 249 304 369
#
# _framework density 20.253316999999999
#
# number of rings (size 3 to 8) (size 9 to 14) (size 15 to 20)
#    0.000    1.571    2.143    1.714    3.000    6.286 
#    0.000    0.000    0.000    0.000    0.000    0.000 
#    0.000    0.000    0.000    0.000    0.000    0.000 
#
# Total GULP energy -347284.671468 kJ/mol
# GULP energy per Si atom -12403.023981 kJ/mol
# Density = 2.020722 g / cm^3
# Si number density = 20.253317 Si / 1000 Ang^3
#
#
#
# Elastic Constant Matrix: (Units=GPa)
#
#
# Indices 1 2 3 4 5 6 
#
# 1 100.0505 66.0469 41.9799 0.0000 0.0000 0.0000
# 2 66.0469 130.4149 40.0287 0.0000 0.0000 0.0000
# 3 41.9799 40.0287 72.0424 0.0000 0.0000 0.0000
# 4 0.0000 0.0000 0.0000 32.3255 0.0000 0.0000
# 5 0.0000 0.0000 0.0000 0.0000 33.4308 0.0000
# 6 0.0000 0.0000 0.0000 0.0000 0.0000 36.6246
#
#
#
# Elastic Compliance Matrix: (Units=1/GPa)
#
#
# Indices 1 2 3 4 5 6 
#
# 1 0.017031 -0.006726 -0.006187 0.000000 0.000000 0.000000
# 2 -0.006726 0.011901 -0.002693 0.000000 0.000000 0.000000
# 3 -0.006187 -0.002693 0.018982 0.000000 0.000000 0.000000
# 4 0.000000 0.000000 0.000000 0.030935 0.000000 0.000000
# 5 0.000000 0.000000 0.000000 0.000000 0.029913 0.000000
# 6 0.000000 0.000000 0.000000 0.000000 0.000000 0.027304
#
#
# Mechanical properties :
#
#
# Convention : Reuss Voigt Hill
#
# Bulk Modulus (GPa) = 59.87355 66.51319 63.19337
# Shear Modulus (GPa) = 28.92753 30.77299 29.85026
#
# Velocity S-wave (km/s) = 3.78337 3.90218 3.84323
# Velocity P-wave (km/s) = 6.97938 7.29484 7.13885
#
# Compressibility (1/GPa) = 0.01670187
#
# Stress axis : x y z
#
# Youngs Moduli (GPa) = 58.71597 84.02798 52.68086
#
# Poissons Ratio (x) = 0.56519 0.32594
# Poissons Ratio (y) = 0.39494 0.14187
# Poissons Ratio (z) = 0.36327 0.22628
#
# Static dielectric constant tensor:
#      x y z
#    x 3.739250 0.000000 0.000000 
#    y 0.000000 3.711890 0.000000 
#    z 0.000000 0.000000 3.630870 
# 
# 
# High freq. dielectric constant tensor:
#      x y z
#    x 1.790700 0.000000 0.000000 
#    y 0.000000 1.796800 0.000000 
#    z 0.000000 0.000000 1.793810 
# 
# From -- ./inp_files/23146.got.cif
#   From: 2010.03.12/outbox.cif.g09.slc.cpg/sg44_12_cif.got.tgz:23146.got - 2010.04.14 02:36:11.
