data_PCOD8189083
_publ_section_title
;
Structure prediction by ZEFSAII (Michael W. Deem and Ramdas Pophale) SiO2 
 PCOD8189083
Probable space group: I M M 2
;
_chemical_formula_sum "Si O2"
_cell_formula_units_Z 64
_cell_length_a 8.977589
_cell_length_b 23.434649
_cell_length_c 15.312918
_cell_angle_alpha 90.000000
_cell_angle_beta 90.000000
_cell_angle_gamma 90.000000
_cell_volume 3221.633475
_symmetry_space_group_name_H-M "I M M 2"
_symmetry_group_IT_number 44
_symmetry_cell_setting 'orthorhombic'
loop_
_space_group_symop_operation_xyz
x,y,z
-x,-y,z
-x,y,z
x,-y,z
1/2+x,1/2+y,1/2+z
1/2-x,1/2-y,1/2+z
1/2-x,1/2+y,1/2+z
1/2+x,1/2-y,1/2+z
loop_
_atom_site_type_symbol
_atom_site_label
_atom_site_fract_x
_atom_site_fract_y
_atom_site_fract_z
Si Si1 0.827161 0.623999 0.997170
Si Si2 0.671985 0.249915 0.435268
Si Si3 0.175314 0.123261 0.674753
Si Si4 0.828298 0.433328 0.819048
Si Si5 0.671733 0.065708 0.833072
Si Si6 0.826451 0.248552 0.731492
Si Si7 0.676019 0.360725 0.671878
Si Si8 0.175763 0.360351 0.496510
O O1 0.787329 0.688920 0.974681
O O2 0.780312 0.583752 0.916725
O O3 0.000000 0.616706 0.019070
O O4 0.734960 0.603743 0.080838
O O5 0.500000 0.266426 0.451229
O O6 0.709070 0.248806 0.333443
O O7 0.776926 0.294967 0.483149
O O8 0.237153 0.080435 0.746914
O O9 0.226964 0.187678 0.695198
O O10 0.000000 0.118140 0.676045
O O11 0.802978 0.500000 0.805403
O O12 0.726582 0.399754 0.751690
O O13 0.000000 0.415417 0.803484
O O14 0.500000 0.079964 0.814732
O O15 0.731523 0.102553 0.914452
O O16 0.696047 0.000000 0.857162
O O17 0.729967 0.295877 0.682830
O O18 0.000000 0.260161 0.712790
O O19 0.500000 0.361907 0.665229
O O20 0.745940 0.385558 0.582771
O O21 0.000000 0.364596 0.509208
#
# Coordination Sequence:
#
# PCOD8189083 Si02
#       8
#     8   8   8   8   8   8   8   8
#     4  10  21  38  61  89 121 158 201 243 292 358
#     4  10  19  36  62  90 123 157 194 245 302 358
#     4  11  23  38  61  92 125 158 194 244 303 356
#     4  10  22  43  67  87 114 159 209 253 302 357
#     4  10  23  43  64  86 115 156 206 252 293 350
#     4  10  20  38  62  89 124 161 198 241 299 365
#     4  12  25  39  61  92 126 160 200 247 302 359
#     4  11  23  39  62  90 121 157 203 249 300 361
#
# _framework density 19.8657
#
# number of rings (size 3 to 8) (size 9 to 14) (size 15 to 20)
#    0.000    1.500    2.500    2.625    0.000    6.500 
#    0.000    2.500    0.000    0.000    0.000    0.000 
#    0.000    0.000    0.000    0.000    0.000    0.000 
#
# Total GULP energy -397009.834478 kJ/mol
# GULP energy per Si atom -12406.557327 kJ/mol
# Density = 1.982048 g / cm^3
# Si number density = 19.865700 Si / 1000 Ang^3
#
#
#
# Elastic Constant Matrix: (Units=GPa)
#
#
# Indices 1 2 3 4 5 6 
#
# 1 80.1895 27.8466 45.3934 -0.0002 0.0000 0.0000
# 2 27.8466 62.8432 14.6188 0.0000 0.0000 0.0000
# 3 45.3934 14.6188 104.6602 0.0005 0.0000 -0.0001
# 4 -0.0002 0.0000 0.0005 9.6118 0.0000 -0.0001
# 5 0.0000 0.0000 0.0000 0.0000 33.1678 0.0000
# 6 0.0000 0.0000 -0.0001 -0.0001 0.0000 27.0184
#
#
#
# Elastic Compliance Matrix: (Units=1/GPa)
#
#
# Indices 1 2 3 4 5 6 
#
# 1 0.018906 -0.006687 -0.007266 0.000001 0.000000 0.000000
# 2 -0.006687 0.018812 0.000273 0.000000 0.000000 0.000000
# 3 -0.007266 0.000273 0.012668 -0.000001 0.000000 0.000000
# 4 0.000001 0.000000 -0.000001 0.104039 0.000000 0.000000
# 5 0.000000 0.000000 0.000000 0.000000 0.030150 0.000000
# 6 0.000000 0.000000 0.000000 0.000000 0.000000 0.037012
#
#
# Mechanical properties :
#
#
# Convention : Reuss Voigt Hill
#
# Bulk Modulus (GPa) = 43.43005 47.04559 45.23782
# Shear Modulus (GPa) = 19.48395 24.61522 22.04958
#
# Velocity S-wave (km/s) = 3.13514 3.52388 3.33518
# Velocity P-wave (km/s) = 5.91733 6.34745 6.13616
#
# Compressibility (1/GPa) = 0.02302553
#
# Stress axis : x y z
#
# Youngs Moduli (GPa) = 52.89439 53.15664 78.93936
#
# Poissons Ratio (x) = 0.35546 0.57355
# Poissons Ratio (y) = 0.35371 -0.02153
# Poissons Ratio (z) = 0.38432 -0.01449
#
# Static dielectric constant tensor:
#      x y z
#    x 3.479420 0.000000 0.000000 
#    y 0.000000 3.586910 0.000000 
#    z 0.000000 0.000000 3.770200 
# 
# 
# High freq. dielectric constant tensor:
#      x y z
#    x 1.767030 0.000000 0.000000 
#    y 0.000000 1.770530 0.000000 
#    z 0.000000 0.000000 1.792110 
# 
# From -- ./inp_files/16792.got.cif
#   From: 2010.03.12/outbox.cif.g09.slc.cpg/sg44_9_cif.got.tgz:16792.got - 2010.04.14 02:36:11.
