data_PCOD8189050
_publ_section_title
;
Structure prediction by ZEFSAII (Michael W. Deem and Ramdas Pophale) SiO2 
 PCOD8189050
Probable space group: I M M 2
;
_chemical_formula_sum "Si O2"
_cell_formula_units_Z 64
_cell_length_a 14.261668
_cell_length_b 19.484179
_cell_length_c 11.808957
_cell_angle_alpha 90.000000
_cell_angle_beta 90.000000
_cell_angle_gamma 90.000000
_cell_volume 3281.436271
_symmetry_space_group_name_H-M "I M M 2"
_symmetry_group_IT_number 44
_symmetry_cell_setting 'orthorhombic'
loop_
_space_group_symop_operation_xyz
x,y,z
-x,-y,z
-x,y,z
x,-y,z
1/2+x,1/2+y,1/2+z
1/2-x,1/2-y,1/2+z
1/2-x,1/2+y,1/2+z
1/2+x,1/2-y,1/2+z
loop_
_atom_site_type_symbol
_atom_site_label
_atom_site_fract_x
_atom_site_fract_y
_atom_site_fract_z
Si Si1 0.388702 0.423851 0.054920
Si Si2 0.231800 0.828627 0.147522
Si Si3 0.738308 0.922546 0.938544
Si Si4 0.108289 0.080745 0.307424
Si Si5 0.606016 0.213344 0.315137
Si Si6 0.391263 0.922692 0.733059
Si Si7 0.390603 0.199787 0.570504
Si Si8 0.393551 0.628663 0.289079
O O1 0.500000 0.426650 0.047248
O O2 0.348855 0.500000 0.076962
O O3 0.354512 0.376867 0.159592
O O4 0.354318 0.395969 0.932423
O O5 0.163245 0.879280 0.212167
O O6 0.322855 0.814442 0.222635
O O7 0.176009 0.759916 0.116310
O O8 0.269377 0.867255 0.037329
O O9 0.659245 0.901410 0.848733
O O10 0.838217 0.919564 0.875420
O O11 0.723829 0.000000 0.984716
O O12 0.000000 0.099728 0.292159
O O13 0.124816 0.000000 0.291656
O O14 0.500000 0.194679 0.276225
O O15 0.628048 0.182848 0.438861
O O16 0.617112 0.294317 0.330102
O O17 0.500000 0.917749 0.760508
O O18 0.362846 0.870160 0.634385
O O19 0.362876 0.000000 0.695148
O O20 0.500000 0.220130 0.589687
O O21 0.500000 0.602387 0.292669
#
# Coordination Sequence:
#
# PCOD8189050 Si02
#       8
#     8   8   8   8   8   8   8   8
#     4   8  15  30  53  80 111 146 187 235 284 339
#     4  12  23  36  59  85 121 162 200 237 291 366
#     4  11  23  37  56  88 122 154 194 237 289 358
#     4   9  19  36  56  83 120 157 196 246 299 357
#     4  10  23  41  58  81 118 158 199 250 300 350
#     4   9  20  41  66  87 110 145 196 256 303 340
#     4  10  21  40  64  89 118 151 196 252 305 353
#     4  10  19  36  57  82 116 153 191 238 296 354
#
# _framework density 19.503654000000001
#
# number of rings (size 3 to 8) (size 9 to 14) (size 15 to 20)
#    0.000    2.125    1.250    2.625    0.000    3.750 
#    0.000    2.500    0.000    2.625    0.000    0.000 
#    0.000    0.000    0.000    0.000    0.000    0.000 
#
# Total GULP energy -396752.379298 kJ/mol
# GULP energy per Si atom -12398.511853 kJ/mol
# Density = 1.945926 g / cm^3
# Si number density = 19.503654 Si / 1000 Ang^3
#
#
#
# Elastic Constant Matrix: (Units=GPa)
#
#
# Indices 1 2 3 4 5 6 
#
# 1 87.6092 48.5578 59.5401 0.0000 0.0000 0.0000
# 2 48.5578 90.1577 68.7824 0.0000 0.0000 0.0000
# 3 59.5401 68.7824 138.6898 0.0000 0.0000 0.0000
# 4 0.0000 0.0000 0.0000 39.5371 0.0000 0.0000
# 5 0.0000 0.0000 0.0000 0.0000 36.3380 0.0000
# 6 0.0000 0.0000 0.0000 0.0000 0.0000 17.8354
#
#
#
# Elastic Compliance Matrix: (Units=1/GPa)
#
#
# Indices 1 2 3 4 5 6 
#
# 1 0.017990 -0.006108 -0.004694 0.000000 0.000000 0.000000
# 2 -0.006108 0.019917 -0.007255 0.000000 0.000000 0.000000
# 3 -0.004694 -0.007255 0.012824 0.000000 0.000000 0.000000
# 4 0.000000 0.000000 0.000000 0.025293 0.000000 0.000000
# 5 0.000000 0.000000 0.000000 0.000000 0.027519 0.000000
# 6 0.000000 0.000000 0.000000 0.000000 0.000000 0.056068
#
#
# Mechanical properties :
#
#
# Convention : Reuss Voigt Hill
#
# Bulk Modulus (GPa) = 68.42013 74.46859 71.44436
# Shear Modulus (GPa) = 24.92568 28.04721 26.48645
#
# Velocity S-wave (km/s) = 3.57879 3.79628 3.68914
# Velocity P-wave (km/s) = 7.22730 7.58158 7.40656
#
# Compressibility (1/GPa) = 0.01461558
#
# Stress axis : x y z
#
# Youngs Moduli (GPa) = 55.58742 50.20952 77.98119
#
# Poissons Ratio (x) = 0.30668 0.36603
# Poissons Ratio (y) = 0.33953 0.56578
# Poissons Ratio (z) = 0.26092 0.36428
#
# Static dielectric constant tensor:
#      x y z
#    x 3.542400 0.000000 0.000000 
#    y 0.000000 3.513920 0.000000 
#    z 0.000000 0.000000 3.702660 
# 
# 
# High freq. dielectric constant tensor:
#      x y z
#    x 1.758170 0.000000 0.000000 
#    y 0.000000 1.751630 0.000000 
#    z 0.000000 0.000000 1.766870 
# 
# From -- ./inp_files/13416.got.cif
#   From: 2010.03.12/outbox.cif.g09.slc.cpg/sg44_7_cif.got.tgz:13416.got - 2010.04.14 02:36:11.
