data_PCOD8189155
_publ_section_title
;
Structure prediction by ZEFSAII (Michael W. Deem and Ramdas Pophale) SiO2 
 PCOD8189155
Probable space group: I M M 2
;
_chemical_formula_sum "Si O2"
_cell_formula_units_Z 64
_cell_length_a 13.722517
_cell_length_b 9.261669
_cell_length_c 24.653524
_cell_angle_alpha 90.000000
_cell_angle_beta 90.000000
_cell_angle_gamma 90.000000
_cell_volume 3133.300441
_symmetry_space_group_name_H-M "I M M 2"
_symmetry_group_IT_number 44
_symmetry_cell_setting 'orthorhombic'
loop_
_space_group_symop_operation_xyz
x,y,z
-x,-y,z
-x,y,z
x,-y,z
1/2+x,1/2+y,1/2+z
1/2-x,1/2-y,1/2+z
1/2-x,1/2+y,1/2+z
1/2+x,1/2-y,1/2+z
loop_
_atom_site_type_symbol
_atom_site_label
_atom_site_fract_x
_atom_site_fract_y
_atom_site_fract_z
Si Si1 0.892246 0.329352 0.395630
Si Si2 0.389766 0.341856 0.386304
Si Si3 0.108582 0.670858 0.274343
Si Si4 0.613097 0.158989 0.290974
Si Si5 0.891734 0.330823 0.995237
Si Si6 0.290961 0.668006 0.205168
Si Si7 0.889913 0.163740 0.595440
Si Si8 0.707337 0.829633 0.005642
O O1 0.899630 0.500000 0.396225
O O2 0.860241 0.276283 0.335212
O O3 0.816421 0.282003 0.443098
O O4 0.000000 0.266457 0.408971
O O5 0.500000 0.374427 0.369835
O O6 0.339335 0.500000 0.398298
O O7 0.336489 0.262228 0.336264
O O8 0.386238 0.233117 0.435599
O O9 0.104226 0.500000 0.274032
O O10 0.185516 0.722097 0.228078
O O11 0.000000 0.731124 0.260163
O O12 0.500000 0.141116 0.303901
O O13 0.626792 0.235988 0.233599
O O14 0.662014 0.000000 0.291495
O O15 0.868781 0.500000 0.993917
O O16 0.807198 0.246186 0.027301
O O17 0.000000 0.302826 0.020242
O O18 0.307463 0.500000 0.219092
O O19 0.308086 0.695973 0.141438
O O20 0.876720 0.272632 0.545295
O O21 0.000000 0.185178 0.618107
O O22 0.876091 0.000000 0.574625
O O23 0.717215 0.000000 0.011870
#
# Coordination Sequence:
#
# PCOD8189155 Si02
#       8
#     8   8   8   8   8   8   8   8
#     4   8  15  29  50  80 115 144 177 229 289 346
#     4   9  17  30  49  73 104 144 188 230 272 327
#     4   8  15  30  53  82 114 142 175 230 292 346
#     4  10  20  32  47  73 110 148 185 229 286 348
#     4  10  21  37  55  78 114 155 191 233 288 346
#     4  10  20  34  57  83 108 146 195 240 289 347
#     4  10  22  40  58  80 116 155 193 244 299 353
#     4  11  22  35  58  87 113 149 199 245 290 350
#
# _framework density 20.425747000000001
#
# number of rings (size 3 to 8) (size 9 to 14) (size 15 to 20)
#    0.000    2.500    0.000    3.000    1.750    4.750 
#    0.000    0.625    0.000    2.625    0.000    1.750 
#    0.000    0.000    0.000    0.000    0.000    0.000 
#
# Total GULP energy -396448.891279 kJ/mol
# GULP energy per Si atom -12389.027852 kJ/mol
# Density = 2.037926 g / cm^3
# Si number density = 20.425747 Si / 1000 Ang^3
#
#
#
# Elastic Constant Matrix: (Units=GPa)
#
#
# Indices 1 2 3 4 5 6 
#
# 1 107.9729 35.7196 38.3225 0.0000 0.0000 0.0000
# 2 35.7196 82.9211 32.3509 0.0000 0.0000 0.0000
# 3 38.3225 32.3509 86.1945 0.0000 0.0000 0.0000
# 4 0.0000 0.0000 0.0000 25.1725 0.0000 0.0000
# 5 0.0000 0.0000 0.0000 0.0000 27.7496 0.0000
# 6 0.0000 0.0000 0.0000 0.0000 0.0000 22.0706
#
#
#
# Elastic Compliance Matrix: (Units=1/GPa)
#
#
# Indices 1 2 3 4 5 6 
#
# 1 0.011834 -0.003567 -0.003923 0.000000 0.000000 0.000000
# 2 -0.003567 0.015204 -0.004120 0.000000 0.000000 0.000000
# 3 -0.003923 -0.004120 0.014892 0.000000 0.000000 0.000000
# 4 0.000000 0.000000 0.000000 0.039726 0.000000 0.000000
# 5 0.000000 0.000000 0.000000 0.000000 0.036037 0.000000
# 6 0.000000 0.000000 0.000000 0.000000 0.000000 0.045309
#
#
# Mechanical properties :
#
#
# Convention : Reuss Voigt Hill
#
# Bulk Modulus (GPa) = 53.44867 54.43049 53.93958
# Shear Modulus (GPa) = 25.97966 26.37824 26.17895
#
# Velocity S-wave (km/s) = 3.57025 3.59753 3.58392
# Velocity P-wave (km/s) = 6.57417 6.63040 6.60234
#
# Compressibility (1/GPa) = 0.01870954
#
# Stress axis : x y z
#
# Youngs Moduli (GPa) = 84.50272 65.77286 67.14969
#
# Poissons Ratio (x) = 0.23463 0.26340
# Poissons Ratio (y) = 0.30145 0.27668
# Poissons Ratio (z) = 0.33146 0.27101
#
# Static dielectric constant tensor:
#      x y z
#    x 4.150450 0.000000 0.000000 
#    y 0.000000 3.650320 0.000000 
#    z 0.000000 0.000000 3.512990 
# 
# 
# High freq. dielectric constant tensor:
#      x y z
#    x 1.804670 0.000000 0.000000 
#    y 0.000000 1.774990 0.000000 
#    z 0.000000 0.000000 1.772820 
# 
# From -- ./inp_files/25119.got.cif
#   From: 2010.03.12/outbox.cif.g09.slc.cpg/sg44_13_cif.got.tgz:25119.got - 2010.04.14 02:36:11.
