data_PCOD8189782
_publ_section_title
;
Structure prediction by ZEFSAII (Michael W. Deem and Ramdas Pophale) SiO2 
 PCOD8189782
Probable space group: I M M 2
;
_chemical_formula_sum "Si O2"
_cell_formula_units_Z 40
_cell_length_a 8.673114
_cell_length_b 22.982433
_cell_length_c 10.234904
_cell_angle_alpha 90.000000
_cell_angle_beta 90.000000
_cell_angle_gamma 90.000000
_cell_volume 2040.115855
_symmetry_space_group_name_H-M "I M M 2"
_symmetry_group_IT_number 44
_symmetry_cell_setting 'orthorhombic'
loop_
_space_group_symop_operation_xyz
x,y,z
-x,-y,z
-x,y,z
x,-y,z
1/2+x,1/2+y,1/2+z
1/2-x,1/2-y,1/2+z
1/2-x,1/2+y,1/2+z
1/2+x,1/2-y,1/2+z
loop_
_atom_site_type_symbol
_atom_site_label
_atom_site_fract_x
_atom_site_fract_y
_atom_site_fract_z
Si Si1 0.819733 0.500000 0.994630
Si Si2 0.179659 0.123673 0.891125
Si Si3 0.817872 0.118581 0.402782
Si Si4 0.817370 0.804805 0.640288
Si Si5 0.323589 0.500000 0.273705
Si Si6 0.818770 0.672961 0.647732
O O1 0.750967 0.444632 0.922570
O O2 0.000000 0.500000 0.973864
O O3 0.783761 0.500000 0.147860
O O4 0.239486 0.162291 0.769996
O O5 0.210234 0.056132 0.861492
O O6 0.000000 0.135538 0.920588
O O7 0.282952 0.140223 0.013852
O O8 0.750644 0.162090 0.513426
O O9 0.771773 0.141162 0.261680
O O10 0.000000 0.114097 0.413915
O O11 0.755818 0.738970 0.639764
O O12 0.000000 0.805873 0.634110
O O13 0.500000 0.500000 0.223325
O O14 0.000000 0.671127 0.676327
#
# Coordination Sequence:
#
# PCOD8189782 Si02
#       6
#     4   8   8   8   4   8
#     4  12  24  39  62  93 122 150 194 256 312 353
#     4  10  20  38  62  87 114 155 203 247 294 356
#     4  11  22  41  65  88 118 165 208 242 293 364
#     4   9  19  37  63  88 117 157 206 250 292 353
#     4  10  20  39  66  87 112 152 204 246 288 361
#     4  11  23  38  56  90 129 158 195 252 306 347
#
# _framework density 19.606731
#
# number of rings (size 3 to 8) (size 9 to 14) (size 15 to 20)
#    0.000    1.600    2.000    3.300    0.000    1.600 
#    0.000    7.000    0.000    0.000    0.000    0.000 
#    0.000    0.000    0.000    0.000    0.000    0.000 
#
# Total GULP energy -248101.275208 kJ/mol
# GULP energy per Si atom -12405.063760 kJ/mol
# Density = 1.956211 g / cm^3
# Si number density = 19.606731 Si / 1000 Ang^3
#
#
#
# Elastic Constant Matrix: (Units=GPa)
#
#
# Indices 1 2 3 4 5 6 
#
# 1 65.3690 42.0948 27.0564 -0.0088 -0.0010 0.0005
# 2 42.0948 179.1306 73.7125 -0.0083 -0.0011 -0.0005
# 3 27.0564 73.7125 136.0200 -0.0626 -0.0053 0.0023
# 4 -0.0088 -0.0083 -0.0626 97.5461 -0.0154 -0.0053
# 5 -0.0010 -0.0011 -0.0053 -0.0154 23.1874 -0.0007
# 6 0.0005 -0.0005 0.0023 -0.0053 -0.0007 14.0919
#
#
#
# Elastic Compliance Matrix: (Units=1/GPa)
#
#
# Indices 1 2 3 4 5 6 
#
# 1 0.018322 -0.003611 -0.001688 0.000000 0.000000 -0.000001
# 2 -0.003611 0.007896 -0.003561 -0.000002 -0.000001 0.000001
# 3 -0.001688 -0.003561 0.009617 0.000006 0.000002 -0.000002
# 4 0.000000 -0.000002 0.000006 0.010252 0.000007 0.000004
# 5 0.000000 -0.000001 0.000002 0.000007 0.043127 0.000002
# 6 -0.000001 0.000001 -0.000002 0.000004 0.000002 0.070963
#
#
# Mechanical properties :
#
#
# Convention : Reuss Voigt Hill
#
# Bulk Modulus (GPa) = 55.19907 74.02745 64.61326
# Shear Modulus (GPa) = 27.18363 42.80883 34.99623
#
# Velocity S-wave (km/s) = 3.72754 4.67773 4.22940
# Velocity P-wave (km/s) = 6.83669 8.18614 7.54166
#
# Compressibility (1/GPa) = 0.01811625
#
# Stress axis : x y z
#
# Youngs Moduli (GPa) = 54.58031 126.63921 103.97916
#
# Poissons Ratio (x) = 0.45730 0.17547
# Poissons Ratio (y) = 0.19709 0.37027
# Poissons Ratio (z) = 0.09211 0.45096
#
# Static dielectric constant tensor:
#      x y z
#    x 3.359740 0.000010 0.000000 
#    y 0.000010 3.826450 0.000020 
#    z 0.000000 0.000020 3.576080 
# 
# 
# High freq. dielectric constant tensor:
#      x y z
#    x 1.746050 0.000000 0.000000 
#    y 0.000000 1.783190 0.000000 
#    z 0.000000 0.000000 1.771010 
# 
# From -- ./inp_files/9622.got.cif
#   From: 2010.03.12/outbox.cif.g09.slc.cpg/sg44_5_cif.got.tgz:9622.got - 2010.04.14 02:36:11.
