data_PCOD8189508
_publ_section_title
;
Structure prediction by ZEFSAII (Michael W. Deem and Ramdas Pophale) SiO2 
 PCOD8189508
Probable space group: I M M 2
;
_chemical_formula_sum "Si O2"
_cell_formula_units_Z 56
_cell_length_a 13.947132
_cell_length_b 30.603923
_cell_length_c 6.883683
_cell_angle_alpha 90.000000
_cell_angle_beta 90.000000
_cell_angle_gamma 90.000000
_cell_volume 2938.210283
_symmetry_space_group_name_H-M "I M M 2"
_symmetry_group_IT_number 44
_symmetry_cell_setting 'orthorhombic'
loop_
_space_group_symop_operation_xyz
x,y,z
-x,-y,z
-x,y,z
x,-y,z
1/2+x,1/2+y,1/2+z
1/2-x,1/2-y,1/2+z
1/2-x,1/2+y,1/2+z
1/2+x,1/2-y,1/2+z
loop_
_atom_site_type_symbol
_atom_site_label
_atom_site_fract_x
_atom_site_fract_y
_atom_site_fract_z
Si Si1 0.610882 0.949371 0.769840
Si Si2 0.749901 0.600266 0.538154
Si Si3 0.110365 0.239853 0.277422
Si Si4 0.739734 0.299642 0.453565
Si Si5 0.254980 0.048503 0.426623
Si Si6 0.604917 0.677481 0.116838
Si Si7 0.608365 0.579864 0.210688
O O1 0.500000 0.938051 0.760618
O O2 0.655809 0.918921 0.935572
O O3 0.653972 0.937962 0.558346
O O4 0.630301 0.000000 0.822228
O O5 0.755575 0.652714 0.545987
O O6 0.743383 0.583486 0.757234
O O7 0.656066 0.583530 0.423334
O O8 0.156663 0.278271 0.409538
O O9 0.112919 0.195210 0.399173
O O10 0.000000 0.252377 0.223725
O O11 0.174809 0.231459 0.088322
O O12 0.685970 0.301778 0.249233
O O13 0.163259 0.046507 0.570183
O O14 0.268413 0.000000 0.337715
O O15 0.500000 0.688894 0.205991
O O16 0.616402 0.625797 0.100904
O O17 0.500000 0.563671 0.240853
#
# Coordination Sequence:
#
# PCOD8189508 Si02
#       7
#     8   8   8   8   8   8   8
#     4   9  19  37  59  82 111 148 187 226 276 341
#     4  10  21  35  58  83 112 146 189 234 283 331
#     4  11  22  36  57  82 109 147 190 234 288 344
#     4  11  21  37  57  80 114 146 188 238 287 333
#     4  10  20  35  54  81 112 145 185 230 281 337
#     4   9  18  35  57  79 105 142 188 228 274 338
#     4   9  19  35  54  78 109 147 187 228 274 331
#
# _framework density 19.059222999999999
#
# number of rings (size 3 to 8) (size 9 to 14) (size 15 to 20)
#    0.000    2.143    1.429    1.714    0.000    3.143 
#    0.000    1.429    0.000    0.000    0.000    0.000 
#    0.000    0.000    0.000    0.000    0.000    0.000 
#
# Total GULP energy -347184.435699 kJ/mol
# GULP energy per Si atom -12399.444132 kJ/mol
# Density = 1.901584 g / cm^3
# Si number density = 19.059223 Si / 1000 Ang^3
#
#
#
# Elastic Constant Matrix: (Units=GPa)
#
#
# Indices 1 2 3 4 5 6 
#
# 1 144.6385 37.5117 37.5028 0.0074 -0.0030 0.0036
# 2 37.5117 64.8654 29.6039 0.0003 0.0072 0.0011
# 3 37.5028 29.6039 64.8832 -0.0279 0.0341 0.0041
# 4 0.0074 0.0003 -0.0279 31.9676 -0.0004 0.0045
# 5 -0.0030 0.0072 0.0341 -0.0004 21.0254 -0.0030
# 6 0.0036 0.0011 0.0041 0.0045 -0.0030 25.8534
#
#
#
# Elastic Compliance Matrix: (Units=1/GPa)
#
#
# Indices 1 2 3 4 5 6 
#
# 1 0.008706 -0.003458 -0.003454 -0.000005 0.000008 -0.000001
# 2 -0.003458 0.020845 -0.007512 -0.000006 0.000005 0.000001
# 3 -0.003454 -0.007512 0.020836 0.000019 -0.000032 -0.000002
# 4 -0.000005 -0.000006 0.000019 0.031282 0.000001 -0.000005
# 5 0.000008 0.000005 -0.000032 0.000001 0.047562 0.000006
# 6 -0.000001 0.000001 -0.000002 -0.000005 0.000006 0.038680
#
#
# Mechanical properties :
#
#
# Convention : Reuss Voigt Hill
#
# Bulk Modulus (GPa) = 46.42864 53.73598 50.08231
# Shear Modulus (GPa) = 24.51715 27.08721 25.80218
#
# Velocity S-wave (km/s) = 3.59049 3.77399 3.68338
# Velocity P-wave (km/s) = 6.44995 6.87358 6.66513
#
# Compressibility (1/GPa) = 0.02153843
#
# Stress axis : x y z
#
# Youngs Moduli (GPa) = 114.85816 47.97361 47.99307
#
# Poissons Ratio (x) = 0.16591 0.16579
# Poissons Ratio (y) = 0.39722 0.36051
# Poissons Ratio (z) = 0.39677 0.36037
#
# Static dielectric constant tensor:
#      x y z
#    x 3.610550 0.000030 0.000040 
#    y 0.000030 3.402750 -0.000040 
#    z 0.000040 -0.000040 3.268220 
# 
# 
# High freq. dielectric constant tensor:
#      x y z
#    x 1.744330 0.000000 0.000000 
#    y 0.000000 1.736470 -0.000010 
#    z 0.000000 -0.000010 1.734730 
# 
# From -- ./inp_files/1700.got.cif
#   From: 2010.03.12/outbox.cif.g09.slc.cpg/sg44_1_cif.got.tgz:1700.got - 2010.04.14 02:36:11.
