data_PCOD8189365
_publ_section_title
;
Structure prediction by ZEFSAII (Michael W. Deem and Ramdas Pophale) SiO2 
 PCOD8189365
Probable space group: I M M 2
;
_chemical_formula_sum "Si O2"
_cell_formula_units_Z 48
_cell_length_a 29.487607
_cell_length_b 9.134318
_cell_length_c 10.016142
_cell_angle_alpha 90.000000
_cell_angle_beta 90.000000
_cell_angle_gamma 90.000000
_cell_volume 2697.839628
_symmetry_space_group_name_H-M "I M M 2"
_symmetry_group_IT_number 44
_symmetry_cell_setting 'orthorhombic'
loop_
_space_group_symop_operation_xyz
x,y,z
-x,-y,z
-x,y,z
x,-y,z
1/2+x,1/2+y,1/2+z
1/2-x,1/2-y,1/2+z
1/2-x,1/2+y,1/2+z
1/2+x,1/2-y,1/2+z
loop_
_atom_site_type_symbol
_atom_site_label
_atom_site_fract_x
_atom_site_fract_y
_atom_site_fract_z
Si Si1 0.714468 0.171345 0.579220
Si Si2 0.279794 0.166415 0.884602
Si Si3 0.378378 0.672936 0.595376
Si Si4 0.551508 0.670880 0.369549
Si Si5 0.384059 0.169074 0.866351
Si Si6 0.551840 0.171353 0.103250
O O1 0.730452 0.204620 0.730212
O O2 0.752918 0.222300 0.477643
O O3 0.668366 0.256108 0.546095
O O4 0.705087 0.000000 0.560754
O O5 0.332685 0.189305 0.915650
O O6 0.265043 0.000000 0.916609
O O7 0.371791 0.500000 0.604709
O O8 0.417211 0.718967 0.491904
O O9 0.394174 0.733622 0.737599
O O10 0.500000 0.717529 0.403737
O O11 0.555230 0.500000 0.341318
O O12 0.569030 0.751109 0.237114
O O13 0.393346 0.000000 0.829413
O O14 0.417274 0.226429 0.981590
O O15 0.500000 0.214076 0.070861
O O16 0.557827 0.000000 0.125397
#
# Coordination Sequence:
#
# PCOD8189365 Si02
#       6
#     8   8   8   8   8   8
#     4  10  21  36  54  76 102 132 167 208 253 300
#     4   9  19  35  52  73 102 133 167 207 249 296
#     4  10  20  34  53  76 102 133 169 208 250 298
#     4   9  19  35  52  73 103 135 168 208 250 294
#     4   9  19  35  52  74 105 135 166 208 252 295
#     4   9  18  33  53  77 104 134 169 208 250 297
#
# _framework density 17.792014000000002
#
# number of rings (size 3 to 8) (size 9 to 14) (size 15 to 20)
#    0.000    2.667    0.000    2.000    0.000    7.333 
#    0.000    3.333    0.000    0.000    0.000    0.000 
#    0.000    0.000    0.000    0.000    0.000    0.000 
#
# Total GULP energy -297661.358313 kJ/mol
# GULP energy per Si atom -12402.556596 kJ/mol
# Density = 1.775152 g / cm^3
# Si number density = 17.792014 Si / 1000 Ang^3
#
#
#
# Elastic Constant Matrix: (Units=GPa)
#
#
# Indices 1 2 3 4 5 6 
#
# 1 97.1976 49.3983 88.2171 0.0000 0.0000 0.0000
# 2 49.3983 67.9039 62.0968 0.0000 0.0000 0.0000
# 3 88.2171 62.0968 132.1183 0.0000 0.0000 0.0000
# 4 0.0000 0.0000 0.0000 36.3267 0.0000 0.0000
# 5 0.0000 0.0000 0.0000 0.0000 37.6926 0.0000
# 6 0.0000 0.0000 0.0000 0.0000 0.0000 26.9266
#
#
#
# Elastic Compliance Matrix: (Units=1/GPa)
#
#
# Indices 1 2 3 4 5 6 
#
# 1 0.027272 -0.005590 -0.015583 0.000000 0.000000 0.000000
# 2 -0.005590 0.026973 -0.008946 0.000000 0.000000 0.000000
# 3 -0.015583 -0.008946 0.022178 0.000000 0.000000 0.000000
# 4 0.000000 0.000000 0.000000 0.027528 0.000000 0.000000
# 5 0.000000 0.000000 0.000000 0.000000 0.026530 0.000000
# 6 0.000000 0.000000 0.000000 0.000000 0.000000 0.037138
#
#
# Mechanical properties :
#
#
# Convention : Reuss Voigt Hill
#
# Bulk Modulus (GPa) = 61.77393 77.40490 69.58942
# Shear Modulus (GPa) = 21.43605 26.68970 24.06287
#
# Velocity S-wave (km/s) = 3.47481 3.87731 3.68156
# Velocity P-wave (km/s) = 7.13403 7.97775 7.56766
#
# Compressibility (1/GPa) = 0.01618806
#
# Stress axis : x y z
#
# Youngs Moduli (GPa) = 36.66751 37.07343 45.08924
#
# Poissons Ratio (x) = 0.20723 0.70261
# Poissons Ratio (y) = 0.20496 0.40335
# Poissons Ratio (z) = 0.57138 0.33164
#
# Static dielectric constant tensor:
#      x y z
#    x 3.342370 0.000000 0.000000 
#    y 0.000000 3.260960 0.000000 
#    z 0.000000 0.000000 3.323830 
# 
# 
# High freq. dielectric constant tensor:
#      x y z
#    x 1.688500 0.000000 0.000000 
#    y 0.000000 1.690220 0.000000 
#    z 0.000000 0.000000 1.690020 
# 
# From -- ./inp_files/4872.got.cif
#   From: 2010.03.12/outbox.cif.g09.slc.cpg/sg44_3_cif.got.tgz:4872.got - 2010.04.14 02:36:11.
