data_PCOD8189345
_publ_section_title
;
Structure prediction by ZEFSAII (Michael W. Deem and Ramdas Pophale) SiO2 
 PCOD8189345
Probable space group: I M M 2
;
_chemical_formula_sum "Si O2"
_cell_formula_units_Z 64
_cell_length_a 17.922013
_cell_length_b 19.119291
_cell_length_c 10.482162
_cell_angle_alpha 90.000000
_cell_angle_beta 90.000000
_cell_angle_gamma 90.000000
_cell_volume 3591.777608
_symmetry_space_group_name_H-M "I M M 2"
_symmetry_group_IT_number 44
_symmetry_cell_setting 'orthorhombic'
loop_
_space_group_symop_operation_xyz
x,y,z
-x,-y,z
-x,y,z
x,-y,z
1/2+x,1/2+y,1/2+z
1/2-x,1/2-y,1/2+z
1/2-x,1/2+y,1/2+z
1/2+x,1/2-y,1/2+z
loop_
_atom_site_type_symbol
_atom_site_label
_atom_site_fract_x
_atom_site_fract_y
_atom_site_fract_z
Si Si1 0.587082 0.077105 0.296400
Si Si2 0.162882 0.080369 0.535751
Si Si3 0.911278 0.791722 0.424273
Si Si4 0.087082 0.077105 0.801125
Si Si5 0.837118 0.580369 0.061773
Si Si6 0.087693 0.286127 0.672661
Si Si7 0.911278 0.708278 0.173252
Si Si8 0.087694 0.786127 0.924864
O O1 0.500000 0.079935 0.328415
O O2 0.627018 0.099266 0.426238
O O3 0.606946 0.131142 0.182936
O O4 0.612222 0.000000 0.250792
O O5 0.127406 0.131811 0.429297
O O6 0.127018 0.099266 0.671287
O O7 0.250000 0.093994 0.548762
O O8 0.145901 0.000000 0.496128
O O9 0.879590 0.746203 0.543153
O O10 0.885816 0.750000 0.298762
O O11 0.000000 0.802157 0.426209
O O12 0.000000 0.079936 0.769110
O O13 0.112222 0.000000 0.846732
O O14 0.106946 0.131142 0.914589
O O15 0.854099 0.500000 0.101397
O O16 0.872594 0.631811 0.168228
O O17 0.000000 0.272871 0.669663
O O18 0.122092 0.250000 0.798762
O O19 0.879590 0.753797 0.054371
O O20 0.000000 0.697843 0.171316
O O21 0.000000 0.772871 0.927861
#
# Coordination Sequence:
#
# PCOD8189345 Si02
#       8
#     8   8   8   8   8   8   8   8
#     4   9  16  28  50  76  98 127 170 213 253 298
#     4  10  20  34  51  74 104 135 174 219 258 305
#     4  10  20  35  53  77 108 138 171 213 260 312
#     4   9  16  28  50  76  98 127 170 213 253 298
#     4  10  20  34  51  74 104 135 174 219 258 305
#     4   9  15  27  49  74  98 124 161 211 255 294
#     4  10  20  35  53  77 108 138 171 213 260 312
#     4   9  15  27  49  74  98 124 161 211 255 294
#
# _framework density 17.818476
#
# number of rings (size 3 to 8) (size 9 to 14) (size 15 to 20)
#    0.000    2.500    2.500    0.750    0.000    1.500 
#    4.500    1.250    0.000    4.500    0.000    5.250 
#    0.000    0.000    0.000    0.000    0.000    0.000 
#
# Total GULP energy -396639.108051 kJ/mol
# GULP energy per Si atom -12394.972127 kJ/mol
# Density = 1.777792 g / cm^3
# Si number density = 17.818476 Si / 1000 Ang^3
#
#
#
# Elastic Constant Matrix: (Units=GPa)
#
#
# Indices 1 2 3 4 5 6 
#
# 1 37.0980 33.4734 23.2188 0.0000 0.0000 0.0000
# 2 33.4734 141.0024 73.8635 0.0000 0.0000 0.0000
# 3 23.2188 73.8635 114.5244 0.0000 0.0000 0.0000
# 4 0.0000 0.0000 0.0000 30.6946 0.0000 0.0000
# 5 0.0000 0.0000 0.0000 0.0000 7.2558 0.0000
# 6 0.0000 0.0000 0.0000 0.0000 0.0000 22.3263
#
#
#
# Elastic Compliance Matrix: (Units=1/GPa)
#
#
# Indices 1 2 3 4 5 6 
#
# 1 0.034812 -0.006897 -0.002609 0.000000 0.000000 0.000000
# 2 -0.006897 0.012077 -0.006391 0.000000 0.000000 0.000000
# 3 -0.002609 -0.006391 0.013383 0.000000 0.000000 0.000000
# 4 0.000000 0.000000 0.000000 0.032579 0.000000 0.000000
# 5 0.000000 0.000000 0.000000 0.000000 0.137820 0.000000
# 6 0.000000 0.000000 0.000000 0.000000 0.000000 0.044790
#
#
# Mechanical properties :
#
#
# Convention : Reuss Voigt Hill
#
# Bulk Modulus (GPa) = 35.11625 61.52625 48.32125
# Shear Modulus (GPa) = 15.78535 22.85996 19.32266
#
# Velocity S-wave (km/s) = 2.97963 3.58570 3.29662
# Velocity P-wave (km/s) = 5.62034 7.19356 6.45506
#
# Compressibility (1/GPa) = 0.02847684
#
# Stress axis : x y z
#
# Youngs Moduli (GPa) = 28.72552 82.79920 74.72306
#
# Poissons Ratio (x) = 0.57110 0.19498
# Poissons Ratio (y) = 0.19813 0.47756
# Poissons Ratio (z) = 0.07495 0.52917
#
# Static dielectric constant tensor:
#      x y z
#    x 3.025080 0.000000 0.000000 
#    y 0.000000 3.667050 0.000000 
#    z 0.000000 0.000000 3.230000 
# 
# 
# High freq. dielectric constant tensor:
#      x y z
#    x 1.656000 0.000000 0.000000 
#    y 0.000000 1.709920 0.000000 
#    z 0.000000 0.000000 1.662090 
# 
# From -- ./inp_files/8474.got.cif
#   From: 2010.03.12/outbox.cif.g09.slc.cpg/sg44_5_cif.got.tgz:8474.got - 2010.04.14 02:36:11.
