data_PCOD8189140
_publ_section_title
;
Structure prediction by ZEFSAII (Michael W. Deem and Ramdas Pophale) SiO2 
 PCOD8189140
Probable space group: I M M 2
;
_chemical_formula_sum "Si O2"
_cell_formula_units_Z 64
_cell_length_a 9.191418
_cell_length_b 28.488511
_cell_length_c 14.130524
_cell_angle_alpha 90.000000
_cell_angle_beta 90.000000
_cell_angle_gamma 90.000000
_cell_volume 3700.075064
_symmetry_space_group_name_H-M "I M M 2"
_symmetry_group_IT_number 44
_symmetry_cell_setting 'orthorhombic'
loop_
_space_group_symop_operation_xyz
x,y,z
-x,-y,z
-x,y,z
x,-y,z
1/2+x,1/2+y,1/2+z
1/2-x,1/2-y,1/2+z
1/2-x,1/2+y,1/2+z
1/2+x,1/2-y,1/2+z
loop_
_atom_site_type_symbol
_atom_site_label
_atom_site_fract_x
_atom_site_fract_y
_atom_site_fract_z
Si Si1 0.673495 0.377058 0.463760
Si Si2 0.329135 0.372502 0.251167
Si Si3 0.327531 0.552022 0.617692
Si Si4 0.170267 0.695608 0.119911
Si Si5 0.670331 0.371402 0.766347
Si Si6 0.330097 0.878938 0.461212
Si Si7 0.328565 0.699745 0.604903
Si Si8 0.169573 0.053767 0.594006
O O1 0.500000 0.377116 0.465127
O O2 0.732176 0.380368 0.356922
O O3 0.730970 0.421906 0.523295
O O4 0.732194 0.329653 0.514959
O O5 0.500000 0.362414 0.251693
O O6 0.250984 0.326989 0.209133
O O7 0.290951 0.418731 0.190329
O O8 0.500000 0.548891 0.611776
O O9 0.258167 0.500000 0.623512
O O10 0.284346 0.581233 0.710972
O O11 0.236029 0.747730 0.105072
O O12 0.000000 0.696620 0.143429
O O13 0.203559 0.666114 0.025838
O O14 0.500000 0.371777 0.791856
O O15 0.764141 0.367750 0.860001
O O16 0.711206 0.326540 0.702277
O O17 0.500000 0.888784 0.451472
O O18 0.257269 0.925188 0.505753
O O19 0.500000 0.702868 0.594009
O O20 0.000000 0.058526 0.569903
O O21 0.216003 0.000000 0.608845
#
# Coordination Sequence:
#
# PCOD8189140 Si02
#       8
#     8   8   8   8   8   8   8   8
#     4   8  14  25  43  67  92 116 143 180 224 267
#     4   9  17  29  47  71  94 115 145 188 232 268
#     4   8  14  25  43  68  93 115 143 179 219 266
#     4   9  18  32  47  63  88 123 157 186 221 270
#     4   9  17  30  48  68  91 120 153 188 226 270
#     4  10  20  32  47  68  93 121 154 192 232 273
#     4   8  15  29  47  66  90 121 154 185 222 272
#     4   9  18  32  48  67  93 123 153 186 226 273
#
# _framework density 17.296945999999998
#
# number of rings (size 3 to 8) (size 9 to 14) (size 15 to 20)
#    0.000    3.250    0.000    1.875    0.000    2.750 
#    0.000    5.625    0.000    3.750    0.000    0.000 
#    0.000    0.000    0.000    0.000    0.000    0.000 
#
# Total GULP energy -396691.322578 kJ/mol
# GULP energy per Si atom -12396.603831 kJ/mol
# Density = 1.725758 g / cm^3
# Si number density = 17.296946 Si / 1000 Ang^3
#
#
#
# Elastic Constant Matrix: (Units=GPa)
#
#
# Indices 1 2 3 4 5 6 
#
# 1 30.4964 29.5645 35.9552 0.0000 0.0000 0.0000
# 2 29.5645 155.5618 61.9638 0.0000 0.0000 0.0000
# 3 35.9552 61.9638 131.7398 -0.0001 0.0001 0.0000
# 4 0.0000 0.0000 -0.0001 14.6479 0.0000 0.0000
# 5 0.0000 0.0000 0.0001 0.0000 16.0510 0.0000
# 6 0.0000 0.0000 0.0000 0.0000 0.0000 18.3730
#
#
#
# Elastic Compliance Matrix: (Units=1/GPa)
#
#
# Indices 1 2 3 4 5 6 
#
# 1 0.051502 -0.005155 -0.011632 0.000000 0.000000 0.000000
# 2 -0.005155 0.008426 -0.002556 0.000000 0.000000 0.000000
# 3 -0.011632 -0.002556 0.011968 0.000000 0.000000 0.000000
# 4 0.000000 0.000000 0.000000 0.068269 0.000000 0.000000
# 5 0.000000 0.000000 0.000000 0.000000 0.062301 0.000000
# 6 0.000000 0.000000 0.000000 0.000000 0.000000 0.054428
#
#
# Mechanical properties :
#
#
# Convention : Reuss Voigt Hill
#
# Bulk Modulus (GPa) = 30.11135 63.64053 46.87594
# Shear Modulus (GPa) = 16.30528 22.50203 19.40366
#
# Velocity S-wave (km/s) = 3.07362 3.61075 3.35296
# Velocity P-wave (km/s) = 5.48110 7.36588 6.49225
#
# Compressibility (1/GPa) = 0.03321007
#
# Stress axis : x y z
#
# Youngs Moduli (GPa) = 19.41687 118.67674 83.55832
#
# Poissons Ratio (x) = 0.61175 0.97191
# Poissons Ratio (y) = 0.10009 0.21361
# Poissons Ratio (z) = 0.22585 0.30339
#
# Static dielectric constant tensor:
#      x y z
#    x 2.829480 0.000000 0.000000 
#    y 0.000000 3.662520 0.000000 
#    z 0.000000 0.000000 3.308990 
# 
# 
# High freq. dielectric constant tensor:
#      x y z
#    x 1.625050 0.000000 0.000000 
#    y 0.000000 1.674680 0.000000 
#    z 0.000000 0.000000 1.671560 
# 
# From -- ./inp_files/17076.got.cif
#   From: 2010.03.12/outbox.cif.g09.slc.cpg/sg44_9_cif.got.tgz:17076.got - 2010.04.14 02:36:11.
