data_PCOD8189399
_publ_section_title
;
Structure prediction by ZEFSAII (Michael W. Deem and Ramdas Pophale) SiO2 
 PCOD8189399
Probable space group: I M M 2
;
_chemical_formula_sum "Si O2"
_cell_formula_units_Z 32
_cell_length_a 14.186352
_cell_length_b 8.557482
_cell_length_c 14.069519
_cell_angle_alpha 90.000000
_cell_angle_beta 90.000000
_cell_angle_gamma 90.000000
_cell_volume 1708.031895
_symmetry_space_group_name_H-M "I M M 2"
_symmetry_group_IT_number 44
_symmetry_cell_setting 'orthorhombic'
loop_
_space_group_symop_operation_xyz
x,y,z
-x,-y,z
-x,y,z
x,-y,z
1/2+x,1/2+y,1/2+z
1/2-x,1/2-y,1/2+z
1/2-x,1/2+y,1/2+z
1/2+x,1/2-y,1/2+z
loop_
_atom_site_type_symbol
_atom_site_label
_atom_site_fract_x
_atom_site_fract_y
_atom_site_fract_z
Si Si1 0.763668 0.317258 0.880850
Si Si2 0.603871 0.684524 0.741061
Si Si3 0.747134 0.683073 0.585196
Si Si4 0.108871 0.182225 0.721807
O O1 0.765645 0.500000 0.904365
O O2 0.665041 0.265830 0.832583
O O3 0.849260 0.277974 0.810362
O O4 0.774083 0.220003 0.976547
O O5 0.500000 0.762558 0.746526
O O6 0.593712 0.500000 0.738621
O O7 0.656753 0.741123 0.645717
O O8 0.763908 0.500000 0.600114
O O9 0.839761 0.771781 0.623406
O O10 0.000000 0.227176 0.710576
O O11 0.122856 0.000000 0.742059
#
# Coordination Sequence:
#
# PCOD8189399 Si02
#       4
#     8   8   8   8
#     4  10  20  34  54  79 107 139 174 217 267 318
#     4   8  16  32  52  73  98 131 171 210 250 302
#     4  10  20  34  54  79 107 139 174 217 267 318
#     4  10  21  37  56  77 104 141 183 226 272 319
#
# _framework density 18.735014
#
# number of rings (size 3 to 8) (size 9 to 14) (size 15 to 20)
#    0.000    2.500    0.000    3.750    0.000    4.000 
#    0.000    5.000    0.000   25.500    0.000    0.000 
#    0.000    0.000    0.000    0.000    0.000    0.000 
#
# Total GULP energy -198402.390412 kJ/mol
# GULP energy per Si atom -12400.149401 kJ/mol
# Density = 1.869237 g / cm^3
# Si number density = 18.735014 Si / 1000 Ang^3
#
#
#
# Elastic Constant Matrix: (Units=GPa)
#
#
# Indices 1 2 3 4 5 6 
#
# 1 95.8979 28.5983 0.8814 0.0000 0.0000 0.0000
# 2 28.5983 40.8718 9.7449 0.0000 0.0000 0.0000
# 3 0.8814 9.7449 74.5238 0.0000 0.0000 0.0000
# 4 0.0000 0.0000 0.0000 34.4653 0.0000 0.0000
# 5 0.0000 0.0000 0.0000 0.0000 12.9812 0.0000
# 6 0.0000 0.0000 0.0000 0.0000 0.0000 23.9178
#
#
#
# Elastic Compliance Matrix: (Units=1/GPa)
#
#
# Indices 1 2 3 4 5 6 
#
# 1 0.013263 -0.009540 0.001091 0.000000 0.000000 0.000000
# 2 -0.009540 0.032116 -0.004087 0.000000 0.000000 0.000000
# 3 0.001091 -0.004087 0.013940 0.000000 0.000000 0.000000
# 4 0.000000 0.000000 0.000000 0.029015 0.000000 0.000000
# 5 0.000000 0.000000 0.000000 0.000000 0.077034 0.000000
# 6 0.000000 0.000000 0.000000 0.000000 0.000000 0.041810
#
#
# Mechanical properties :
#
#
# Convention : Reuss Voigt Hill
#
# Bulk Modulus (GPa) = 29.19990 32.19365 30.69677
# Shear Modulus (GPa) = 20.51987 25.74411 23.13199
#
# Velocity S-wave (km/s) = 3.31307 3.71093 3.51763
# Velocity P-wave (km/s) = 5.50044 5.96509 5.73747
#
# Compressibility (1/GPa) = 0.03424669
#
# Stress axis : x y z
#
# Youngs Moduli (GPa) = 75.39919 31.13673 71.73584
#
# Poissons Ratio (x) = 0.29705 -0.07824
# Poissons Ratio (y) = 0.71931 0.29317
# Poissons Ratio (z) = -0.08223 0.12725
#
# Static dielectric constant tensor:
#      x y z
#    x 3.795840 0.000000 0.000000 
#    y 0.000000 3.285590 0.000000 
#    z 0.000000 0.000000 3.356200 
# 
# 
# High freq. dielectric constant tensor:
#      x y z
#    x 1.730580 0.000000 0.000000 
#    y 0.000000 1.716990 0.000000 
#    z 0.000000 0.000000 1.727760 
# 
# From -- ./inp_files/10597.got.cif
#   From: 2010.03.12/outbox.cif.g09.slc.cpg/sg44_6_cif.got.tgz:10597.got - 2010.04.14 02:36:11.
