data_PCOD8189347
_publ_section_title
;
Structure prediction by ZEFSAII (Michael W. Deem and Ramdas Pophale) SiO2 
 PCOD8189347
Probable space group: I M M 2
;
_chemical_formula_sum "Si O2"
_cell_formula_units_Z 64
_cell_length_a 8.659270
_cell_length_b 23.246209
_cell_length_c 18.871332
_cell_angle_alpha 90.000000
_cell_angle_beta 90.000000
_cell_angle_gamma 90.000000
_cell_volume 3798.708553
_symmetry_space_group_name_H-M "I M M 2"
_symmetry_group_IT_number 44
_symmetry_cell_setting 'orthorhombic'
loop_
_space_group_symop_operation_xyz
x,y,z
-x,-y,z
-x,y,z
x,-y,z
1/2+x,1/2+y,1/2+z
1/2-x,1/2-y,1/2+z
1/2-x,1/2+y,1/2+z
1/2+x,1/2-y,1/2+z
loop_
_atom_site_type_symbol
_atom_site_label
_atom_site_fract_x
_atom_site_fract_y
_atom_site_fract_z
Si Si1 0.320500 0.382059 0.365570
Si Si2 0.820810 0.257771 0.371345
Si Si3 0.322683 0.065054 0.001026
Si Si4 0.678203 0.828646 0.091362
Si Si5 0.320256 0.774455 0.510484
Si Si6 0.821543 0.839847 0.634588
Si Si7 0.319397 0.934002 0.726592
Si Si8 0.677134 0.769140 0.230328
O O1 0.500000 0.386952 0.346263
O O2 0.277897 0.315823 0.375666
O O3 0.287005 0.417114 0.436879
O O4 0.222171 0.409515 0.303068
O O5 0.771937 0.217574 0.436962
O O6 0.785151 0.223755 0.298712
O O7 0.000000 0.273343 0.375666
O O8 0.500000 0.071455 0.975853
O O9 0.284937 0.000000 0.024359
O O10 0.291432 0.105444 0.069329
O O11 0.500000 0.810051 0.079002
O O12 0.782520 0.787894 0.043029
O O13 0.718796 0.819718 0.174289
O O14 0.500000 0.778609 0.494360
O O15 0.272237 0.825275 0.563588
O O16 0.768849 0.901183 0.663933
O O17 0.788170 0.792385 0.694666
O O18 0.000000 0.841355 0.614187
O O19 0.500000 0.926020 0.714507
O O20 0.267982 0.000000 0.722449
O O21 0.500000 0.773147 0.254759
#
# Coordination Sequence:
#
# PCOD8189347 Si02
#       8
#     8   8   8   8   8   8   8   8
#     4  12  23  34  48  71 102 139 179 215 254 300
#     4  12  22  33  51  74 102 135 170 210 259 310
#     4  10  20  34  52  73 100 138 178 212 250 298
#     4   9  18  33  51  71 100 134 168 209 253 303
#     4  11  21  33  52  75 102 132 167 210 257 309
#     4  10  20  35  54  75 102 134 170 212 257 305
#     4  11  23  37  53  74 102 139 180 217 254 300
#     4   9  18  32  50  73  99 129 166 208 256 306
#
# _framework density 16.847832
#
# number of rings (size 3 to 8) (size 9 to 14) (size 15 to 20)
#    0.000    1.500    2.500    5.250    0.000    4.750 
#    0.000    0.000    0.000    0.000    0.000    0.875 
#    0.000    5.000    0.000    0.000    0.000    0.000 
#
# Total GULP energy -396913.483684 kJ/mol
# GULP energy per Si atom -12403.546365 kJ/mol
# Density = 1.680949 g / cm^3
# Si number density = 16.847832 Si / 1000 Ang^3
#
#
#
# Elastic Constant Matrix: (Units=GPa)
#
#
# Indices 1 2 3 4 5 6 
#
# 1 51.8596 8.2384 23.4998 0.0000 0.0000 0.0000
# 2 8.2384 74.1732 42.2343 0.0000 0.0000 0.0000
# 3 23.4998 42.2343 103.9543 0.0000 0.0000 0.0000
# 4 0.0000 0.0000 0.0000 19.9372 0.0000 0.0000
# 5 0.0000 0.0000 0.0000 0.0000 29.3850 0.0000
# 6 0.0000 0.0000 0.0000 0.0000 0.0000 20.7563
#
#
#
# Elastic Compliance Matrix: (Units=1/GPa)
#
#
# Indices 1 2 3 4 5 6 
#
# 1 0.021497 0.000494 -0.005060 0.000000 0.000000 0.000000
# 2 0.000494 0.017551 -0.007242 0.000000 0.000000 0.000000
# 3 -0.005060 -0.007242 0.013706 0.000000 0.000000 0.000000
# 4 0.000000 0.000000 0.000000 0.050157 0.000000 0.000000
# 5 0.000000 0.000000 0.000000 0.000000 0.034031 0.000000
# 6 0.000000 0.000000 0.000000 0.000000 0.000000 0.048178
#
#
# Mechanical properties :
#
#
# Convention : Reuss Voigt Hill
#
# Bulk Modulus (GPa) = 34.32106 41.99243 38.15674
# Shear Modulus (GPa) = 22.88852 24.41668 23.65260
#
# Velocity S-wave (km/s) = 3.68984 3.81103 3.75092
# Velocity P-wave (km/s) = 6.21037 6.65912 6.43866
#
# Compressibility (1/GPa) = 0.02913663
#
# Stress axis : x y z
#
# Youngs Moduli (GPa) = 46.51720 56.97755 72.96181
#
# Poissons Ratio (x) = -0.02812 0.36920
# Poissons Ratio (y) = -0.02296 0.52839
# Poissons Ratio (z) = 0.23539 0.41263
#
# Static dielectric constant tensor:
#      x y z
#    x 3.182860 0.000000 0.000000 
#    y 0.000000 3.044430 0.000000 
#    z 0.000000 0.000000 3.240720 
# 
# 
# High freq. dielectric constant tensor:
#      x y z
#    x 1.658480 0.000000 0.000000 
#    y 0.000000 1.618980 0.000000 
#    z 0.000000 0.000000 1.645960 
# 
# From -- ./inp_files/20787.got.cif
#   From: 2010.03.12/outbox.cif.g09.slc.cpg/sg44_11_cif.got.tgz:20787.got - 2010.04.14 02:36:11.
