data_PCOD8189854
_publ_section_title
;
Structure prediction by ZEFSAII (Michael W. Deem and Ramdas Pophale) SiO2 
 PCOD8189854
Probable space group: I M M 2
;
_chemical_formula_sum "Si O2"
_cell_formula_units_Z 56
_cell_length_a 13.179359
_cell_length_b 21.912008
_cell_length_c 11.225926
_cell_angle_alpha 90.000000
_cell_angle_beta 90.000000
_cell_angle_gamma 90.000000
_cell_volume 3241.892734
_symmetry_space_group_name_H-M "I M M 2"
_symmetry_group_IT_number 44
_symmetry_cell_setting 'orthorhombic'
loop_
_space_group_symop_operation_xyz
x,y,z
-x,-y,z
-x,y,z
x,-y,z
1/2+x,1/2+y,1/2+z
1/2-x,1/2-y,1/2+z
1/2-x,1/2+y,1/2+z
1/2+x,1/2-y,1/2+z
loop_
_atom_site_type_symbol
_atom_site_label
_atom_site_fract_x
_atom_site_fract_y
_atom_site_fract_z
Si Si1 0.882706 0.571291 0.940240
Si Si2 0.116885 0.632859 0.189092
Si Si3 0.795348 0.429761 0.406207
Si Si4 0.883160 0.249763 0.329350
Si Si5 0.113475 0.070977 0.066753
Si Si6 0.885662 0.669775 0.552704
Si Si7 0.244298 0.860154 0.254733
O O1 0.860425 0.500000 0.968861
O O2 0.809628 0.593818 0.835305
O O3 0.000000 0.579363 0.901198
O O4 0.859124 0.614097 0.054012
O O5 0.191015 0.593101 0.271792
O O6 0.136371 0.704776 0.216279
O O7 0.000000 0.617105 0.221410
O O8 0.822442 0.500000 0.413595
O O9 0.679823 0.415843 0.448343
O O10 0.872850 0.397730 0.497581
O O11 0.852247 0.283132 0.451048
O O12 0.814439 0.190024 0.330790
O O13 0.000000 0.229518 0.330449
O O14 0.161490 0.102107 0.182035
O O15 0.000000 0.096732 0.044605
O O16 0.110198 0.000000 0.095555
O O17 0.817154 0.678330 0.668287
O O18 0.000000 0.680216 0.593573
#
# Coordination Sequence:
#
# PCOD8189854 Si02
#       7
#     8   8   8   8   8   8   8
#     4  10  21  35  52  79 113 143 172 211 261 317
#     4   9  18  33  52  76 107 137 169 208 255 312
#     4   9  16  28  51  77  97 128 168 206 255 307
#     4   9  19  34  52  72  98 134 177 218 256 300
#     4   9  18  32  49  72 100 130 170 218 260 299
#     4   9  19  33  47  72 103 128 161 211 259 303
#     4  11  20  31  54  73 100 137 175 210 257 312
#
# _framework density 17.273859999999999
#
# number of rings (size 3 to 8) (size 9 to 14) (size 15 to 20)
#    0.000    2.571    0.000    3.000    2.000    2.286 
#    0.000    0.000    0.000    5.143    0.000    2.000 
#    0.000    0.000    0.000    0.000    0.000    0.000 
#
# Total GULP energy -347122.673648 kJ/mol
# GULP energy per Si atom -12397.238345 kJ/mol
# Density = 1.723454 g / cm^3
# Si number density = 17.273860 Si / 1000 Ang^3
#
#
#
# Elastic Constant Matrix: (Units=GPa)
#
#
# Indices 1 2 3 4 5 6 
#
# 1 85.1007 37.7854 44.4176 -0.0001 0.0000 0.0000
# 2 37.7854 63.0685 24.6750 0.0000 -0.0001 -0.0001
# 3 44.4176 24.6750 69.0994 0.0005 -0.0004 -0.0002
# 4 -0.0001 0.0000 0.0005 21.6497 -0.0002 -0.0001
# 5 0.0000 -0.0001 -0.0004 -0.0002 27.8383 0.0000
# 6 0.0000 -0.0001 -0.0002 -0.0001 0.0000 29.2431
#
#
#
# Elastic Compliance Matrix: (Units=1/GPa)
#
#
# Indices 1 2 3 4 5 6 
#
# 1 0.020969 -0.008473 -0.010453 0.000000 0.000000 0.000000
# 2 -0.008473 0.021855 -0.002358 0.000000 0.000000 0.000000
# 3 -0.010453 -0.002358 0.022033 -0.000001 0.000000 0.000000
# 4 0.000000 0.000000 -0.000001 0.046190 0.000000 0.000000
# 5 0.000000 0.000000 0.000000 0.000000 0.035922 0.000000
# 6 0.000000 0.000000 0.000000 0.000000 0.000000 0.034196
#
#
# Mechanical properties :
#
#
# Convention : Reuss Voigt Hill
#
# Bulk Modulus (GPa) = 44.86559 47.89163 46.37861
# Shear Modulus (GPa) = 21.62986 23.10560 22.36773
#
# Velocity S-wave (km/s) = 3.54244 3.66130 3.60236
# Velocity P-wave (km/s) = 6.53922 6.75711 6.64906
#
# Compressibility (1/GPa) = 0.02228880
#
# Stress axis : x y z
#
# Youngs Moduli (GPa) = 47.68964 45.75712 45.38594
#
# Poissons Ratio (x) = 0.38770 0.47443
# Poissons Ratio (y) = 0.40408 0.10700
# Poissons Ratio (z) = 0.49851 0.10788
#
# Static dielectric constant tensor:
#      x y z
#    x 3.293980 0.000000 0.000000 
#    y 0.000000 3.146750 0.000000 
#    z 0.000000 0.000000 3.128580 
# 
# 
# High freq. dielectric constant tensor:
#      x y z
#    x 1.663260 0.000000 0.000000 
#    y 0.000000 1.664130 0.000000 
#    z 0.000000 0.000000 1.658240 
# 
# From -- ./inp_files/12430.got.cif
#   From: 2010.03.12/outbox.cif.g09.slc.cpg/sg44_7_cif.got.tgz:12430.got - 2010.04.14 02:36:11.
