data_PCOD8189599
_publ_section_title
;
Structure prediction by ZEFSAII (Michael W. Deem and Ramdas Pophale) SiO2 
 PCOD8189599
Probable space group: I M M 2
;
_chemical_formula_sum "Si O2"
_cell_formula_units_Z 64
_cell_length_a 28.588610
_cell_length_b 8.665820
_cell_length_c 12.139540
_cell_angle_alpha 90.000000
_cell_angle_beta 90.000000
_cell_angle_gamma 90.000000
_cell_volume 3007.495142
_symmetry_space_group_name_H-M "I M M 2"
_symmetry_group_IT_number 44
_symmetry_cell_setting 'orthorhombic'
loop_
_space_group_symop_operation_xyz
x,y,z
-x,-y,z
-x,y,z
x,-y,z
1/2+x,1/2+y,1/2+z
1/2-x,1/2-y,1/2+z
1/2-x,1/2+y,1/2+z
1/2+x,1/2-y,1/2+z
loop_
_atom_site_type_symbol
_atom_site_label
_atom_site_fract_x
_atom_site_fract_y
_atom_site_fract_z
Si Si1 0.578262 0.326725 0.271710
Si Si2 0.447622 0.319965 0.030059
Si Si3 0.153564 0.317059 0.483155
Si Si4 0.780512 0.821247 0.671602
Si Si5 0.135580 0.325052 0.089769
Si Si6 0.832669 0.676163 0.852222
Si Si7 0.690723 0.678405 0.760904
Si Si8 0.550645 0.330330 0.508006
O O1 0.600146 0.500000 0.262137
O O2 0.550702 0.287158 0.160633
O O3 0.618686 0.201760 0.289539
O O4 0.544199 0.315055 0.376102
O O5 0.500000 0.264973 0.986572
O O6 0.441837 0.500000 0.003337
O O7 0.401087 0.238429 0.979306
O O8 0.153089 0.500000 0.482956
O O9 0.182245 0.259604 0.590201
O O10 0.183476 0.258299 0.378764
O O11 0.795338 0.790929 0.798203
O O12 0.728343 0.752680 0.675205
O O13 0.778590 0.000000 0.640841
O O14 0.144431 0.500000 0.128232
O O15 0.144150 0.207088 0.189687
O O16 0.081546 0.305387 0.057947
O O17 0.165603 0.283370 0.981145
O O18 0.816873 0.500000 0.834191
O O19 0.701483 0.500000 0.781492
O O20 0.500000 0.313701 0.562659
O O21 0.572183 0.500000 0.534599
#
# Coordination Sequence:
#
# PCOD8189599 Si02
#       8
#     8   8   8   8   8   8   8   8
#     4   9  16  29  52  84 125 167 207 256 313 374
#     4  10  20  36  61  94 132 176 223 271 329 393
#     4  12  26  46  69  97 135 174 220 274 334 395
#     4  12  25  43  68  97 130 167 211 261 320 385
#     4  10  22  40  61  89 128 165 207 259 315 377
#     4  10  20  35  58  90 128 166 204 252 309 373
#     4  12  27  47  70  94 125 167 218 270 327 390
#     4   9  17  31  54  86 123 166 215 263 316 378
#
# _framework density 21.280169000000001
#
# number of rings (size 3 to 8) (size 9 to 14) (size 15 to 20)
#    0.000    1.500    1.250    4.500    1.750    3.500 
#    0.000    0.625    0.000    6.000    0.000    0.000 
#    0.000    0.000    0.000    0.000    0.000    0.000 
#
# Total GULP energy -396482.842020 kJ/mol
# GULP energy per Si atom -12390.088813 kJ/mol
# Density = 2.123173 g / cm^3
# Si number density = 21.280169 Si / 1000 Ang^3
#
#
#
# Elastic Constant Matrix: (Units=GPa)
#
#
# Indices 1 2 3 4 5 6 
#
# 1 93.8336 39.7673 33.0453 0.0000 0.0000 0.0000
# 2 39.7673 117.4325 38.8500 0.0000 0.0000 0.0000
# 3 33.0453 38.8500 76.9810 0.0000 0.0000 0.0000
# 4 0.0000 0.0000 0.0000 30.4129 0.0000 0.0000
# 5 0.0000 0.0000 0.0000 0.0000 13.1305 0.0000
# 6 0.0000 0.0000 0.0000 0.0000 0.0000 29.1362
#
#
#
# Elastic Compliance Matrix: (Units=1/GPa)
#
#
# Indices 1 2 3 4 5 6 
#
# 1 0.013477 -0.003181 -0.004180 0.000000 0.000000 0.000000
# 2 -0.003181 0.010973 -0.004172 0.000000 0.000000 0.000000
# 3 -0.004180 -0.004172 0.016890 0.000000 0.000000 0.000000
# 4 0.000000 0.000000 0.000000 0.032881 0.000000 0.000000
# 5 0.000000 0.000000 0.000000 0.000000 0.076159 0.000000
# 6 0.000000 0.000000 0.000000 0.000000 0.000000 0.034322
#
#
# Mechanical properties :
#
#
# Convention : Reuss Voigt Hill
#
# Bulk Modulus (GPa) = 54.72270 56.84139 55.78204
# Shear Modulus (GPa) = 23.37984 26.30822 24.84403
#
# Velocity S-wave (km/s) = 3.31821 3.51989 3.42054
# Velocity P-wave (km/s) = 6.36018 6.57940 6.47072
#
# Compressibility (1/GPa) = 0.01827395
#
# Stress axis : x y z
#
# Youngs Moduli (GPa) = 74.19827 91.13211 59.20615
#
# Poissons Ratio (x) = 0.28990 0.24748
# Poissons Ratio (y) = 0.23603 0.24702
# Poissons Ratio (z) = 0.31015 0.38022
#
# Static dielectric constant tensor:
#      x y z
#    x 3.955640 0.000000 0.000000 
#    y 0.000000 3.787690 0.000000 
#    z 0.000000 0.000000 3.760600 
# 
# 
# High freq. dielectric constant tensor:
#      x y z
#    x 1.837940 0.000000 0.000000 
#    y 0.000000 1.827750 0.000000 
#    z 0.000000 0.000000 1.820490 
# 
# From -- ./inp_files/15119.got.cif
#   From: 2010.03.12/outbox.cif.g09.slc.cpg/sg44_8_cif.got.tgz:15119.got - 2010.04.14 02:36:11.
