data_PCOD8189116
_publ_section_title
;
Structure prediction by ZEFSAII (Michael W. Deem and Ramdas Pophale) SiO2 
 PCOD8189116
Probable space group: I M M 2
;
_chemical_formula_sum "Si O2"
_cell_formula_units_Z 48
_cell_length_a 18.627156
_cell_length_b 15.340465
_cell_length_c 9.823604
_cell_angle_alpha 90.000000
_cell_angle_beta 90.000000
_cell_angle_gamma 90.000000
_cell_volume 2807.087325
_symmetry_space_group_name_H-M "I M M 2"
_symmetry_group_IT_number 44
_symmetry_cell_setting 'orthorhombic'
loop_
_space_group_symop_operation_xyz
x,y,z
-x,-y,z
-x,y,z
x,-y,z
1/2+x,1/2+y,1/2+z
1/2-x,1/2-y,1/2+z
1/2-x,1/2+y,1/2+z
1/2+x,1/2-y,1/2+z
loop_
_atom_site_type_symbol
_atom_site_label
_atom_site_fract_x
_atom_site_fract_y
_atom_site_fract_z
Si Si1 0.917059 0.241204 0.727900
Si Si2 0.834280 0.100901 0.212191
Si Si3 0.418851 0.907271 0.933670
Si Si4 0.167446 0.404273 0.705256
Si Si5 0.581630 0.280231 0.910064
Si Si6 0.416272 0.400490 0.443595
O O1 0.874147 0.326501 0.782357
O O2 0.900211 0.221239 0.570486
O O3 0.000000 0.261677 0.751257
O O4 0.892721 0.157827 0.815372
O O5 0.750664 0.120319 0.198630
O O6 0.864386 0.153976 0.339740
O O7 0.873006 0.132478 0.074856
O O8 0.851100 0.000000 0.239417
O O9 0.500000 0.900575 0.995380
O O10 0.406389 0.818295 0.848001
O O11 0.411494 0.000000 0.850785
O O12 0.361598 0.910126 0.053015
O O13 0.156787 0.500000 0.775775
O O14 0.500000 0.311625 0.885295
O O15 0.500000 0.390549 0.477111
O O16 0.396476 0.500000 0.406814
#
# Coordination Sequence:
#
# PCOD8189116 Si02
#       6
#     8   8   8   8   8   8
#     4   9  18  31  49  72  92 115 151 191 229 266
#     4  10  20  31  45  67  94 125 155 182 221 272
#     4   8  14  27  48  71  92 115 147 188 229 268
#     4   9  17  29  46  68  94 121 150 185 225 270
#     4   9  17  29  46  69  94 119 150 188 227 265
#     4   9  18  33  50  67  90 121 155 188 223 267
#
# _framework density 17.099575000000002
#
# number of rings (size 3 to 8) (size 9 to 14) (size 15 to 20)
#    0.000    3.000    0.000    2.000    0.000    5.333 
#    0.000    1.667    0.000    1.000    0.000    2.333 
#    0.000    0.000    0.000    0.000    0.000    0.000 
#
# Total GULP energy -297363.908230 kJ/mol
# GULP energy per Si atom -12390.162843 kJ/mol
# Density = 1.706066 g / cm^3
# Si number density = 17.099575 Si / 1000 Ang^3
#
#
#
# Elastic Constant Matrix: (Units=GPa)
#
#
# Indices 1 2 3 4 5 6 
#
# 1 88.4788 56.9578 37.8683 0.0000 0.0000 0.0000
# 2 56.9578 119.5643 52.9079 0.0000 0.0000 0.0000
# 3 37.8683 52.9079 56.8781 0.0000 0.0000 0.0000
# 4 0.0000 0.0000 0.0000 17.3550 0.0000 0.0000
# 5 0.0000 0.0000 0.0000 0.0000 12.7218 0.0000
# 6 0.0000 0.0000 0.0000 0.0000 0.0000 27.8890
#
#
#
# Elastic Compliance Matrix: (Units=1/GPa)
#
#
# Indices 1 2 3 4 5 6 
#
# 1 0.017683 -0.005463 -0.006691 0.000000 0.000000 0.000000
# 2 -0.005463 0.015902 -0.011155 0.000000 0.000000 0.000000
# 3 -0.006691 -0.011155 0.032413 0.000000 0.000000 0.000000
# 4 0.000000 0.000000 0.000000 0.057620 0.000000 0.000000
# 5 0.000000 0.000000 0.000000 0.000000 0.078605 0.000000
# 6 0.000000 0.000000 0.000000 0.000000 0.000000 0.035856
#
#
# Mechanical properties :
#
#
# Convention : Reuss Voigt Hill
#
# Bulk Modulus (GPa) = 51.60153 62.26546 56.93350
# Shear Modulus (GPa) = 17.17279 19.40564 18.28922
#
# Velocity S-wave (km/s) = 3.17248 3.37242 3.27398
# Velocity P-wave (km/s) = 6.60773 7.18727 6.90358
#
# Compressibility (1/GPa) = 0.01937927
#
# Stress axis : x y z
#
# Youngs Moduli (GPa) = 56.55298 62.88404 30.85165
#
# Poissons Ratio (x) = 0.34351 0.20644
# Poissons Ratio (y) = 0.30893 0.34416
# Poissons Ratio (z) = 0.37842 0.70150
#
# Static dielectric constant tensor:
#      x y z
#    x 3.187840 0.000000 0.000000 
#    y 0.000000 3.704950 0.000000 
#    z 0.000000 0.000000 2.777450 
# 
# 
# High freq. dielectric constant tensor:
#      x y z
#    x 1.661680 0.000000 0.000000 
#    y 0.000000 1.680580 0.000000 
#    z 0.000000 0.000000 1.606390 
# 
# From -- ./inp_files/7104.got.cif
#   From: 2010.03.12/outbox.cif.g09.slc.cpg/sg44_4_cif.got.tgz:7104.got - 2010.04.14 02:36:11.
