data_PCOD8189165
_publ_section_title
;
Structure prediction by ZEFSAII (Michael W. Deem and Ramdas Pophale) SiO2 
 PCOD8189165
Probable space group: I M M 2
;
_chemical_formula_sum "Si O2"
_cell_formula_units_Z 56
_cell_length_a 9.144913
_cell_length_b 23.781848
_cell_length_c 13.980425
_cell_angle_alpha 90.000000
_cell_angle_beta 90.000000
_cell_angle_gamma 90.000000
_cell_volume 3040.503805
_symmetry_space_group_name_H-M "I M M 2"
_symmetry_group_IT_number 44
_symmetry_cell_setting 'orthorhombic'
loop_
_space_group_symop_operation_xyz
x,y,z
-x,-y,z
-x,y,z
x,-y,z
1/2+x,1/2+y,1/2+z
1/2-x,1/2-y,1/2+z
1/2-x,1/2+y,1/2+z
1/2+x,1/2-y,1/2+z
loop_
_atom_site_type_symbol
_atom_site_label
_atom_site_fract_x
_atom_site_fract_y
_atom_site_fract_z
Si Si1 0.173121 0.562557 0.407300
Si Si2 0.172060 0.661309 0.938515
Si Si3 0.326029 0.937581 0.118364
Si Si4 0.329697 0.435382 0.042177
Si Si5 0.168149 0.269271 0.120391
Si Si6 0.172301 0.671022 0.723362
Si Si7 0.670888 0.115639 0.716625
O O1 0.227905 0.500000 0.381444
O O2 0.232610 0.579572 0.512310
O O3 0.228644 0.604619 0.324454
O O4 0.000000 0.563893 0.410643
O O5 0.219273 0.681898 0.833025
O O6 0.000000 0.648031 0.944682
O O7 0.255059 0.603579 0.962061
O O8 0.214185 0.710165 0.014010
O O9 0.500000 0.939356 0.117360
O O10 0.269767 0.890918 0.193071
O O11 0.267136 0.000000 0.146570
O O12 0.500000 0.420456 0.047833
O O13 0.303865 0.500000 0.012864
O O14 0.259024 0.424374 0.145358
O O15 0.262150 0.216288 0.151278
O O16 0.200232 0.319289 0.194681
O O17 0.000000 0.251165 0.122347
O O18 0.000000 0.674855 0.711384
O O19 0.500000 0.100870 0.704379
#
# Coordination Sequence:
#
# PCOD8189165 Si02
#       7
#     8   8   8   8   8   8   8
#     4   8  13  23  43  71  99 125 156 197 243 288
#     4   9  20  37  53  72  99 132 172 210 244 295
#     4   8  15  28  46  72 102 124 152 202 251 288
#     4  10  20  32  48  74 105 134 167 210 258 301
#     4   9  19  34  49  69 100 131 160 200 247 294
#     4  10  20  34  55  78  96 123 165 206 245 291
#     4   9  17  30  49  72  99 135 174 205 240 293
#
# _framework density 18.417999999999999
#
# number of rings (size 3 to 8) (size 9 to 14) (size 15 to 20)
#    0.000    3.000    0.000    2.571    0.000    6.286 
#    0.000    2.857    0.000    1.286    0.000    2.000 
#    0.000    0.000    0.000    0.000    0.000    0.000 
#
# Total GULP energy -347062.965576 kJ/mol
# GULP energy per Si atom -12395.105913 kJ/mol
# Density = 1.837608 g / cm^3
# Si number density = 18.418000 Si / 1000 Ang^3
#
#
#
# Elastic Constant Matrix: (Units=GPa)
#
#
# Indices 1 2 3 4 5 6 
#
# 1 42.0626 38.0278 28.7806 0.0000 0.0000 0.0000
# 2 38.0278 122.1509 78.8660 0.0001 0.0000 0.0000
# 3 28.7806 78.8660 137.3366 0.0006 -0.0002 -0.0001
# 4 0.0000 0.0001 0.0006 27.1150 -0.0001 0.0000
# 5 0.0000 0.0000 -0.0002 -0.0001 13.5882 0.0000
# 6 0.0000 0.0000 -0.0001 0.0000 0.0000 28.1361
#
#
#
# Elastic Compliance Matrix: (Units=1/GPa)
#
#
# Indices 1 2 3 4 5 6 
#
# 1 0.033314 -0.009319 -0.001630 0.000000 0.000000 0.000000
# 2 -0.009319 0.015617 -0.007015 0.000000 0.000000 0.000000
# 3 -0.001630 -0.007015 0.011652 0.000000 0.000000 0.000000
# 4 0.000000 0.000000 0.000000 0.036880 0.000000 0.000000
# 5 0.000000 0.000000 0.000000 0.000000 0.073593 0.000000
# 6 0.000000 0.000000 0.000000 0.000000 0.000000 0.035542
#
#
# Mechanical properties :
#
#
# Convention : Reuss Voigt Hill
#
# Bulk Modulus (GPa) = 40.56048 65.87768 53.21908
# Shear Modulus (GPa) = 19.94062 24.15958 22.05010
#
# Velocity S-wave (km/s) = 3.29397 3.62572 3.46382
# Velocity P-wave (km/s) = 6.04458 7.30572 6.70487
#
# Compressibility (1/GPa) = 0.02465454
#
# Stress axis : x y z
#
# Youngs Moduli (GPa) = 30.01703 64.03219 85.82571
#
# Poissons Ratio (x) = 0.59671 0.13990
# Poissons Ratio (y) = 0.27973 0.60209
# Poissons Ratio (z) = 0.04893 0.44920
#
# Static dielectric constant tensor:
#      x y z
#    x 3.030700 0.000000 0.000000 
#    y 0.000000 3.388990 0.000000 
#    z 0.000000 0.000000 3.715670 
# 
# 
# High freq. dielectric constant tensor:
#      x y z
#    x 1.676220 0.000000 0.000000 
#    y 0.000000 1.710570 0.000000 
#    z 0.000000 0.000000 1.719760 
# 
# From -- ./inp_files/16486.got.cif
#   From: 2010.03.12/outbox.cif.g09.slc.cpg/sg44_9_cif.got.tgz:16486.got - 2010.04.14 02:36:11.
