data_PCOD8189097
_publ_section_title
;
Structure prediction by ZEFSAII (Michael W. Deem and Ramdas Pophale) SiO2 
 PCOD8189097
Probable space group: I M M 2
;
_chemical_formula_sum "Si O2"
_cell_formula_units_Z 34
_cell_length_a 7.861890
_cell_length_b 7.655677
_cell_length_c 26.868856
_cell_angle_alpha 90.000000
_cell_angle_beta 90.000000
_cell_angle_gamma 90.000000
_cell_volume 1617.185135
_symmetry_space_group_name_H-M "I M M 2"
_symmetry_group_IT_number 44
_symmetry_cell_setting 'orthorhombic'
loop_
_space_group_symop_operation_xyz
x,y,z
-x,-y,z
-x,y,z
x,-y,z
1/2+x,1/2+y,1/2+z
1/2-x,1/2-y,1/2+z
1/2-x,1/2+y,1/2+z
1/2+x,1/2-y,1/2+z
loop_
_atom_site_type_symbol
_atom_site_label
_atom_site_fract_x
_atom_site_fract_y
_atom_site_fract_z
Si Si1 0.695109 0.199631 0.704870
Si Si2 0.810194 0.793285 0.598027
Si Si3 0.187716 0.500000 0.773504
Si Si4 0.500000 0.192091 0.924903
Si Si5 0.000000 0.000000 0.347568
Si Si6 0.190654 0.706128 0.992596
O O1 0.500000 0.213557 0.720860
O O2 0.713151 0.264955 0.647957
O O3 0.800896 0.326054 0.740248
O O4 0.761841 0.000000 0.710780
O O5 0.713461 0.723762 0.549069
O O6 0.000000 0.714913 0.598956
O O7 0.816415 0.000000 0.595513
O O8 0.329244 0.500000 0.815683
O O9 0.000000 0.500000 0.798260
O O10 0.500000 0.328133 0.880582
O O11 0.669636 0.207049 0.957710
O O12 0.500000 0.000000 0.900682
O O13 0.219763 0.500000 0.990214
O O14 0.000000 0.756350 0.974796
#
# Coordination Sequence:
#
# PCOD8189097 Si02
#       6
#     8   8   4   4   2   8
#     4  10  20  38  64  97 139 179 219 274 329 398
#     4   9  16  29  56  94 137 182 222 258 323 399
#     4  12  26  46  72 100 130 172 230 284 342 403
#     4  12  26  46  72  98 130 172 228 288 346 395
#     4  12  28  52  72  96 132 176 232 292 352 394
#     4  10  19  37  66  97 136 181 221 271 330 402
#
# _framework density 21.024184999999999
#
# number of rings (size 3 to 8) (size 9 to 14) (size 15 to 20)
#    0.000    1.647    3.529    1.412    0.000    6.588 
#    2.118    0.000    0.000    0.000    0.000    0.000 
#    0.000    0.000    0.000    0.000    0.000    0.000 
#
# Total GULP energy -210779.107898 kJ/mol
# GULP energy per Si atom -12398.771053 kJ/mol
# Density = 2.097633 g / cm^3
# Si number density = 21.024185 Si / 1000 Ang^3
#
#
#
# Elastic Constant Matrix: (Units=GPa)
#
#
# Indices 1 2 3 4 5 6 
#
# 1 151.5496 42.1568 55.9975 0.0002 0.0000 0.0000
# 2 42.1568 106.8289 57.1016 -0.0015 0.0000 0.0000
# 3 55.9975 57.1016 124.8073 -0.0006 0.0000 0.0000
# 4 0.0002 -0.0015 -0.0006-5090.2803 -0.0009 -0.0002
# 5 0.0000 0.0000 0.0000 -0.0009 36.6334 0.0000
# 6 0.0000 0.0000 0.0000 -0.0002 0.0000 3.7393
#
#
#
# Elastic Compliance Matrix: (Units=1/GPa)
#
#
# Indices 1 2 3 4 5 6 
#
# 1 0.008128 -0.001665 -0.002885 0.000000 0.000000 0.000000
# 2 -0.001665 0.012732 -0.005078 0.000000 0.000000 0.000000
# 3 -0.002885 -0.005078 0.011630 0.000000 0.000000 0.000000
# 4 0.000000 0.000000 0.000000 -0.000196 0.000000 0.000000
# 5 0.000000 0.000000 0.000000 0.000000 0.027297 0.000000
# 6 0.000000 0.000000 0.000000 0.000000 0.000000 0.267430
#
#
# Mechanical properties :
#
#
# Convention : Reuss Voigt Hill
#
# Bulk Modulus (GPa) = 75.56538 77.07753 76.32146
# Shear Modulus (GPa) = 14.25770 -994.78619 -490.26425
#
# Velocity S-wave (km/s) = 2.60697 -21.77590 -15.28715
# Velocity P-wave (km/s) = 6.71430 24.40312 16.58961
#
# Compressibility (1/GPa) = 0.01323357
#
# Stress axis : x y z
#
# Youngs Moduli (GPa) = 123.03654 78.54073 85.98515
#
# Poissons Ratio (x) = 0.13080 0.24804
# Poissons Ratio (y) = 0.20491 0.43663
# Poissons Ratio (z) = 0.35492 0.39883
#
# Static dielectric constant tensor:
#      x y z
#    x 3.868850 0.000000 0.000000 
#    y 0.000000 9.084880 0.000000 
#    z 0.000000 0.000000 3.739230 
# 
# 
# High freq. dielectric constant tensor:
#      x y z
#    x 1.835070 0.000000 0.000000 
#    y 0.000000 1.811710 0.000000 
#    z 0.000000 0.000000 1.805100 
# 
# From -- ./inp_files/22565.got.cif
#   From: 2010.03.12/outbox.cif.g09.slc.cpg/sg44_12_cif.got.tgz:22565.got - 2010.04.14 02:36:11.
