data_PCOD8189127
_publ_section_title
;
Structure prediction by ZEFSAII (Michael W. Deem and Ramdas Pophale) SiO2 
 PCOD8189127
Probable space group: I M M 2
;
_chemical_formula_sum "Si O2"
_cell_formula_units_Z 48
_cell_length_a 9.225738
_cell_length_b 7.875210
_cell_length_c 33.826462
_cell_angle_alpha 90.000000
_cell_angle_beta 90.000000
_cell_angle_gamma 90.000000
_cell_volume 2457.648883
_symmetry_space_group_name_H-M "I M M 2"
_symmetry_group_IT_number 44
_symmetry_cell_setting 'orthorhombic'
loop_
_space_group_symop_operation_xyz
x,y,z
-x,-y,z
-x,y,z
x,-y,z
1/2+x,1/2+y,1/2+z
1/2-x,1/2-y,1/2+z
1/2-x,1/2+y,1/2+z
1/2+x,1/2-y,1/2+z
loop_
_atom_site_type_symbol
_atom_site_label
_atom_site_fract_x
_atom_site_fract_y
_atom_site_fract_z
Si Si1 0.829414 0.690701 0.801990
Si Si2 0.331421 0.309631 0.219430
Si Si3 0.666543 0.000000 0.935339
Si Si4 0.341615 0.192899 0.138347
Si Si5 0.328568 0.194641 0.476700
Si Si6 0.662378 0.196417 0.566233
Si Si7 0.166611 0.500000 0.341934
O O1 0.798574 0.500000 0.818065
O O2 0.776962 0.695568 0.756059
O O3 0.000000 0.735126 0.804679
O O4 0.742757 0.828142 0.827218
O O5 0.500000 0.273734 0.212262
O O6 0.298546 0.500000 0.233051
O O7 0.258302 0.274563 0.176484
O O8 0.743400 0.828362 0.950087
O O9 0.500000 0.000000 0.949645
O O10 0.677972 0.000000 0.888667
O O11 0.500000 0.277878 0.131377
O O12 0.255380 0.203051 0.097768
O O13 0.361137 0.000000 0.150078
O O14 0.500000 0.224199 0.472040
O O15 0.279337 0.226534 0.521926
O O16 0.290327 0.000000 0.464382
O O17 0.500000 0.266776 0.568962
O O18 0.668149 0.000000 0.577373
O O19 0.000000 0.500000 0.327663
#
# Coordination Sequence:
#
# PCOD8189127 Si02
#       7
#     8   8   4   8   8   8   4
#     4  10  20  37  64  92 116 150 198 249 295 344
#     4   9  16  30  54  81 111 147 189 239 291 335
#     4  11  25  41  61  89 121 155 193 241 301 361
#     4  10  20  31  47  78 115 148 187 234 281 334
#     4   9  20  40  64  88 115 153 198 244 295 350
#     4   9  19  36  55  76 106 145 188 233 284 338
#     4  11  25  43  59  85 125 161 191 235 299 367
#
# _framework density 19.530861999999999
#
# number of rings (size 3 to 8) (size 9 to 14) (size 15 to 20)
#    0.000    2.333    0.833    2.500    1.167    6.667 
#    0.000    5.833    0.000    2.000    0.000    0.000 
#    0.000    0.000    0.000    0.000    0.000    0.000 
#
# Total GULP energy -297450.391506 kJ/mol
# GULP energy per Si atom -12393.766313 kJ/mol
# Density = 1.948641 g / cm^3
# Si number density = 19.530862 Si / 1000 Ang^3
#
#
#
# Elastic Constant Matrix: (Units=GPa)
#
#
# Indices 1 2 3 4 5 6 
#
# 1 73.3210 50.1380 47.7403 0.0000 0.0000 0.0000
# 2 50.1380 116.7448 53.6852 0.0001 0.0000 0.0000
# 3 47.7403 53.6852 99.0899 0.0000 0.0000 0.0000
# 4 0.0000 0.0001 0.0000 28.3358 0.0000 0.0000
# 5 0.0000 0.0000 0.0000 0.0000 27.7472 0.0000
# 6 0.0000 0.0000 0.0000 0.0000 0.0000 21.9866
#
#
#
# Elastic Compliance Matrix: (Units=1/GPa)
#
#
# Indices 1 2 3 4 5 6 
#
# 1 0.022936 -0.006351 -0.007609 0.000000 0.000000 0.000000
# 2 -0.006351 0.013166 -0.004073 0.000000 0.000000 0.000000
# 3 -0.007609 -0.004073 0.015965 0.000000 0.000000 0.000000
# 4 0.000000 0.000000 0.000000 0.035291 0.000000 0.000000
# 5 0.000000 0.000000 0.000000 0.000000 0.036040 0.000000
# 6 0.000000 0.000000 0.000000 0.000000 0.000000 0.045482
#
#
# Mechanical properties :
#
#
# Convention : Reuss Voigt Hill
#
# Bulk Modulus (GPa) = 62.50186 65.80918 64.15552
# Shear Modulus (GPa) = 23.77755 24.78671 24.28213
#
# Velocity S-wave (km/s) = 3.49296 3.56631 3.52983
# Velocity P-wave (km/s) = 6.95261 7.12224 7.03793
#
# Compressibility (1/GPa) = 0.01599952
#
# Stress axis : x y z
#
# Youngs Moduli (GPa) = 43.59893 75.95034 62.63724
#
# Poissons Ratio (x) = 0.48237 0.47664
# Poissons Ratio (y) = 0.27690 0.25515
# Poissons Ratio (z) = 0.33177 0.30938
#
# Static dielectric constant tensor:
#      x y z
#    x 3.361840 0.000000 0.000000 
#    y 0.000000 3.598920 0.000000 
#    z 0.000000 0.000000 3.569970 
# 
# 
# High freq. dielectric constant tensor:
#      x y z
#    x 1.725630 0.000000 0.000000 
#    y 0.000000 1.770570 0.000000 
#    z 0.000000 0.000000 1.767330 
# 
# From -- ./inp_files/26949.got.cif
#   From: 2010.03.12/outbox.cif.g09.slc.cpg/sg44_14_cif.got.tgz:26949.got - 2010.04.14 02:36:11.
