data_PCOD8189892
_publ_section_title
;
Structure prediction by ZEFSAII (Michael W. Deem and Ramdas Pophale) SiO2 
 PCOD8189892
Probable space group: I M M 2
;
_chemical_formula_sum "Si O2"
_cell_formula_units_Z 64
_cell_length_a 14.824716
_cell_length_b 9.398033
_cell_length_c 24.373193
_cell_angle_alpha 90.000000
_cell_angle_beta 90.000000
_cell_angle_gamma 90.000000
_cell_volume 3395.750516
_symmetry_space_group_name_H-M "I M M 2"
_symmetry_group_IT_number 44
_symmetry_cell_setting 'orthorhombic'
loop_
_space_group_symop_operation_xyz
x,y,z
-x,-y,z
-x,y,z
x,-y,z
1/2+x,1/2+y,1/2+z
1/2-x,1/2-y,1/2+z
1/2-x,1/2+y,1/2+z
1/2+x,1/2-y,1/2+z
loop_
_atom_site_type_symbol
_atom_site_label
_atom_site_fract_x
_atom_site_fract_y
_atom_site_fract_z
Si Si1 0.264168 0.331690 0.591200
Si Si2 0.893115 0.841982 0.911318
Si Si3 0.257651 0.834470 0.216696
Si Si4 0.900248 0.331005 0.518201
Si Si5 0.893101 0.343121 0.398387
Si Si6 0.106706 0.335206 0.014985
Si Si7 0.396365 0.332717 0.289029
Si Si8 0.601960 0.664713 0.797483
O O1 0.280983 0.500000 0.583828
O O2 0.254701 0.287360 0.654169
O O3 0.171555 0.279608 0.562832
O O4 0.347833 0.247167 0.565470
O O5 0.861818 0.792386 0.850556
O O6 0.000000 0.849853 0.910720
O O7 0.854697 0.000000 0.924836
O O8 0.858739 0.732479 0.957498
O O9 0.338720 0.748851 0.243865
O O10 0.162769 0.798267 0.245321
O O11 0.282100 0.000000 0.221445
O O12 0.907146 0.500000 0.516573
O O13 0.866449 0.279558 0.457978
O O14 0.000000 0.268668 0.532407
O O15 0.850859 0.500000 0.389848
O O16 0.855973 0.243444 0.350263
O O17 0.000000 0.352035 0.395670
O O18 0.134855 0.500000 0.015581
O O19 0.000000 0.315950 0.021613
O O20 0.500000 0.285884 0.281293
O O21 0.385550 0.500000 0.279584
O O22 0.500000 0.715252 0.784079
O O23 0.603971 0.500000 0.812099
#
# Coordination Sequence:
#
# PCOD8189892 Si02
#       8
#     8   8   8   8   8   8   8   8
#     4  10  21  36  54  76 102 137 181 219 253 305
#     4   8  15  31  55  80 104 133 172 213 257 317
#     4  10  22  36  51  76 105 136 178 221 260 304
#     4   8  15  30  52  76 101 127 159 205 254 298
#     4   8  14  27  49  75  98 122 158 202 249 303
#     4  10  21  36  54  78 108 139 171 215 271 320
#     4   9  19  36  57  80 107 140 175 213 261 315
#     4   9  18  33  50  69  99 134 164 202 253 304
#
# _framework density 18.847086999999998
#
# number of rings (size 3 to 8) (size 9 to 14) (size 15 to 20)
#    0.000    3.000    0.000    1.875    0.000    4.500 
#    0.000    8.125    0.000    2.625    0.000    0.000 
#    0.000    0.000    0.000    0.000    0.000    0.000 
#
# Total GULP energy -396691.720470 kJ/mol
# GULP energy per Si atom -12396.616265 kJ/mol
# Density = 1.880419 g / cm^3
# Si number density = 18.847087 Si / 1000 Ang^3
#
#
#
# Elastic Constant Matrix: (Units=GPa)
#
#
# Indices 1 2 3 4 5 6 
#
# 1 81.5064 41.0387 64.7021 0.0000 0.0000 0.0000
# 2 41.0387 62.3171 58.4954 0.0000 0.0000 0.0000
# 3 64.7021 58.4954 169.5078 0.0000 0.0000 0.0000
# 4 0.0000 0.0000 0.0000 30.4413 0.0000 0.0000
# 5 0.0000 0.0000 0.0000 0.0000 25.2383 0.0000
# 6 0.0000 0.0000 0.0000 0.0000 0.0000 22.5277
#
#
#
# Elastic Compliance Matrix: (Units=1/GPa)
#
#
# Indices 1 2 3 4 5 6 
#
# 1 0.020619 -0.009157 -0.004710 0.000000 0.000000 0.000000
# 2 -0.009157 0.027802 -0.006099 0.000000 0.000000 0.000000
# 3 -0.004710 -0.006099 0.009802 0.000000 0.000000 0.000000
# 4 0.000000 0.000000 0.000000 0.032850 0.000000 0.000000
# 5 0.000000 0.000000 0.000000 0.000000 0.039622 0.000000
# 6 0.000000 0.000000 0.000000 0.000000 0.000000 0.044390
#
#
# Mechanical properties :
#
#
# Convention : Reuss Voigt Hill
#
# Bulk Modulus (GPa) = 54.67322 71.31153 62.99237
# Shear Modulus (GPa) = 22.61271 25.58112 24.09692
#
# Velocity S-wave (km/s) = 3.46757 3.68815 3.57956
# Velocity P-wave (km/s) = 6.71594 7.48703 7.11194
#
# Compressibility (1/GPa) = 0.01829049
#
# Stress axis : x y z
#
# Youngs Moduli (GPa) = 48.49965 35.96844 102.01915
#
# Poissons Ratio (x) = 0.32936 0.48054
# Poissons Ratio (y) = 0.44411 0.62221
# Poissons Ratio (z) = 0.22845 0.21937
#
# Static dielectric constant tensor:
#      x y z
#    x 3.472850 0.000000 0.000000 
#    y 0.000000 3.354960 0.000000 
#    z 0.000000 0.000000 3.637200 
# 
# 
# High freq. dielectric constant tensor:
#      x y z
#    x 1.730270 0.000000 0.000000 
#    y 0.000000 1.707900 0.000000 
#    z 0.000000 0.000000 1.733160 
# 
# From -- ./inp_files/25079.got.cif
#   From: 2010.03.12/outbox.cif.g09.slc.cpg/sg44_13_cif.got.tgz:25079.got - 2010.04.14 02:36:11.
