data_PCOD8189499
_publ_section_title
;
Structure prediction by ZEFSAII (Michael W. Deem and Ramdas Pophale) SiO2 
 PCOD8189499
Probable space group: I M M 2
;
_chemical_formula_sum "Si O2"
_cell_formula_units_Z 64
_cell_length_a 9.071974
_cell_length_b 15.912995
_cell_length_c 22.935405
_cell_angle_alpha 90.000000
_cell_angle_beta 90.000000
_cell_angle_gamma 90.000000
_cell_volume 3311.007287
_symmetry_space_group_name_H-M "I M M 2"
_symmetry_group_IT_number 44
_symmetry_cell_setting 'orthorhombic'
loop_
_space_group_symop_operation_xyz
x,y,z
-x,-y,z
-x,y,z
x,-y,z
1/2+x,1/2+y,1/2+z
1/2-x,1/2-y,1/2+z
1/2-x,1/2+y,1/2+z
1/2+x,1/2-y,1/2+z
loop_
_atom_site_type_symbol
_atom_site_label
_atom_site_fract_x
_atom_site_fract_y
_atom_site_fract_z
Si Si1 0.674869 0.251095 0.076840
Si Si2 0.324774 0.905934 0.749396
Si Si3 0.668693 0.907016 0.532321
Si Si4 0.832830 0.187397 0.965501
Si Si5 0.333535 0.861439 0.405778
Si Si6 0.175590 0.233268 0.194278
Si Si7 0.173576 0.094906 0.287909
Si Si8 0.840739 0.596582 0.376610
O O1 0.500000 0.247123 0.079986
O O2 0.727641 0.347577 0.070511
O O3 0.744366 0.209283 0.134267
O O4 0.732426 0.198562 0.022014
O O5 0.500000 0.910569 0.748901
O O6 0.271924 0.829148 0.708467
O O7 0.272034 0.877436 0.814029
O O8 0.263396 0.000000 0.731600
O O9 0.500000 0.872471 0.535847
O O10 0.716546 0.910131 0.464490
O O11 0.680347 0.000000 0.559275
O O12 0.818897 0.263405 0.919917
O O13 0.772531 0.109244 0.929247
O O14 0.000000 0.172108 0.985729
O O15 0.500000 0.886297 0.389036
O O16 0.231803 0.886182 0.352323
O O17 0.231154 0.164805 0.241946
O O18 0.000000 0.228444 0.186738
O O19 0.000000 0.101679 0.292007
O O20 0.220945 0.000000 0.268783
O O21 0.875006 0.500000 0.371964
O O22 0.000000 0.642585 0.387566
#
# Coordination Sequence:
#
# PCOD8189499 Si02
#       8
#     8   8   8   8   8   8   8   8
#     4  11  23  37  53  74 101 134 178 228 272 313
#     4   8  15  29  52  81 108 137 173 208 250 313
#     4   9  18  34  55  79 109 143 174 205 251 316
#     4  10  20  35  54  76 104 139 178 215 260 320
#     4   9  18  32  52  79 108 137 170 210 257 311
#     4  10  20  36  55  73 101 141 181 221 265 315
#     4  10  21  35  53  79 107 137 176 219 264 317
#     4   9  17  31  53  82 112 137 167 211 261 314
#
# _framework density 19.329466
#
# number of rings (size 3 to 8) (size 9 to 14) (size 15 to 20)
#    0.000    2.500    0.000    4.125    0.000    5.750 
#    0.000    2.500    0.000    3.000    0.000    0.000 
#    0.000    0.000    0.000    0.000    0.000    0.000 
#
# Total GULP energy -396583.386967 kJ/mol
# GULP energy per Si atom -12393.230843 kJ/mol
# Density = 1.928547 g / cm^3
# Si number density = 19.329466 Si / 1000 Ang^3
#
#
#
# Elastic Constant Matrix: (Units=GPa)
#
#
# Indices 1 2 3 4 5 6 
#
# 1 63.6210 20.1340 36.6743 0.0000 0.0000 0.0000
# 2 20.1340 49.7432 41.0572 0.0000 0.0000 0.0000
# 3 36.6743 41.0572 98.2539 0.0000 0.0000 0.0000
# 4 0.0000 0.0000 0.0000 11.4717 0.0000 0.0000
# 5 0.0000 0.0000 0.0000 0.0000 32.2289 0.0000
# 6 0.0000 0.0000 0.0000 0.0000 0.0000 19.3851
#
#
#
# Elastic Compliance Matrix: (Units=1/GPa)
#
#
# Indices 1 2 3 4 5 6 
#
# 1 0.020316 -0.002998 -0.006330 0.000000 0.000000 0.000000
# 2 -0.002998 0.031130 -0.011889 0.000000 0.000000 0.000000
# 3 -0.006330 -0.011889 0.017509 0.000000 0.000000 0.000000
# 4 0.000000 0.000000 0.000000 0.087171 0.000000 0.000000
# 5 0.000000 0.000000 0.000000 0.000000 0.031028 0.000000
# 6 0.000000 0.000000 0.000000 0.000000 0.000000 0.051586
#
#
# Mechanical properties :
#
#
# Convention : Reuss Voigt Hill
#
# Bulk Modulus (GPa) = 37.70826 45.26101 41.48464
# Shear Modulus (GPa) = 17.24052 20.20065 18.72058
#
# Velocity S-wave (km/s) = 2.98976 3.23626 3.11545
# Velocity P-wave (km/s) = 5.60970 6.11808 5.86940
#
# Compressibility (1/GPa) = 0.02651939
#
# Stress axis : x y z
#
# Youngs Moduli (GPa) = 49.22222 32.12353 57.11463
#
# Poissons Ratio (x) = 0.09631 0.36156
# Poissons Ratio (y) = 0.14757 0.67904
# Poissons Ratio (z) = 0.31159 0.38192
#
# Static dielectric constant tensor:
#      x y z
#    x 3.264770 0.000000 0.000000 
#    y 0.000000 3.652940 0.000000 
#    z 0.000000 0.000000 3.515260 
# 
# 
# High freq. dielectric constant tensor:
#      x y z
#    x 1.726990 0.000000 0.000000 
#    y 0.000000 1.746110 0.000000 
#    z 0.000000 0.000000 1.749930 
# 
# From -- ./inp_files/23292.got.cif
#   From: 2010.03.12/outbox.cif.g09.slc.cpg/sg44_12_cif.got.tgz:23292.got - 2010.04.14 02:36:11.
