data_PCOD8189903
_publ_section_title
;
Structure prediction by ZEFSAII (Michael W. Deem and Ramdas Pophale) SiO2 
 PCOD8189903
Probable space group: I M M 2
;
_chemical_formula_sum "Si O2"
_cell_formula_units_Z 64
_cell_length_a 9.749200
_cell_length_b 32.238237
_cell_length_c 10.137996
_cell_angle_alpha 90.000000
_cell_angle_beta 90.000000
_cell_angle_gamma 90.000000
_cell_volume 3186.341933
_symmetry_space_group_name_H-M "I M M 2"
_symmetry_group_IT_number 44
_symmetry_cell_setting 'orthorhombic'
loop_
_space_group_symop_operation_xyz
x,y,z
-x,-y,z
-x,y,z
x,-y,z
1/2+x,1/2+y,1/2+z
1/2-x,1/2-y,1/2+z
1/2-x,1/2+y,1/2+z
1/2+x,1/2-y,1/2+z
loop_
_atom_site_type_symbol
_atom_site_label
_atom_site_fract_x
_atom_site_fract_y
_atom_site_fract_z
Si Si1 0.660819 0.286019 0.507670
Si Si2 0.659092 0.350988 0.124188
Si Si3 0.347211 0.385740 0.848463
Si Si4 0.842609 0.546591 0.483005
Si Si5 0.844962 0.546678 0.921515
Si Si6 0.845490 0.578517 0.202367
Si Si7 0.845962 0.123162 0.058199
Si Si8 0.339437 0.739596 0.217514
O O1 0.500000 0.280864 0.542061
O O2 0.693282 0.334952 0.478234
O O3 0.697245 0.260323 0.374192
O O4 0.749767 0.271906 0.633712
O O5 0.500000 0.359491 0.152413
O O6 0.743751 0.382468 0.216249
O O7 0.700372 0.304839 0.159746
O O8 0.700560 0.356975 0.970225
O O9 0.500000 0.402020 0.877712
O O10 0.251402 0.425657 0.831130
O O11 0.339852 0.361423 0.710837
O O12 0.794961 0.500000 0.527110
O O13 0.829465 0.548072 0.325320
O O14 0.752892 0.583964 0.540689
O O15 0.000000 0.553676 0.527739
O O16 0.821174 0.500000 0.876235
O O17 0.000000 0.560784 0.895416
O O18 0.806382 0.551512 0.074950
O O19 0.000000 0.596131 0.192378
O O20 0.000000 0.108652 0.021010
O O21 0.500000 0.749739 0.196923
#
# Coordination Sequence:
#
# PCOD8189903 Si02
#       8
#     8   8   8   8   8   8   8   8
#     4  10  23  41  62  90 122 156 197 245 296 353
#     4   9  18  34  57  82 111 143 183 231 283 341
#     4   9  19  34  53  77 103 141 184 226 278 335
#     4  10  21  36  55  80 110 146 189 236 285 341
#     4   9  17  30  49  74 105 140 178 224 279 334
#     4   9  17  31  52  78 107 141 181 227 282 341
#     4  10  22  40  59  79 110 150 193 237 287 341
#     4  10  22  39  61  91 120 152 195 242 293 353
#
# _framework density 20.085729000000001
#
# number of rings (size 3 to 8) (size 9 to 14) (size 15 to 20)
#    0.000    2.500    0.000    1.125    1.750    6.000 
#    0.000    2.500    0.000    2.250    0.000    0.000 
#    0.000    0.000    0.000    0.000    0.000    0.000 
#
# Total GULP energy -396655.339532 kJ/mol
# GULP energy per Si atom -12395.479360 kJ/mol
# Density = 2.004001 g / cm^3
# Si number density = 20.085729 Si / 1000 Ang^3
#
#
#
# Elastic Constant Matrix: (Units=GPa)
#
#
# Indices 1 2 3 4 5 6 
#
# 1 73.9150 54.5191 28.1836 -0.0023 -0.0008 -0.0010
# 2 54.5191 98.7342 26.2070 -0.0029 -0.0010 -0.0007
# 3 28.1836 26.2070 70.1670 -0.0044 -0.0017 -0.0019
# 4 -0.0023 -0.0029 -0.0044 24.8928 -0.0004 -0.0002
# 5 -0.0008 -0.0010 -0.0017 -0.0004 29.4358 -0.0020
# 6 -0.0010 -0.0007 -0.0019 -0.0002 -0.0020 36.0313
#
#
#
# Elastic Compliance Matrix: (Units=1/GPa)
#
#
# Indices 1 2 3 4 5 6 
#
# 1 0.024488 -0.012112 -0.005312 0.000000 0.000000 0.000000
# 2 -0.012112 0.017233 -0.001572 0.000001 0.000000 0.000000
# 3 -0.005312 -0.001572 0.016972 0.000002 0.000001 0.000001
# 4 0.000000 0.000001 0.000002 0.040172 0.000001 0.000000
# 5 0.000000 0.000000 0.000001 0.000001 0.033972 0.000002
# 6 0.000000 0.000000 0.000001 0.000000 0.000002 0.027754
#
#
# Mechanical properties :
#
#
# Convention : Reuss Voigt Hill
#
# Bulk Modulus (GPa) = 48.30370 51.18172 49.74271
# Shear Modulus (GPa) = 24.33270 26.99907 25.66588
#
# Velocity S-wave (km/s) = 3.48435 3.67030 3.57853
# Velocity P-wave (km/s) = 6.34733 6.59533 6.47252
#
# Compressibility (1/GPa) = 0.02070235
#
# Stress axis : x y z
#
# Youngs Moduli (GPa) = 40.83586 58.02710 58.91889
#
# Poissons Ratio (x) = 0.70282 0.31300
# Poissons Ratio (y) = 0.49460 0.09260
# Poissons Ratio (z) = 0.21693 0.09120
#
# Static dielectric constant tensor:
#      x y z
#    x 3.601890 0.000000 0.000000 
#    y 0.000000 3.515900 0.000000 
#    z 0.000000 0.000000 3.747480 
# 
# 
# High freq. dielectric constant tensor:
#      x y z
#    x 1.775300 0.000000 0.000000 
#    y 0.000000 1.770730 0.000000 
#    z 0.000000 0.000000 1.794130 
# 
# From -- ./inp_files/11577.got.cif
#   From: 2010.03.12/outbox.cif.g09.slc.cpg/sg44_6_cif.got.tgz:11577.got - 2010.04.14 02:36:11.
