data_PCOD8189244
_publ_section_title
;
Structure prediction by ZEFSAII (Michael W. Deem and Ramdas Pophale) SiO2 
 PCOD8189244
Probable space group: I M M 2
;
_chemical_formula_sum "Si O2"
_cell_formula_units_Z 48
_cell_length_a 9.422938
_cell_length_b 9.143425
_cell_length_c 30.936480
_cell_angle_alpha 90.000000
_cell_angle_beta 90.000000
_cell_angle_gamma 90.000000
_cell_volume 2665.422982
_symmetry_space_group_name_H-M "I M M 2"
_symmetry_group_IT_number 44
_symmetry_cell_setting 'orthorhombic'
loop_
_space_group_symop_operation_xyz
x,y,z
-x,-y,z
-x,y,z
x,-y,z
1/2+x,1/2+y,1/2+z
1/2-x,1/2-y,1/2+z
1/2-x,1/2+y,1/2+z
1/2+x,1/2-y,1/2+z
loop_
_atom_site_type_symbol
_atom_site_label
_atom_site_fract_x
_atom_site_fract_y
_atom_site_fract_z
Si Si1 0.331302 0.664971 0.245240
Si Si2 0.340475 0.674252 0.577996
Si Si3 0.342794 0.826554 0.999378
Si Si4 0.335492 0.828939 0.160385
Si Si5 0.164985 0.329384 0.829941
Si Si6 0.167035 0.667340 0.402406
O O1 0.500000 0.668830 0.245230
O O2 0.272525 0.500000 0.245848
O O3 0.275722 0.745499 0.202331
O O4 0.274361 0.748043 0.287579
O O5 0.500000 0.736497 0.580233
O O6 0.341283 0.500000 0.576663
O O7 0.266127 0.737502 0.534738
O O8 0.253496 0.728785 0.619594
O O9 0.500000 0.761981 0.008360
O O10 0.291955 0.785026 0.951185
O O11 0.351223 0.000000 0.003282
O O12 0.500000 0.793234 0.151430
O O13 0.312727 0.000000 0.168572
O O14 0.191518 0.500000 0.823267
O O15 0.249386 0.275100 0.871392
O O16 0.000000 0.293517 0.837088
O O17 0.213377 0.500000 0.393585
O O18 0.000000 0.685199 0.394938
#
# Coordination Sequence:
#
# PCOD8189244 Si02
#       6
#     8   8   8   8   8   8
#     4   9  17  30  49  71  93 120 158 201 239 279
#     4   9  16  25  40  66  97 124 152 189 232 277
#     4   8  14  26  44  66  93 124 157 193 232 275
#     4   9  16  27  45  67  91 121 156 193 233 277
#     4  10  20  33  50  73 100 129 162 200 243 292
#     4   9  18  32  50  73 100 129 163 203 245 289
#
# _framework density 18.008400000000002
#
# number of rings (size 3 to 8) (size 9 to 14) (size 15 to 20)
#    0.000    3.000    0.000    2.500    0.000    6.000 
#    0.000    2.500    0.000    4.500    0.000    2.333 
#    0.000    0.000    0.000    0.000    0.000    0.000 
#
# Total GULP energy -297558.286462 kJ/mol
# GULP energy per Si atom -12398.261936 kJ/mol
# Density = 1.796741 g / cm^3
# Si number density = 18.008400 Si / 1000 Ang^3
#
#
#
# Elastic Constant Matrix: (Units=GPa)
#
#
# Indices 1 2 3 4 5 6 
#
# 1 74.5112 30.3366 71.6356 0.0000 0.0000 0.0000
# 2 30.3366 60.5049 54.4053 0.0000 0.0000 0.0000
# 3 71.6356 54.4053 177.2834 0.0000 0.0000 0.0000
# 4 0.0000 0.0000 0.0000 25.9818 0.0000 0.0000
# 5 0.0000 0.0000 0.0000 0.0000 27.2714 0.0000
# 6 0.0000 0.0000 0.0000 0.0000 0.0000 16.0083
#
#
#
# Elastic Compliance Matrix: (Units=1/GPa)
#
#
# Indices 1 2 3 4 5 6 
#
# 1 0.022741 -0.004336 -0.007859 0.000000 0.000000 0.000000
# 2 -0.004336 0.023653 -0.005507 0.000000 0.000000 0.000000
# 3 -0.007859 -0.005507 0.010506 0.000000 0.000000 0.000000
# 4 0.000000 0.000000 0.000000 0.038488 0.000000 0.000000
# 5 0.000000 0.000000 0.000000 0.000000 0.036668 0.000000
# 6 0.000000 0.000000 0.000000 0.000000 0.000000 0.062467
#
#
# Mechanical properties :
#
#
# Convention : Reuss Voigt Hill
#
# Bulk Modulus (GPa) = 46.51571 69.45050 57.98311
# Shear Modulus (GPa) = 21.08871 24.24712 22.66791
#
# Velocity S-wave (km/s) = 3.42577 3.67336 3.55172
# Velocity P-wave (km/s) = 6.44468 7.52601 7.00624
#
# Compressibility (1/GPa) = 0.02149811
#
# Stress axis : x y z
#
# Youngs Moduli (GPa) = 43.97252 42.27764 95.18322
#
# Poissons Ratio (x) = 0.18332 0.74801
# Poissons Ratio (y) = 0.19066 0.52414
# Poissons Ratio (z) = 0.34556 0.23281
#
# Static dielectric constant tensor:
#      x y z
#    x 3.237360 0.000000 0.000000 
#    y 0.000000 3.005770 0.000000 
#    z 0.000000 0.000000 3.565750 
# 
# 
# High freq. dielectric constant tensor:
#      x y z
#    x 1.674790 0.000000 0.000000 
#    y 0.000000 1.659840 0.000000 
#    z 0.000000 0.000000 1.714220 
# 
# From -- ./inp_files/26317.got.cif
#   From: 2010.03.12/outbox.cif.g09.slc.cpg/sg44_14_cif.got.tgz:26317.got - 2010.04.14 02:36:11.
