data_PCOD8189822
_publ_section_title
;
Structure prediction by ZEFSAII (Michael W. Deem and Ramdas Pophale) SiO2 
 PCOD8189822
Probable space group: I M M 2
;
_chemical_formula_sum "Si O2"
_cell_formula_units_Z 64
_cell_length_a 8.885129
_cell_length_b 18.288648
_cell_length_c 20.903088
_cell_angle_alpha 90.000000
_cell_angle_beta 90.000000
_cell_angle_gamma 90.000000
_cell_volume 3396.689022
_symmetry_space_group_name_H-M "I M M 2"
_symmetry_group_IT_number 44
_symmetry_cell_setting 'orthorhombic'
loop_
_space_group_symop_operation_xyz
x,y,z
-x,-y,z
-x,y,z
x,-y,z
1/2+x,1/2+y,1/2+z
1/2-x,1/2-y,1/2+z
1/2-x,1/2+y,1/2+z
1/2+x,1/2-y,1/2+z
loop_
_atom_site_type_symbol
_atom_site_label
_atom_site_fract_x
_atom_site_fract_y
_atom_site_fract_z
Si Si1 0.828857 0.342158 0.769650
Si Si2 0.177636 0.081479 0.384447
Si Si3 0.822218 0.817210 0.496938
Si Si4 0.324269 0.679887 0.134989
Si Si5 0.173782 0.584445 0.384561
Si Si6 0.673877 0.668431 0.271579
Si Si7 0.677454 0.658502 0.502264
Si Si8 0.324272 0.157496 0.127800
O O1 0.717790 0.382711 0.817182
O O2 0.803401 0.255516 0.773335
O O3 0.794471 0.374989 0.698573
O O4 0.000000 0.360563 0.788616
O O5 0.244161 0.129871 0.442482
O O6 0.000000 0.078112 0.390595
O O7 0.246240 0.000000 0.388985
O O8 0.788611 0.857286 0.566115
O O9 0.745832 0.738656 0.490426
O O10 0.000000 0.804572 0.489288
O O11 0.500000 0.690449 0.146896
O O12 0.268894 0.640395 0.200484
O O13 0.257205 0.760801 0.129309
O O14 0.202163 0.500000 0.368448
O O15 0.220638 0.631258 0.323161
O O16 0.273055 0.605840 0.445231
O O17 0.000000 0.600673 0.399827
O O18 0.500000 0.647312 0.284960
O O19 0.500000 0.665116 0.502851
O O20 0.734263 0.620644 0.568836
O O21 0.500000 0.154094 0.110585
#
# Coordination Sequence:
#
# PCOD8189822 Si02
#       8
#     8   8   8   8   8   8   8   8
#     4   9  18  33  55  80 103 132 169 207 250 303
#     4  10  21  34  48  71 104 140 177 215 251 290
#     4   9  17  33  55  76 103 138 172 206 249 301
#     4   7  12  26  50  77 101 126 158 201 250 296
#     4  11  24  39  52  69  99 139 176 207 247 303
#     4   9  17  32  55  81 104 125 160 211 258 299
#     4  11  21  33  54  82 105 126 162 211 258 302
#     4   8  15  31  53  76 103 132 164 202 247 302
#
# _framework density 18.841878999999999
#
# number of rings (size 3 to 8) (size 9 to 14) (size 15 to 20)
#    0.000    2.750    0.000    4.500    0.000    4.750 
#    0.000    6.250    0.000    3.000    0.000    0.000 
#    0.000    0.000    0.000    0.000    0.000    0.000 
#
# Total GULP energy -396474.244323 kJ/mol
# GULP energy per Si atom -12389.820135 kJ/mol
# Density = 1.879899 g / cm^3
# Si number density = 18.841879 Si / 1000 Ang^3
#
#
#
# Elastic Constant Matrix: (Units=GPa)
#
#
# Indices 1 2 3 4 5 6 
#
# 1 57.6383 20.4169 32.5448 0.0000 0.0000 0.0000
# 2 20.4169 46.0884 28.4479 0.0000 0.0000 0.0000
# 3 32.5448 28.4479 137.4132 0.0000 0.0000 0.0000
# 4 0.0000 0.0000 0.0000 -0.6135 0.0000 0.0000
# 5 0.0000 0.0000 0.0000 0.0000 32.1965 0.0000
# 6 0.0000 0.0000 0.0000 0.0000 0.0000 17.6078
#
#
#
# Elastic Compliance Matrix: (Units=1/GPa)
#
#
# Indices 1 2 3 4 5 6 
#
# 1 0.022087 -0.007516 -0.003675 0.000000 0.000000 0.000000
# 2 -0.007516 0.027434 -0.003899 0.000000 0.000000 0.000000
# 3 -0.003675 -0.003899 0.008955 0.000000 0.000000 0.000000
# 4 0.000000 0.000000 0.000000 -1.630059 0.000000 0.000000
# 5 0.000000 0.000000 0.000000 0.000000 0.031059 0.000000
# 6 0.000000 0.000000 0.000000 0.000000 0.000000 0.056793
#
#
# Mechanical properties :
#
#
# Convention : Reuss Voigt Hill
#
# Bulk Modulus (GPa) = 35.34200 44.88433 40.11316
# Shear Modulus (GPa) = -3.46232 20.48685 8.51227
#
# Velocity S-wave (km/s) = -1.35704 3.30101 2.12780
# Velocity P-wave (km/s) = 4.04258 6.19695 5.23186
#
# Compressibility (1/GPa) = 0.02829494
#
# Stress axis : x y z
#
# Youngs Moduli (GPa) = 45.27545 36.45130 111.66958
#
# Poissons Ratio (x) = 0.27397 0.41039
# Poissons Ratio (y) = 0.34029 0.43544
# Poissons Ratio (z) = 0.16639 0.14214
#
# Static dielectric constant tensor:
#      x y z
#    x 3.214390 0.000000 0.000000 
#    y 0.000000 3.172250 0.000000 
#    z 0.000000 0.000000 3.977760 
# 
# 
# High freq. dielectric constant tensor:
#      x y z
#    x 1.708590 0.000000 0.000000 
#    y 0.000000 1.690130 0.000000 
#    z 0.000000 0.000000 1.761030 
# 
# From -- ./inp_files/23325.got.cif
#   From: 2010.03.12/outbox.cif.g09.slc.cpg/sg44_12_cif.got.tgz:23325.got - 2010.04.14 02:36:11.
