data_PCOD8189478
_publ_section_title
;
Structure prediction by ZEFSAII (Michael W. Deem and Ramdas Pophale) SiO2 
 PCOD8189478
Probable space group: I M M 2
;
_chemical_formula_sum "Si O2"
_cell_formula_units_Z 48
_cell_length_a 8.519880
_cell_length_b 27.857056
_cell_length_c 10.234779
_cell_angle_alpha 90.000000
_cell_angle_beta 90.000000
_cell_angle_gamma 90.000000
_cell_volume 2429.109903
_symmetry_space_group_name_H-M "I M M 2"
_symmetry_group_IT_number 44
_symmetry_cell_setting 'orthorhombic'
loop_
_space_group_symop_operation_xyz
x,y,z
-x,-y,z
-x,y,z
x,-y,z
1/2+x,1/2+y,1/2+z
1/2-x,1/2-y,1/2+z
1/2-x,1/2+y,1/2+z
1/2+x,1/2-y,1/2+z
loop_
_atom_site_type_symbol
_atom_site_label
_atom_site_fract_x
_atom_site_fract_y
_atom_site_fract_z
Si Si1 0.817333 0.801212 0.475590
Si Si2 0.819963 0.445998 0.594405
Si Si3 0.680753 0.852871 0.718637
Si Si4 0.317141 0.640679 0.723423
Si Si5 0.682705 0.554276 0.317403
Si Si6 0.318450 0.302510 0.465012
O O1 0.789214 0.828496 0.610532
O O2 0.761562 0.835030 0.357307
O O3 0.713675 0.753769 0.469566
O O4 0.000000 0.787623 0.462296
O O5 0.788030 0.500000 0.644887
O O6 0.774891 0.409558 0.709719
O O7 0.713505 0.433928 0.469103
O O8 0.000000 0.439415 0.552382
O O9 0.500000 0.846185 0.680182
O O10 0.721199 0.909393 0.726049
O O11 0.712212 0.827971 0.857088
O O12 0.500000 0.628909 0.726810
O O13 0.272840 0.676166 0.605492
O O14 0.500000 0.561427 0.289509
O O15 0.737515 0.500000 0.285030
O O16 0.500000 0.311817 0.431278
#
# Coordination Sequence:
#
# PCOD8189478 Si02
#       6
#     8   8   8   8   8   8
#     4  11  24  41  60  86 121 159 200 247 298 353
#     4  10  20  34  57  89 119 149 190 239 292 351
#     4  12  24  39  60  89 122 159 200 243 296 356
#     4  10  22  39  60  86 117 154 197 241 292 350
#     4  10  20  36  60  88 117 151 194 245 298 350
#     4  11  22  39  63  90 118 152 199 249 296 352
#
# _framework density 19.760325999999999
#
# number of rings (size 3 to 8) (size 9 to 14) (size 15 to 20)
#    0.000    1.333    1.667    4.500    0.000    5.333 
#    0.000    0.833    0.000    1.000    0.000    0.000 
#    0.000    0.000    0.000    0.000    0.000    0.000 
#
# Total GULP energy -297754.936241 kJ/mol
# GULP energy per Si atom -12406.455677 kJ/mol
# Density = 1.971535 g / cm^3
# Si number density = 19.760326 Si / 1000 Ang^3
#
#
#
# Elastic Constant Matrix: (Units=GPa)
#
#
# Indices 1 2 3 4 5 6 
#
# 1 53.8166 25.2038 19.5048 -0.0001 0.0000 0.0000
# 2 25.2038 124.1205 26.7275 0.0003 0.0000 0.0001
# 3 19.5048 26.7275 64.8519 0.0000 0.0003 -0.0001
# 4 -0.0001 0.0003 0.0000 -8.5071 0.0002 -0.0001
# 5 0.0000 0.0000 0.0003 0.0002 24.0147 0.0000
# 6 0.0000 0.0001 -0.0001 -0.0001 0.0000 33.5021
#
#
#
# Elastic Compliance Matrix: (Units=1/GPa)
#
#
# Indices 1 2 3 4 5 6 
#
# 1 0.022053 -0.003347 -0.005253 0.000000 0.000000 0.000000
# 2 -0.003347 0.009349 -0.002847 0.000000 0.000000 0.000000
# 3 -0.005253 -0.002847 0.018173 0.000000 0.000000 0.000000
# 4 0.000000 0.000000 0.000000 -0.117548 0.000001 -0.000001
# 5 0.000000 0.000000 0.000000 0.000001 0.041641 0.000000
# 6 0.000000 0.000000 0.000000 -0.000001 0.000000 0.029849
#
#
# Mechanical properties :
#
#
# Convention : Reuss Voigt Hill
#
# Bulk Modulus (GPa) = 37.47878 42.85125 40.16501
# Shear Modulus (GPa) = 141.62665 21.22545 81.42605
#
# Velocity S-wave (km/s) = 8.47513 3.28097 6.42622
# Velocity P-wave (km/s) = 10.71346 6.00713 8.68516
#
# Compressibility (1/GPa) = 0.02668177
#
# Stress axis : x y z
#
# Youngs Moduli (GPa) = 45.34530 106.96044 55.02705
#
# Poissons Ratio (x) = 0.35798 0.28907
# Poissons Ratio (y) = 0.15176 0.15664
# Poissons Ratio (z) = 0.23821 0.30447
#
# Static dielectric constant tensor:
#      x y z
#    x 3.524570 0.000000 0.000000 
#    y 0.000000 3.822820 0.000000 
#    z 0.000000 0.000000 3.431640 
# 
# 
# High freq. dielectric constant tensor:
#      x y z
#    x 1.775840 0.000000 0.000000 
#    y 0.000000 1.786930 0.000000 
#    z 0.000000 0.000000 1.749340 
# 
# From -- ./inp_files/4929.got.cif
#   From: 2010.03.12/outbox.cif.g09.slc.cpg/sg44_3_cif.got.tgz:4929.got - 2010.04.14 02:36:11.
