data_PCOD8189216
_publ_section_title
;
Structure prediction by ZEFSAII (Michael W. Deem and Ramdas Pophale) SiO2 
 PCOD8189216
Probable space group: I M M 2
;
_chemical_formula_sum "Si O2"
_cell_formula_units_Z 64
_cell_length_a 9.477997
_cell_length_b 33.970178
_cell_length_c 11.496546
_cell_angle_alpha 90.000000
_cell_angle_beta 90.000000
_cell_angle_gamma 90.000000
_cell_volume 3701.534238
_symmetry_space_group_name_H-M "I M M 2"
_symmetry_group_IT_number 44
_symmetry_cell_setting 'orthorhombic'
loop_
_space_group_symop_operation_xyz
x,y,z
-x,-y,z
-x,y,z
x,-y,z
1/2+x,1/2+y,1/2+z
1/2-x,1/2-y,1/2+z
1/2-x,1/2+y,1/2+z
1/2+x,1/2-y,1/2+z
loop_
_atom_site_type_symbol
_atom_site_label
_atom_site_fract_x
_atom_site_fract_y
_atom_site_fract_z
Si Si1 0.837500 0.308915 0.162310
Si Si2 0.665605 0.156193 0.084789
Si Si3 0.832349 0.455281 0.218804
Si Si4 0.332618 0.123316 0.839677
Si Si5 0.840598 0.219977 0.206663
Si Si6 0.834315 0.457766 0.960066
Si Si7 0.162954 0.614594 0.819591
Si Si8 0.836221 0.176625 0.441054
O O1 0.784176 0.343322 0.248134
O O2 0.817893 0.266386 0.219712
O O3 0.000000 0.316440 0.125728
O O4 0.736585 0.305655 0.052975
O O5 0.500000 0.165352 0.075144
O O6 0.740914 0.197808 0.113083
O O7 0.699927 0.124673 0.186579
O O8 0.724810 0.136470 0.966569
O O9 0.780659 0.500000 0.253520
O O10 0.773589 0.420226 0.303398
O O11 0.778767 0.444424 0.088018
O O12 0.000000 0.454502 0.225766
O O13 0.500000 0.121870 0.844803
O O14 0.806437 0.205995 0.335811
O O15 0.000000 0.209552 0.169412
O O16 0.767402 0.500000 0.928635
O O17 0.000000 0.461542 0.975482
O O18 0.799777 0.430377 0.849810
O O19 0.261314 0.635999 0.911802
O O20 0.000000 0.624851 0.846203
O O21 0.000000 0.169402 0.465030
#
# Coordination Sequence:
#
# PCOD8189216 Si02
#       8
#     8   8   8   8   8   8   8   8
#     4  10  20  33  50  69  91 122 159 196 236 286
#     4   9  18  31  49  69  93 127 163 195 235 285
#     4   8  13  22  38  63  94 125 156 192 236 282
#     4   9  17  29  46  68  94 127 162 196 235 284
#     4   9  20  35  49  67  92 123 156 194 242 285
#     4   8  13  22  41  69  96 122 156 199 240 278
#     4   9  16  29  48  69  94 125 160 194 233 284
#     4  10  20  33  49  70  94 119 153 195 238 280
#
# _framework density 17.290127999999999
#
# number of rings (size 3 to 8) (size 9 to 14) (size 15 to 20)
#    0.000    3.000    0.000    1.875    1.750    3.000 
#    0.000    1.250    0.000    4.125    0.000    0.000 
#    0.000    2.500    0.000    0.000    0.000    0.000 
#
# Total GULP energy -396479.869609 kJ/mol
# GULP energy per Si atom -12389.995925 kJ/mol
# Density = 1.725077 g / cm^3
# Si number density = 17.290128 Si / 1000 Ang^3
#
#
#
# Elastic Constant Matrix: (Units=GPa)
#
#
# Indices 1 2 3 4 5 6 
#
# 1 38.3901 24.4930 26.7601 0.0002 0.0001 0.0001
# 2 24.4930 126.3031 55.7975 0.0006 0.0001 -0.0001
# 3 26.7601 55.7975 85.8030 -0.0012 0.0005 0.0002
# 4 0.0002 0.0006 -0.0012 23.3622 0.0003 0.0000
# 5 0.0001 0.0001 0.0005 0.0003 16.1906 -0.0001
# 6 0.0001 -0.0001 0.0002 0.0000 -0.0001 13.6396
#
#
#
# Elastic Compliance Matrix: (Units=1/GPa)
#
#
# Indices 1 2 3 4 5 6 
#
# 1 0.033915 -0.002672 -0.008840 -0.000001 0.000000 0.000000
# 2 -0.002672 0.011319 -0.006528 -0.000001 0.000000 0.000000
# 3 -0.008840 -0.006528 0.018657 0.000001 0.000000 0.000000
# 4 -0.000001 -0.000001 0.000001 0.042804 -0.000001 0.000000
# 5 0.000000 0.000000 0.000000 -0.000001 0.061764 0.000001
# 6 0.000000 0.000000 0.000000 0.000000 0.000001 0.073316
#
#
# Mechanical properties :
#
#
# Convention : Reuss Voigt Hill
#
# Bulk Modulus (GPa) = 35.95547 51.62193 43.78870
# Shear Modulus (GPa) = 17.41404 20.20151 18.80777
#
# Velocity S-wave (km/s) = 3.17703 3.42187 3.30172
# Velocity P-wave (km/s) = 5.85650 6.74784 6.31791
#
# Compressibility (1/GPa) = 0.02781218
#
# Stress axis : x y z
#
# Youngs Moduli (GPa) = 29.48558 88.34440 53.60036
#
# Poissons Ratio (x) = 0.23602 0.47383
# Poissons Ratio (y) = 0.07877 0.34989
# Poissons Ratio (z) = 0.26065 0.57669
#
# Static dielectric constant tensor:
#      x y z
#    x 2.911010 0.000000 0.000000 
#    y 0.000000 3.594550 0.000000 
#    z 0.000000 0.000000 3.276140 
# 
# 
# High freq. dielectric constant tensor:
#      x y z
#    x 1.622670 0.000000 0.000000 
#    y 0.000000 1.675670 0.000000 
#    z 0.000000 0.000000 1.663540 
# 
# From -- ./inp_files/11556.got.cif
#   From: 2010.03.12/outbox.cif.g09.slc.cpg/sg44_6_cif.got.tgz:11556.got - 2010.04.14 02:36:11.
