data_PCOD8189321
_publ_section_title
;
Structure prediction by ZEFSAII (Michael W. Deem and Ramdas Pophale) SiO2 
 PCOD8189321
Probable space group: I M M 2
;
_chemical_formula_sum "Si O2"
_cell_formula_units_Z 64
_cell_length_a 9.219496
_cell_length_b 28.772799
_cell_length_c 12.678574
_cell_angle_alpha 90.000000
_cell_angle_beta 90.000000
_cell_angle_gamma 90.000000
_cell_volume 3363.254267
_symmetry_space_group_name_H-M "I M M 2"
_symmetry_group_IT_number 44
_symmetry_cell_setting 'orthorhombic'
loop_
_space_group_symop_operation_xyz
x,y,z
-x,-y,z
-x,y,z
x,-y,z
1/2+x,1/2+y,1/2+z
1/2-x,1/2-y,1/2+z
1/2-x,1/2+y,1/2+z
1/2+x,1/2-y,1/2+z
loop_
_atom_site_type_symbol
_atom_site_label
_atom_site_fract_x
_atom_site_fract_y
_atom_site_fract_z
Si Si1 0.334962 0.051106 0.054460
Si Si2 0.660302 0.923052 0.277679
Si Si3 0.827757 0.105453 0.471898
Si Si4 0.172158 0.053188 0.684191
Si Si5 0.171164 0.299905 0.920326
Si Si6 0.658367 0.180170 0.193345
Si Si7 0.170849 0.799165 0.990014
Si Si8 0.328852 0.608792 0.386815
O O1 0.500000 0.070362 0.048579
O O2 0.286447 0.047032 0.177357
O O3 0.324432 0.000000 0.004052
O O4 0.230536 0.084496 0.991112
O O5 0.500000 0.939326 0.316290
O O6 0.772363 0.926282 0.374620
O O7 0.650490 0.871423 0.235465
O O8 0.778115 0.078722 0.577474
O O9 0.757024 0.156636 0.469978
O O10 0.000000 0.110807 0.464930
O O11 0.234719 0.084283 0.781496
O O12 0.000000 0.051586 0.689897
O O13 0.232677 0.000000 0.688989
O O14 0.202721 0.290554 0.796617
O O15 0.232195 0.252454 0.971174
O O16 0.000000 0.308567 0.939857
O O17 0.500000 0.195772 0.150249
O O18 0.776236 0.184278 0.103371
O O19 0.215555 0.836580 0.898477
O O20 0.000000 0.796579 0.994599
O O21 0.500000 0.602796 0.387717
#
# Coordination Sequence:
#
# PCOD8189321 Si02
#       8
#     8   8   8   8   8   8   8   8
#     4  10  20  34  53  78 108 140 175 217 268 327
#     4   9  18  34  53  74 105 142 172 211 274 331
#     4  10  20  34  56  82 106 138 187 234 267 319
#     4   9  19  36  56  79 111 148 182 226 285 335
#     4   9  20  37  53  75 110 149 180 219 280 336
#     4   9  17  32  53  72  99 139 173 210 267 327
#     4  10  20  33  53  80 107 137 180 228 271 322
#     4  10  20  35  56  80 107 142 183 227 275 330
#
# _framework density 19.029188000000001
#
# number of rings (size 3 to 8) (size 9 to 14) (size 15 to 20)
#    0.000    2.500    1.250    1.500    0.000    5.250 
#    0.000    3.750    0.000    2.625    0.000    0.000 
#    0.000    0.000    0.000    0.000    0.000    0.000 
#
# Total GULP energy -396547.152301 kJ/mol
# GULP energy per Si atom -12392.098509 kJ/mol
# Density = 1.898588 g / cm^3
# Si number density = 19.029188 Si / 1000 Ang^3
#
#
#
# Elastic Constant Matrix: (Units=GPa)
#
#
# Indices 1 2 3 4 5 6 
#
# 1 32.7596 31.2159 29.2916 0.0007 0.0000 -0.0001
# 2 31.2159 89.1253 59.0993 -0.0005 0.0000 -0.0007
# 3 29.2916 59.0993 110.5846 -0.0010 -0.0011 0.0005
# 4 0.0007 -0.0005 -0.0010 13.5952 -0.0005 -0.0002
# 5 0.0000 0.0000 -0.0011 -0.0005 26.5701 0.0000
# 6 -0.0001 -0.0007 0.0005 -0.0002 0.0000 19.1759
#
#
#
# Elastic Compliance Matrix: (Units=1/GPa)
#
#
# Indices 1 2 3 4 5 6 
#
# 1 0.048095 -0.013007 -0.005788 -0.000003 0.000000 0.000000
# 2 -0.013007 0.020897 -0.007722 0.000001 0.000000 0.000001
# 3 -0.005788 -0.007722 0.014703 0.000001 0.000001 -0.000001
# 4 -0.000003 0.000001 0.000001 0.073555 0.000001 0.000001
# 5 0.000000 0.000000 0.000001 0.000001 0.037636 0.000000
# 6 0.000000 0.000001 -0.000001 0.000001 0.000000 0.052149
#
#
# Mechanical properties :
#
#
# Convention : Reuss Voigt Hill
#
# Bulk Modulus (GPa) = 32.61630 52.40924 42.51277
# Shear Modulus (GPa) = 16.11398 19.39241 17.75320
#
# Velocity S-wave (km/s) = 2.91315 3.19578 3.05773
# Velocity P-wave (km/s) = 5.33784 6.42017 5.90386
#
# Compressibility (1/GPa) = 0.03065951
#
# Stress axis : x y z
#
# Youngs Moduli (GPa) = 20.79230 47.85481 68.01326
#
# Poissons Ratio (x) = 0.62245 0.39366
# Poissons Ratio (y) = 0.27044 0.52522
# Poissons Ratio (z) = 0.12035 0.36955
#
# Static dielectric constant tensor:
#      x y z
#    x 3.273420 0.000000 0.000000 
#    y 0.000000 3.937540 0.000000 
#    z 0.000000 0.000000 3.818760 
# 
# 
# High freq. dielectric constant tensor:
#      x y z
#    x 1.715220 0.000000 0.000000 
#    y 0.000000 1.745330 0.000000 
#    z 0.000000 0.000000 1.738640 
# 
# From -- ./inp_files/11456.got.cif
#   From: 2010.03.12/outbox.cif.g09.slc.cpg/sg44_6_cif.got.tgz:11456.got - 2010.04.14 02:36:11.
