data_PCOD8189619
_publ_section_title
;
Structure prediction by ZEFSAII (Michael W. Deem and Ramdas Pophale) SiO2 
 PCOD8189619
Probable space group: I M M 2
;
_chemical_formula_sum "Si O2"
_cell_formula_units_Z 56
_cell_length_a 14.846711
_cell_length_b 22.629492
_cell_length_c 8.887672
_cell_angle_alpha 90.000000
_cell_angle_beta 90.000000
_cell_angle_gamma 90.000000
_cell_volume 2986.022516
_symmetry_space_group_name_H-M "I M M 2"
_symmetry_group_IT_number 44
_symmetry_cell_setting 'orthorhombic'
loop_
_space_group_symop_operation_xyz
x,y,z
-x,-y,z
-x,y,z
x,-y,z
1/2+x,1/2+y,1/2+z
1/2-x,1/2-y,1/2+z
1/2-x,1/2+y,1/2+z
1/2+x,1/2-y,1/2+z
loop_
_atom_site_type_symbol
_atom_site_label
_atom_site_fract_x
_atom_site_fract_y
_atom_site_fract_z
Si Si1 0.352091 0.359952 0.258830
Si Si2 0.729570 0.931444 0.555239
Si Si3 0.000000 0.933430 0.916962
Si Si4 0.397631 0.069007 0.819566
Si Si5 0.817551 0.135357 0.306919
Si Si6 0.102343 0.229402 0.509340
Si Si7 0.716236 0.843496 0.002022
Si Si8 0.000000 0.934205 0.270445
O O1 0.314363 0.411595 0.153492
O O2 0.414952 0.395243 0.370930
O O3 0.276679 0.326342 0.357605
O O4 0.401137 0.310861 0.158511
O O5 0.640120 0.916374 0.652140
O O6 0.735231 0.894870 0.399678
O O7 0.735567 0.000000 0.515692
O O8 0.000000 0.000000 0.847579
O O9 0.000000 0.938483 0.093508
O O10 0.500000 0.090982 0.821175
O O11 0.388306 0.000000 0.853099
O O12 0.344113 0.100455 0.954404
O O13 0.840769 0.199603 0.374720
O O14 0.783080 0.140211 0.137559
O O15 0.909652 0.098236 0.325195
O O16 0.151174 0.290431 0.549338
O O17 0.000000 0.241757 0.456939
O O18 0.000000 0.000000 0.340968
#
# Coordination Sequence:
#
# PCOD8189619 Si02
#       8
#     8   8   4   8   8   8   8   4
#     4  10  20  36  55  81 114 149 196 237 278 346
#     4   9  19  34  56  83 112 148 184 230 289 351
#     4  11  20  33  57  87 119 155 189 236 289 346
#     4   9  19  38  61  84 112 147 191 242 290 344
#     4  11  22  38  56  85 120 151 191 239 294 350
#     4  11  22  38  58  78 110 153 196 246 290 336
#     4  11  22  37  59  83 114 151 197 235 294 348
#     4  11  22  35  57  89 127 159 185 236 299 358
#
# _framework density 18.754045000000001
#
# number of rings (size 3 to 8) (size 9 to 14) (size 15 to 20)
#    0.000    1.714    2.857    2.143    0.000    1.714 
#    0.000    3.571    0.000    1.714    0.000    0.000 
#    0.000    0.000    0.000    0.000    0.000    0.000 
#
# Total GULP energy -347137.714872 kJ/mol
# GULP energy per Si atom -12397.775531 kJ/mol
# Density = 1.871136 g / cm^3
# Si number density = 18.754045 Si / 1000 Ang^3
#
#
#
# Elastic Constant Matrix: (Units=GPa)
#
#
# Indices 1 2 3 4 5 6 
#
# 1 95.6492 38.8200 30.6899 0.0000 0.0000 0.0000
# 2 38.8200 81.9864 25.5101 0.0000 0.0000 0.0000
# 3 30.6899 25.5101 82.3190 0.0001 0.0001 0.0000
# 4 0.0000 0.0000 0.0001 23.2197 0.0000 0.0000
# 5 0.0000 0.0000 0.0001 0.0000 24.8292 0.0000
# 6 0.0000 0.0000 0.0000 0.0000 0.0000 32.1815
#
#
#
# Elastic Compliance Matrix: (Units=1/GPa)
#
#
# Indices 1 2 3 4 5 6 
#
# 1 0.013772 -0.005449 -0.003446 0.000000 0.000000 0.000000
# 2 -0.005449 0.015654 -0.002820 0.000000 0.000000 0.000000
# 3 -0.003446 -0.002820 0.014306 0.000000 0.000000 0.000000
# 4 0.000000 0.000000 0.000000 0.043067 0.000000 0.000000
# 5 0.000000 0.000000 0.000000 0.000000 0.040275 0.000000
# 6 0.000000 0.000000 0.000000 0.000000 0.000000 0.031074
#
#
# Mechanical properties :
#
#
# Convention : Reuss Voigt Hill
#
# Bulk Modulus (GPa) = 49.25162 49.99940 49.62551
# Shear Modulus (GPa) = 26.54697 27.04172 26.79435
#
# Velocity S-wave (km/s) = 3.76644 3.80137 3.78395
# Velocity P-wave (km/s) = 6.72559 6.78128 6.75349
#
# Compressibility (1/GPa) = 0.02030390
#
# Stress axis : x y z
#
# Youngs Moduli (GPa) = 72.61156 63.87957 69.89880
#
# Poissons Ratio (x) = 0.34806 0.24086
# Poissons Ratio (y) = 0.39564 0.19710
# Poissons Ratio (z) = 0.25021 0.18013
#
# Static dielectric constant tensor:
#      x y z
#    x 3.518730 0.000000 0.000000 
#    y 0.000000 3.430850 0.000000 
#    z 0.000000 0.000000 3.408560 
# 
# 
# High freq. dielectric constant tensor:
#      x y z
#    x 1.729330 0.000000 0.000000 
#    y 0.000000 1.727810 0.000000 
#    z 0.000000 0.000000 1.725830 
# 
# From -- ./inp_files/7415.got.cif
#   From: 2010.03.12/outbox.cif.g09.slc.cpg/sg44_4_cif.got.tgz:7415.got - 2010.04.14 02:36:11.
