data_PCOD8189028
_publ_section_title
;
Structure prediction by ZEFSAII (Michael W. Deem and Ramdas Pophale) SiO2 
 PCOD8189028
Probable space group: I M M 2
;
_chemical_formula_sum "Si O2"
_cell_formula_units_Z 48
_cell_length_a 14.490706
_cell_length_b 8.683771
_cell_length_c 20.217232
_cell_angle_alpha 90.000000
_cell_angle_beta 90.000000
_cell_angle_gamma 90.000000
_cell_volume 2544.014616
_symmetry_space_group_name_H-M "I M M 2"
_symmetry_group_IT_number 44
_symmetry_cell_setting 'orthorhombic'
loop_
_space_group_symop_operation_xyz
x,y,z
-x,-y,z
-x,y,z
x,-y,z
1/2+x,1/2+y,1/2+z
1/2-x,1/2-y,1/2+z
1/2-x,1/2+y,1/2+z
1/2+x,1/2-y,1/2+z
loop_
_atom_site_type_symbol
_atom_site_label
_atom_site_fract_x
_atom_site_fract_y
_atom_site_fract_z
Si Si1 0.190783 0.681556 0.951810
Si Si2 0.803672 0.317114 0.331497
Si Si3 0.000000 0.680660 0.376717
Si Si4 0.000000 0.176616 0.517492
Si Si5 0.306632 0.321904 0.080157
Si Si6 0.000000 0.181474 0.767946
Si Si7 0.811942 0.680031 0.717061
Si Si8 0.500000 0.317158 0.421095
O O1 0.193438 0.500000 0.938099
O O2 0.240397 0.767849 0.892265
O O3 0.087270 0.743048 0.957409
O O4 0.240802 0.725035 0.019882
O O5 0.799631 0.500000 0.325795
O O6 0.767323 0.244137 0.264335
O O7 0.907703 0.253510 0.342237
O O8 0.000000 0.500000 0.368865
O O9 0.000000 0.717690 0.453679
O O10 0.911735 0.214880 0.561473
O O11 0.000000 0.000000 0.493293
O O12 0.293827 0.500000 0.098984
O O13 0.280164 0.218496 0.142786
O O14 0.090013 0.243922 0.731937
O O15 0.000000 0.232105 0.844315
O O16 0.000000 0.000000 0.760586
O O17 0.821538 0.500000 0.727671
O O18 0.500000 0.500000 0.429633
#
# Coordination Sequence:
#
# PCOD8189028 Si02
#       8
#     8   8   4   4   8   4   8   4
#     4  11  22  38  63  91 119 156 202 248 294 355
#     4  11  22  39  61  87 121 160 198 245 300 354
#     4  10  22  37  60  91 120 154 198 242 290 349
#     4  10  19  35  60  90 122 155 190 235 296 356
#     4  10  22  39  60  88 124 163 196 239 301 361
#     4  11  22  38  61  89 123 161 194 242 306 362
#     4  12  25  39  60  90 121 159 203 251 298 354
#     4  11  23  38  61  90 121 160 198 247 302 351
#
# _framework density 18.867816999999999
#
# number of rings (size 3 to 8) (size 9 to 14) (size 15 to 20)
#    0.000    1.167    3.333    3.500    0.000    4.000 
#    0.000    0.833    0.000    2.000    0.000    0.000 
#    0.000    0.000    0.000    0.000    0.000    0.000 
#
# Total GULP energy -297730.739638 kJ/mol
# GULP energy per Si atom -12405.447485 kJ/mol
# Density = 1.882487 g / cm^3
# Si number density = 18.867817 Si / 1000 Ang^3
#
#
#
# Elastic Constant Matrix: (Units=GPa)
#
#
# Indices 1 2 3 4 5 6 
#
# 1 128.8965 24.3793 55.2158 0.0000 0.0000 0.0000
# 2 24.3793 59.9910 31.7756 0.0000 0.0000 0.0000
# 3 55.2158 31.7756 118.3397 0.0000 0.0000 0.0000
# 4 0.0000 0.0000 0.0000 34.8480 0.0000 0.0000
# 5 0.0000 0.0000 0.0000 0.0000 27.1593 0.0000
# 6 0.0000 0.0000 0.0000 0.0000 0.0000 20.7785
#
#
#
# Elastic Compliance Matrix: (Units=1/GPa)
#
#
# Indices 1 2 3 4 5 6 
#
# 1 0.009866 -0.001832 -0.004111 0.000000 0.000000 0.000000
# 2 -0.001832 0.019773 -0.004455 0.000000 0.000000 0.000000
# 3 -0.004111 -0.004455 0.011565 0.000000 0.000000 0.000000
# 4 0.000000 0.000000 0.000000 0.028696 0.000000 0.000000
# 5 0.000000 0.000000 0.000000 0.000000 0.036820 0.000000
# 6 0.000000 0.000000 0.000000 0.000000 0.000000 0.048127
#
#
# Mechanical properties :
#
#
# Convention : Reuss Voigt Hill
#
# Bulk Modulus (GPa) = 49.00014 58.88542 53.94278
# Shear Modulus (GPa) = 27.40562 29.61426 28.50994
#
# Velocity S-wave (km/s) = 3.81531 3.96607 3.89142
# Velocity P-wave (km/s) = 6.74058 7.22843 6.98876
#
# Compressibility (1/GPa) = 0.02040810
#
# Stress axis : x y z
#
# Youngs Moduli (GPa) = 101.35999 50.57395 86.46969
#
# Poissons Ratio (x) = 0.09263 0.35552
# Poissons Ratio (y) = 0.18565 0.38520
# Poissons Ratio (z) = 0.41674 0.22529
#
# Static dielectric constant tensor:
#      x y z
#    x 3.780870 0.000000 0.000000 
#    y 0.000000 3.485010 0.000000 
#    z 0.000000 0.000000 3.451740 
# 
# 
# High freq. dielectric constant tensor:
#      x y z
#    x 1.741220 0.000000 0.000000 
#    y 0.000000 1.738560 0.000000 
#    z 0.000000 0.000000 1.732200 
# 
# From -- ./inp_files/20412.got.cif
#   From: 2010.03.12/outbox.cif.g09.slc.cpg/sg44_11_cif.got.tgz:20412.got - 2010.04.14 02:36:11.
