data_PCOD8189149
_publ_section_title
;
Structure prediction by ZEFSAII (Michael W. Deem and Ramdas Pophale) SiO2 
 PCOD8189149
Probable space group: I M M 2
;
_chemical_formula_sum "Si O2"
_cell_formula_units_Z 64
_cell_length_a 9.123132
_cell_length_b 14.369212
_cell_length_c 28.161429
_cell_angle_alpha 90.000000
_cell_angle_beta 90.000000
_cell_angle_gamma 90.000000
_cell_volume 3691.744184
_symmetry_space_group_name_H-M "I M M 2"
_symmetry_group_IT_number 44
_symmetry_cell_setting 'orthorhombic'
loop_
_space_group_symop_operation_xyz
x,y,z
-x,-y,z
-x,y,z
x,-y,z
1/2+x,1/2+y,1/2+z
1/2-x,1/2-y,1/2+z
1/2-x,1/2+y,1/2+z
1/2+x,1/2-y,1/2+z
loop_
_atom_site_type_symbol
_atom_site_label
_atom_site_fract_x
_atom_site_fract_y
_atom_site_fract_z
Si Si1 0.829706 0.394216 0.917950
Si Si2 0.332560 0.104365 0.777855
Si Si3 0.673983 0.896896 0.040987
Si Si4 0.672592 0.106134 0.147178
Si Si5 0.674155 0.223304 0.953763
Si Si6 0.168452 0.108337 0.873403
Si Si7 0.165927 0.608857 0.808979
Si Si8 0.831357 0.787579 0.228449
O O1 0.779123 0.500000 0.926978
O O2 0.734769 0.328255 0.952003
O O3 0.800612 0.365392 0.863452
O O4 0.000000 0.382657 0.930276
O O5 0.500000 0.111882 0.796260
O O6 0.225261 0.130685 0.820803
O O7 0.305914 0.176661 0.734864
O O8 0.299282 0.000000 0.759036
O O9 0.500000 0.900321 0.040419
O O10 0.726647 0.869269 0.093908
O O11 0.734247 0.000000 0.027977
O O12 0.731937 0.822523 0.002790
O O13 0.500000 0.118079 0.151884
O O14 0.745787 0.178816 0.182417
O O15 0.717046 0.000000 0.160119
O O16 0.500000 0.224413 0.951036
O O17 0.735319 0.164449 0.910358
O O18 0.000000 0.140771 0.876746
O O19 0.186449 0.000000 0.885121
O O20 0.187179 0.500000 0.800535
O O21 0.279059 0.662593 0.776260
O O22 0.000000 0.637625 0.795682
O O23 0.000000 0.812445 0.220929
#
# Coordination Sequence:
#
# PCOD8189149 Si02
#       8
#     8   8   8   8   8   8   8   8
#     4   9  19  35  51  68  96 133 169 204 239 277
#     4   9  19  35  50  65  92 130 166 198 235 280
#     4   8  16  32  52  73  96 123 156 191 230 283
#     4   9  18  34  54  72  93 124 157 188 230 287
#     4  11  20  30  50  76  99 126 161 201 244 288
#     4  10  20  32  47  71 102 132 163 199 238 284
#     4   9  18  32  48  66  92 129 165 191 223 274
#     4  11  21  30  46  73  98 121 153 196 243 283
#
# _framework density 17.335978999999998
#
# number of rings (size 3 to 8) (size 9 to 14) (size 15 to 20)
#    0.000    2.500    0.000    4.125    0.000    7.000 
#    0.000    2.500    0.000    2.250    0.000    3.500 
#    0.000    0.000    0.000    0.000    0.000    0.000 
#
# Total GULP energy -396775.222790 kJ/mol
# GULP energy per Si atom -12399.225712 kJ/mol
# Density = 1.729652 g / cm^3
# Si number density = 17.335979 Si / 1000 Ang^3
#
#
#
# Elastic Constant Matrix: (Units=GPa)
#
#
# Indices 1 2 3 4 5 6 
#
# 1 60.0348 44.8584 42.1032 0.0000 0.0000 0.0000
# 2 44.8584 94.6449 78.5561 0.0000 0.0000 0.0000
# 3 42.1032 78.5561 100.5404 0.0000 0.0000 0.0000
# 4 0.0000 0.0000 0.0000 30.2849 0.0000 0.0000
# 5 0.0000 0.0000 0.0000 0.0000 21.1577 0.0000
# 6 0.0000 0.0000 0.0000 0.0000 0.0000 28.9378
#
#
#
# Elastic Compliance Matrix: (Units=1/GPa)
#
#
# Indices 1 2 3 4 5 6 
#
# 1 0.026245 -0.009437 -0.003617 0.000000 0.000000 0.000000
# 2 -0.009437 0.033454 -0.022187 0.000000 0.000000 0.000000
# 3 -0.003617 -0.022187 0.028797 0.000000 0.000000 0.000000
# 4 0.000000 0.000000 0.000000 0.033020 0.000000 0.000000
# 5 0.000000 0.000000 0.000000 0.000000 0.047264 0.000000
# 6 0.000000 0.000000 0.000000 0.000000 0.000000 0.034557
#
#
# Mechanical properties :
#
#
# Convention : Reuss Voigt Hill
#
# Bulk Modulus (GPa) = 55.51421 65.13951 60.32686
# Shear Modulus (GPa) = 17.86841 22.05623 19.96232
#
# Velocity S-wave (km/s) = 3.21395 3.57077 3.39705
# Velocity P-wave (km/s) = 6.77235 7.39303 7.08949
#
# Compressibility (1/GPa) = 0.01801341
#
# Stress axis : x y z
#
# Youngs Moduli (GPa) = 38.10230 29.89174 34.72636
#
# Poissons Ratio (x) = 0.28209 0.12561
# Poissons Ratio (y) = 0.35957 0.77047
# Poissons Ratio (z) = 0.13782 0.66321
#
# Static dielectric constant tensor:
#      x y z
#    x 3.136880 0.000000 0.000000 
#    y 0.000000 3.402580 0.000000 
#    z 0.000000 0.000000 3.193190 
# 
# 
# High freq. dielectric constant tensor:
#      x y z
#    x 1.661950 0.000000 0.000000 
#    y 0.000000 1.674250 0.000000 
#    z 0.000000 0.000000 1.649610 
# 
# From -- ./inp_files/25089.got.cif
#   From: 2010.03.12/outbox.cif.g09.slc.cpg/sg44_13_cif.got.tgz:25089.got - 2010.04.14 02:36:11.
