data_PCOD8189277
_publ_section_title
;
Structure prediction by ZEFSAII (Michael W. Deem and Ramdas Pophale) SiO2 
 PCOD8189277
Probable space group: I M M 2
;
_chemical_formula_sum "Si O2"
_cell_formula_units_Z 64
_cell_length_a 30.081242
_cell_length_b 8.705975
_cell_length_c 14.311880
_cell_angle_alpha 90.000000
_cell_angle_beta 90.000000
_cell_angle_gamma 90.000000
_cell_volume 3748.088746
_symmetry_space_group_name_H-M "I M M 2"
_symmetry_group_IT_number 44
_symmetry_cell_setting 'orthorhombic'
loop_
_space_group_symop_operation_xyz
x,y,z
-x,-y,z
-x,y,z
x,-y,z
1/2+x,1/2+y,1/2+z
1/2-x,1/2-y,1/2+z
1/2-x,1/2+y,1/2+z
1/2+x,1/2-y,1/2+z
loop_
_atom_site_type_symbol
_atom_site_label
_atom_site_fract_x
_atom_site_fract_y
_atom_site_fract_z
Si Si1 0.135597 0.178660 0.064470
Si Si2 0.716031 0.179152 0.672330
Si Si3 0.950584 0.823788 0.812363
Si Si4 0.136939 0.177870 0.713763
Si Si5 0.266278 0.175128 0.882935
Si Si6 0.550142 0.820358 0.509483
Si Si7 0.175881 0.677071 0.890439
Si Si8 0.197587 0.676173 0.577399
O O1 0.168787 0.269616 0.131544
O O2 0.084424 0.232747 0.078352
O O3 0.140254 0.000000 0.085745
O O4 0.146465 0.215867 0.956916
O O5 0.713232 0.216607 0.782587
O O6 0.756576 0.266495 0.623622
O O7 0.722827 0.000000 0.653005
O O8 0.915432 0.787645 0.729553
O O9 0.000000 0.790732 0.772494
O O10 0.946142 0.000000 0.845802
O O11 0.940276 0.717810 0.901023
O O12 0.166374 0.276905 0.784565
O O13 0.154110 0.230425 0.612212
O O14 0.147866 0.000000 0.728631
O O15 0.227418 0.292474 0.909851
O O16 0.247882 0.000000 0.882794
O O17 0.302447 0.195628 0.965081
O O18 0.500000 0.769000 0.535869
O O19 0.556907 0.000000 0.523602
O O20 0.164653 0.500000 0.910109
O O21 0.192070 0.500000 0.606323
#
# Coordination Sequence:
#
# PCOD8189277 Si02
#       8
#     8   8   8   8   8   8   8   8
#     4  12  23  35  51  74 106 141 175 211 257 314
#     4  11  22  36  54  75 100 134 175 218 260 303
#     4   9  18  32  50  72 101 137 172 208 256 309
#     4  11  21  33  50  74 105 139 174 214 257 308
#     4  10  22  38  53  70 101 137 174 217 260 302
#     4  10  20  33  51  76 104 134 172 214 254 302
#     4  12  22  31  50  74 102 138 177 216 253 300
#     4  11  22  35  52  75 103 137 175 214 256 309
#
# _framework density 17.075368999999998
#
# number of rings (size 3 to 8) (size 9 to 14) (size 15 to 20)
#    0.000    1.250    3.750    3.750    0.000    2.250 
#    0.000    0.000    0.000    0.000    0.000    0.875 
#    0.000    5.000    0.000    0.000    0.000    0.000 
#
# Total GULP energy -396808.865300 kJ/mol
# GULP energy per Si atom -12400.277041 kJ/mol
# Density = 1.703650 g / cm^3
# Si number density = 17.075369 Si / 1000 Ang^3
#
#
#
# Elastic Constant Matrix: (Units=GPa)
#
#
# Indices 1 2 3 4 5 6 
#
# 1 100.0222 24.3023 25.3315 0.0000 0.0000 0.0000
# 2 24.3023 59.4817 15.9972 0.0000 0.0000 0.0000
# 3 25.3315 15.9972 65.9591 0.0000 0.0000 0.0000
# 4 0.0000 0.0000 0.0000 21.2422 0.0000 0.0000
# 5 0.0000 0.0000 0.0000 0.0000 26.0726 0.0000
# 6 0.0000 0.0000 0.0000 0.0000 0.0000 25.1086
#
#
#
# Elastic Compliance Matrix: (Units=1/GPa)
#
#
# Indices 1 2 3 4 5 6 
#
# 1 0.011853 -0.003871 -0.003613 0.000000 0.000000 0.000000
# 2 -0.003871 0.019249 -0.003182 0.000000 0.000000 0.000000
# 3 -0.003613 -0.003182 0.017320 0.000000 0.000000 0.000000
# 4 0.000000 0.000000 0.000000 0.047076 0.000000 0.000000
# 5 0.000000 0.000000 0.000000 0.000000 0.038354 0.000000
# 6 0.000000 0.000000 0.000000 0.000000 0.000000 0.039827
#
#
# Mechanical properties :
#
#
# Convention : Reuss Voigt Hill
#
# Bulk Modulus (GPa) = 36.91371 39.63613 38.27492
# Shear Modulus (GPa) = 24.50457 25.14014 24.82236
#
# Velocity S-wave (km/s) = 3.79236 3.84122 3.81687
# Velocity P-wave (km/s) = 6.39070 6.55257 6.47214
#
# Compressibility (1/GPa) = 0.02709021
#
# Stress axis : x y z
#
# Youngs Moduli (GPa) = 84.36343 51.95002 57.73555
#
# Poissons Ratio (x) = 0.20111 0.20862
# Poissons Ratio (y) = 0.32658 0.18371
# Poissons Ratio (z) = 0.30484 0.16530
#
# Static dielectric constant tensor:
#      x y z
#    x 3.327280 0.000000 0.000000 
#    y 0.000000 3.290460 0.000000 
#    z 0.000000 0.000000 3.052590 
# 
# 
# High freq. dielectric constant tensor:
#      x y z
#    x 1.652890 0.000000 0.000000 
#    y 0.000000 1.672520 0.000000 
#    z 0.000000 0.000000 1.626360 
# 
# From -- ./inp_files/17143.got.cif
#   From: 2010.03.12/outbox.cif.g09.slc.cpg/sg44_9_cif.got.tgz:17143.got - 2010.04.14 02:36:11.
