data_PCOD8189953
_publ_section_title
;
Structure prediction by ZEFSAII (Michael W. Deem and Ramdas Pophale) SiO2 
 PCOD8189953
Probable space group: I M M 2
;
_chemical_formula_sum "Si O2"
_cell_formula_units_Z 56
_cell_length_a 13.735022
_cell_length_b 9.026050
_cell_length_c 24.234099
_cell_angle_alpha 90.000000
_cell_angle_beta 90.000000
_cell_angle_gamma 90.000000
_cell_volume 3004.373842
_symmetry_space_group_name_H-M "I M M 2"
_symmetry_group_IT_number 44
_symmetry_cell_setting 'orthorhombic'
loop_
_space_group_symop_operation_xyz
x,y,z
-x,-y,z
-x,y,z
x,-y,z
1/2+x,1/2+y,1/2+z
1/2-x,1/2-y,1/2+z
1/2-x,1/2+y,1/2+z
1/2+x,1/2-y,1/2+z
loop_
_atom_site_type_symbol
_atom_site_label
_atom_site_fract_x
_atom_site_fract_y
_atom_site_fract_z
Si Si1 0.699926 0.674965 0.979440
Si Si2 0.393296 0.339668 0.356084
Si Si3 0.232440 0.670458 0.781736
Si Si4 0.606164 0.666461 0.485517
Si Si5 0.612728 0.836547 0.078565
Si Si6 0.390423 0.324660 0.864726
Si Si7 0.887066 0.825404 0.687507
O O1 0.691821 0.500000 0.982194
O O2 0.807045 0.722932 0.001008
O O3 0.670574 0.735270 0.918134
O O4 0.625550 0.745429 0.022505
O O5 0.500000 0.331809 0.328835
O O6 0.346435 0.500000 0.338833
O O7 0.334456 0.197512 0.335285
O O8 0.402769 0.331318 0.420604
O O9 0.228491 0.500000 0.762956
O O10 0.339476 0.715716 0.805695
O O11 0.189855 0.773346 0.733832
O O12 0.500000 0.716764 0.509826
O O13 0.630136 0.500000 0.506475
O O14 0.500000 0.857345 0.088283
O O15 0.653213 0.747435 0.131307
O O16 0.662210 0.000000 0.075051
O O17 0.500000 0.257862 0.864811
O O18 0.394911 0.500000 0.870420
O O19 0.000000 0.780197 0.700692
O O20 0.878805 0.000000 0.681132
#
# Coordination Sequence:
#
# PCOD8189953 Si02
#       7
#     8   8   8   8   8   8   8
#     4  11  20  33  55  81 110 146 183 223 271 322
#     4   9  17  29  45  67  99 137 170 204 252 309
#     4  11  20  31  50  76 104 137 176 219 264 312
#     4   9  18  32  49  71 104 143 179 218 264 315
#     4  10  21  37  57  82 110 140 179 226 271 319
#     4   9  19  34  50  73 107 144 181 218 260 315
#     4  10  21  37  56  79 108 141 175 215 270 331
#
# _framework density 18.639491
#
# number of rings (size 3 to 8) (size 9 to 14) (size 15 to 20)
#    0.000    2.143    1.429    3.429    0.000    4.571 
#    0.000    1.429    0.000    5.143    0.000    2.000 
#    0.000    0.000    0.000    0.000    0.000    0.000 
#
# Total GULP energy -346870.444422 kJ/mol
# GULP energy per Si atom -12388.230158 kJ/mol
# Density = 1.859707 g / cm^3
# Si number density = 18.639491 Si / 1000 Ang^3
#
#
#
# Elastic Constant Matrix: (Units=GPa)
#
#
# Indices 1 2 3 4 5 6 
#
# 1 80.5471 28.8099 26.5033 0.0000 0.0000 0.0000
# 2 28.8099 79.0695 33.2863 0.0000 0.0000 0.0000
# 3 26.5033 33.2863 80.9805 0.0000 0.0000 0.0000
# 4 0.0000 0.0000 0.0000 29.8137 0.0000 0.0000
# 5 0.0000 0.0000 0.0000 0.0000 25.5500 0.0000
# 6 0.0000 0.0000 0.0000 0.0000 0.0000 26.2439
#
#
#
# Elastic Compliance Matrix: (Units=1/GPa)
#
#
# Indices 1 2 3 4 5 6 
#
# 1 0.014933 -0.004092 -0.003206 0.000000 0.000000 0.000000
# 2 -0.004092 0.016415 -0.005408 0.000000 0.000000 0.000000
# 3 -0.003206 -0.005408 0.015621 0.000000 0.000000 0.000000
# 4 0.000000 0.000000 0.000000 0.033542 0.000000 0.000000
# 5 0.000000 0.000000 0.000000 0.000000 0.039139 0.000000
# 6 0.000000 0.000000 0.000000 0.000000 0.000000 0.038104
#
#
# Mechanical properties :
#
#
# Convention : Reuss Voigt Hill
#
# Bulk Modulus (GPa) = 46.38595 46.42177 46.40386
# Shear Modulus (GPa) = 26.26744 26.45467 26.36106
#
# Velocity S-wave (km/s) = 3.75805 3.77142 3.76474
# Velocity P-wave (km/s) = 6.61593 6.62752 6.62172
#
# Compressibility (1/GPa) = 0.02155825
#
# Stress axis : x y z
#
# Youngs Moduli (GPa) = 66.96414 60.92153 64.01789
#
# Poissons Ratio (x) = 0.24927 0.20521
# Poissons Ratio (y) = 0.27400 0.34620
# Poissons Ratio (z) = 0.21466 0.32946
#
# Static dielectric constant tensor:
#      x y z
#    x 3.781050 0.000000 0.000000 
#    y 0.000000 3.536030 0.000000 
#    z 0.000000 0.000000 3.292950 
# 
# 
# High freq. dielectric constant tensor:
#      x y z
#    x 1.712080 0.000000 0.000000 
#    y 0.000000 1.716310 0.000000 
#    z 0.000000 0.000000 1.702390 
# 
# From -- ./inp_files/24137.got.cif
#   From: 2010.03.12/outbox.cif.g09.slc.cpg/sg44_13_cif.got.tgz:24137.got - 2010.04.14 02:36:11.
