data_PCOD8189296
_publ_section_title
;
Structure prediction by ZEFSAII (Michael W. Deem and Ramdas Pophale) SiO2 
 PCOD8189296
Probable space group: I M M 2
;
_chemical_formula_sum "Si O2"
_cell_formula_units_Z 48
_cell_length_a 9.087229
_cell_length_b 23.339426
_cell_length_c 11.929525
_cell_angle_alpha 90.000000
_cell_angle_beta 90.000000
_cell_angle_gamma 90.000000
_cell_volume 2530.141413
_symmetry_space_group_name_H-M "I M M 2"
_symmetry_group_IT_number 44
_symmetry_cell_setting 'orthorhombic'
loop_
_space_group_symop_operation_xyz
x,y,z
-x,-y,z
-x,y,z
x,-y,z
1/2+x,1/2+y,1/2+z
1/2-x,1/2-y,1/2+z
1/2-x,1/2+y,1/2+z
1/2+x,1/2-y,1/2+z
loop_
_atom_site_type_symbol
_atom_site_label
_atom_site_fract_x
_atom_site_fract_y
_atom_site_fract_z
Si Si1 0.171951 0.125110 0.530990
Si Si2 0.825719 0.650132 0.632254
Si Si3 0.162742 0.563890 0.211784
Si Si4 0.674923 0.933364 0.324232
Si Si5 0.667898 0.158974 0.884538
Si Si6 0.326630 0.275454 0.196069
O O1 0.210981 0.077134 0.622379
O O2 0.258683 0.108149 0.419108
O O3 0.222117 0.185992 0.587431
O O4 0.000000 0.124414 0.503471
O O5 0.772959 0.595920 0.707058
O O6 0.760619 0.648287 0.506588
O O7 0.772471 0.710549 0.682712
O O8 0.000000 0.648540 0.625891
O O9 0.182481 0.500000 0.252481
O O10 0.180413 0.598410 0.325175
O O11 0.000000 0.574704 0.157879
O O12 0.500000 0.931945 0.336741
O O13 0.730145 0.000000 0.330206
O O14 0.500000 0.181011 0.894726
O O15 0.755566 0.205487 0.812804
O O16 0.500000 0.281326 0.209127
#
# Coordination Sequence:
#
# PCOD8189296 Si02
#       6
#     8   8   8   8   8   8
#     4  10  20  33  52  77 105 137 173 214 258 305
#     4   9  19  35  54  75 103 137 170 211 261 311
#     4   9  17  30  50  76 103 131 167 212 257 301
#     4  10  21  36  54  77 106 141 178 214 257 310
#     4   9  18  33  53  76 100 129 169 213 256 305
#     4   9  19  35  53  75 104 135 169 212 263 312
#
# _framework density 18.971271999999999
#
# number of rings (size 3 to 8) (size 9 to 14) (size 15 to 20)
#    0.000    2.667    0.000    1.000    2.333    4.000 
#    0.000    5.000    0.000    0.000    0.000    2.333 
#    0.000    0.000    0.000    0.000    0.000    0.000 
#
# Total GULP energy -297414.584109 kJ/mol
# GULP energy per Si atom -12392.274338 kJ/mol
# Density = 1.892809 g / cm^3
# Si number density = 18.971272 Si / 1000 Ang^3
#
#
#
# Elastic Constant Matrix: (Units=GPa)
#
#
# Indices 1 2 3 4 5 6 
#
# 1 29.2144 21.9315 25.2234 0.0000 -0.0001 0.0000
# 2 21.9315 104.3122 50.4471 -0.0001 0.0000 0.0001
# 3 25.2234 50.4471 133.5552 -0.0004 -0.0002 0.0002
# 4 0.0000 -0.0001 -0.0004 18.2239 0.0000 0.0001
# 5 -0.0001 0.0000 -0.0002 0.0000 22.6802 -0.0001
# 6 0.0000 0.0001 0.0002 0.0001 -0.0001 20.8209
#
#
#
# Elastic Compliance Matrix: (Units=1/GPa)
#
#
# Indices 1 2 3 4 5 6 
#
# 1 0.044158 -0.006424 -0.005913 0.000000 0.000000 0.000000
# 2 -0.006424 0.012664 -0.003570 0.000000 0.000000 0.000000
# 3 -0.005913 -0.003570 0.009953 0.000000 0.000000 0.000000
# 4 0.000000 0.000000 0.000000 0.054873 0.000000 0.000000
# 5 0.000000 0.000000 0.000000 0.000000 0.044091 0.000000
# 6 0.000000 0.000000 0.000000 0.000000 0.000000 0.048029
#
#
# Mechanical properties :
#
#
# Convention : Reuss Voigt Hill
#
# Bulk Modulus (GPa) = 28.60473 51.36509 39.98491
# Shear Modulus (GPa) = 19.43744 23.64368 21.54056
#
# Velocity S-wave (km/s) = 3.20437 3.53411 3.37327
# Velocity P-wave (km/s) = 5.36668 6.61719 6.02447
#
# Compressibility (1/GPa) = 0.03495925
#
# Stress axis : x y z
#
# Youngs Moduli (GPa) = 22.64608 78.96456 100.47419
#
# Poissons Ratio (x) = 0.50730 0.59411
# Poissons Ratio (y) = 0.14549 0.35871
# Poissons Ratio (z) = 0.13391 0.28191
#
# Static dielectric constant tensor:
#      x y z
#    x 3.297950 0.000000 0.000000 
#    y 0.000000 3.640320 0.000000 
#    z 0.000000 0.000000 3.626540 
# 
# 
# High freq. dielectric constant tensor:
#      x y z
#    x 1.707890 0.000000 0.000000 
#    y 0.000000 1.742940 0.000000 
#    z 0.000000 0.000000 1.740620 
# 
# From -- ./inp_files/11154.got.cif
#   From: 2010.03.12/outbox.cif.g09.slc.cpg/sg44_6_cif.got.tgz:11154.got - 2010.04.14 02:36:11.
