data_PCOD8189568
_publ_section_title
;
Structure prediction by ZEFSAII (Michael W. Deem and Ramdas Pophale) SiO2 
 PCOD8189568
Probable space group: I M M 2
;
_chemical_formula_sum "Si O2"
_cell_formula_units_Z 64
_cell_length_a 8.807968
_cell_length_b 32.037004
_cell_length_c 11.560851
_cell_angle_alpha 90.000000
_cell_angle_beta 90.000000
_cell_angle_gamma 90.000000
_cell_volume 3262.251410
_symmetry_space_group_name_H-M "I M M 2"
_symmetry_group_IT_number 44
_symmetry_cell_setting 'orthorhombic'
loop_
_space_group_symop_operation_xyz
x,y,z
-x,-y,z
-x,y,z
x,-y,z
1/2+x,1/2+y,1/2+z
1/2-x,1/2-y,1/2+z
1/2-x,1/2+y,1/2+z
1/2+x,1/2-y,1/2+z
loop_
_atom_site_type_symbol
_atom_site_label
_atom_site_fract_x
_atom_site_fract_y
_atom_site_fract_z
Si Si1 0.820158 0.547803 0.053090
Si Si2 0.830266 0.817419 0.254309
Si Si3 0.675248 0.858485 0.909555
Si Si4 0.167953 0.900624 0.108529
Si Si5 0.321153 0.374712 0.167947
Si Si6 0.166926 0.549056 0.794526
Si Si7 0.676875 0.224919 0.052146
Si Si8 0.820669 0.689035 0.988652
O O1 0.771832 0.500000 0.080010
O O2 0.734763 0.578369 0.141178
O O3 0.000000 0.552912 0.067842
O O4 0.771886 0.560938 0.922475
O O5 0.837691 0.858586 0.179889
O O6 0.753869 0.781399 0.177195
O O7 0.727281 0.828526 0.364128
O O8 0.000000 0.803001 0.291248
O O9 0.500000 0.864195 0.875315
O O10 0.780307 0.862848 0.798317
O O11 0.720550 0.895027 0.999538
O O12 0.706788 0.813450 0.965688
O O13 0.222314 0.936959 0.193185
O O14 0.000000 0.912223 0.063183
O O15 0.500000 0.371930 0.149730
O O16 0.240981 0.341354 0.086343
O O17 0.151845 0.500000 0.788345
O O18 0.000000 0.569319 0.775943
O O19 0.500000 0.232100 0.073408
O O20 0.750485 0.265153 0.995271
O O21 0.000000 0.691363 0.999979
#
# Coordination Sequence:
#
# PCOD8189568 Si02
#       8
#     8   8   8   8   8   8   8   8
#     4   9  19  38  63  90 122 159 200 246 300 360
#     4  10  21  38  58  83 114 146 186 233 288 347
#     4  10  22  41  63  83 112 155 199 242 296 358
#     4  10  20  35  57  84 114 148 186 234 288 342
#     4  12  25  40  60  88 122 157 201 251 300 359
#     4   9  18  33  56  86 118 152 190 236 289 348
#     4  10  22  40  61  85 113 149 194 243 298 354
#     4  12  25  39  59  85 117 155 197 244 293 347
#
# _framework density 19.618354
#
# number of rings (size 3 to 8) (size 9 to 14) (size 15 to 20)
#    0.000    1.750    0.000    5.250    1.750    6.000 
#    0.000    1.875    0.000    3.750    0.000    0.000 
#    0.000    0.000    0.000    0.000    0.000    0.000 
#
# Total GULP energy -396871.216170 kJ/mol
# GULP energy per Si atom -12402.225505 kJ/mol
# Density = 1.957370 g / cm^3
# Si number density = 19.618354 Si / 1000 Ang^3
#
#
#
# Elastic Constant Matrix: (Units=GPa)
#
#
# Indices 1 2 3 4 5 6 
#
# 1 ********** 3885.4459-5765.4651 0.1871 0.2056 0.1000
# 2 3885.4459 -854.5792 1404.3479 -0.0475 -0.0489 -0.0234
# 3 -5765.4651 1404.3479-1984.4492 0.0633 0.0735 0.0344
# 4 0.1871 -0.0475 0.0633 14.6734 -0.0001 0.0001
# 5 0.2056 -0.0489 0.0735 -0.0001 37.1349 -0.0009
# 6 0.1000 -0.0234 0.0344 0.0001 -0.0009 24.6008
#
#
#
# Elastic Compliance Matrix: (Units=1/GPa)
#
#
# Indices 1 2 3 4 5 6 
#
# 1 0.002739 0.003829 -0.005249 0.000000 0.000000 0.000000
# 2 0.003829 0.012534 -0.002255 0.000001 0.000000 0.000000
# 3 -0.005249 -0.002255 0.013150 0.000003 0.000000 0.000001
# 4 0.000000 0.000001 0.000003 0.068150 0.000000 0.000000
# 5 0.000000 0.000000 0.000000 0.000000 0.026929 0.000001
# 6 0.000000 0.000000 0.000001 0.000000 0.000001 0.040649
#
#
# Mechanical properties :
#
#
# Convention : Reuss Voigt Hill
#
# Bulk Modulus (GPa) = 47.45099 -2211.53292 -1082.04097
# Shear Modulus (GPa) = 28.00707 -1216.50364 -594.24828
#
# Velocity S-wave (km/s) = 3.78245 -24.92851 -17.42303
# Velocity P-wave (km/s) = 6.58145 44.25267 30.94336
#
# Compressibility (1/GPa) = 0.02107438
#
# Stress axis : x y z
#
# Youngs Moduli (GPa) = 365.04440 79.78277 76.04303
#
# Poissons Ratio (x) = -0.30550 0.39915
# Poissons Ratio (y) = -1.39781 0.17147
# Poissons Ratio (z) = 1.91613 0.17990
#
# Static dielectric constant tensor:
#      x y z
#    x 3.947680 0.000000 -0.000020 
#    y 0.000000 3.533900 0.000020 
#    z -0.000020 0.000020 3.846940 
# 
# 
# High freq. dielectric constant tensor:
#      x y z
#    x 1.774540 0.000000 0.000000 
#    y 0.000000 1.758290 0.000000 
#    z 0.000000 0.000000 1.765030 
# 
# From -- ./inp_files/11513.got.cif
#   From: 2010.03.12/outbox.cif.g09.slc.cpg/sg44_6_cif.got.tgz:11513.got - 2010.04.14 02:36:11.
