data_PCOD8189821
_publ_section_title
;
Structure prediction by ZEFSAII (Michael W. Deem and Ramdas Pophale) SiO2 
 PCOD8189821
Probable space group: I M M 2
;
_chemical_formula_sum "Si O2"
_cell_formula_units_Z 64
_cell_length_a 9.041591
_cell_length_b 23.194860
_cell_length_c 18.965888
_cell_angle_alpha 90.000000
_cell_angle_beta 90.000000
_cell_angle_gamma 90.000000
_cell_volume 3977.496396
_symmetry_space_group_name_H-M "I M M 2"
_symmetry_group_IT_number 44
_symmetry_cell_setting 'orthorhombic'
loop_
_space_group_symop_operation_xyz
x,y,z
-x,-y,z
-x,y,z
x,-y,z
1/2+x,1/2+y,1/2+z
1/2-x,1/2-y,1/2+z
1/2-x,1/2+y,1/2+z
1/2+x,1/2-y,1/2+z
loop_
_atom_site_type_symbol
_atom_site_label
_atom_site_fract_x
_atom_site_fract_y
_atom_site_fract_z
Si Si1 0.170745 0.566717 0.196790
Si Si2 0.331844 0.228005 0.199742
Si Si3 0.828698 0.843269 0.787556
Si Si4 0.824439 0.880184 0.564315
Si Si5 0.826720 0.770259 0.913428
Si Si6 0.674555 0.565130 0.917249
Si Si7 0.827013 0.257398 0.067126
Si Si8 0.672556 0.159214 0.335573
O O1 0.192001 0.500000 0.215792
O O2 0.231106 0.602992 0.263032
O O3 0.261603 0.580826 0.126709
O O4 0.000000 0.582410 0.183970
O O5 0.500000 0.223209 0.173314
O O6 0.304903 0.290358 0.234110
O O7 0.223468 0.218903 0.133292
O O8 0.296321 0.177311 0.254998
O O9 0.769558 0.823535 0.865350
O O10 0.000000 0.862105 0.789282
O O11 0.771995 0.908340 0.491266
O O12 0.763243 0.816111 0.569056
O O13 0.000000 0.878233 0.571818
O O14 0.761652 0.709131 0.886787
O O15 0.000000 0.766581 0.897518
O O16 0.789509 0.778455 0.995806
O O17 0.500000 0.567784 0.910933
O O18 0.733094 0.500000 0.912402
O O19 0.743228 0.600204 0.852191
O O20 0.000000 0.271507 0.071196
O O21 0.500000 0.149370 0.349324
#
# Coordination Sequence:
#
# PCOD8189821 Si02
#       8
#     8   8   8   8   8   8   8   8
#     4  11  23  35  47  68  97 127 163 204 238 272
#     4   9  18  31  48  70  97 126 156 193 237 286
#     4   9  17  32  51  68  91 126 161 193 233 283
#     4  11  21  33  47  66  96 133 168 194 226 276
#     4   8  16  30  48  70  96 123 153 193 238 282
#     4  10  21  34  47  67  96 128 164 204 239 273
#     4  11  19  29  49  74  99 126 157 195 239 280
#     4   9  17  32  50  68  93 126 160 195 236 282
#
# _framework density 16.090523000000001
#
# number of rings (size 3 to 8) (size 9 to 14) (size 15 to 20)
#    0.000    2.250    2.500    3.000    0.000    2.750 
#    0.000    3.125    0.000    0.000    0.000    0.875 
#    0.000    1.000    0.000    0.000    0.000    0.000 
#
# Total GULP energy -396766.357685 kJ/mol
# GULP energy per Si atom -12398.948678 kJ/mol
# Density = 1.605390 g / cm^3
# Si number density = 16.090523 Si / 1000 Ang^3
#
#
#
# Elastic Constant Matrix: (Units=GPa)
#
#
# Indices 1 2 3 4 5 6 
#
# 1 55.3119 32.9059 42.0933 0.0000 0.0000 0.0000
# 2 32.9059 81.9869 53.7570 0.0000 0.0000 0.0000
# 3 42.0933 53.7570 110.1916 -0.0001 0.0000 0.0000
# 4 0.0000 0.0000 -0.0001 23.7237 0.0000 0.0000
# 5 0.0000 0.0000 0.0000 0.0000 25.2677 0.0000
# 6 0.0000 0.0000 0.0000 0.0000 0.0000 24.6695
#
#
#
# Elastic Compliance Matrix: (Units=1/GPa)
#
#
# Indices 1 2 3 4 5 6 
#
# 1 0.027406 -0.006080 -0.007503 0.000000 0.000000 0.000000
# 2 -0.006080 0.019282 -0.007084 0.000000 0.000000 0.000000
# 3 -0.007503 -0.007084 0.015397 0.000000 0.000000 0.000000
# 4 0.000000 0.000000 0.000000 0.042152 0.000000 0.000000
# 5 0.000000 0.000000 0.000000 0.000000 0.039576 0.000000
# 6 0.000000 0.000000 0.000000 0.000000 0.000000 0.040536
#
#
# Mechanical properties :
#
#
# Convention : Reuss Voigt Hill
#
# Bulk Modulus (GPa) = 48.19010 56.11142 52.15076
# Shear Modulus (GPa) = 21.49593 22.64780 22.07187
#
# Velocity S-wave (km/s) = 3.65901 3.75577 3.70771
# Velocity P-wave (km/s) = 6.91849 7.33183 7.12816
#
# Compressibility (1/GPa) = 0.02075115
#
# Stress axis : x y z
#
# Youngs Moduli (GPa) = 36.48783 51.86091 64.94613
#
# Poissons Ratio (x) = 0.31532 0.48730
# Poissons Ratio (y) = 0.22185 0.46010
# Poissons Ratio (z) = 0.27377 0.36740
#
# Static dielectric constant tensor:
#      x y z
#    x 2.959220 0.000000 0.000000 
#    y 0.000000 2.903370 0.000000 
#    z 0.000000 0.000000 3.211240 
# 
# 
# High freq. dielectric constant tensor:
#      x y z
#    x 1.613600 0.000000 0.000000 
#    y 0.000000 1.591600 0.000000 
#    z 0.000000 0.000000 1.617140 
# 
# From -- ./inp_files/22338.got.cif
#   From: 2010.03.12/outbox.cif.g09.slc.cpg/sg44_12_cif.got.tgz:22338.got - 2010.04.14 02:36:11.
