data_PCOD8189537
_publ_section_title
;
Structure prediction by ZEFSAII (Michael W. Deem and Ramdas Pophale) SiO2 
 PCOD8189537
Probable space group: I M M 2
;
_chemical_formula_sum "Si O2"
_cell_formula_units_Z 48
_cell_length_a 16.177423
_cell_length_b 9.137477
_cell_length_c 18.441237
_cell_angle_alpha 90.000000
_cell_angle_beta 90.000000
_cell_angle_gamma 90.000000
_cell_volume 2725.998970
_symmetry_space_group_name_H-M "I M M 2"
_symmetry_group_IT_number 44
_symmetry_cell_setting 'orthorhombic'
loop_
_space_group_symop_operation_xyz
x,y,z
-x,-y,z
-x,y,z
x,-y,z
1/2+x,1/2+y,1/2+z
1/2-x,1/2-y,1/2+z
1/2-x,1/2+y,1/2+z
1/2+x,1/2-y,1/2+z
loop_
_atom_site_type_symbol
_atom_site_label
_atom_site_fract_x
_atom_site_fract_y
_atom_site_fract_z
Si Si1 0.164568 0.668601 0.208300
Si Si2 0.679585 0.670595 0.559204
Si Si3 0.404489 0.170090 0.429605
Si Si4 0.500000 0.327548 0.946602
Si Si5 0.341439 0.166879 0.975043
Si Si6 0.727224 0.668451 0.342311
Si Si7 0.000000 0.331577 0.295472
O O1 0.166961 0.500000 0.183247
O O2 0.169130 0.773179 0.139985
O O3 0.241815 0.703272 0.261266
O O4 0.079592 0.704803 0.248072
O O5 0.658035 0.500000 0.555413
O O6 0.617267 0.751794 0.505086
O O7 0.773877 0.700671 0.536330
O O8 0.500000 0.197447 0.411275
O O9 0.351497 0.232792 0.362378
O O10 0.384090 0.000000 0.438587
O O11 0.500000 0.500000 0.946573
O O12 0.419162 0.271376 0.989069
O O13 0.500000 0.269685 0.865154
O O14 0.303161 0.201159 0.896245
O O15 0.372000 0.000000 0.978672
O O16 0.700101 0.500000 0.351070
O O17 0.000000 0.500000 0.321583
#
# Coordination Sequence:
#
# PCOD8189537 Si02
#       7
#     8   8   8   4   8   8   4
#     4  10  20  35  56  80 110 145 176 210 261 322
#     4  10  22  37  55  79 108 142 178 219 266 314
#     4  10  21  36  55  79 107 141 179 220 266 315
#     4  12  22  30  52  86 110 131 174 229 262 296
#     4   9  18  36  55  73 104 145 179 209 263 324
#     4   9  18  34  57  80 103 139 180 218 263 312
#     4  10  20  36  54  76 112 149 172 201 258 328
#
# _framework density 17.608222999999999
#
# number of rings (size 3 to 8) (size 9 to 14) (size 15 to 20)
#    0.000    2.167    1.667    2.750    1.167    6.000 
#    0.000    0.000    1.833    0.000    0.000    0.000 
#    0.000    0.000    0.000    0.000    0.000    0.000 
#
# Total GULP energy -297654.230839 kJ/mol
# GULP energy per Si atom -12402.259618 kJ/mol
# Density = 1.756815 g / cm^3
# Si number density = 17.608223 Si / 1000 Ang^3
#
#
#
# Elastic Constant Matrix: (Units=GPa)
#
#
# Indices 1 2 3 4 5 6 
#
# 1 112.5174 70.3780 37.1058 0.0000 0.0000 0.0000
# 2 70.3780 109.3430 33.9973 0.0000 0.0000 0.0000
# 3 37.1058 33.9973 62.2749 0.0000 0.0000 0.0000
# 4 0.0000 0.0000 0.0000 32.8362 0.0000 0.0000
# 5 0.0000 0.0000 0.0000 0.0000 9.3335 0.0000
# 6 0.0000 0.0000 0.0000 0.0000 0.0000 28.8296
#
#
#
# Elastic Compliance Matrix: (Units=1/GPa)
#
#
# Indices 1 2 3 4 5 6 
#
# 1 0.015940 -0.008800 -0.004693 0.000000 0.000000 0.000000
# 2 -0.008800 0.015874 -0.003422 0.000000 0.000000 0.000000
# 3 -0.004693 -0.003422 0.020723 0.000000 0.000000 0.000000
# 4 0.000000 0.000000 0.000000 0.030454 0.000000 0.000000
# 5 0.000000 0.000000 0.000000 0.000000 0.107141 0.000000
# 6 0.000000 0.000000 0.000000 0.000000 0.000000 0.034687
#
#
# Mechanical properties :
#
#
# Convention : Reuss Voigt Hill
#
# Bulk Modulus (GPa) = 53.46326 63.01084 58.23705
# Shear Modulus (GPa) = 18.87616 23.71013 21.29315
#
# Velocity S-wave (km/s) = 3.27771 3.67350 3.48123
# Velocity P-wave (km/s) = 6.68977 7.33862 7.02170
#
# Compressibility (1/GPa) = 0.01870443
#
# Stress axis : x y z
#
# Youngs Moduli (GPa) = 62.73656 62.99662 48.25658
#
# Poissons Ratio (x) = 0.55439 0.22648
# Poissons Ratio (y) = 0.55210 0.16515
# Poissons Ratio (z) = 0.29444 0.21560
#
# Static dielectric constant tensor:
#      x y z
#    x 3.362960 0.000000 0.000000 
#    y 0.000000 3.258070 0.000000 
#    z 0.000000 0.000000 3.147080 
# 
# 
# High freq. dielectric constant tensor:
#      x y z
#    x 1.683880 0.000000 0.000000 
#    y 0.000000 1.683150 0.000000 
#    z 0.000000 0.000000 1.664120 
# 
# From -- ./inp_files/21727.got.cif
#   From: 2010.03.12/outbox.cif.g09.slc.cpg/sg44_11_cif.got.tgz:21727.got - 2010.04.14 02:36:11.
