data_PCOD8189895
_publ_section_title
;
Structure prediction by ZEFSAII (Michael W. Deem and Ramdas Pophale) SiO2 
 PCOD8189895
Probable space group: I M M 2
;
_chemical_formula_sum "Si O2"
_cell_formula_units_Z 64
_cell_length_a 20.676534
_cell_length_b 8.902285
_cell_length_c 19.508320
_cell_angle_alpha 90.000000
_cell_angle_beta 90.000000
_cell_angle_gamma 90.000000
_cell_volume 3590.865219
_symmetry_space_group_name_H-M "I M M 2"
_symmetry_group_IT_number 44
_symmetry_cell_setting 'orthorhombic'
loop_
_space_group_symop_operation_xyz
x,y,z
-x,-y,z
-x,y,z
x,-y,z
1/2+x,1/2+y,1/2+z
1/2-x,1/2-y,1/2+z
1/2-x,1/2+y,1/2+z
1/2+x,1/2-y,1/2+z
loop_
_atom_site_type_symbol
_atom_site_label
_atom_site_fract_x
_atom_site_fract_y
_atom_site_fract_z
Si Si1 0.768919 0.327095 0.826570
Si Si2 0.073337 0.172697 0.609564
Si Si3 0.731095 0.676605 0.465535
Si Si4 0.619365 0.328664 0.817372
Si Si5 0.071153 0.676776 0.187527
Si Si6 0.190409 0.675533 0.678173
Si Si7 0.191059 0.321195 0.099643
Si Si8 0.366528 0.672061 0.967898
O O1 0.777557 0.500000 0.847441
O O2 0.793343 0.228346 0.890558
O O3 0.694789 0.290597 0.809642
O O4 0.809121 0.285227 0.758850
O O5 0.119518 0.280797 0.652416
O O6 0.082784 0.199239 0.528400
O O7 0.000000 0.215192 0.628100
O O8 0.088529 0.000000 0.628256
O O9 0.723303 0.500000 0.472190
O O10 0.687158 0.754991 0.523250
O O11 0.805355 0.720857 0.478692
O O12 0.605008 0.500000 0.797565
O O13 0.579077 0.226596 0.766068
O O14 0.598051 0.293235 0.895694
O O15 0.076210 0.500000 0.186271
O O16 0.127874 0.742698 0.139389
O O17 0.000000 0.729195 0.161464
O O18 0.203884 0.500000 0.665706
O O19 0.244166 0.768552 0.637670
O O20 0.191893 0.500000 0.096124
O O21 0.340608 0.500000 0.966587
#
# Coordination Sequence:
#
# PCOD8189895 Si02
#       8
#     8   8   8   8   8   8   8   8
#     4   9  19  35  54  78 110 140 173 219 271 323
#     4  10  21  36  54  77 109 150 188 221 266 324
#     4  11  21  32  53  83 110 135 175 225 271 319
#     4   9  17  31  51  76 106 140 179 218 257 310
#     4  10  22  37  52  75 107 143 182 222 266 318
#     4  11  21  35  57  83 108 138 182 230 269 315
#     4  11  21  35  56  78 107 145 180 220 272 323
#     4   9  18  33  51  74 107 146 183 216 259 314
#
# _framework density 17.823001999999999
#
# number of rings (size 3 to 8) (size 9 to 14) (size 15 to 20)
#    0.000    2.000    2.500    2.625    0.000    4.500 
#    0.000    1.250    0.000    0.750    0.000    1.750 
#    0.000    0.000    0.000    0.000    0.000    0.000 
#
# Total GULP energy -396807.153539 kJ/mol
# GULP energy per Si atom -12400.223548 kJ/mol
# Density = 1.778244 g / cm^3
# Si number density = 17.823002 Si / 1000 Ang^3
#
#
#
# Elastic Constant Matrix: (Units=GPa)
#
#
# Indices 1 2 3 4 5 6 
#
# 1 87.4158 29.2825 52.6812 0.0000 0.0000 0.0000
# 2 29.2825 64.0898 44.2719 0.0000 0.0000 0.0000
# 3 52.6812 44.2719 113.8838 0.0000 0.0000 0.0000
# 4 0.0000 0.0000 0.0000 31.1416 0.0000 0.0000
# 5 0.0000 0.0000 0.0000 0.0000 21.0035 0.0000
# 6 0.0000 0.0000 0.0000 0.0000 0.0000 13.8436
#
#
#
# Elastic Compliance Matrix: (Units=1/GPa)
#
#
# Indices 1 2 3 4 5 6 
#
# 1 0.016288 -0.003059 -0.006346 0.000000 0.000000 0.000000
# 2 -0.003059 0.021906 -0.007101 0.000000 0.000000 0.000000
# 3 -0.006346 -0.007101 0.014477 0.000000 0.000000 0.000000
# 4 0.000000 0.000000 0.000000 0.032111 0.000000 0.000000
# 5 0.000000 0.000000 0.000000 0.000000 0.047611 0.000000
# 6 0.000000 0.000000 0.000000 0.000000 0.000000 0.072235
#
#
# Mechanical properties :
#
#
# Convention : Reuss Voigt Hill
#
# Bulk Modulus (GPa) = 50.86375 57.54008 54.20192
# Shear Modulus (GPa) = 20.47561 22.47466 21.47514
#
# Velocity S-wave (km/s) = 3.39312 3.55490 3.47495
# Velocity P-wave (km/s) = 6.62957 7.01456 6.82478
#
# Compressibility (1/GPa) = 0.01966037
#
# Stress axis : x y z
#
# Youngs Moduli (GPa) = 61.39312 45.65021 69.07598
#
# Poissons Ratio (x) = 0.13963 0.43834
# Poissons Ratio (y) = 0.18778 0.49050
# Poissons Ratio (z) = 0.38959 0.32416
#
# Static dielectric constant tensor:
#      x y z
#    x 3.199820 0.000000 0.000000 
#    y 0.000000 3.216140 0.000000 
#    z 0.000000 0.000000 3.547110 
# 
# 
# High freq. dielectric constant tensor:
#      x y z
#    x 1.660660 0.000000 0.000000 
#    y 0.000000 1.686630 0.000000 
#    z 0.000000 0.000000 1.697400 
# 
# From -- ./inp_files/22304.got.cif
#   From: 2010.03.12/outbox.cif.g09.slc.cpg/sg44_12_cif.got.tgz:22304.got - 2010.04.14 02:36:11.
