data_PCOD8189760
_publ_section_title
;
Structure prediction by ZEFSAII (Michael W. Deem and Ramdas Pophale) SiO2 
 PCOD8189760
Probable space group: I M M 2
;
_chemical_formula_sum "Si O2"
_cell_formula_units_Z 48
_cell_length_a 27.712272
_cell_length_b 8.982757
_cell_length_c 9.784164
_cell_angle_alpha 90.000000
_cell_angle_beta 90.000000
_cell_angle_gamma 90.000000
_cell_volume 2435.597435
_symmetry_space_group_name_H-M "I M M 2"
_symmetry_group_IT_number 44
_symmetry_cell_setting 'orthorhombic'
loop_
_space_group_symop_operation_xyz
x,y,z
-x,-y,z
-x,y,z
x,-y,z
1/2+x,1/2+y,1/2+z
1/2-x,1/2-y,1/2+z
1/2-x,1/2+y,1/2+z
1/2+x,1/2-y,1/2+z
loop_
_atom_site_type_symbol
_atom_site_label
_atom_site_fract_x
_atom_site_fract_y
_atom_site_fract_z
Si Si1 0.610676 0.669240 0.265930
Si Si2 0.605848 0.825640 0.772951
Si Si3 0.296124 0.323548 0.866560
Si Si4 0.783065 0.826143 0.679922
Si Si5 0.053905 0.832201 0.496252
Si Si6 0.554405 0.824298 0.500383
O O1 0.601071 0.500000 0.312634
O O2 0.667259 0.705067 0.259919
O O3 0.582804 0.778222 0.365707
O O4 0.591443 0.698512 0.115245
O O5 0.653066 0.736767 0.815232
O O6 0.563336 0.787677 0.878567
O O7 0.586426 0.768494 0.627246
O O8 0.617294 0.000000 0.772852
O O9 0.298036 0.500000 0.861668
O O10 0.256387 0.266500 0.761223
O O11 0.285400 0.270726 0.022155
O O12 0.769652 0.000000 0.683879
O O13 0.000000 0.809088 0.553015
O O14 0.060858 0.000000 0.439228
O O15 0.500000 0.756050 0.503606
O O16 0.550154 0.000000 0.503931
#
# Coordination Sequence:
#
# PCOD8189760 Si02
#       6
#     8   8   8   8   8   8
#     4  10  21  40  63  88 121 157 199 249 300 358
#     4  11  23  40  62  88 123 161 204 251 301 358
#     4  11  24  43  66  91 123 159 200 249 307 364
#     4  10  23  43  64  91 124 156 198 250 303 362
#     4  10  20  37  62  90 120 156 200 249 301 359
#     4  10  23  41  59  86 125 164 203 248 298 354
#
# _framework density 19.707691000000001
#
# number of rings (size 3 to 8) (size 9 to 14) (size 15 to 20)
#    0.000    1.667    1.667    2.000    2.333    6.000 
#    0.000    0.000    0.000    0.000    0.000    0.000 
#    0.000    0.000    0.000    0.000    0.000    0.000 
#
# Total GULP energy -297640.069903 kJ/mol
# GULP energy per Si atom -12401.669579 kJ/mol
# Density = 1.966284 g / cm^3
# Si number density = 19.707691 Si / 1000 Ang^3
#
#
#
# Elastic Constant Matrix: (Units=GPa)
#
#
# Indices 1 2 3 4 5 6 
#
# 1 100.5798 34.1611 58.6709 0.0000 0.0000 0.0000
# 2 34.1611 43.1188 36.9119 0.0000 0.0000 0.0000
# 3 58.6709 36.9119 94.1320 0.0000 0.0000 0.0000
# 4 0.0000 0.0000 0.0000 36.6226 0.0000 0.0000
# 5 0.0000 0.0000 0.0000 0.0000 35.4247 0.0000
# 6 0.0000 0.0000 0.0000 0.0000 0.0000 35.4165
#
#
#
# Elastic Compliance Matrix: (Units=1/GPa)
#
#
# Indices 1 2 3 4 5 6 
#
# 1 0.016760 -0.006526 -0.007887 0.000000 0.000000 0.000000
# 2 -0.006526 0.037452 -0.010618 0.000000 0.000000 0.000000
# 3 -0.007887 -0.010618 0.019703 0.000000 0.000000 0.000000
# 4 0.000000 0.000000 0.000000 0.027306 0.000000 0.000000
# 5 0.000000 0.000000 0.000000 0.000000 0.028229 0.000000
# 6 0.000000 0.000000 0.000000 0.000000 0.000000 0.028235
#
#
# Mechanical properties :
#
#
# Convention : Reuss Voigt Hill
#
# Bulk Modulus (GPa) = 41.92588 55.25758 48.59173
# Shear Modulus (GPa) = 23.18060 28.69854 25.93957
#
# Velocity S-wave (km/s) = 3.43333 3.82017 3.63190
# Velocity P-wave (km/s) = 6.08581 6.89621 6.50364
#
# Compressibility (1/GPa) = 0.02385162
#
# Stress axis : x y z
#
# Youngs Moduli (GPa) = 59.66754 26.70079 50.75415
#
# Poissons Ratio (x) = 0.17426 0.40029
# Poissons Ratio (y) = 0.38941 0.53892
# Poissons Ratio (z) = 0.47058 0.28352
#
# Static dielectric constant tensor:
#      x y z
#    x 3.807390 0.000000 0.000000 
#    y 0.000000 3.491020 0.000000 
#    z 0.000000 0.000000 3.674000 
# 
# 
# High freq. dielectric constant tensor:
#      x y z
#    x 1.786520 0.000000 0.000000 
#    y 0.000000 1.759420 0.000000 
#    z 0.000000 0.000000 1.774030 
# 
# From -- ./inp_files/4866.got.cif
#   From: 2010.03.12/outbox.cif.g09.slc.cpg/sg44_3_cif.got.tgz:4866.got - 2010.04.14 02:36:11.
