data_PCOD8189095
_publ_section_title
;
Structure prediction by ZEFSAII (Michael W. Deem and Ramdas Pophale) SiO2 
 PCOD8189095
Probable space group: I M M 2
;
_chemical_formula_sum "Si O2"
_cell_formula_units_Z 40
_cell_length_a 8.607818
_cell_length_b 9.680058
_cell_length_c 25.854703
_cell_angle_alpha 90.000000
_cell_angle_beta 90.000000
_cell_angle_gamma 90.000000
_cell_volume 2154.321862
_symmetry_space_group_name_H-M "I M M 2"
_symmetry_group_IT_number 44
_symmetry_cell_setting 'orthorhombic'
loop_
_space_group_symop_operation_xyz
x,y,z
-x,-y,z
-x,y,z
x,-y,z
1/2+x,1/2+y,1/2+z
1/2-x,1/2-y,1/2+z
1/2-x,1/2+y,1/2+z
1/2+x,1/2-y,1/2+z
loop_
_atom_site_type_symbol
_atom_site_label
_atom_site_fract_x
_atom_site_fract_y
_atom_site_fract_z
Si Si1 0.814810 0.000000 0.946000
Si Si2 0.818475 0.000000 0.674114
Si Si3 0.182627 0.500000 0.840483
Si Si4 0.685297 0.500000 0.290338
Si Si5 0.819738 0.000000 0.228877
Si Si6 0.684647 0.500000 0.563119
Si Si7 0.315495 0.787897 0.868162
Si Si8 0.681774 0.720271 0.643365
O O1 0.749454 0.862695 0.919129
O O2 0.753142 0.000000 0.004785
O O3 0.000000 0.000000 0.942482
O O4 0.766293 0.133899 0.642829
O O5 0.749379 0.000000 0.732082
O O6 0.000000 0.000000 0.678745
O O7 0.214086 0.500000 0.779359
O O8 0.258352 0.631272 0.868348
O O9 0.000000 0.500000 0.850205
O O10 0.500000 0.500000 0.294222
O O11 0.750467 0.362737 0.317210
O O12 0.779865 0.135740 0.195546
O O13 0.000000 0.000000 0.245606
O O14 0.500000 0.500000 0.565030
O O15 0.743848 0.635908 0.593508
O O16 0.500000 0.795363 0.867866
O O17 0.500000 0.746688 0.639081
#
# Coordination Sequence:
#
# PCOD8189095 Si02
#       8
#     4   4   4   4   4   4   8   8
#     4  10  19  37  62  82 102 131 172 219 267 316
#     4  11  22  32  46  76 113 143 173 212 255 300
#     4  12  23  35  52  77 110 144 177 215 262 309
#     4  10  20  35  53  76 109 147 183 214 253 308
#     4   9  18  33  54  79 106 138 177 215 254 305
#     4   8  17  36  61  82  98 127 174 219 257 310
#     4  11  22  36  54  79 108 138 177 218 261 313
#     4   9  18  34  55  78 104 137 176 213 253 306
#
# _framework density 18.567329000000001
#
# number of rings (size 3 to 8) (size 9 to 14) (size 15 to 20)
#    0.000    2.000    0.000    7.200    0.000    5.600 
#    0.000    4.500    0.000    2.400    0.000    0.000 
#    0.000    0.000    0.000    0.000    0.000    0.000 
#
# Total GULP energy -248039.514250 kJ/mol
# GULP energy per Si atom -12401.975712 kJ/mol
# Density = 1.852507 g / cm^3
# Si number density = 18.567329 Si / 1000 Ang^3
#
#
#
# Elastic Constant Matrix: (Units=GPa)
#
#
# Indices 1 2 3 4 5 6 
#
# 1 92.5783 43.3110 38.0637 0.0000 0.0000 0.0000
# 2 43.3110 169.7571 69.8056 0.0000 0.0000 0.0000
# 3 38.0637 69.8056 138.1095 0.0000 0.0000 0.0000
# 4 0.0000 0.0000 0.0000 13.1758 0.0000 0.0000
# 5 0.0000 0.0000 0.0000 0.0000 23.0382 0.0000
# 6 0.0000 0.0000 0.0000 0.0000 0.0000 25.8324
#
#
#
# Elastic Compliance Matrix: (Units=1/GPa)
#
#
# Indices 1 2 3 4 5 6 
#
# 1 0.012857 -0.002302 -0.002380 0.000000 0.000000 0.000000
# 2 -0.002302 0.007848 -0.003333 0.000000 0.000000 0.000000
# 3 -0.002380 -0.003333 0.009581 0.000000 0.000000 0.000000
# 4 0.000000 0.000000 0.000000 0.075897 0.000000 0.000000
# 5 0.000000 0.000000 0.000000 0.000000 0.043406 0.000000
# 6 0.000000 0.000000 0.000000 0.000000 0.000000 0.038711
#
#
# Mechanical properties :
#
#
# Convention : Reuss Voigt Hill
#
# Bulk Modulus (GPa) = 70.13663 78.08949 74.11306
# Shear Modulus (GPa) = 23.91410 29.02691 26.47050
#
# Velocity S-wave (km/s) = 3.59272 3.95819 3.77987
# Velocity P-wave (km/s) = 7.42067 7.93968 7.68456
#
# Compressibility (1/GPa) = 0.01425788
#
# Stress axis : x y z
#
# Youngs Moduli (GPa) = 77.77858 127.41572 104.37320
#
# Poissons Ratio (x) = 0.29325 0.24843
# Poissons Ratio (y) = 0.17901 0.34783
# Poissons Ratio (z) = 0.18513 0.42462
#
# Static dielectric constant tensor:
#      x y z
#    x 3.309400 0.000000 0.000000 
#    y 0.000000 3.218620 0.000000 
#    z 0.000000 0.000000 3.517900 
# 
# 
# High freq. dielectric constant tensor:
#      x y z
#    x 1.718370 0.000000 0.000000 
#    y 0.000000 1.729210 0.000000 
#    z 0.000000 0.000000 1.706420 
# 
# From -- ./inp_files/26005.got.cif
#   From: 2010.03.12/outbox.cif.g09.slc.cpg/sg44_14_cif.got.tgz:26005.got - 2010.04.14 02:36:11.
