data_PCOD8189533
_publ_section_title
;
Structure prediction by ZEFSAII (Michael W. Deem and Ramdas Pophale) SiO2 
 PCOD8189533
Probable space group: I M M 2
;
_chemical_formula_sum "Si O2"
_cell_formula_units_Z 48
_cell_length_a 8.985418
_cell_length_b 29.910415
_cell_length_c 9.813101
_cell_angle_alpha 90.000000
_cell_angle_beta 90.000000
_cell_angle_gamma 90.000000
_cell_volume 2637.345290
_symmetry_space_group_name_H-M "I M M 2"
_symmetry_group_IT_number 44
_symmetry_cell_setting 'orthorhombic'
loop_
_space_group_symop_operation_xyz
x,y,z
-x,-y,z
-x,y,z
x,-y,z
1/2+x,1/2+y,1/2+z
1/2-x,1/2-y,1/2+z
1/2-x,1/2+y,1/2+z
1/2+x,1/2-y,1/2+z
loop_
_atom_site_type_symbol
_atom_site_label
_atom_site_fract_x
_atom_site_fract_y
_atom_site_fract_z
Si Si1 0.672469 0.119755 0.511840
Si Si2 0.172675 0.550890 0.542075
Si Si3 0.673923 0.715031 0.323418
Si Si4 0.327530 0.447906 0.818193
Si Si5 0.325434 0.711600 0.008463
Si Si6 0.671308 0.875670 0.825580
O O1 0.500000 0.124227 0.475589
O O2 0.740533 0.077818 0.434947
O O3 0.751117 0.165186 0.464132
O O4 0.700229 0.110458 0.670510
O O5 0.211675 0.500000 0.501280
O O6 0.267528 0.566964 0.671045
O O7 0.217296 0.581858 0.415549
O O8 0.000000 0.555824 0.580306
O O9 0.500000 0.720065 0.353024
O O10 0.712674 0.723323 0.164989
O O11 0.763073 0.750158 0.412438
O O12 0.725876 0.665787 0.368112
O O13 0.500000 0.435720 0.826476
O O14 0.296886 0.500000 0.842198
O O15 0.500000 0.706977 0.985777
O O16 0.500000 0.861784 0.848911
#
# Coordination Sequence:
#
# PCOD8189533 Si02
#       6
#     8   8   8   8   8   8
#     4  10  20  35  56  80 106 137 174 215 260 311
#     4   9  18  34  55  78 105 137 174 217 263 311
#     4  10  21  36  55  79 106 138 176 215 258 310
#     4  10  21  36  53  76 107 141 177 216 258 306
#     4  10  21  37  56  78 106 138 173 215 261 309
#     4   9  19  35  55  79 106 136 172 216 264 312
#
# _framework density 18.200119000000001
#
# number of rings (size 3 to 8) (size 9 to 14) (size 15 to 20)
#    0.000    2.333    0.000    2.000    0.000    6.333 
#    0.000    3.333    0.000    2.000    0.000    0.000 
#    0.000    0.000    0.000    0.000    0.000    0.000 
#
# Total GULP energy -297701.205592 kJ/mol
# GULP energy per Si atom -12404.216900 kJ/mol
# Density = 1.815870 g / cm^3
# Si number density = 18.200119 Si / 1000 Ang^3
#
#
#
# Elastic Constant Matrix: (Units=GPa)
#
#
# Indices 1 2 3 4 5 6 
#
# 1 99.7080 62.5693 57.8270 0.0005 0.0000 0.0006
# 2 62.5693 106.8779 75.0442 0.0013 -0.0002 -0.0006
# 3 57.8270 75.0442 93.7814 0.0051 -0.0008 0.0050
# 4 0.0005 0.0013 0.0051 38.4947 -0.0003 0.0018
# 5 0.0000 -0.0002 -0.0008 -0.0003 28.0375 0.0010
# 6 0.0006 -0.0006 0.0050 0.0018 0.0010 21.7296
#
#
#
# Elastic Compliance Matrix: (Units=1/GPa)
#
#
# Indices 1 2 3 4 5 6 
#
# 1 0.017129 -0.005961 -0.005792 0.000001 0.000000 0.000001
# 2 -0.005961 0.023429 -0.015073 0.000001 0.000000 0.000004
# 3 -0.005792 -0.015073 0.026296 -0.000003 0.000001 -0.000006
# 4 0.000001 0.000001 -0.000003 0.025978 0.000000 -0.000002
# 5 0.000000 0.000000 0.000001 0.000000 0.035666 -0.000002
# 6 0.000001 0.000004 -0.000006 -0.000002 -0.000002 0.046020
#
#
# Mechanical properties :
#
#
# Convention : Reuss Voigt Hill
#
# Bulk Modulus (GPa) = 75.74108 76.80536 76.27322
# Shear Modulus (GPa) = 21.49878 24.64749 23.07314
#
# Velocity S-wave (km/s) = 3.44065 3.68400 3.56441
# Velocity P-wave (km/s) = 7.58223 7.77097 7.67718
#
# Compressibility (1/GPa) = 0.01320288
#
# Stress axis : x y z
#
# Youngs Moduli (GPa) = 58.37996 42.68128 38.02882
#
# Poissons Ratio (x) = 0.25442 0.22027
# Poissons Ratio (y) = 0.34800 0.57320
# Poissons Ratio (z) = 0.33814 0.64332
#
# Static dielectric constant tensor:
#      x y z
#    x 3.480330 0.000000 0.000000 
#    y 0.000000 3.408950 0.000000 
#    z 0.000000 0.000000 3.351970 
# 
# 
# High freq. dielectric constant tensor:
#      x y z
#    x 1.715650 0.000000 0.000000 
#    y 0.000000 1.708550 0.000000 
#    z 0.000000 0.000000 1.704270 
# 
# From -- ./inp_files/4858.got.cif
#   From: 2010.03.12/outbox.cif.g09.slc.cpg/sg44_3_cif.got.tgz:4858.got - 2010.04.14 02:36:11.
