data_PCOD8189337
_publ_section_title
;
Structure prediction by ZEFSAII (Michael W. Deem and Ramdas Pophale) SiO2 
 PCOD8189337
Probable space group: I M M 2
;
_chemical_formula_sum "Si O2"
_cell_formula_units_Z 38
_cell_length_a 15.005976
_cell_length_b 12.866278
_cell_length_c 11.213951
_cell_angle_alpha 90.000000
_cell_angle_beta 90.000000
_cell_angle_gamma 90.000000
_cell_volume 2165.089394
_symmetry_space_group_name_H-M "I M M 2"
_symmetry_group_IT_number 44
_symmetry_cell_setting 'orthorhombic'
loop_
_space_group_symop_operation_xyz
x,y,z
-x,-y,z
-x,y,z
x,-y,z
1/2+x,1/2+y,1/2+z
1/2-x,1/2-y,1/2+z
1/2-x,1/2+y,1/2+z
1/2+x,1/2-y,1/2+z
loop_
_atom_site_type_symbol
_atom_site_label
_atom_site_fract_x
_atom_site_fract_y
_atom_site_fract_z
Si Si1 0.500000 0.879347 0.404100
Si Si2 0.658299 0.880411 0.580575
Si Si3 0.500000 0.722467 0.189608
Si Si4 0.837010 0.790111 0.509393
Si Si5 0.398189 0.881975 0.846451
Si Si6 0.902804 0.000000 0.456153
Si Si7 0.000000 0.000000 0.687145
O O1 0.587640 0.851226 0.478858
O O2 0.500000 0.814632 0.282942
O O3 0.500000 0.000000 0.368641
O O4 0.741655 0.802579 0.572028
O O5 0.611804 0.862010 0.706574
O O6 0.690116 0.000000 0.566908
O O7 0.587024 0.729434 0.107230
O O8 0.500000 0.609378 0.259319
O O9 0.833071 0.691966 0.421292
O O10 0.852669 0.892660 0.425685
O O11 0.500000 0.857836 0.881973
O O12 0.372636 0.000000 0.878752
O O13 0.913149 0.000000 0.600887
O O14 0.000000 0.000000 0.392494
#
# Coordination Sequence:
#
# PCOD8189337 Si02
#       7
#     4   8   4   8   8   4   2
#     4  10  22  39  54  79 109 150 180 222 273 326
#     4  10  21  37  58  78 109 145 189 220 263 326
#     4  10  20  33  55  82 114 139 178 225 272 323
#     4  11  19  33  56  87 105 139 183 228 269 314
#     4  10  20  37  58  80 109 146 180 225 271 319
#     4   8  14  30  50  76 107 131 171 222 264 307
#     4   6  14  30  48  74  96 138 168 208 256 310
#
# _framework density 17.551238999999999
#
# number of rings (size 3 to 8) (size 9 to 14) (size 15 to 20)
#    0.316    1.895    4.211    0.000    2.947    0.842 
#    0.000    0.000    2.316    0.000    0.000    0.000 
#    0.000    0.000    0.000    0.000    0.000    0.000 
#
# Total GULP energy -235480.687186 kJ/mol
# GULP energy per Si atom -12393.720378 kJ/mol
# Density = 1.751129 g / cm^3
# Si number density = 17.551239 Si / 1000 Ang^3
#
#
#
# Elastic Constant Matrix: (Units=GPa)
#
#
# Indices 1 2 3 4 5 6 
#
# 1 94.2752 39.2214 29.8422 0.0000 0.0000 0.0000
# 2 39.2214 112.6673 53.5142 0.0000 0.0000 0.0000
# 3 29.8422 53.5142 68.8486 0.0000 0.0000 0.0000
# 4 0.0000 0.0000 0.0000 27.1768 0.0000 0.0000
# 5 0.0000 0.0000 0.0000 0.0000 19.7218 0.0000
# 6 0.0000 0.0000 0.0000 0.0000 0.0000 17.6426
#
#
#
# Elastic Compliance Matrix: (Units=1/GPa)
#
#
# Indices 1 2 3 4 5 6 
#
# 1 0.012866 -0.002901 -0.003322 0.000000 0.000000 0.000000
# 2 -0.002901 0.014724 -0.010187 0.000000 0.000000 0.000000
# 3 -0.003322 -0.010187 0.023883 0.000000 0.000000 0.000000
# 4 0.000000 0.000000 0.000000 0.036796 0.000000 0.000000
# 5 0.000000 0.000000 0.000000 0.000000 0.050705 0.000000
# 6 0.000000 0.000000 0.000000 0.000000 0.000000 0.056681
#
#
# Mechanical properties :
#
#
# Convention : Reuss Voigt Hill
#
# Bulk Modulus (GPa) = 53.61195 57.88296 55.74745
# Shear Modulus (GPa) = 21.30444 23.12246 22.21345
#
# Velocity S-wave (km/s) = 3.48780 3.63357 3.56144
# Velocity P-wave (km/s) = 6.84339 7.11722 6.98165
#
# Compressibility (1/GPa) = 0.01865256
#
# Stress axis : x y z
#
# Youngs Moduli (GPa) = 77.72661 67.91469 41.87112
#
# Poissons Ratio (x) = 0.19702 0.13908
# Poissons Ratio (y) = 0.22549 0.42656
# Poissons Ratio (z) = 0.25818 0.69188
#
# Static dielectric constant tensor:
#      x y z
#    x 3.187090 0.000000 0.000000 
#    y 0.000000 3.432170 0.000000 
#    z 0.000000 0.000000 2.856000 
# 
# 
# High freq. dielectric constant tensor:
#      x y z
#    x 1.678920 0.000000 0.000000 
#    y 0.000000 1.682160 0.000000 
#    z 0.000000 0.000000 1.638650 
# 
# From -- ./inp_files/13064.got.cif
#   From: 2010.03.12/outbox.cif.g09.slc.cpg/sg44_7_cif.got.tgz:13064.got - 2010.04.14 02:36:11.
