data_PCOD8189616
_publ_section_title
;
Structure prediction by ZEFSAII (Michael W. Deem and Ramdas Pophale) SiO2 
 PCOD8189616
Probable space group: I M M 2
;
_chemical_formula_sum "Si O2"
_cell_formula_units_Z 64
_cell_length_a 32.612326
_cell_length_b 8.907138
_cell_length_c 12.822905
_cell_angle_alpha 90.000000
_cell_angle_beta 90.000000
_cell_angle_gamma 90.000000
_cell_volume 3724.829350
_symmetry_space_group_name_H-M "I M M 2"
_symmetry_group_IT_number 44
_symmetry_cell_setting 'orthorhombic'
loop_
_space_group_symop_operation_xyz
x,y,z
-x,-y,z
-x,y,z
x,-y,z
1/2+x,1/2+y,1/2+z
1/2-x,1/2-y,1/2+z
1/2-x,1/2+y,1/2+z
1/2+x,1/2-y,1/2+z
loop_
_atom_site_type_symbol
_atom_site_label
_atom_site_fract_x
_atom_site_fract_y
_atom_site_fract_z
Si Si1 0.453870 0.175593 0.081110
Si Si2 0.336691 0.830346 0.828499
Si Si3 0.172154 0.176737 0.732137
Si Si4 0.126567 0.678345 0.920059
Si Si5 0.763679 0.669328 0.194878
Si Si6 0.544471 0.822031 0.316575
Si Si7 0.874544 0.824503 0.522128
Si Si8 0.161554 0.822707 0.123109
O O1 0.500000 0.207777 0.039723
O O2 0.449488 0.237416 0.198949
O O3 0.443871 0.000000 0.074940
O O4 0.420892 0.263331 0.010755
O O5 0.287363 0.829581 0.807163
O O6 0.345337 0.749533 0.936696
O O7 0.357865 0.742177 0.731062
O O8 0.353844 0.000000 0.831956
O O9 0.158139 0.268658 0.832340
O O10 0.218077 0.233181 0.706788
O O11 0.143204 0.217761 0.635236
O O12 0.171558 0.000000 0.757619
O O13 0.128986 0.500000 0.930597
O O14 0.080952 0.736137 0.889738
O O15 0.136027 0.754273 0.029074
O O16 0.762123 0.500000 0.149612
O O17 0.790445 0.771382 0.114805
O O18 0.500000 0.766401 0.359442
O O19 0.544932 0.000000 0.311222
O O20 0.874347 0.000000 0.502159
O O21 0.158184 0.000000 0.120809
#
# Coordination Sequence:
#
# PCOD8189616 Si02
#       8
#     8   8   8   8   8   8   8   8
#     4   9  17  32  53  76 105 140 177 212 251 310
#     4   9  19  37  57  73  97 138 185 222 257 309
#     4  10  21  35  50  77 112 139 171 216 263 311
#     4  11  20  32  54  80 107 139 176 214 258 312
#     4   8  18  37  54  73 100 137 181 220 257 306
#     4   8  15  29  50  76 105 136 171 209 248 298
#     4  11  21  32  52  80 112 140 169 217 270 317
#     4  10  20  36  55  75 102 137 177 220 268 312
#
# _framework density 17.181994
#
# number of rings (size 3 to 8) (size 9 to 14) (size 15 to 20)
#    0.750    1.750    1.250    2.625    0.000    2.250 
#    0.000    2.500    0.000    2.250    0.000    1.750 
#    0.000    0.000    0.000    0.000    0.000    0.000 
#
# Total GULP energy -396587.743189 kJ/mol
# GULP energy per Si atom -12393.366975 kJ/mol
# Density = 1.714289 g / cm^3
# Si number density = 17.181994 Si / 1000 Ang^3
#
#
#
# Elastic Constant Matrix: (Units=GPa)
#
#
# Indices 1 2 3 4 5 6 
#
# 1 96.6961 25.6935 15.6513 0.0000 0.0000 0.0000
# 2 25.6935 77.5945 27.5047 0.0000 0.0000 0.0000
# 3 15.6513 27.5047 54.0949 0.0000 0.0000 0.0000
# 4 0.0000 0.0000 0.0000 30.7023 0.0000 0.0000
# 5 0.0000 0.0000 0.0000 0.0000 11.6842 0.0000
# 6 0.0000 0.0000 0.0000 0.0000 0.0000 23.4179
#
#
#
# Elastic Compliance Matrix: (Units=1/GPa)
#
#
# Indices 1 2 3 4 5 6 
#
# 1 0.011465 -0.003197 -0.001692 0.000000 0.000000 0.000000
# 2 -0.003197 0.016612 -0.007522 0.000000 0.000000 0.000000
# 3 -0.001692 -0.007522 0.022800 0.000000 0.000000 0.000000
# 4 0.000000 0.000000 0.000000 0.032571 0.000000 0.000000
# 5 0.000000 0.000000 0.000000 0.000000 0.085586 0.000000
# 6 0.000000 0.000000 0.000000 0.000000 0.000000 0.042702
#
#
# Mechanical properties :
#
#
# Convention : Reuss Voigt Hill
#
# Bulk Modulus (GPa) = 38.37760 40.67605 39.52682
# Shear Modulus (GPa) = 20.38804 23.79661 22.09232
#
# Velocity S-wave (km/s) = 3.44843 3.72556 3.58967
# Velocity P-wave (km/s) = 6.18385 6.49857 6.34316
#
# Compressibility (1/GPa) = 0.02605687
#
# Stress axis : x y z
#
# Youngs Moduli (GPa) = 87.22269 60.19690 43.85978
#
# Poissons Ratio (x) = 0.19243 0.07420
# Poissons Ratio (y) = 0.27882 0.32990
# Poissons Ratio (z) = 0.14757 0.45278
#
# Static dielectric constant tensor:
#      x y z
#    x 3.382620 0.000000 0.000000 
#    y 0.000000 3.080510 0.000000 
#    z 0.000000 0.000000 2.984870 
# 
# 
# High freq. dielectric constant tensor:
#      x y z
#    x 1.660710 0.000000 0.000000 
#    y 0.000000 1.659410 0.000000 
#    z 0.000000 0.000000 1.639480 
# 
# From -- ./inp_files/15120.got.cif
#   From: 2010.03.12/outbox.cif.g09.slc.cpg/sg44_8_cif.got.tgz:15120.got - 2010.04.14 02:36:11.
