data_PCOD8189878
_publ_section_title
;
Structure prediction by ZEFSAII (Michael W. Deem and Ramdas Pophale) SiO2 
 PCOD8189878
Probable space group: I M M 2
;
_chemical_formula_sum "Si O2"
_cell_formula_units_Z 64
_cell_length_a 8.830073
_cell_length_b 14.316760
_cell_length_c 27.955983
_cell_angle_alpha 90.000000
_cell_angle_beta 90.000000
_cell_angle_gamma 90.000000
_cell_volume 3534.140463
_symmetry_space_group_name_H-M "I M M 2"
_symmetry_group_IT_number 44
_symmetry_cell_setting 'orthorhombic'
loop_
_space_group_symop_operation_xyz
x,y,z
-x,-y,z
-x,y,z
x,-y,z
1/2+x,1/2+y,1/2+z
1/2-x,1/2-y,1/2+z
1/2-x,1/2+y,1/2+z
1/2+x,1/2-y,1/2+z
loop_
_atom_site_type_symbol
_atom_site_label
_atom_site_fract_x
_atom_site_fract_y
_atom_site_fract_z
Si Si1 0.322780 0.106678 0.706400
Si Si2 0.321440 0.893750 0.430041
Si Si3 0.177986 0.893144 0.330684
Si Si4 0.823833 0.106169 0.053766
Si Si5 0.822783 0.279922 0.745512
Si Si6 0.322526 0.280411 0.014765
Si Si7 0.826476 0.107759 0.163839
Si Si8 0.173264 0.892512 0.607775
O O1 0.500000 0.122786 0.713237
O O2 0.231988 0.172505 0.742968
O O3 0.279532 0.133516 0.652168
O O4 0.275608 0.000000 0.717365
O O5 0.500000 0.886264 0.426531
O O6 0.252595 0.859725 0.379972
O O7 0.263245 0.825296 0.470622
O O8 0.269535 0.000000 0.441285
O O9 0.236970 0.829009 0.288475
O O10 0.000000 0.880878 0.335404
O O11 0.223020 0.000000 0.319315
O O12 0.724796 0.172371 0.019711
O O13 0.779551 0.123085 0.108956
O O14 0.000000 0.127803 0.046003
O O15 0.786499 0.000000 0.039174
O O16 0.784221 0.330371 0.695717
O O17 0.000000 0.283996 0.755147
O O18 0.500000 0.289727 0.005771
O O19 0.270885 0.332759 0.062872
O O20 0.000000 0.138672 0.172737
O O21 0.806829 0.000000 0.178353
O O22 0.000000 0.869405 0.621785
O O23 0.191515 0.000000 0.593071
#
# Coordination Sequence:
#
# PCOD8189878 Si02
#       8
#     8   8   8   8   8   8   8   8
#     4  10  21  36  53  73 100 137 180 222 261 303
#     4  10  21  37  57  81 108 136 168 208 254 306
#     4  10  21  38  59  81 107 137 168 207 255 305
#     4   9  19  35  52  71 100 139 180 221 262 303
#     4  12  23  33  51  78 107 139 174 212 256 309
#     4  11  21  32  51  78 106 138 175 213 257 310
#     4   9  18  33  52  75 105 140 177 216 258 305
#     4   9  18  32  49  73 107 141 172 210 257 308
#
# _framework density 18.109071
#
# number of rings (size 3 to 8) (size 9 to 14) (size 15 to 20)
#    0.000    2.000    0.000    4.875    0.000    8.250 
#    0.000    2.500    0.000    0.750    0.000    0.000 
#    0.000    0.000    0.000    0.000    0.000    0.000 
#
# Total GULP energy -396934.589135 kJ/mol
# GULP energy per Si atom -12404.205910 kJ/mol
# Density = 1.806785 g / cm^3
# Si number density = 18.109071 Si / 1000 Ang^3
#
#
#
# Elastic Constant Matrix: (Units=GPa)
#
#
# Indices 1 2 3 4 5 6 
#
# 1 57.5325 30.3557 30.0017 0.0000 0.0000 0.0000
# 2 30.3557 95.5033 55.6293 0.0000 0.0000 0.0000
# 3 30.0017 55.6293 80.3638 0.0000 0.0000 0.0000
# 4 0.0000 0.0000 0.0000 17.9787 0.0000 0.0000
# 5 0.0000 0.0000 0.0000 0.0000 32.9401 0.0000
# 6 0.0000 0.0000 0.0000 0.0000 0.0000 29.2821
#
#
#
# Elastic Compliance Matrix: (Units=1/GPa)
#
#
# Indices 1 2 3 4 5 6 
#
# 1 0.022362 -0.003762 -0.005744 0.000000 0.000000 0.000000
# 2 -0.003762 0.018178 -0.011179 0.000000 0.000000 0.000000
# 3 -0.005744 -0.011179 0.022326 0.000000 0.000000 0.000000
# 4 0.000000 0.000000 0.000000 0.055621 0.000000 0.000000
# 5 0.000000 0.000000 0.000000 0.000000 0.030358 0.000000
# 6 0.000000 0.000000 0.000000 0.000000 0.000000 0.034151
#
#
# Mechanical properties :
#
#
# Convention : Reuss Voigt Hill
#
# Bulk Modulus (GPa) = 46.51975 51.70813 49.11394
# Shear Modulus (GPa) = 21.59539 23.86769 22.73154
#
# Velocity S-wave (km/s) = 3.45703 3.63436 3.54680
# Velocity P-wave (km/s) = 6.45594 6.79905 6.62972
#
# Compressibility (1/GPa) = 0.02149625
#
# Stress axis : x y z
#
# Youngs Moduli (GPa) = 44.71921 55.01152 44.79074
#
# Poissons Ratio (x) = 0.20694 0.25729
# Poissons Ratio (y) = 0.16822 0.50071
# Poissons Ratio (z) = 0.25688 0.61496
#
# Static dielectric constant tensor:
#      x y z
#    x 3.328060 0.000000 0.000000 
#    y 0.000000 3.447520 0.000000 
#    z 0.000000 0.000000 3.230250 
# 
# 
# High freq. dielectric constant tensor:
#      x y z
#    x 1.707480 0.000000 0.000000 
#    y 0.000000 1.704580 0.000000 
#    z 0.000000 0.000000 1.681870 
# 
# From -- ./inp_files/25117.got.cif
#   From: 2010.03.12/outbox.cif.g09.slc.cpg/sg44_13_cif.got.tgz:25117.got - 2010.04.14 02:36:11.
