data_PCOD8189908
_publ_section_title
;
Structure prediction by ZEFSAII (Michael W. Deem and Ramdas Pophale) SiO2 
 PCOD8189908
Probable space group: I M M 2
;
_chemical_formula_sum "Si O2"
_cell_formula_units_Z 56
_cell_length_a 8.949821
_cell_length_b 21.351876
_cell_length_c 14.054203
_cell_angle_alpha 90.000000
_cell_angle_beta 90.000000
_cell_angle_gamma 90.000000
_cell_volume 2685.694503
_symmetry_space_group_name_H-M "I M M 2"
_symmetry_group_IT_number 44
_symmetry_cell_setting 'orthorhombic'
loop_
_space_group_symop_operation_xyz
x,y,z
-x,-y,z
-x,y,z
x,-y,z
1/2+x,1/2+y,1/2+z
1/2-x,1/2-y,1/2+z
1/2-x,1/2+y,1/2+z
1/2+x,1/2-y,1/2+z
loop_
_atom_site_type_symbol
_atom_site_label
_atom_site_fract_x
_atom_site_fract_y
_atom_site_fract_z
Si Si1 0.674083 0.887511 0.002840
Si Si2 0.823353 0.756361 0.521664
Si Si3 0.335083 0.430223 0.029652
Si Si4 0.324949 0.428679 0.316476
Si Si5 0.174631 0.569834 0.711724
Si Si6 0.335694 0.650658 0.858679
Si Si7 0.326059 0.843898 0.661735
O O1 0.500000 0.894018 0.977753
O O2 0.721397 0.814967 0.006843
O O3 0.713703 0.920301 0.101678
O O4 0.769234 0.923236 0.924094
O O5 0.767723 0.794514 0.427026
O O6 0.748582 0.779923 0.621178
O O7 0.000000 0.767616 0.532843
O O8 0.500000 0.419115 0.078013
O O9 0.282528 0.500000 0.038510
O O10 0.347367 0.412491 0.919963
O O11 0.201823 0.393162 0.078418
O O12 0.500000 0.416406 0.312786
O O13 0.288649 0.500000 0.279967
O O14 0.246093 0.373384 0.256475
O O15 0.234412 0.500000 0.740638
O O16 0.239175 0.629810 0.768393
O O17 0.000000 0.572751 0.729498
O O18 0.500000 0.671795 0.822684
O O19 0.500000 0.832153 0.680863
#
# Coordination Sequence:
#
# PCOD8189908 Si02
#       7
#     8   8   8   8   8   8   8
#     4  10  22  41  63  84 111 150 195 244 291 338
#     4   9  20  40  61  84 116 152 190 234 289 344
#     4   9  17  31  51  76 109 148 188 233 287 342
#     4  11  24  41  61  86 117 154 195 242 298 354
#     4  10  21  36  55  82 114 145 179 225 281 334
#     4   9  18  33  54  79 109 145 184 225 271 332
#     4  11  22  35  56  85 116 151 191 236 285 343
#
# _framework density 20.851216000000001
#
# number of rings (size 3 to 8) (size 9 to 14) (size 15 to 20)
#    0.000    2.143    0.000    3.857    0.000    9.143 
#    0.000    2.857    0.000    0.000    0.000    0.000 
#    0.000    0.000    0.000    0.000    0.000    0.000 
#
# Total GULP energy -346942.459422 kJ/mol
# GULP energy per Si atom -12390.802122 kJ/mol
# Density = 2.080376 g / cm^3
# Si number density = 20.851216 Si / 1000 Ang^3
#
#
#
# Elastic Constant Matrix: (Units=GPa)
#
#
# Indices 1 2 3 4 5 6 
#
# 1 73.0144 23.0798 30.5694 0.0003 0.0000 0.0000
# 2 23.0798 83.4909 16.4543 -0.0001 0.0000 0.0000
# 3 30.5694 16.4543 60.9154 -0.0005 0.0000 0.0000
# 4 0.0003 -0.0001 -0.0005 69.2270 0.0000 0.0000
# 5 0.0000 0.0000 0.0000 0.0000 35.8516 0.0000
# 6 0.0000 0.0000 0.0000 0.0000 0.0000 23.0967
#
#
#
# Elastic Compliance Matrix: (Units=1/GPa)
#
#
# Indices 1 2 3 4 5 6 
#
# 1 0.018217 -0.003416 -0.008219 0.000000 0.000000 0.000000
# 2 -0.003416 0.013291 -0.001876 0.000000 0.000000 0.000000
# 3 -0.008219 -0.001876 0.021048 0.000000 0.000000 0.000000
# 4 0.000000 0.000000 0.000000 0.014445 0.000000 0.000000
# 5 0.000000 0.000000 0.000000 0.000000 0.027893 0.000000
# 6 0.000000 0.000000 0.000000 0.000000 0.000000 0.043296
#
#
# Mechanical properties :
#
#
# Convention : Reuss Voigt Hill
#
# Bulk Modulus (GPa) = 39.16399 39.73642 39.45021
# Shear Modulus (GPa) = 28.78138 35.45620 32.11879
#
# Velocity S-wave (km/s) = 3.71930 4.12811 3.92902
# Velocity P-wave (km/s) = 6.10472 6.46686 6.28840
#
# Compressibility (1/GPa) = 0.02553366
#
# Stress axis : x y z
#
# Youngs Moduli (GPa) = 54.89423 75.23689 47.51138
#
# Poissons Ratio (x) = 0.25701 0.39050
# Poissons Ratio (y) = 0.18752 0.08913
# Poissons Ratio (z) = 0.45118 0.14114
#
# Static dielectric constant tensor:
#      x y z
#    x 3.639440 0.000000 0.000000 
#    y 0.000000 3.914340 0.000000 
#    z 0.000000 0.000000 3.736920 
# 
# 
# High freq. dielectric constant tensor:
#      x y z
#    x 1.796330 0.000000 0.000000 
#    y 0.000000 1.823640 0.000000 
#    z 0.000000 0.000000 1.814590 
# 
# From -- ./inp_files/16489.got.cif
#   From: 2010.03.12/outbox.cif.g09.slc.cpg/sg44_9_cif.got.tgz:16489.got - 2010.04.14 02:36:11.
