data_PCOD8189234
_publ_section_title
;
Structure prediction by ZEFSAII (Michael W. Deem and Ramdas Pophale) SiO2 
 PCOD8189234
Probable space group: I M M 2
;
_chemical_formula_sum "Si O2"
_cell_formula_units_Z 48
_cell_length_a 15.136580
_cell_length_b 8.877639
_cell_length_c 18.890351
_cell_angle_alpha 90.000000
_cell_angle_beta 90.000000
_cell_angle_gamma 90.000000
_cell_volume 2538.430452
_symmetry_space_group_name_H-M "I M M 2"
_symmetry_group_IT_number 44
_symmetry_cell_setting 'orthorhombic'
loop_
_space_group_symop_operation_xyz
x,y,z
-x,-y,z
-x,y,z
x,-y,z
1/2+x,1/2+y,1/2+z
1/2-x,1/2-y,1/2+z
1/2-x,1/2+y,1/2+z
1/2+x,1/2-y,1/2+z
loop_
_atom_site_type_symbol
_atom_site_label
_atom_site_fract_x
_atom_site_fract_y
_atom_site_fract_z
Si Si1 0.402443 0.821133 0.231920
Si Si2 0.398237 0.176807 0.553614
Si Si3 0.252638 0.178758 0.968831
Si Si4 0.098055 0.678946 0.573895
Si Si5 0.262356 0.677941 0.819519
Si Si6 0.101364 0.174194 0.199204
O O1 0.500000 0.766994 0.256542
O O2 0.381821 0.760131 0.152982
O O3 0.329589 0.761454 0.286547
O O4 0.398685 0.000000 0.229441
O O5 0.500000 0.221837 0.540519
O O6 0.341532 0.255515 0.492454
O O7 0.367526 0.232398 0.630911
O O8 0.383666 0.000000 0.548654
O O9 0.328582 0.243544 0.020757
O O10 0.247705 0.000000 0.970260
O O11 0.278735 0.233894 0.891368
O O12 0.101746 0.500000 0.573710
O O13 0.000000 0.732722 0.550132
O O14 0.259907 0.500000 0.834161
O O15 0.341040 0.722309 0.766446
O O16 0.000000 0.208549 0.218522
O O17 0.116991 0.000000 0.180329
#
# Coordination Sequence:
#
# PCOD8189234 Si02
#       6
#     8   8   8   8   8   8
#     4   8  14  27  49  72  91 118 161 208 248 290
#     4  10  21  37  57  79 103 135 177 224 272 322
#     4  11  22  34  51  77 108 141 175 214 261 312
#     4   8  15  30  52  76  99 126 166 213 257 302
#     4  10  20  33  49  73 106 140 171 206 254 311
#     4   9  18  34  56  79 103 135 176 220 264 311
#
# _framework density 18.909324000000002
#
# number of rings (size 3 to 8) (size 9 to 14) (size 15 to 20)
#    0.000    2.667    0.000    3.000    0.000    5.667 
#    0.000    1.667    0.000    1.500    0.000    4.667 
#    0.000    0.000    0.000    0.000    0.000    0.000 
#
# Total GULP energy -297583.354883 kJ/mol
# GULP energy per Si atom -12399.306453 kJ/mol
# Density = 1.886629 g / cm^3
# Si number density = 18.909324 Si / 1000 Ang^3
#
#
#
# Elastic Constant Matrix: (Units=GPa)
#
#
# Indices 1 2 3 4 5 6 
#
# 1 80.6768 17.2006 29.8014 0.0000 0.0000 0.0000
# 2 17.2006 39.7427 18.8882 0.0000 0.0000 0.0000
# 3 29.8014 18.8882 76.3796 0.0000 0.0000 0.0000
# 4 0.0000 0.0000 0.0000 33.1709 0.0000 0.0000
# 5 0.0000 0.0000 0.0000 0.0000 24.5882 0.0000
# 6 0.0000 0.0000 0.0000 0.0000 0.0000 17.7747
#
#
#
# Elastic Compliance Matrix: (Units=1/GPa)
#
#
# Indices 1 2 3 4 5 6 
#
# 1 0.015084 -0.004228 -0.004840 0.000000 0.000000 0.000000
# 2 -0.004228 0.029698 -0.005694 0.000000 0.000000 0.000000
# 3 -0.004840 -0.005694 0.016389 0.000000 0.000000 0.000000
# 4 0.000000 0.000000 0.000000 0.030147 0.000000 0.000000
# 5 0.000000 0.000000 0.000000 0.000000 0.040670 0.000000
# 6 0.000000 0.000000 0.000000 0.000000 0.000000 0.056260
#
#
# Mechanical properties :
#
#
# Convention : Reuss Voigt Hill
#
# Bulk Modulus (GPa) = 31.59910 36.50885 34.05398
# Shear Modulus (GPa) = 21.89885 23.83402 22.86644
#
# Velocity S-wave (km/s) = 3.40678 3.55412 3.48123
# Velocity P-wave (km/s) = 5.67644 6.01594 5.84865
#
# Compressibility (1/GPa) = 0.03164647
#
# Stress axis : x y z
#
# Youngs Moduli (GPa) = 66.29335 33.67208 61.01606
#
# Poissons Ratio (x) = 0.14238 0.29531
# Poissons Ratio (y) = 0.28031 0.34745
# Poissons Ratio (z) = 0.32086 0.19174
#
# Static dielectric constant tensor:
#      x y z
#    x 3.831350 0.000000 0.000000 
#    y 0.000000 3.085200 0.000000 
#    z 0.000000 0.000000 3.477810 
# 
# 
# High freq. dielectric constant tensor:
#      x y z
#    x 1.749520 0.000000 0.000000 
#    y 0.000000 1.696900 0.000000 
#    z 0.000000 0.000000 1.732330 
# 
# From -- ./inp_files/16075.got.cif
#   From: 2010.03.12/outbox.cif.g09.slc.cpg/sg44_9_cif.got.tgz:16075.got - 2010.04.14 02:36:11.
