data_PCOD8189511
_publ_section_title
;
Structure prediction by ZEFSAII (Michael W. Deem and Ramdas Pophale) SiO2 
 PCOD8189511
Probable space group: I M M 2
;
_chemical_formula_sum "Si O2"
_cell_formula_units_Z 56
_cell_length_a 9.170379
_cell_length_b 17.514435
_cell_length_c 17.867231
_cell_angle_alpha 90.000000
_cell_angle_beta 90.000000
_cell_angle_gamma 90.000000
_cell_volume 2869.727563
_symmetry_space_group_name_H-M "I M M 2"
_symmetry_group_IT_number 44
_symmetry_cell_setting 'orthorhombic'
loop_
_space_group_symop_operation_xyz
x,y,z
-x,-y,z
-x,y,z
x,-y,z
1/2+x,1/2+y,1/2+z
1/2-x,1/2-y,1/2+z
1/2-x,1/2+y,1/2+z
1/2+x,1/2-y,1/2+z
loop_
_atom_site_type_symbol
_atom_site_label
_atom_site_fract_x
_atom_site_fract_y
_atom_site_fract_z
Si Si1 0.166540 0.410253 0.325550
Si Si2 0.326647 0.655121 0.737580
Si Si3 0.327170 0.179386 0.683062
Si Si4 0.829776 0.410943 0.875026
Si Si5 0.339150 0.087758 0.108741
Si Si6 0.336700 0.591207 0.469715
Si Si7 0.826806 0.414589 0.043849
O O1 0.180494 0.500000 0.316732
O O2 0.229931 0.373734 0.250171
O O3 0.261022 0.378982 0.394409
O O4 0.000000 0.385310 0.340084
O O5 0.500000 0.646374 0.739430
O O6 0.274956 0.735119 0.701064
O O7 0.265071 0.643090 0.820954
O O8 0.254153 0.592063 0.684535
O O9 0.500000 0.176248 0.679705
O O10 0.263583 0.146131 0.604583
O O11 0.796983 0.500000 0.859043
O O12 0.000000 0.393851 0.861794
O O13 0.781824 0.389929 0.959826
O O14 0.500000 0.125599 0.117364
O O15 0.360342 0.000000 0.088716
O O16 0.251156 0.126179 0.040101
O O17 0.500000 0.624381 0.473127
O O18 0.338966 0.500000 0.471970
O O19 0.766731 0.500000 0.061434
O O20 0.000000 0.417439 0.048689
#
# Coordination Sequence:
#
# PCOD8189511 Si02
#       7
#     8   8   8   8   8   8   8
#     4   9  16  29  52  77 101 135 177 216 252 295
#     4  11  22  34  49  74 111 144 169 207 264 322
#     4   9  18  32  49  75 110 139 170 213 262 316
#     4   9  18  34  57  81 102 130 177 230 269 310
#     4  10  20  35  55  75  97 131 177 222 257 299
#     4   9  17  30  49  75 104 130 162 206 255 304
#     4   8  14  29  56  83 102 128 174 229 271 303
#
# _framework density 19.514047999999999
#
# number of rings (size 3 to 8) (size 9 to 14) (size 15 to 20)
#    0.000    2.714    0.000    3.000    0.000    6.286 
#    2.571    1.429    0.000    1.714    0.000    2.000 
#    0.000    0.000    0.000    0.000    0.000    0.000 
#
# Total GULP energy -347089.021811 kJ/mol
# GULP energy per Si atom -12396.036493 kJ/mol
# Density = 1.946963 g / cm^3
# Si number density = 19.514048 Si / 1000 Ang^3
#
#
#
# Elastic Constant Matrix: (Units=GPa)
#
#
# Indices 1 2 3 4 5 6 
#
# 1 95.1256 29.5593 62.3591 0.0000 0.0000 0.0000
# 2 29.5593 52.9491 50.3887 0.0000 0.0000 0.0000
# 3 62.3591 50.3887 172.5315 0.0000 0.0000 0.0000
# 4 0.0000 0.0000 0.0000 21.0832 0.0000 0.0000
# 5 0.0000 0.0000 0.0000 0.0000 24.6100 0.0000
# 6 0.0000 0.0000 0.0000 0.0000 0.0000 14.2325
#
#
#
# Elastic Compliance Matrix: (Units=1/GPa)
#
#
# Indices 1 2 3 4 5 6 
#
# 1 0.014447 -0.004288 -0.003969 0.000000 0.000000 0.000000
# 2 -0.004288 0.027428 -0.006461 0.000000 0.000000 0.000000
# 3 -0.003969 -0.006461 0.009118 0.000000 0.000000 0.000000
# 4 0.000000 0.000000 0.000000 0.047431 0.000000 0.000000
# 5 0.000000 0.000000 0.000000 0.000000 0.040634 0.000000
# 6 0.000000 0.000000 0.000000 0.000000 0.000000 0.070262
#
#
# Mechanical properties :
#
#
# Convention : Reuss Voigt Hill
#
# Bulk Modulus (GPa) = 46.38886 67.24672 56.81779
# Shear Modulus (GPa) = 20.33011 23.87174 22.10093
#
# Velocity S-wave (km/s) = 3.23122 3.50138 3.36901
# Velocity P-wave (km/s) = 6.14367 7.13314 6.65682
#
# Compressibility (1/GPa) = 0.02155690
#
# Stress axis : x y z
#
# Youngs Moduli (GPa) = 69.21909 36.45899 109.67754
#
# Poissons Ratio (x) = 0.15632 0.43535
# Poissons Ratio (y) = 0.29679 0.70861
# Poissons Ratio (z) = 0.27476 0.23555
#
# Static dielectric constant tensor:
#      x y z
#    x 3.382540 0.000000 0.000000 
#    y 0.000000 3.351090 0.000000 
#    z 0.000000 0.000000 3.821990 
# 
# 
# High freq. dielectric constant tensor:
#      x y z
#    x 1.730950 0.000000 0.000000 
#    y 0.000000 1.729530 0.000000 
#    z 0.000000 0.000000 1.777180 
# 
# From -- ./inp_files/20651.got.cif
#   From: 2010.03.12/outbox.cif.g09.slc.cpg/sg44_11_cif.got.tgz:20651.got - 2010.04.14 02:36:11.
