data_PCOD8189322
_publ_section_title
;
Structure prediction by ZEFSAII (Michael W. Deem and Ramdas Pophale) SiO2 
 PCOD8189322
Probable space group: I M M 2
;
_chemical_formula_sum "Si O2"
_cell_formula_units_Z 48
_cell_length_a 7.683899
_cell_length_b 7.923973
_cell_length_c 37.686770
_cell_angle_alpha 90.000000
_cell_angle_beta 90.000000
_cell_angle_gamma 90.000000
_cell_volume 2294.634674
_symmetry_space_group_name_H-M "I M M 2"
_symmetry_group_IT_number 44
_symmetry_cell_setting 'orthorhombic'
loop_
_space_group_symop_operation_xyz
x,y,z
-x,-y,z
-x,y,z
x,-y,z
1/2+x,1/2+y,1/2+z
1/2-x,1/2-y,1/2+z
1/2-x,1/2+y,1/2+z
1/2+x,1/2-y,1/2+z
loop_
_atom_site_type_symbol
_atom_site_label
_atom_site_fract_x
_atom_site_fract_y
_atom_site_fract_z
Si Si1 0.801495 0.817912 0.547210
Si Si2 0.295360 0.692053 0.621064
Si Si3 0.000000 0.307886 0.821183
Si Si4 0.308195 0.197184 0.697834
Si Si5 0.209232 0.500000 0.505474
Si Si6 0.704190 0.000000 0.926096
Si Si7 0.000000 0.806989 0.743555
Si Si8 0.202277 0.806088 0.376397
O O1 0.795213 0.791740 0.589368
O O2 0.712438 0.664707 0.525479
O O3 0.000000 0.825694 0.535067
O O4 0.713802 0.000000 0.538016
O O5 0.500000 0.711881 0.616338
O O6 0.233422 0.500000 0.619129
O O7 0.234602 0.768366 0.658519
O O8 0.824464 0.267154 0.842884
O O9 0.000000 0.500000 0.808850
O O10 0.000000 0.198064 0.785897
O O11 0.500000 0.282162 0.702700
O O12 0.174082 0.276821 0.726619
O O13 0.327858 0.000000 0.704057
O O14 0.284291 0.500000 0.465471
O O15 0.000000 0.500000 0.506924
O O16 0.761959 0.172389 0.906325
O O17 0.500000 0.000000 0.929627
O O18 0.000000 0.000000 0.731138
O O19 0.000000 0.778163 0.365610
O O20 0.231462 0.000000 0.389710
#
# Coordination Sequence:
#
# PCOD8189322 Si02
#       8
#     8   8   4   8   4   4   4   8
#     4  10  20  33  53  80 110 148 189 233 290 342
#     4  10  20  34  54  77 104 144 192 241 287 340
#     4  10  22  38  58  84 118 152 188 237 291 354
#     4   9  19  36  53  75 110 147 189 239 290 344
#     4   9  18  34  52  82 120 143 187 243 284 341
#     4   9  18  33  59  87 112 151 191 236 291 351
#     4  10  22  36  54  82 112 148 192 236 292 353
#     4   9  19  36  58  87 117 148 194 239 282 345
#
# _framework density 20.918362999999999
#
# number of rings (size 3 to 8) (size 9 to 14) (size 15 to 20)
#    0.000    2.500    0.833    0.500    2.333    3.000 
#    0.000    3.333    3.667    0.000    0.000    0.000 
#    0.000    0.000    0.000    0.000    0.000    0.000 
#
# Total GULP energy -297467.186728 kJ/mol
# GULP energy per Si atom -12394.466114 kJ/mol
# Density = 2.087075 g / cm^3
# Si number density = 20.918363 Si / 1000 Ang^3
#
#
#
# Elastic Constant Matrix: (Units=GPa)
#
#
# Indices 1 2 3 4 5 6 
#
# 1 69.1160 33.2920 47.1431 0.0000 0.0000 0.0000
# 2 33.2920 117.9003 62.8695 0.0000 0.0000 0.0000
# 3 47.1431 62.8695 158.4456 0.0000 0.0000 0.0000
# 4 0.0000 0.0000 0.0000 31.7559 0.0000 0.0000
# 5 0.0000 0.0000 0.0000 0.0000 -4.5152 0.0000
# 6 0.0000 0.0000 0.0000 0.0000 0.0000 11.1707
#
#
#
# Elastic Compliance Matrix: (Units=1/GPa)
#
#
# Indices 1 2 3 4 5 6 
#
# 1 0.018939 -0.002972 -0.004456 0.000000 0.000000 0.000000
# 2 -0.002972 0.011224 -0.003569 0.000000 0.000000 0.000000
# 3 -0.004456 -0.003569 0.009053 0.000000 0.000000 0.000000
# 4 0.000000 0.000000 0.000000 0.031490 0.000000 0.000000
# 5 0.000000 0.000000 0.000000 0.000000 -0.221474 0.000000
# 6 0.000000 0.000000 0.000000 0.000000 0.000000 0.089520
#
#
# Mechanical properties :
#
#
# Convention : Reuss Voigt Hill
#
# Bulk Modulus (GPa) = 58.06347 70.23013 64.14680
# Shear Modulus (GPa) = -149.20176 21.15944 -64.02116
#
# Velocity S-wave (km/s) = -8.45462 3.18390 -5.53820
# Velocity P-wave (km/s) = 8.21523 6.86750 3.18806
#
# Compressibility (1/GPa) = 0.01722253
#
# Stress axis : x y z
#
# Youngs Moduli (GPa) = 52.80052 89.09231 110.45567
#
# Poissons Ratio (x) = 0.26477 0.49217
# Poissons Ratio (y) = 0.15692 0.39427
# Poissons Ratio (z) = 0.23527 0.31801
#
# Static dielectric constant tensor:
#      x y z
#    x 3.942960 0.000000 0.000000 
#    y 0.000000 4.029200 0.000000 
#    z 0.000000 0.000000 3.643330 
# 
# 
# High freq. dielectric constant tensor:
#      x y z
#    x 1.808460 0.000000 0.000000 
#    y 0.000000 1.822220 0.000000 
#    z 0.000000 0.000000 1.802240 
# 
# From -- ./inp_files/27070.got.cif
#   From: 2010.03.12/outbox.cif.g09.slc.cpg/sg44_14_cif.got.tgz:27070.got - 2010.04.14 02:36:11.
