data_PCOD8189717
_publ_section_title
;
Structure prediction by ZEFSAII (Michael W. Deem and Ramdas Pophale) SiO2 
 PCOD8189717
Probable space group: I M M 2
;
_chemical_formula_sum "Si O2"
_cell_formula_units_Z 48
_cell_length_a 16.413772
_cell_length_b 8.842220
_cell_length_c 18.179273
_cell_angle_alpha 90.000000
_cell_angle_beta 90.000000
_cell_angle_gamma 90.000000
_cell_volume 2638.433935
_symmetry_space_group_name_H-M "I M M 2"
_symmetry_group_IT_number 44
_symmetry_cell_setting 'orthorhombic'
loop_
_space_group_symop_operation_xyz
x,y,z
-x,-y,z
-x,y,z
x,-y,z
1/2+x,1/2+y,1/2+z
1/2-x,1/2-y,1/2+z
1/2-x,1/2+y,1/2+z
1/2+x,1/2-y,1/2+z
loop_
_atom_site_type_symbol
_atom_site_label
_atom_site_fract_x
_atom_site_fract_y
_atom_site_fract_z
Si Si1 0.682113 0.172588 0.303740
Si Si2 0.261332 0.678312 0.079832
Si Si3 0.500000 0.177897 0.692059
Si Si4 0.666802 0.675455 0.456242
Si Si5 0.500000 0.675166 0.535143
Si Si6 0.593586 0.822934 0.156036
Si Si7 0.336841 0.325739 0.709734
O O1 0.666787 0.283856 0.370697
O O2 0.620995 0.220694 0.238412
O O3 0.774827 0.193174 0.276932
O O4 0.665684 0.000000 0.327869
O O5 0.256388 0.500000 0.087387
O O6 0.353214 0.732379 0.096526
O O7 0.197625 0.752503 0.135650
O O8 0.236456 0.729000 0.997910
O O9 0.500000 0.221560 0.606737
O O10 0.420638 0.245125 0.732464
O O11 0.500000 0.000000 0.701307
O O12 0.687163 0.500000 0.465769
O O13 0.578242 0.716903 0.487000
O O14 0.500000 0.500000 0.559017
O O15 0.500000 0.777252 0.144785
O O16 0.609152 0.000000 0.143274
O O17 0.353531 0.500000 0.691177
#
# Coordination Sequence:
#
# PCOD8189717 Si02
#       7
#     8   8   4   8   4   8   8
#     4   9  20  36  56  81 110 145 182 223 272 324
#     4  11  21  34  55  82 110 142 185 231 273 322
#     4  12  22  32  56  88 112 139 182 233 272 320
#     4  11  22  36  55  79 113 151 183 221 273 329
#     4  10  22  36  52  78 114 151 180 217 274 332
#     4   9  19  37  59  82 109 145 184 223 272 329
#     4  10  20  37  57  78 110 149 184 223 275 329
#
# _framework density 18.192610999999999
#
# number of rings (size 3 to 8) (size 9 to 14) (size 15 to 20)
#    0.000    1.833    1.667    4.250    1.167    4.333 
#    0.000    0.000    1.833    0.000    0.000    0.000 
#    0.000    0.000    0.000    0.000    0.000    0.000 
#
# Total GULP energy -297704.106148 kJ/mol
# GULP energy per Si atom -12404.337756 kJ/mol
# Density = 1.815120 g / cm^3
# Si number density = 18.192611 Si / 1000 Ang^3
#
#
#
# Elastic Constant Matrix: (Units=GPa)
#
#
# Indices 1 2 3 4 5 6 
#
# 1 126.4612 54.9497 32.1505 0.0000 0.0000 0.0000
# 2 54.9497 113.6857 32.2358 0.0000 0.0000 0.0000
# 3 32.1505 32.2358 65.4882 0.0000 0.0000 0.0000
# 4 0.0000 0.0000 0.0000 31.8564 0.0000 0.0000
# 5 0.0000 0.0000 0.0000 0.0000 19.2442 0.0000
# 6 0.0000 0.0000 0.0000 0.0000 0.0000 22.8592
#
#
#
# Elastic Compliance Matrix: (Units=1/GPa)
#
#
# Indices 1 2 3 4 5 6 
#
# 1 0.010523 -0.004209 -0.003094 0.000000 0.000000 0.000000
# 2 -0.004209 0.011906 -0.003795 0.000000 0.000000 0.000000
# 3 -0.003094 -0.003795 0.018657 0.000000 0.000000 0.000000
# 4 0.000000 0.000000 0.000000 0.031391 0.000000 0.000000
# 5 0.000000 0.000000 0.000000 0.000000 0.051964 0.000000
# 6 0.000000 0.000000 0.000000 0.000000 0.000000 0.043746
#
#
# Mechanical properties :
#
#
# Convention : Reuss Voigt Hill
#
# Bulk Modulus (GPa) = 52.93571 60.47857 56.70714
# Shear Modulus (GPa) = 25.42204 27.21190 26.31697
#
# Velocity S-wave (km/s) = 3.74221 3.87171 3.80751
# Velocity P-wave (km/s) = 6.91612 7.30086 7.11109
#
# Compressibility (1/GPa) = 0.01889084
#
# Stress axis : x y z
#
# Youngs Moduli (GPa) = 95.02901 83.98785 53.59956
#
# Poissons Ratio (x) = 0.35350 0.16586
# Poissons Ratio (y) = 0.39997 0.20338
# Poissons Ratio (z) = 0.29406 0.31869
#
# Static dielectric constant tensor:
#      x y z
#    x 3.613080 0.000000 0.000000 
#    y 0.000000 3.322320 0.000000 
#    z 0.000000 0.000000 3.117630 
# 
# 
# High freq. dielectric constant tensor:
#      x y z
#    x 1.712530 0.000000 0.000000 
#    y 0.000000 1.710370 0.000000 
#    z 0.000000 0.000000 1.682320 
# 
# From -- ./inp_files/21726.got.cif
#   From: 2010.03.12/outbox.cif.g09.slc.cpg/sg44_11_cif.got.tgz:21726.got - 2010.04.14 02:36:11.
