data_PCOD8189609
_publ_section_title
;
Structure prediction by ZEFSAII (Michael W. Deem and Ramdas Pophale) SiO2 
 PCOD8189609
Probable space group: I M M 2
;
_chemical_formula_sum "Si O2"
_cell_formula_units_Z 38
_cell_length_a 7.632051
_cell_length_b 12.165493
_cell_length_c 20.303854
_cell_angle_alpha 90.000000
_cell_angle_beta 90.000000
_cell_angle_gamma 90.000000
_cell_volume 1885.165394
_symmetry_space_group_name_H-M "I M M 2"
_symmetry_group_IT_number 44
_symmetry_cell_setting 'orthorhombic'
loop_
_space_group_symop_operation_xyz
x,y,z
-x,-y,z
-x,y,z
x,-y,z
1/2+x,1/2+y,1/2+z
1/2-x,1/2-y,1/2+z
1/2-x,1/2+y,1/2+z
1/2+x,1/2-y,1/2+z
loop_
_atom_site_type_symbol
_atom_site_label
_atom_site_fract_x
_atom_site_fract_y
_atom_site_fract_z
Si Si1 0.000000 0.125409 0.189891
Si Si2 0.000000 0.500000 0.244684
Si Si3 0.297706 0.500000 0.354874
Si Si4 0.193441 0.622348 0.787128
Si Si5 0.705113 0.231290 0.904383
Si Si6 0.000000 0.660594 0.125348
Si Si7 0.198792 0.877509 0.525767
O O1 0.171563 0.155661 0.231135
O O2 0.000000 0.206976 0.128182
O O3 0.000000 0.000000 0.164734
O O4 0.173089 0.500000 0.290626
O O5 0.000000 0.607911 0.198527
O O6 0.500000 0.500000 0.331293
O O7 0.259392 0.604040 0.401939
O O8 0.239478 0.500000 0.813486
O O9 0.195275 0.706737 0.846643
O O10 0.000000 0.625561 0.755445
O O11 0.500000 0.246701 0.893099
O O12 0.762390 0.286383 0.973256
O O13 0.175002 0.623413 0.088441
O O14 0.000000 0.851956 0.548962
O O15 0.207873 0.000000 0.494042
#
# Coordination Sequence:
#
# PCOD8189609 Si02
#       7
#     4   2   4   8   8   4   8
#     4  10  22  40  60  88 128 164 214 260 314 388
#     4  12  24  44  68  96 140 172 224 274 320 404
#     4  12  26  42  64 100 132 180 216 269 338 392
#     4  10  20  35  61  95 123 159 206 264 325 376
#     4  11  21  40  64  92 134 164 210 266 329 391
#     4  12  24  42  66  90 126 180 216 265 316 390
#     4  10  23  42  64  93 124 164 217 269 325 382
#
# _framework density 20.157382999999999
#
# number of rings (size 3 to 8) (size 9 to 14) (size 15 to 20)
#    0.000    1.263    3.158    2.526    2.947    2.526 
#    1.895    0.000    0.000    0.000    0.000    0.000 
#    0.000    0.000    0.000    0.000    0.000    0.000 
#
# Total GULP energy -235612.414353 kJ/mol
# GULP energy per Si atom -12400.653387 kJ/mol
# Density = 2.011150 g / cm^3
# Si number density = 20.157383 Si / 1000 Ang^3
#
#
#
# Elastic Constant Matrix: (Units=GPa)
#
#
# Indices 1 2 3 4 5 6 
#
# 1 128.0234 32.1049 44.2673 0.0000 0.0000 0.0000
# 2 32.1049 146.3781 58.0394 0.0000 0.0000 0.0000
# 3 44.2673 58.0394 78.0448 0.0000 0.0000 0.0000
# 4 0.0000 0.0000 0.0000 36.3403 0.0000 0.0000
# 5 0.0000 0.0000 0.0000 0.0000 54.7059 0.0000
# 6 0.0000 0.0000 0.0000 0.0000 0.0000 31.9458
#
#
#
# Elastic Compliance Matrix: (Units=1/GPa)
#
#
# Indices 1 2 3 4 5 6 
#
# 1 0.009717 0.000077 -0.005569 0.000000 0.000000 0.000000
# 2 0.000077 0.009689 -0.007249 0.000000 0.000000 0.000000
# 3 -0.005569 -0.007249 0.021363 0.000000 0.000000 0.000000
# 4 0.000000 0.000000 0.000000 0.027518 0.000000 0.000000
# 5 0.000000 0.000000 0.000000 0.000000 0.018280 0.000000
# 6 0.000000 0.000000 0.000000 0.000000 0.000000 0.031303
#
#
# Mechanical properties :
#
#
# Convention : Reuss Voigt Hill
#
# Bulk Modulus (GPa) = 65.41508 69.02997 67.22253
# Shear Modulus (GPa) = 33.68207 39.13405 36.40806
#
# Velocity S-wave (km/s) = 4.09217 4.41094 4.25454
# Velocity P-wave (km/s) = 7.40610 7.76284 7.58657
#
# Compressibility (1/GPa) = 0.01528699
#
# Stress axis : x y z
#
# Youngs Moduli (GPa) = 102.90836 103.20962 46.81076
#
# Poissons Ratio (x) = -0.00792 0.26068
# Poissons Ratio (y) = -0.00790 0.33933
# Poissons Ratio (z) = 0.57308 0.74816
#
# Static dielectric constant tensor:
#      x y z
#    x 3.814270 0.000000 0.000000 
#    y 0.000000 3.983000 0.000000 
#    z 0.000000 0.000000 3.291160 
# 
# 
# High freq. dielectric constant tensor:
#      x y z
#    x 1.806360 0.000000 0.000000 
#    y 0.000000 1.803600 0.000000 
#    z 0.000000 0.000000 1.750690 
# 
# From -- ./inp_files/20053.got.cif
#   From: 2010.03.12/outbox.cif.g09.slc.cpg/sg44_11_cif.got.tgz:20053.got - 2010.04.14 02:36:11.
