data_PCOD8189573
_publ_section_title
;
Structure prediction by ZEFSAII (Michael W. Deem and Ramdas Pophale) SiO2 
 PCOD8189573
Probable space group: I M M 2
;
_chemical_formula_sum "Si O2"
_cell_formula_units_Z 48
_cell_length_a 9.105179
_cell_length_b 7.811889
_cell_length_c 33.785509
_cell_angle_alpha 90.000000
_cell_angle_beta 90.000000
_cell_angle_gamma 90.000000
_cell_volume 2403.117566
_symmetry_space_group_name_H-M "I M M 2"
_symmetry_group_IT_number 44
_symmetry_cell_setting 'orthorhombic'
loop_
_space_group_symop_operation_xyz
x,y,z
-x,-y,z
-x,y,z
x,-y,z
1/2+x,1/2+y,1/2+z
1/2-x,1/2-y,1/2+z
1/2-x,1/2+y,1/2+z
1/2+x,1/2-y,1/2+z
loop_
_atom_site_type_symbol
_atom_site_label
_atom_site_fract_x
_atom_site_fract_y
_atom_site_fract_z
Si Si1 0.168366 0.190513 0.983890
Si Si2 0.668063 0.808400 0.177504
Si Si3 0.330699 0.298704 0.332796
Si Si4 0.829469 0.699742 0.253669
Si Si5 0.172525 0.000000 0.621962
Si Si6 0.826654 0.500000 0.038405
Si Si7 0.834191 0.194675 0.409650
O O1 0.260076 0.192341 0.943547
O O2 0.000000 0.231631 0.972843
O O3 0.184115 0.000000 0.002433
O O4 0.226506 0.330156 0.015158
O O5 0.500000 0.767356 0.189401
O O6 0.767109 0.801025 0.216394
O O7 0.722856 0.669960 0.145524
O O8 0.682495 0.000000 0.159468
O O9 0.500000 0.244450 0.331026
O O10 0.310526 0.500000 0.338454
O O11 0.253538 0.235169 0.292718
O O12 0.254673 0.205352 0.369148
O O13 0.800224 0.500000 0.246615
O O14 0.000000 0.742224 0.258747
O O15 0.252830 0.000000 0.580615
O O16 0.000000 0.000000 0.614133
O O17 0.000000 0.500000 0.044518
O O18 0.000000 0.260633 0.402679
O O19 0.832601 0.000000 0.424443
#
# Coordination Sequence:
#
# PCOD8189573 Si02
#       7
#     8   8   8   8   4   4   8
#     4  10  21  39  63  88 116 155 198 239 291 354
#     4  10  21  38  61  87 116 156 200 240 291 353
#     4  10  21  36  56  82 113 154 201 246 294 350
#     4  10  20  35  57  84 116 154 196 245 300 350
#     4  10  22  40  62  88 122 156 194 246 294 352
#     4  10  22  40  62  90 122 154 194 244 294 354
#     4  11  23  37  55  82 117 155 197 245 297 349
#
# _framework density 19.974053000000001
#
# number of rings (size 3 to 8) (size 9 to 14) (size 15 to 20)
#    0.000    1.833    1.667    2.000    0.000    8.000 
#    0.000    0.000    0.000    0.000    0.000    0.000 
#    0.000    0.000    0.000    0.000    0.000    0.000 
#
# Total GULP energy -297698.885203 kJ/mol
# GULP energy per Si atom -12404.120217 kJ/mol
# Density = 1.992859 g / cm^3
# Si number density = 19.974053 Si / 1000 Ang^3
#
#
#
# Elastic Constant Matrix: (Units=GPa)
#
#
# Indices 1 2 3 4 5 6 
#
# 1 100.9184 38.6725 58.4289 0.0000 0.0000 0.0000
# 2 38.6725 113.5751 59.2292 0.0000 0.0000 0.0000
# 3 58.4289 59.2292 145.8102 0.0000 0.0000 0.0000
# 4 0.0000 0.0000 0.0000 26.0181 0.0000 0.0000
# 5 0.0000 0.0000 0.0000 0.0000 42.5121 0.0000
# 6 0.0000 0.0000 0.0000 0.0000 0.0000 18.2769
#
#
#
# Elastic Compliance Matrix: (Units=1/GPa)
#
#
# Indices 1 2 3 4 5 6 
#
# 1 0.013331 -0.002225 -0.004438 0.000000 0.000000 0.000000
# 2 -0.002225 0.011542 -0.003797 0.000000 0.000000 0.000000
# 3 -0.004438 -0.003797 0.010179 0.000000 0.000000 0.000000
# 4 0.000000 0.000000 0.000000 0.038435 0.000000 0.000000
# 5 0.000000 0.000000 0.000000 0.000000 0.023523 0.000000
# 6 0.000000 0.000000 0.000000 0.000000 0.000000 0.054714
#
#
# Mechanical properties :
#
#
# Convention : Reuss Voigt Hill
#
# Bulk Modulus (GPa) = 70.75929 74.77389 72.76659
# Shear Modulus (GPa) = 28.19197 30.95963 29.57580
#
# Velocity S-wave (km/s) = 3.76098 3.94127 3.85218
# Velocity P-wave (km/s) = 7.37309 7.63074 7.50302
#
# Compressibility (1/GPa) = 0.01413242
#
# Stress axis : x y z
#
# Youngs Moduli (GPa) = 75.01198 86.63652 98.23942
#
# Poissons Ratio (x) = 0.19274 0.43602
# Poissons Ratio (y) = 0.16688 0.37303
# Poissons Ratio (z) = 0.33293 0.32897
#
# Static dielectric constant tensor:
#      x y z
#    x 3.638200 0.000000 0.000000 
#    y 0.000000 3.718330 0.000000 
#    z 0.000000 0.000000 3.451050 
# 
# 
# High freq. dielectric constant tensor:
#      x y z
#    x 1.780350 0.000000 0.000000 
#    y 0.000000 1.786630 0.000000 
#    z 0.000000 0.000000 1.769010 
# 
# From -- ./inp_files/26895.got.cif
#   From: 2010.03.12/outbox.cif.g09.slc.cpg/sg44_14_cif.got.tgz:26895.got - 2010.04.14 02:36:11.
