data_PCOD8189162
_publ_section_title
;
Structure prediction by ZEFSAII (Michael W. Deem and Ramdas Pophale) SiO2 
 PCOD8189162
Probable space group: I M M 2
;
_chemical_formula_sum "Si O2"
_cell_formula_units_Z 64
_cell_length_a 28.825988
_cell_length_b 9.670542
_cell_length_c 12.698715
_cell_angle_alpha 90.000000
_cell_angle_beta 90.000000
_cell_angle_gamma 90.000000
_cell_volume 3539.930971
_symmetry_space_group_name_H-M "I M M 2"
_symmetry_group_IT_number 44
_symmetry_cell_setting 'orthorhombic'
loop_
_space_group_symop_operation_xyz
x,y,z
-x,-y,z
-x,y,z
x,-y,z
1/2+x,1/2+y,1/2+z
1/2-x,1/2-y,1/2+z
1/2-x,1/2+y,1/2+z
1/2+x,1/2-y,1/2+z
loop_
_atom_site_type_symbol
_atom_site_label
_atom_site_fract_x
_atom_site_fract_y
_atom_site_fract_z
Si Si1 0.284380 0.652187 0.549440
Si Si2 0.445197 0.843553 0.257409
Si Si3 0.266231 0.845935 0.853380
Si Si4 0.880837 0.162852 0.141239
Si Si5 0.611862 0.659177 0.101986
Si Si6 0.354847 0.661186 0.875361
Si Si7 0.215588 0.159225 0.646228
Si Si8 0.554455 0.160000 0.495057
O O1 0.278547 0.500000 0.601581
O O2 0.280960 0.644096 0.423465
O O3 0.332126 0.716838 0.592120
O O4 0.238438 0.744702 0.559597
O O5 0.500000 0.835320 0.247898
O O6 0.424956 0.749287 0.165096
O O7 0.430603 0.796120 0.375977
O O8 0.427968 0.000000 0.238907
O O9 0.307108 0.743231 0.886769
O O10 0.244912 0.791988 0.745851
O O11 0.288122 0.000000 0.843974
O O12 0.881749 0.196231 0.266399
O O13 0.887699 0.000000 0.119455
O O14 0.921019 0.245771 0.082560
O O15 0.597515 0.500000 0.115899
O O16 0.661341 0.690315 0.155553
O O17 0.613092 0.697386 0.976937
O O18 0.341402 0.500000 0.878899
O O19 0.223552 0.000000 0.616813
O O20 0.500000 0.182870 0.509937
O O21 0.567541 0.000000 0.514373
#
# Coordination Sequence:
#
# PCOD8189162 Si02
#       8
#     8   8   8   8   8   8   8   8
#     4  10  20  33  50  74 106 143 182 222 261 309
#     4   9  20  40  62  83 108 136 170 218 274 329
#     4  10  20  32  48  73 106 143 184 228 268 307
#     4  10  21  35  55  81 110 144 183 223 266 318
#     4  10  21  35  55  81 110 144 183 223 266 318
#     4  10  20  36  53  75 110 150 185 220 264 314
#     4  10  20  33  50  74 106 143 182 222 261 309
#     4   9  20  40  62  83 108 136 170 218 274 329
#
# _framework density 18.079449
#
# number of rings (size 3 to 8) (size 9 to 14) (size 15 to 20)
#    0.000    2.250    2.500    0.750    1.750    3.000 
#    0.000    1.875    0.000    3.750    0.000    0.000 
#    0.000    0.000    0.000    0.000    0.000    0.000 
#
# Total GULP energy -396499.674348 kJ/mol
# GULP energy per Si atom -12390.614823 kJ/mol
# Density = 1.803830 g / cm^3
# Si number density = 18.079449 Si / 1000 Ang^3
#
#
#
# Elastic Constant Matrix: (Units=GPa)
#
#
# Indices 1 2 3 4 5 6 
#
# 1 59.3175 39.8774 51.5046 0.0000 0.0000 0.0000
# 2 39.8774 63.4516 52.7182 0.0000 0.0000 0.0000
# 3 51.5046 52.7182 121.5647 0.0000 0.0000 0.0000
# 4 0.0000 0.0000 0.0000 26.6780 0.0000 0.0000
# 5 0.0000 0.0000 0.0000 0.0000 37.2273 0.0000
# 6 0.0000 0.0000 0.0000 0.0000 0.0000 15.6524
#
#
#
# Elastic Compliance Matrix: (Units=1/GPa)
#
#
# Indices 1 2 3 4 5 6 
#
# 1 0.033428 -0.014447 -0.007898 0.000000 0.000000 0.000000
# 2 -0.014447 0.030880 -0.007271 0.000000 0.000000 0.000000
# 3 -0.007898 -0.007271 0.014725 0.000000 0.000000 0.000000
# 4 0.000000 0.000000 0.000000 0.037484 0.000000 0.000000
# 5 0.000000 0.000000 0.000000 0.000000 0.026862 0.000000
# 6 0.000000 0.000000 0.000000 0.000000 0.000000 0.063888
#
#
# Mechanical properties :
#
#
# Convention : Reuss Voigt Hill
#
# Bulk Modulus (GPa) = 50.49756 59.17047 54.83401
# Shear Modulus (GPa) = 18.30835 22.59379 20.45107
#
# Velocity S-wave (km/s) = 3.18569 3.53894 3.36695
# Velocity P-wave (km/s) = 6.44384 7.03547 6.74614
#
# Compressibility (1/GPa) = 0.01980294
#
# Stress axis : x y z
#
# Youngs Moduli (GPa) = 29.91497 32.38310 67.91007
#
# Poissons Ratio (x) = 0.46783 0.53634
# Poissons Ratio (y) = 0.43217 0.49377
# Poissons Ratio (z) = 0.23626 0.23545
#
# Static dielectric constant tensor:
#      x y z
#    x 3.046950 0.000000 0.000000 
#    y 0.000000 3.326220 0.000000 
#    z 0.000000 0.000000 3.578060 
# 
# 
# High freq. dielectric constant tensor:
#      x y z
#    x 1.677130 0.000000 0.000000 
#    y 0.000000 1.698920 0.000000 
#    z 0.000000 0.000000 1.715250 
# 
# From -- ./inp_files/15112.got.cif
#   From: 2010.03.12/outbox.cif.g09.slc.cpg/sg44_8_cif.got.tgz:15112.got - 2010.04.14 02:36:11.
