data_PCOD8189011
_publ_section_title
;
Structure prediction by ZEFSAII (Michael W. Deem and Ramdas Pophale) SiO2 
 PCOD8189011
Probable space group: I M M 2
;
_chemical_formula_sum "Si O2"
_cell_formula_units_Z 56
_cell_length_a 9.243974
_cell_length_b 16.697837
_cell_length_c 19.447162
_cell_angle_alpha 90.000000
_cell_angle_beta 90.000000
_cell_angle_gamma 90.000000
_cell_volume 3001.754460
_symmetry_space_group_name_H-M "I M M 2"
_symmetry_group_IT_number 44
_symmetry_cell_setting 'orthorhombic'
loop_
_space_group_symop_operation_xyz
x,y,z
-x,-y,z
-x,y,z
x,-y,z
1/2+x,1/2+y,1/2+z
1/2-x,1/2-y,1/2+z
1/2-x,1/2+y,1/2+z
1/2+x,1/2-y,1/2+z
loop_
_atom_site_type_symbol
_atom_site_label
_atom_site_fract_x
_atom_site_fract_y
_atom_site_fract_z
Si Si1 0.160838 0.235754 0.414250
Si Si2 0.171821 0.500000 0.493774
Si Si3 0.175369 0.000000 0.845354
Si Si4 0.661780 0.832715 0.049504
Si Si5 0.328687 0.155592 0.790754
Si Si6 0.161957 0.410175 0.747842
Si Si7 0.664134 0.913090 0.409981
Si Si8 0.168882 0.775187 0.173734
O O1 0.166446 0.301756 0.472422
O O2 0.222894 0.277073 0.345475
O O3 0.247996 0.159527 0.442427
O O4 0.000000 0.205156 0.398921
O O5 0.261953 0.500000 0.422649
O O6 0.214529 0.424481 0.541687
O O7 0.000000 0.500000 0.475360
O O8 0.233346 0.076651 0.802764
O O9 0.000000 0.000000 0.847156
O O10 0.500000 0.829835 0.079751
O O11 0.759002 0.777166 0.098571
O O12 0.500000 0.136317 0.800061
O O13 0.295561 0.192974 0.715222
O O14 0.190566 0.500000 0.720945
O O15 0.179359 0.407263 0.828852
O O16 0.278548 0.352545 0.714775
O O17 0.000000 0.383115 0.726798
O O18 0.500000 0.903850 0.434145
O O19 0.723163 0.000000 0.434941
O O20 0.000000 0.783376 0.163106
#
# Coordination Sequence:
#
# PCOD8189011 Si02
#       8
#     8   4   4   8   8   8   8   8
#     4  10  19  35  59  83 108 146 191 234 281 342
#     4  10  20  40  62  84 122 169 200 229 290 369
#     4  12  24  36  62  98 120 143 192 259 304 337
#     4  10  22  38  58  81 114 158 196 231 285 360
#     4  10  21  40  61  83 116 155 193 234 295 363
#     4   9  18  32  50  75 110 149 182 212 260 325
#     4   9  18  32  52  80 111 142 178 226 277 325
#     4  11  23  37  56  83 114 150 190 239 288 337
#
# _framework density 18.655754999999999
#
# number of rings (size 3 to 8) (size 9 to 14) (size 15 to 20)
#    0.000    2.000    2.857    1.929    1.000    3.429 
#    0.000    1.429    1.571    0.000    0.000    0.000 
#    0.000    0.000    0.000    0.000    0.000    0.000 
#
# Total GULP energy -347075.767077 kJ/mol
# GULP energy per Si atom -12395.563110 kJ/mol
# Density = 1.861329 g / cm^3
# Si number density = 18.655755 Si / 1000 Ang^3
#
#
#
# Elastic Constant Matrix: (Units=GPa)
#
#
# Indices 1 2 3 4 5 6 
#
# 1 84.5215 51.1044 34.0119 0.0000 0.0000 0.0000
# 2 51.1044 111.8795 26.8251 0.0000 0.0000 0.0000
# 3 34.0119 26.8251 67.0680 0.0000 0.0000 0.0000
# 4 0.0000 0.0000 0.0000 26.9895 0.0000 0.0000
# 5 0.0000 0.0000 0.0000 0.0000 29.8326 0.0000
# 6 0.0000 0.0000 0.0000 0.0000 0.0000 33.5406
#
#
#
# Elastic Compliance Matrix: (Units=1/GPa)
#
#
# Indices 1 2 3 4 5 6 
#
# 1 0.018737 -0.006947 -0.006724 0.000000 0.000000 0.000000
# 2 -0.006947 0.012462 -0.001461 0.000000 0.000000 0.000000
# 3 -0.006724 -0.001461 0.018905 0.000000 0.000000 0.000000
# 4 0.000000 0.000000 0.000000 0.037051 0.000000 0.000000
# 5 0.000000 0.000000 0.000000 0.000000 0.033520 0.000000
# 6 0.000000 0.000000 0.000000 0.000000 0.000000 0.029815
#
#
# Mechanical properties :
#
#
# Convention : Reuss Voigt Hill
#
# Bulk Modulus (GPa) = 50.40369 54.15023 52.27696
# Shear Modulus (GPa) = 26.68568 28.17438 27.43003
#
# Velocity S-wave (km/s) = 3.78620 3.89038 3.83864
# Velocity P-wave (km/s) = 6.79634 7.01919 6.90866
#
# Compressibility (1/GPa) = 0.01983982
#
# Stress axis : x y z
#
# Youngs Moduli (GPa) = 53.37009 80.24596 52.89745
#
# Poissons Ratio (x) = 0.55744 0.35566
# Poissons Ratio (y) = 0.37074 0.07731
# Poissons Ratio (z) = 0.35884 0.11728
#
# Static dielectric constant tensor:
#      x y z
#    x 3.483470 0.000000 0.000000 
#    y 0.000000 3.379860 0.000000 
#    z 0.000000 0.000000 3.272440 
# 
# 
# High freq. dielectric constant tensor:
#      x y z
#    x 1.714710 0.000000 0.000000 
#    y 0.000000 1.728500 0.000000 
#    z 0.000000 0.000000 1.707160 
# 
# From -- ./inp_files/23119.got.cif
#   From: 2010.03.12/outbox.cif.g09.slc.cpg/sg44_12_cif.got.tgz:23119.got - 2010.04.14 02:36:11.
