data_PCOD8189471
_publ_section_title
;
Structure prediction by ZEFSAII (Michael W. Deem and Ramdas Pophale) SiO2 
 PCOD8189471
Probable space group: I M M 2
;
_chemical_formula_sum "Si O2"
_cell_formula_units_Z 64
_cell_length_a 32.808806
_cell_length_b 8.662392
_cell_length_c 11.550574
_cell_angle_alpha 90.000000
_cell_angle_beta 90.000000
_cell_angle_gamma 90.000000
_cell_volume 3282.704763
_symmetry_space_group_name_H-M "I M M 2"
_symmetry_group_IT_number 44
_symmetry_cell_setting 'orthorhombic'
loop_
_space_group_symop_operation_xyz
x,y,z
-x,-y,z
-x,y,z
x,-y,z
1/2+x,1/2+y,1/2+z
1/2-x,1/2-y,1/2+z
1/2-x,1/2+y,1/2+z
1/2+x,1/2-y,1/2+z
loop_
_atom_site_type_symbol
_atom_site_label
_atom_site_fract_x
_atom_site_fract_y
_atom_site_fract_z
Si Si1 0.188281 0.179002 0.912520
Si Si2 0.324403 0.175136 0.175740
Si Si3 0.353559 0.677781 0.810766
Si Si4 0.546832 0.682119 0.441195
Si Si5 0.279887 0.820925 0.945762
Si Si6 0.894581 0.176393 0.544467
Si Si7 0.452176 0.173477 0.200244
Si Si8 0.379993 0.180286 0.572872
O O1 0.180252 0.203022 0.777635
O O2 0.233943 0.239936 0.934598
O O3 0.183724 0.000000 0.945122
O O4 0.156305 0.274268 0.987225
O O5 0.367500 0.204114 0.116398
O O6 0.322281 0.000000 0.222528
O O7 0.289994 0.207004 0.080027
O O8 0.350723 0.500000 0.772445
O O9 0.309523 0.726019 0.860935
O O10 0.366505 0.779285 0.702377
O O11 0.388530 0.703762 0.907794
O O12 0.500000 0.732776 0.469326
O O13 0.549527 0.500000 0.428236
O O14 0.563271 0.755406 0.321634
O O15 0.577316 0.735968 0.542622
O O16 0.284065 0.000000 0.911238
O O17 0.939390 0.222006 0.589357
O O18 0.883675 0.000000 0.574853
O O19 0.500000 0.175542 0.200060
O O20 0.435093 0.000000 0.189540
O O21 0.387937 0.000000 0.563164
#
# Coordination Sequence:
#
# PCOD8189471 Si02
#       8
#     8   8   8   8   8   8   8   8
#     4  11  23  38  57  84 116 150 191 240 290 343
#     4  10  20  36  56  80 109 144 186 231 282 335
#     4  10  22  40  61  83 113 153 196 242 292 347
#     4  10  21  39  63  89 119 155 195 243 298 352
#     4   9  21  39  58  82 112 149 190 237 291 343
#     4  10  20  36  58  82 109 146 187 231 283 339
#     4  10  20  34  56  87 120 151 185 232 288 344
#     4  12  25  40  60  87 118 156 199 243 294 353
#
# _framework density 19.496117000000002
#
# number of rings (size 3 to 8) (size 9 to 14) (size 15 to 20)
#    0.000    1.750    0.000    4.125    1.750    4.500 
#    0.000    0.625    0.000    0.750    0.000    0.000 
#    0.000    0.000    0.000    0.000    0.000    0.000 
#
# Total GULP energy -396837.060335 kJ/mol
# GULP energy per Si atom -12401.158135 kJ/mol
# Density = 1.945174 g / cm^3
# Si number density = 19.496117 Si / 1000 Ang^3
#
#
#
# Elastic Constant Matrix: (Units=GPa)
#
#
# Indices 1 2 3 4 5 6 
#
# 1 79.2332 31.6037 45.6108 0.0000 0.0000 0.0000
# 2 31.6037 72.1143 32.1103 0.0000 0.0000 0.0000
# 3 45.6108 32.1103 101.5886 0.0000 0.0000 0.0000
# 4 0.0000 0.0000 0.0000 33.9877 0.0000 0.0000
# 5 0.0000 0.0000 0.0000 0.0000 17.6230 0.0000
# 6 0.0000 0.0000 0.0000 0.0000 0.0000 28.9941
#
#
#
# Elastic Compliance Matrix: (Units=1/GPa)
#
#
# Indices 1 2 3 4 5 6 
#
# 1 0.018523 -0.005138 -0.006692 0.000000 0.000000 0.000000
# 2 -0.005138 0.017563 -0.003245 0.000000 0.000000 0.000000
# 3 -0.006692 -0.003245 0.013874 0.000000 0.000000 0.000000
# 4 0.000000 0.000000 0.000000 0.029422 0.000000 0.000000
# 5 0.000000 0.000000 0.000000 0.000000 0.056744 0.000000
# 6 0.000000 0.000000 0.000000 0.000000 0.000000 0.034490
#
#
# Mechanical properties :
#
#
# Convention : Reuss Voigt Hill
#
# Bulk Modulus (GPa) = 50.47840 52.39841 51.43841
# Shear Modulus (GPa) = 24.11164 25.69504 24.90334
#
# Velocity S-wave (km/s) = 3.52055 3.63431 3.57788
# Velocity P-wave (km/s) = 6.51716 6.67425 6.59617
#
# Compressibility (1/GPa) = 0.01981045
#
# Stress axis : x y z
#
# Youngs Moduli (GPa) = 53.98795 56.93725 72.07769
#
# Poissons Ratio (x) = 0.29252 0.48237
# Poissons Ratio (y) = 0.27737 0.23387
# Poissons Ratio (z) = 0.36130 0.18475
#
# Static dielectric constant tensor:
#      x y z
#    x 3.647020 0.000000 0.000000 
#    y 0.000000 3.635570 0.000000 
#    z 0.000000 0.000000 3.622470 
# 
# 
# High freq. dielectric constant tensor:
#      x y z
#    x 1.760230 0.000000 0.000000 
#    y 0.000000 1.770510 0.000000 
#    z 0.000000 0.000000 1.754170 
# 
# From -- ./inp_files/15034.got.cif
#   From: 2010.03.12/outbox.cif.g09.slc.cpg/sg44_8_cif.got.tgz:15034.got - 2010.04.14 02:36:11.
