data_PCOD8189684
_publ_section_title
;
Structure prediction by ZEFSAII (Michael W. Deem and Ramdas Pophale) SiO2 
 PCOD8189684
Probable space group: I M M 2
;
_chemical_formula_sum "Si O2"
_cell_formula_units_Z 64
_cell_length_a 15.183415
_cell_length_b 9.009542
_cell_length_c 23.822102
_cell_angle_alpha 90.000000
_cell_angle_beta 90.000000
_cell_angle_gamma 90.000000
_cell_volume 3258.759097
_symmetry_space_group_name_H-M "I M M 2"
_symmetry_group_IT_number 44
_symmetry_cell_setting 'orthorhombic'
loop_
_space_group_symop_operation_xyz
x,y,z
-x,-y,z
-x,y,z
x,-y,z
1/2+x,1/2+y,1/2+z
1/2-x,1/2-y,1/2+z
1/2-x,1/2+y,1/2+z
1/2+x,1/2-y,1/2+z
loop_
_atom_site_type_symbol
_atom_site_label
_atom_site_fract_x
_atom_site_fract_y
_atom_site_fract_z
Si Si1 0.099293 0.170346 0.780610
Si Si2 0.750945 0.674436 0.197137
Si Si3 0.143832 0.669967 0.893875
Si Si4 0.253497 0.675543 0.069268
Si Si5 0.599161 0.329797 0.504895
Si Si6 0.099219 0.669625 0.497445
Si Si7 0.850839 0.829899 0.389040
Si Si8 0.601005 0.326827 0.765686
O O1 0.166004 0.226617 0.732601
O O2 0.110523 0.272179 0.834523
O O3 0.000000 0.186864 0.757235
O O4 0.119537 0.000000 0.797044
O O5 0.763453 0.500000 0.200499
O O6 0.736471 0.726461 0.133456
O O7 0.839879 0.746400 0.219876
O O8 0.113972 0.500000 0.900275
O O9 0.247805 0.685723 0.899322
O O10 0.099371 0.766230 0.942159
O O11 0.250733 0.500000 0.062014
O O12 0.162774 0.738968 0.045405
O O13 0.337743 0.734037 0.036250
O O14 0.500000 0.316739 0.528756
O O15 0.630464 0.500000 0.502978
O O16 0.131934 0.500000 0.497370
O O17 0.099271 0.730058 0.434097
O O18 0.000000 0.682152 0.520974
O O19 0.875840 0.767482 0.327784
O O20 0.882442 0.000000 0.395171
O O21 0.500000 0.291998 0.751232
O O22 0.622467 0.500000 0.762733
#
# Coordination Sequence:
#
# PCOD8189684 Si02
#       8
#     8   8   8   8   8   8   8   8
#     4  10  21  38  60  86 118 156 195 237 289 349
#     4  10  23  41  61  85 115 152 198 247 292 341
#     4  11  21  35  60  92 122 154 192 238 293 350
#     4  11  24  42  63  87 115 156 203 248 297 346
#     4  11  24  41  62  88 119 157 197 242 299 356
#     4  11  24  40  61  91 123 156 195 242 296 352
#     4  10  20  36  60  89 121 158 195 236 292 352
#     4  10  21  38  61  88 119 155 193 234 286 349
#
# _framework density 19.639378000000001
#
# number of rings (size 3 to 8) (size 9 to 14) (size 15 to 20)
#    0.000    1.500    2.500    2.250    0.000    7.500 
#    0.000    3.750    0.000    0.000    0.000    0.000 
#    0.000    0.000    0.000    0.000    0.000    0.000 
#
# Total GULP energy -396959.029968 kJ/mol
# GULP energy per Si atom -12404.969687 kJ/mol
# Density = 1.959468 g / cm^3
# Si number density = 19.639378 Si / 1000 Ang^3
#
#
#
# Elastic Constant Matrix: (Units=GPa)
#
#
# Indices 1 2 3 4 5 6 
#
# 1 106.3878 40.7348 48.7498 0.0000 0.0000 0.0000
# 2 40.7348 76.0958 55.2425 0.0000 0.0000 0.0000
# 3 48.7498 55.2425 124.3534 0.0000 0.0000 0.0000
# 4 0.0000 0.0000 0.0000 31.6633 0.0000 0.0000
# 5 0.0000 0.0000 0.0000 0.0000 8.5774 0.0000
# 6 0.0000 0.0000 0.0000 0.0000 0.0000 23.1102
#
#
#
# Elastic Compliance Matrix: (Units=1/GPa)
#
#
# Indices 1 2 3 4 5 6 
#
# 1 0.012466 -0.004613 -0.002838 0.000000 0.000000 0.000000
# 2 -0.004613 0.021104 -0.007567 0.000000 0.000000 0.000000
# 3 -0.002838 -0.007567 0.012515 0.000000 0.000000 0.000000
# 4 0.000000 0.000000 0.000000 0.031582 0.000000 0.000000
# 5 0.000000 0.000000 0.000000 0.000000 0.116585 0.000000
# 6 0.000000 0.000000 0.000000 0.000000 0.000000 0.043271
#
#
# Mechanical properties :
#
#
# Convention : Reuss Voigt Hill
#
# Bulk Modulus (GPa) = 62.30370 66.25457 64.27914
# Shear Modulus (GPa) = 18.32111 23.47750 20.89931
#
# Velocity S-wave (km/s) = 3.05762 3.46125 3.26568
# Velocity P-wave (km/s) = 6.65268 7.05567 6.85713
#
# Compressibility (1/GPa) = 0.01605041
#
# Stress axis : x y z
#
# Youngs Moduli (GPa) = 80.21648 47.38447 79.90113
#
# Poissons Ratio (x) = 0.21860 0.22674
# Poissons Ratio (y) = 0.37006 0.60459
# Poissons Ratio (z) = 0.22763 0.35854
#
# Static dielectric constant tensor:
#      x y z
#    x 3.701740 0.000000 0.000000 
#    y 0.000000 3.605220 0.000000 
#    z 0.000000 0.000000 3.612310 
# 
# 
# High freq. dielectric constant tensor:
#      x y z
#    x 1.780270 0.000000 0.000000 
#    y 0.000000 1.766830 0.000000 
#    z 0.000000 0.000000 1.760740 
# 
# From -- ./inp_files/25072.got.cif
#   From: 2010.03.12/outbox.cif.g09.slc.cpg/sg44_13_cif.got.tgz:25072.got - 2010.04.14 02:36:11.
