data_PCOD8189193
_publ_section_title
;
Structure prediction by ZEFSAII (Michael W. Deem and Ramdas Pophale) SiO2 
 PCOD8189193
Probable space group: I M M 2
;
_chemical_formula_sum "Si O2"
_cell_formula_units_Z 56
_cell_length_a 9.102653
_cell_length_b 14.036798
_cell_length_c 22.949996
_cell_angle_alpha 90.000000
_cell_angle_beta 90.000000
_cell_angle_gamma 90.000000
_cell_volume 2932.369217
_symmetry_space_group_name_H-M "I M M 2"
_symmetry_group_IT_number 44
_symmetry_cell_setting 'orthorhombic'
loop_
_space_group_symop_operation_xyz
x,y,z
-x,-y,z
-x,y,z
x,-y,z
1/2+x,1/2+y,1/2+z
1/2-x,1/2-y,1/2+z
1/2-x,1/2+y,1/2+z
1/2+x,1/2-y,1/2+z
loop_
_atom_site_type_symbol
_atom_site_label
_atom_site_fract_x
_atom_site_fract_y
_atom_site_fract_z
Si Si1 0.168588 0.105365 0.593960
Si Si2 0.340430 0.642678 0.670082
Si Si3 0.339969 0.858267 0.704223
Si Si4 0.168415 0.394686 0.780689
Si Si5 0.826847 0.287022 0.324174
Si Si6 0.174391 0.787981 0.049107
Si Si7 0.172428 0.389157 0.442586
O O1 0.225102 0.093898 0.660559
O O2 0.259730 0.181736 0.556644
O O3 0.000000 0.138853 0.595689
O O4 0.183361 0.000000 0.565116
O O5 0.500000 0.591124 0.674391
O O6 0.363616 0.750836 0.686274
O O7 0.226217 0.595567 0.714204
O O8 0.282440 0.642544 0.603252
O O9 0.500000 0.909845 0.700835
O O10 0.279750 0.856957 0.770811
O O11 0.185632 0.500000 0.809294
O O12 0.253135 0.317262 0.819532
O O13 0.000000 0.362970 0.777581
O O14 0.777965 0.339358 0.382750
O O15 0.000000 0.268882 0.321755
O O16 0.000000 0.776639 0.044140
O O17 0.237609 0.836801 0.992270
O O18 0.215258 0.500000 0.440032
O O19 0.000000 0.375729 0.453902
#
# Coordination Sequence:
#
# PCOD8189193 Si02
#       7
#     8   8   8   8   8   8   8
#     4  10  20  33  52  81 114 145 178 217 264 320
#     4   8  16  31  50  73 102 137 174 211 254 305
#     4   8  15  29  50  76 105 137 173 213 257 305
#     4  10  20  32  50  80 113 142 174 214 262 314
#     4   9  19  36  56  78 105 140 180 218 260 314
#     4  10  21  37  56  79 108 142 181 224 268 316
#     4  10  22  40  60  80 103 135 177 224 271 318
#
# _framework density 19.097185
#
# number of rings (size 3 to 8) (size 9 to 14) (size 15 to 20)
#    0.000    2.714    0.000    3.000    0.000   10.000 
#    0.000    5.000    0.000    0.857    0.000    0.000 
#    0.000    0.000    0.000    0.000    0.000    0.000 
#
# Total GULP energy -346970.853011 kJ/mol
# GULP energy per Si atom -12391.816179 kJ/mol
# Density = 1.905372 g / cm^3
# Si number density = 19.097185 Si / 1000 Ang^3
#
#
#
# Elastic Constant Matrix: (Units=GPa)
#
#
# Indices 1 2 3 4 5 6 
#
# 1 88.6279 53.0016 52.2771 0.0000 0.0000 0.0000
# 2 53.0016 117.8376 58.3548 0.0000 0.0000 0.0000
# 3 52.2771 58.3548 138.1538 0.0000 0.0000 0.0000
# 4 0.0000 0.0000 0.0000 17.4121 0.0000 0.0000
# 5 0.0000 0.0000 0.0000 0.0000 27.2565 0.0000
# 6 0.0000 0.0000 0.0000 0.0000 0.0000 176.8819
#
#
#
# Elastic Compliance Matrix: (Units=1/GPa)
#
#
# Indices 1 2 3 4 5 6 
#
# 1 0.017069 -0.005663 -0.004067 0.000000 0.000000 0.000000
# 2 -0.005663 0.012610 -0.003183 0.000000 0.000000 0.000000
# 3 -0.004067 -0.003183 0.010122 0.000000 0.000000 0.000000
# 4 0.000000 0.000000 0.000000 0.057431 0.000000 0.000000
# 5 0.000000 0.000000 0.000000 0.000000 0.036688 0.000000
# 6 0.000000 0.000000 0.000000 0.000000 0.000000 0.005653
#
#
# Mechanical properties :
#
#
# Convention : Reuss Voigt Hill
#
# Bulk Modulus (GPa) = 71.56277 74.65404 73.10840
# Shear Modulus (GPa) = 29.40172 56.37582 42.88877
#
# Velocity S-wave (km/s) = 3.92801 5.43917 4.74415
# Velocity P-wave (km/s) = 7.62408 8.86694 8.26890
#
# Compressibility (1/GPa) = 0.01397375
#
# Stress axis : x y z
#
# Youngs Moduli (GPa) = 58.58691 79.30214 98.79764
#
# Poissons Ratio (x) = 0.44912 0.40177
# Poissons Ratio (y) = 0.33180 0.31450
# Poissons Ratio (z) = 0.23825 0.25244
#
# Static dielectric constant tensor:
#      x y z
#    x 3.485250 0.000000 0.000000 
#    y 0.000000 3.616320 0.000000 
#    z 0.000000 0.000000 3.864860 
# 
# 
# High freq. dielectric constant tensor:
#      x y z
#    x 1.739920 0.000000 0.000000 
#    y 0.000000 1.743900 0.000000 
#    z 0.000000 0.000000 1.726010 
# 
# From -- ./inp_files/23077.got.cif
#   From: 2010.03.12/outbox.cif.g09.slc.cpg/sg44_12_cif.got.tgz:23077.got - 2010.04.14 02:36:11.
