data_PCOD8189007
_publ_section_title
;
Structure prediction by ZEFSAII (Michael W. Deem and Ramdas Pophale) SiO2 
 PCOD8189007
Probable space group: I M M 2
;
_chemical_formula_sum "Si O2"
_cell_formula_units_Z 64
_cell_length_a 13.094184
_cell_length_b 14.527692
_cell_length_c 16.860276
_cell_angle_alpha 90.000000
_cell_angle_beta 90.000000
_cell_angle_gamma 90.000000
_cell_volume 3207.301171
_symmetry_space_group_name_H-M "I M M 2"
_symmetry_group_IT_number 44
_symmetry_cell_setting 'orthorhombic'
loop_
_space_group_symop_operation_xyz
x,y,z
-x,-y,z
-x,y,z
x,-y,z
1/2+x,1/2+y,1/2+z
1/2-x,1/2-y,1/2+z
1/2-x,1/2+y,1/2+z
1/2+x,1/2-y,1/2+z
loop_
_atom_site_type_symbol
_atom_site_label
_atom_site_fract_x
_atom_site_fract_y
_atom_site_fract_z
Si Si1 0.772627 0.396463 0.364730
Si Si2 0.888521 0.103992 0.993533
Si Si3 0.380813 0.893645 0.486974
Si Si4 0.183595 0.243897 0.105318
Si Si5 0.888490 0.098675 0.727179
Si Si6 0.296874 0.891547 0.313017
Si Si7 0.381821 0.259485 0.782628
Si Si8 0.886963 0.293856 0.664095
O O1 0.816556 0.500000 0.378458
O O2 0.704485 0.361795 0.438445
O O3 0.696401 0.395135 0.292467
O O4 0.862544 0.324875 0.344234
O O5 0.893531 0.168528 0.070619
O O6 0.000000 0.111591 0.951400
O O7 0.868324 0.000000 0.020900
O O8 0.500000 0.868765 0.494007
O O9 0.316933 0.834941 0.550795
O O10 0.344439 0.870003 0.398424
O O11 0.360731 0.000000 0.506694
O O12 0.149355 0.271824 0.193890
O O13 0.293391 0.188480 0.104156
O O14 0.877646 0.183117 0.667857
O O15 0.000000 0.104011 0.768443
O O16 0.877331 0.000000 0.681780
O O17 0.183761 0.848364 0.308274
O O18 0.370481 0.843870 0.248335
O O19 0.290320 0.000000 0.295588
O O20 0.500000 0.286621 0.787328
O O21 0.000000 0.322366 0.632027
#
# Coordination Sequence:
#
# PCOD8189007 Si02
#       8
#     8   8   8   8   8   8   8   8
#     4  10  19  35  58  85 112 140 181 234 284 333
#     4  10  21  37  59  85 111 143 185 234 285 332
#     4  10  21  37  59  85 112 144 184 233 286 333
#     4  11  22  36  54  82 117 151 182 223 274 339
#     4   9  16  29  53  83 110 135 170 221 279 331
#     4  10  21  39  61  85 108 141 195 249 286 322
#     4  11  23  38  55  83 116 152 191 226 277 341
#     4  10  21  37  57  83 114 149 187 231 283 332
#
# _framework density 19.954471000000002
#
# number of rings (size 3 to 8) (size 9 to 14) (size 15 to 20)
#    0.000    1.875    2.500    2.625    0.000    5.750 
#    0.000    2.500    0.000    1.500    0.000    0.000 
#    0.000    0.000    0.000    0.000    0.000    0.000 
#
# Total GULP energy -396514.112652 kJ/mol
# GULP energy per Si atom -12391.066020 kJ/mol
# Density = 1.990905 g / cm^3
# Si number density = 19.954471 Si / 1000 Ang^3
#
#
#
# Elastic Constant Matrix: (Units=GPa)
#
#
# Indices 1 2 3 4 5 6 
#
# 1 113.5991 23.8124 29.4507 0.0000 0.0000 0.0000
# 2 23.8124 102.8997 36.9855 0.0000 0.0000 0.0000
# 3 29.4507 36.9855 79.3748 0.0000 0.0000 0.0000
# 4 0.0000 0.0000 0.0000 26.6512 0.0000 0.0000
# 5 0.0000 0.0000 0.0000 0.0000 326.5730 0.0000
# 6 0.0000 0.0000 0.0000 0.0000 0.0000 28.1136
#
#
#
# Elastic Compliance Matrix: (Units=1/GPa)
#
#
# Indices 1 2 3 4 5 6 
#
# 1 0.009854 -0.001161 -0.003115 0.000000 0.000000 0.000000
# 2 -0.001161 0.011810 -0.005072 0.000000 0.000000 0.000000
# 3 -0.003115 -0.005072 0.016118 0.000000 0.000000 0.000000
# 4 0.000000 0.000000 0.000000 0.037522 0.000000 0.000000
# 5 0.000000 0.000000 0.000000 0.000000 0.003062 0.000000
# 6 0.000000 0.000000 0.000000 0.000000 0.000000 0.035570
#
#
# Mechanical properties :
#
#
# Convention : Reuss Voigt Hill
#
# Bulk Modulus (GPa) = 52.39680 52.93011 52.66345
# Shear Modulus (GPa) = 35.97287 89.97590 62.97438
#
# Velocity S-wave (km/s) = 4.25048 6.72224 5.62384
# Velocity P-wave (km/s) = 7.09958 9.31849 8.28367
#
# Compressibility (1/GPa) = 0.01908514
#
# Stress axis : x y z
#
# Youngs Moduli (GPa) = 101.48358 84.67437 62.04295
#
# Poissons Ratio (x) = 0.09827 0.19328
# Poissons Ratio (y) = 0.11778 0.31470
# Poissons Ratio (z) = 0.31615 0.42950
#
# Static dielectric constant tensor:
#      x y z
#    x -2.266100 0.000000 0.000000 
#    y 0.000000 4.014570 0.000000 
#    z 0.000000 0.000000 3.408390 
# 
# 
# High freq. dielectric constant tensor:
#      x y z
#    x 1.778280 0.000000 0.000000 
#    y 0.000000 1.788980 0.000000 
#    z 0.000000 0.000000 1.748890 
# 
# From -- ./inp_files/21438.got.cif
#   From: 2010.03.12/outbox.cif.g09.slc.cpg/sg44_11_cif.got.tgz:21438.got - 2010.04.14 02:36:11.
