data_PCOD8189721
_publ_section_title
;
Structure prediction by ZEFSAII (Michael W. Deem and Ramdas Pophale) SiO2 
 PCOD8189721
Probable space group: I M M 2
;
_chemical_formula_sum "Si O2"
_cell_formula_units_Z 64
_cell_length_a 26.025376
_cell_length_b 13.987786
_cell_length_c 9.075246
_cell_angle_alpha 90.000000
_cell_angle_beta 90.000000
_cell_angle_gamma 90.000000
_cell_volume 3303.728868
_symmetry_space_group_name_H-M "I M M 2"
_symmetry_group_IT_number 44
_symmetry_cell_setting 'orthorhombic'
loop_
_space_group_symop_operation_xyz
x,y,z
-x,-y,z
-x,y,z
x,-y,z
1/2+x,1/2+y,1/2+z
1/2-x,1/2-y,1/2+z
1/2-x,1/2+y,1/2+z
1/2+x,1/2-y,1/2+z
loop_
_atom_site_type_symbol
_atom_site_label
_atom_site_fract_x
_atom_site_fract_y
_atom_site_fract_z
Si Si1 0.444960 0.387887 0.546540
Si Si2 0.374016 0.234931 0.169073
Si Si3 0.180670 0.284980 0.373947
Si Si4 0.441065 0.393119 0.219370
Si Si5 0.798706 0.776911 0.925695
Si Si6 0.842460 0.111077 0.189859
Si Si7 0.559026 0.111966 0.380173
Si Si8 0.650685 0.888447 0.588956
O O1 0.500000 0.350534 0.606347
O O2 0.447810 0.500000 0.515319
O O3 0.433879 0.345264 0.383383
O O4 0.402470 0.363157 0.666537
O O5 0.408557 0.324456 0.112913
O O6 0.331448 0.279001 0.277389
O O7 0.411675 0.156458 0.240149
O O8 0.345632 0.190440 0.028849
O O9 0.240983 0.302264 0.383419
O O10 0.175050 0.173722 0.328130
O O11 0.153532 0.356229 0.258347
O O12 0.500000 0.392717 0.170831
O O13 0.418611 0.500000 0.209251
O O14 0.814472 0.860484 0.038620
O O15 0.806422 0.672477 0.000234
O O16 0.832557 0.000000 0.224274
O O17 0.500000 0.150567 0.398739
O O18 0.593141 0.134456 0.526846
O O19 0.557345 0.000000 0.350427
O O20 0.664188 0.000000 0.571652
#
# Coordination Sequence:
#
# PCOD8189721 Si02
#       8
#     8   8   8   8   8   8   8   8
#     4   8  14  28  52  78 102 132 176 222 257 307
#     4  11  20  34  57  82 114 147 180 225 287 337
#     4  11  24  38  52  82 121 149 179 233 287 332
#     4   9  17  30  51  80 110 139 176 219 261 319
#     4  10  21  39  58  78 107 146 194 238 267 321
#     4  10  20  37  57  82 111 146 189 227 273 333
#     4   9  19  38  63  86 106 138 191 243 277 322
#     4   9  20  40  62  82 108 146 189 230 280 335
#
# _framework density 19.372049000000001
#
# number of rings (size 3 to 8) (size 9 to 14) (size 15 to 20)
#    0.000    2.375    1.250    2.625    0.000    2.000 
#    0.000    6.250    0.000    3.000    0.000    0.000 
#    0.000    0.000    0.000    0.000    0.000    0.000 
#
# Total GULP energy -396647.369875 kJ/mol
# GULP energy per Si atom -12395.230309 kJ/mol
# Density = 1.932796 g / cm^3
# Si number density = 19.372049 Si / 1000 Ang^3
#
#
#
# Elastic Constant Matrix: (Units=GPa)
#
#
# Indices 1 2 3 4 5 6 
#
# 1 127.1855 29.8724 45.3480 0.0000 0.0000 0.0000
# 2 29.8724 66.9856 19.7237 0.0000 0.0000 0.0000
# 3 45.3480 19.7237 71.1653 0.0000 0.0000 0.0000
# 4 0.0000 0.0000 0.0000 21.7602 0.0000 0.0000
# 5 0.0000 0.0000 0.0000 0.0000 9.3451 0.0000
# 6 0.0000 0.0000 0.0000 0.0000 0.0000 24.4134
#
#
#
# Elastic Compliance Matrix: (Units=1/GPa)
#
#
# Indices 1 2 3 4 5 6 
#
# 1 0.010704 -0.003011 -0.005986 0.000000 0.000000 0.000000
# 2 -0.003011 0.017102 -0.002821 0.000000 0.000000 0.000000
# 3 -0.005986 -0.002821 0.018648 0.000000 0.000000 0.000000
# 4 0.000000 0.000000 0.000000 0.045955 0.000000 0.000000
# 5 0.000000 0.000000 0.000000 0.000000 0.107008 0.000000
# 6 0.000000 0.000000 0.000000 0.000000 0.000000 0.040961
#
#
# Mechanical properties :
#
#
# Convention : Reuss Voigt Hill
#
# Bulk Modulus (GPa) = 43.82621 50.58049 47.20335
# Shear Modulus (GPa) = 18.40790 22.46323 20.43556
#
# Velocity S-wave (km/s) = 3.08592 3.40894 3.25145
# Velocity P-wave (km/s) = 5.94725 6.45455 6.20608
#
# Compressibility (1/GPa) = 0.02281739
#
# Stress axis : x y z
#
# Youngs Moduli (GPa) = 93.42153 58.47269 53.62385
#
# Poissons Ratio (x) = 0.17605 0.32102
# Poissons Ratio (y) = 0.28128 0.15129
# Poissons Ratio (z) = 0.55926 0.16497
#
# Static dielectric constant tensor:
#      x y z
#    x 4.085570 0.000000 0.000000 
#    y 0.000000 3.515570 0.000000 
#    z 0.000000 0.000000 3.290940 
# 
# 
# High freq. dielectric constant tensor:
#      x y z
#    x 1.761290 0.000000 0.000000 
#    y 0.000000 1.754930 0.000000 
#    z 0.000000 0.000000 1.725280 
# 
# From -- ./inp_files/9464.got.cif
#   From: 2010.03.12/outbox.cif.g09.slc.cpg/sg44_5_cif.got.tgz:9464.got - 2010.04.14 02:36:11.
