data_PCOD8189464
_publ_section_title
;
Structure prediction by ZEFSAII (Michael W. Deem and Ramdas Pophale) SiO2 
 PCOD8189464
Probable space group: I M M 2
;
_chemical_formula_sum "Si O2"
_cell_formula_units_Z 48
_cell_length_a 10.337187
_cell_length_b 8.692506
_cell_length_c 27.863550
_cell_angle_alpha 90.000000
_cell_angle_beta 90.000000
_cell_angle_gamma 90.000000
_cell_volume 2503.708821
_symmetry_space_group_name_H-M "I M M 2"
_symmetry_group_IT_number 44
_symmetry_cell_setting 'orthorhombic'
loop_
_space_group_symop_operation_xyz
x,y,z
-x,-y,z
-x,y,z
x,-y,z
1/2+x,1/2+y,1/2+z
1/2-x,1/2-y,1/2+z
1/2-x,1/2+y,1/2+z
1/2+x,1/2-y,1/2+z
loop_
_atom_site_type_symbol
_atom_site_label
_atom_site_fract_x
_atom_site_fract_y
_atom_site_fract_z
Si Si1 0.741077 0.678246 0.550480
Si Si2 0.756803 0.318844 0.763124
Si Si3 0.500000 0.181047 0.719098
Si Si4 0.500000 0.679937 0.615845
Si Si5 0.500000 0.178097 0.106864
Si Si6 0.351761 0.821208 0.456627
Si Si7 0.000000 0.819619 0.709158
Si Si8 0.849004 0.821444 0.857576
O O1 0.729423 0.500000 0.536700
O O2 0.626200 0.726515 0.585921
O O3 0.875459 0.718184 0.575489
O O4 0.735256 0.775542 0.501808
O O5 0.756895 0.500000 0.756434
O O6 0.624346 0.252111 0.743843
O O7 0.769728 0.275997 0.818900
O O8 0.873283 0.250453 0.732623
O O9 0.500000 0.218388 0.663080
O O10 0.500000 0.000000 0.726715
O O11 0.500000 0.500000 0.629563
O O12 0.500000 0.286135 0.152885
O O13 0.500000 0.000000 0.123161
O O14 0.500000 0.776639 0.468163
O O15 0.302126 0.728319 0.410294
O O16 0.336490 0.000000 0.445413
O O17 0.000000 0.000000 0.718893
O O18 0.000000 0.783626 0.850993
O O19 0.819463 0.000000 0.849800
#
# Coordination Sequence:
#
# PCOD8189464 Si02
#       8
#     8   8   4   4   4   8   4   8
#     4  10  20  36  58  84 115 152 196 241 293 351
#     4  12  24  41  64  90 123 161 202 248 301 360
#     4  12  26  42  61  88 125 162 202 251 303 359
#     4  10  20  36  59  84 113 154 202 245 293 353
#     4  10  22  38  57  84 119 158 196 243 297 353
#     4  10  20  34  56  86 117 149 192 243 297 353
#     4  12  24  40  63  92 121 158 206 253 301 355
#     4  10  20  36  61  90 120 151 193 246 299 353
#
# _framework density 19.171558999999998
#
# number of rings (size 3 to 8) (size 9 to 14) (size 15 to 20)
#    0.000    1.333    1.667    5.000    0.000    4.000 
#    0.000    0.833    0.000    1.000    0.000    0.000 
#    0.000    0.000    0.000    0.000    0.000    0.000 
#
# Total GULP energy -297760.910087 kJ/mol
# GULP energy per Si atom -12406.704587 kJ/mol
# Density = 1.912792 g / cm^3
# Si number density = 19.171559 Si / 1000 Ang^3
#
#
#
# Elastic Constant Matrix: (Units=GPa)
#
#
# Indices 1 2 3 4 5 6 
#
# 1 143.4688 54.5977 67.7438 0.0000 0.0000 0.0000
# 2 54.5977 126.2167 59.3848 0.0000 0.0000 0.0000
# 3 67.7438 59.3848 138.7842 0.0000 0.0000 0.0000
# 4 0.0000 0.0000 0.0000 42.0046 0.0000 0.0000
# 5 0.0000 0.0000 0.0000 0.0000 10.2212 0.0000
# 6 0.0000 0.0000 0.0000 0.0000 0.0000 -45.0284
#
#
#
# Elastic Compliance Matrix: (Units=1/GPa)
#
#
# Indices 1 2 3 4 5 6 
#
# 1 0.009625 -0.002445 -0.003652 0.000000 0.000000 0.000000
# 2 -0.002445 0.010541 -0.003317 0.000000 0.000000 0.000000
# 3 -0.003652 -0.003317 0.010407 0.000000 0.000000 0.000000
# 4 0.000000 0.000000 0.000000 0.023807 0.000000 0.000000
# 5 0.000000 0.000000 0.000000 0.000000 0.097836 0.000000
# 6 0.000000 0.000000 0.000000 0.000000 0.000000 -0.022208
#
#
# Mechanical properties :
#
#
# Convention : Reuss Voigt Hill
#
# Bulk Modulus (GPa) = 85.13983 85.76913 85.45448
# Shear Modulus (GPa) = 32.73279 16.55570 24.64425
#
# Velocity S-wave (km/s) = 4.13651 2.94182 3.58922
# Velocity P-wave (km/s) = 8.20488 7.50825 7.86429
#
# Compressibility (1/GPa) = 0.01174538
#
# Stress axis : x y z
#
# Youngs Moduli (GPa) = 103.89491 94.86531 96.08656
#
# Poissons Ratio (x) = 0.23198 0.35090
# Poissons Ratio (y) = 0.25406 0.31871
# Poissons Ratio (z) = 0.37941 0.31466
#
# Static dielectric constant tensor:
#      x y z
#    x 3.486120 0.000000 0.000000 
#    y 0.000000 3.562110 0.000000 
#    z 0.000000 0.000000 3.602620 
# 
# 
# High freq. dielectric constant tensor:
#      x y z
#    x 1.735550 0.000000 0.000000 
#    y 0.000000 1.753160 0.000000 
#    z 0.000000 0.000000 1.760600 
# 
# From -- ./inp_files/27067.got.cif
#   From: 2010.03.12/outbox.cif.g09.slc.cpg/sg44_14_cif.got.tgz:27067.got - 2010.04.14 02:36:11.
