data_PCOD8189252
_publ_section_title
;
Structure prediction by ZEFSAII (Michael W. Deem and Ramdas Pophale) SiO2 
 PCOD8189252
Probable space group: I M M 2
;
_chemical_formula_sum "Si O2"
_cell_formula_units_Z 64
_cell_length_a 27.843653
_cell_length_b 8.716890
_cell_length_c 14.384206
_cell_angle_alpha 90.000000
_cell_angle_beta 90.000000
_cell_angle_gamma 90.000000
_cell_volume 3491.191507
_symmetry_space_group_name_H-M "I M M 2"
_symmetry_group_IT_number 44
_symmetry_cell_setting 'orthorhombic'
loop_
_space_group_symop_operation_xyz
x,y,z
-x,-y,z
-x,y,z
x,-y,z
1/2+x,1/2+y,1/2+z
1/2-x,1/2-y,1/2+z
1/2-x,1/2+y,1/2+z
1/2+x,1/2-y,1/2+z
loop_
_atom_site_type_symbol
_atom_site_label
_atom_site_fract_x
_atom_site_fract_y
_atom_site_fract_z
Si Si1 0.134685 0.320566 0.116720
Si Si2 0.444170 0.322384 0.739462
Si Si3 0.863559 0.679008 0.571524
Si Si4 0.281646 0.676592 0.952498
Si Si5 0.782327 0.176643 0.235504
Si Si6 0.181371 0.178526 0.738498
Si Si7 0.180635 0.179227 0.949255
Si Si8 0.554745 0.178572 0.933577
O O1 0.134546 0.500000 0.098493
O O2 0.084737 0.272588 0.163201
O O3 0.178950 0.277125 0.182267
O O4 0.138438 0.234719 0.017452
O O5 0.500000 0.288173 0.722334
O O6 0.431200 0.500000 0.728484
O O7 0.429051 0.272029 0.842867
O O8 0.863840 0.500000 0.593296
O O9 0.818598 0.718503 0.507175
O O10 0.861012 0.769153 0.669346
O O11 0.912355 0.730235 0.519796
O O12 0.287913 0.500000 0.982263
O O13 0.291488 0.701230 0.844107
O O14 0.228332 0.729836 0.978704
O O15 0.729190 0.231193 0.208443
O O16 0.788137 0.000000 0.206066
O O17 0.165666 0.218975 0.843546
O O18 0.192146 0.000000 0.727457
O O19 0.190559 0.000000 0.961350
O O20 0.500000 0.216431 0.960934
O O21 0.561923 0.000000 0.910430
#
# Coordination Sequence:
#
# PCOD8189252 Si02
#       8
#     8   8   8   8   8   8   8   8
#     4  12  23  34  53  78 105 137 173 212 255 307
#     4  10  21  37  57  81 108 136 167 207 255 305
#     4  11  21  32  51  76 103 136 172 211 255 305
#     4  10  20  33  50  74 105 138 172 210 252 302
#     4  10  20  34  52  75 106 140 174 213 255 302
#     4  10  21  36  53  73 101 137 176 217 258 302
#     4  10  21  37  54  72  99 135 175 217 258 300
#     4   9  19  36  56  79 107 137 169 207 254 307
#
# _framework density 18.331849999999999
#
# number of rings (size 3 to 8) (size 9 to 14) (size 15 to 20)
#    0.000    1.750    0.000    4.875    0.000    6.750 
#    0.000    0.000    0.000    0.750    0.000    3.500 
#    0.000    0.000    0.000    0.000    0.000    0.000 
#
# Total GULP energy -396958.562910 kJ/mol
# GULP energy per Si atom -12404.955091 kJ/mol
# Density = 1.829013 g / cm^3
# Si number density = 18.331850 Si / 1000 Ang^3
#
#
#
# Elastic Constant Matrix: (Units=GPa)
#
#
# Indices 1 2 3 4 5 6 
#
# 1 71.1899 20.7189 60.8793 0.0000 0.0000 0.0000
# 2 20.7189 61.5791 33.6056 0.0000 0.0000 0.0000
# 3 60.8793 33.6056 97.0953 0.0000 0.0000 0.0000
# 4 0.0000 0.0000 0.0000 32.2651 0.0000 0.0000
# 5 0.0000 0.0000 0.0000 0.0000 31.2154 0.0000
# 6 0.0000 0.0000 0.0000 0.0000 0.0000 26.3702
#
#
#
# Elastic Compliance Matrix: (Units=1/GPa)
#
#
# Indices 1 2 3 4 5 6 
#
# 1 0.030289 0.000213 -0.019065 0.000000 0.000000 0.000000
# 2 0.000213 0.020022 -0.007064 0.000000 0.000000 0.000000
# 3 -0.019065 -0.007064 0.024698 0.000000 0.000000 0.000000
# 4 0.000000 0.000000 0.000000 0.030993 0.000000 0.000000
# 5 0.000000 0.000000 0.000000 0.000000 0.032035 0.000000
# 6 0.000000 0.000000 0.000000 0.000000 0.000000 0.037922
#
#
# Mechanical properties :
#
#
# Convention : Reuss Voigt Hill
#
# Bulk Modulus (GPa) = 43.14399 51.14133 47.14266
# Shear Modulus (GPa) = 21.23001 25.61419 23.42210
#
# Velocity S-wave (km/s) = 3.40677 3.74204 3.57833
# Velocity P-wave (km/s) = 6.24987 6.82851 6.54559
#
# Compressibility (1/GPa) = 0.02317820
#
# Stress axis : x y z
#
# Youngs Moduli (GPa) = 33.01574 49.94417 40.48935
#
# Poissons Ratio (x) = -0.01066 0.77193
# Poissons Ratio (y) = -0.00705 0.28601
# Poissons Ratio (z) = 0.62944 0.35279
#
# Static dielectric constant tensor:
#      x y z
#    x 3.277280 0.000000 0.000000 
#    y 0.000000 3.457050 0.000000 
#    z 0.000000 0.000000 3.535680 
# 
# 
# High freq. dielectric constant tensor:
#      x y z
#    x 1.687890 0.000000 0.000000 
#    y 0.000000 1.724780 0.000000 
#    z 0.000000 0.000000 1.715420 
# 
# From -- ./inp_files/16894.got.cif
#   From: 2010.03.12/outbox.cif.g09.slc.cpg/sg44_9_cif.got.tgz:16894.got - 2010.04.14 02:36:11.
