data_PCOD8189675
_publ_section_title
;
Structure prediction by ZEFSAII (Michael W. Deem and Ramdas Pophale) SiO2 
 PCOD8189675
Probable space group: I M M 2
;
_chemical_formula_sum "Si O2"
_cell_formula_units_Z 64
_cell_length_a 9.089650
_cell_length_b 24.072827
_cell_length_c 13.987487
_cell_angle_alpha 90.000000
_cell_angle_beta 90.000000
_cell_angle_gamma 90.000000
_cell_volume 3060.651993
_symmetry_space_group_name_H-M "I M M 2"
_symmetry_group_IT_number 44
_symmetry_cell_setting 'orthorhombic'
loop_
_space_group_symop_operation_xyz
x,y,z
-x,-y,z
-x,y,z
x,-y,z
1/2+x,1/2+y,1/2+z
1/2-x,1/2-y,1/2+z
1/2-x,1/2+y,1/2+z
1/2+x,1/2-y,1/2+z
loop_
_atom_site_type_symbol
_atom_site_label
_atom_site_fract_x
_atom_site_fract_y
_atom_site_fract_z
Si Si1 0.831643 0.061947 0.352070
Si Si2 0.670293 0.563680 0.407477
Si Si3 0.174243 0.614823 0.235608
Si Si4 0.169576 0.127511 0.538794
Si Si5 0.667322 0.844502 0.020709
Si Si6 0.337780 0.238356 0.748683
Si Si7 0.163965 0.343168 0.747871
Si Si8 0.666248 0.236609 0.520892
O O1 0.816706 0.078290 0.462806
O O2 0.747812 0.102748 0.281937
O O3 0.000000 0.063820 0.319639
O O4 0.766837 0.000000 0.340092
O O5 0.500000 0.580612 0.396008
O O6 0.686017 0.500000 0.439967
O O7 0.753528 0.570754 0.306727
O O8 0.745993 0.600864 0.488466
O O9 0.247368 0.606720 0.132785
O O10 0.208998 0.676114 0.279445
O O11 0.000000 0.605334 0.225296
O O12 0.246825 0.181127 0.491128
O O13 0.000000 0.141789 0.563221
O O14 0.500000 0.846472 0.981549
O O15 0.669538 0.842377 0.134263
O O16 0.746750 0.789628 0.978172
O O17 0.500000 0.252535 0.787324
O O18 0.230388 0.285623 0.790372
O O19 0.336959 0.239839 0.634646
O O20 0.000000 0.346463 0.787670
O O21 0.500000 0.235313 0.480183
#
# Coordination Sequence:
#
# PCOD8189675 Si02
#       8
#     8   8   8   8   8   8   8   8
#     4  10  23  41  58  78 108 150 196 235 275 330
#     4  11  25  42  59  82 112 150 197 241 282 338
#     4  10  21  38  61  88 117 150 187 231 286 341
#     4  10  20  36  59  86 117 151 189 235 285 338
#     4  10  21  38  60  86 116 149 186 233 290 345
#     4   8  16  32  55  83 114 146 180 220 271 337
#     4  10  21  36  58  87 115 145 183 231 284 334
#     4   9  17  32  56  86 117 148 186 230 281 343
#
# _framework density 20.910578000000001
#
# number of rings (size 3 to 8) (size 9 to 14) (size 15 to 20)
#    0.000    2.250    0.000    3.000    0.000    9.250 
#    0.000    5.000    0.000    0.000    0.000    0.000 
#    0.000    0.000    0.000    0.000    0.000    0.000 
#
# Total GULP energy -396872.085887 kJ/mol
# GULP energy per Si atom -12402.252684 kJ/mol
# Density = 2.086298 g / cm^3
# Si number density = 20.910578 Si / 1000 Ang^3
#
#
#
# Elastic Constant Matrix: (Units=GPa)
#
#
# Indices 1 2 3 4 5 6 
#
# 1 140.9409 51.0946 13.9022 0.0003 -0.0001 0.0000
# 2 51.0946 106.9770 -1.0775 0.0002 -0.0002 0.0000
# 3 13.9022 -1.0775 10.2297 0.0012 -0.0005 -0.0002
# 4 0.0003 0.0002 0.0012 31.9047 -0.0002 -0.0001
# 5 -0.0001 -0.0002 -0.0005 -0.0002 29.9489 0.0001
# 6 0.0000 0.0000 -0.0002 -0.0001 0.0001 33.4840
#
#
#
# Elastic Compliance Matrix: (Units=1/GPa)
#
#
# Indices 1 2 3 4 5 6 
#
# 1 0.010395 -0.005113 -0.014666 0.000001 0.000000 0.000000
# 2 -0.005113 0.011872 0.008199 0.000000 0.000000 0.000000
# 3 -0.014666 0.008199 0.118549 -0.000005 0.000002 0.000001
# 4 0.000001 0.000000 -0.000005 0.031343 0.000000 0.000000
# 5 0.000000 0.000000 0.000002 0.000000 0.033390 0.000000
# 6 0.000000 0.000000 0.000001 0.000000 0.000000 0.029865
#
#
# Mechanical properties :
#
#
# Convention : Reuss Voigt Hill
#
# Bulk Modulus (GPa) = 8.49927 42.88736 25.69331
# Shear Modulus (GPa) = 16.79014 32.01608 24.40311
#
# Velocity S-wave (km/s) = 2.83671 3.91717 3.41988
# Velocity P-wave (km/s) = 3.84742 6.40417 5.28280
#
# Compressibility (1/GPa) = 0.11765721
#
# Stress axis : x y z
#
# Youngs Moduli (GPa) = 96.19743 84.22940 8.43532
#
# Poissons Ratio (x) = 0.43064 0.12371
# Poissons Ratio (y) = 0.49183 -0.06916
# Poissons Ratio (z) = 1.41081 -0.69058
#
# Static dielectric constant tensor:
#      x y z
#    x 4.014000 0.000000 0.000000 
#    y 0.000000 3.823160 0.000000 
#    z 0.000000 0.000000 3.509230 
# 
# 
# High freq. dielectric constant tensor:
#      x y z
#    x 1.829370 0.000000 0.000000 
#    y 0.000000 1.815850 0.000000 
#    z 0.000000 0.000000 1.814800 
# 
# From -- ./inp_files/16783.got.cif
#   From: 2010.03.12/outbox.cif.g09.slc.cpg/sg44_9_cif.got.tgz:16783.got - 2010.04.14 02:36:11.
