data_PCOD8189284
_publ_section_title
;
Structure prediction by ZEFSAII (Michael W. Deem and Ramdas Pophale) SiO2 
 PCOD8189284
Probable space group: I M M 2
;
_chemical_formula_sum "Si O2"
_cell_formula_units_Z 64
_cell_length_a 9.627464
_cell_length_b 17.319490
_cell_length_c 21.725029
_cell_angle_alpha 90.000000
_cell_angle_beta 90.000000
_cell_angle_gamma 90.000000
_cell_volume 3622.491437
_symmetry_space_group_name_H-M "I M M 2"
_symmetry_group_IT_number 44
_symmetry_cell_setting 'orthorhombic'
loop_
_space_group_symop_operation_xyz
x,y,z
-x,-y,z
-x,y,z
x,-y,z
1/2+x,1/2+y,1/2+z
1/2-x,1/2-y,1/2+z
1/2-x,1/2+y,1/2+z
1/2+x,1/2-y,1/2+z
loop_
_atom_site_type_symbol
_atom_site_label
_atom_site_fract_x
_atom_site_fract_y
_atom_site_fract_z
Si Si1 0.666239 0.266343 0.735690
Si Si2 0.338427 0.293578 0.351060
Si Si3 0.159403 0.085784 0.533055
Si Si4 0.157190 0.589386 0.425097
Si Si5 0.350427 0.198690 0.469449
Si Si6 0.650871 0.296814 0.134844
Si Si7 0.237190 0.329028 0.547302
Si Si8 0.662141 0.584816 0.663917
O O1 0.500000 0.257181 0.744045
O O2 0.750006 0.239639 0.794853
O O3 0.719495 0.211859 0.680476
O O4 0.711197 0.353603 0.715852
O O5 0.500000 0.312458 0.333917
O O6 0.264278 0.369820 0.378327
O O7 0.330787 0.225375 0.399929
O O8 0.234972 0.134800 0.480804
O O9 0.180608 0.123286 0.599910
O O10 0.000000 0.084729 0.513367
O O11 0.221827 0.000000 0.535707
O O12 0.200417 0.500000 0.427968
O O13 0.158881 0.623787 0.494107
O O14 0.000000 0.599533 0.399997
O O15 0.500000 0.159354 0.478578
O O16 0.348056 0.272661 0.514768
O O17 0.500000 0.301078 0.168738
O O18 0.635472 0.226586 0.086009
O O19 0.307626 0.388530 0.594319
O O20 0.500000 0.576516 0.670592
O O21 0.731243 0.500000 0.675523
#
# Coordination Sequence:
#
# PCOD8189284 Si02
#       8
#     8   8   8   8   8   8   8   8
#     4  10  20  34  53  73  96 129 170 212 249 290
#     4  10  21  37  55  72  95 131 173 210 245 292
#     4   9  18  32  50  74 102 130 162 203 252 302
#     4  10  20  33  51  78 109 135 162 200 244 290
#     4   9  18  31  49  74  99 127 166 207 248 295
#     4   9  17  30  50  73  99 131 166 202 241 293
#     4   9  16  28  49  75 105 136 163 191 234 293
#     4   9  17  29  47  74 105 133 162 200 247 296
#
# _framework density 17.667397000000001
#
# number of rings (size 3 to 8) (size 9 to 14) (size 15 to 20)
#    0.000    2.625    0.000    1.875    0.000    7.500 
#    0.000    1.250    0.000   12.000    0.000    0.000 
#    0.000    0.000    0.000    0.000    0.000    0.000 
#
# Total GULP energy -396517.388344 kJ/mol
# GULP energy per Si atom -12391.168386 kJ/mol
# Density = 1.762719 g / cm^3
# Si number density = 17.667397 Si / 1000 Ang^3
#
#
#
# Elastic Constant Matrix: (Units=GPa)
#
#
# Indices 1 2 3 4 5 6 
#
# 1 100.3189 49.5061 53.7205 0.0000 0.0000 0.0000
# 2 49.5061 120.9874 47.8406 0.0000 0.0000 0.0000
# 3 53.7205 47.8406 93.8556 0.0000 0.0000 0.0000
# 4 0.0000 0.0000 0.0000 8.8613 0.0000 0.0000
# 5 0.0000 0.0000 0.0000 0.0000 26.9407 0.0000
# 6 0.0000 0.0000 0.0000 0.0000 0.0000 22.6103
#
#
#
# Elastic Compliance Matrix: (Units=1/GPa)
#
#
# Indices 1 2 3 4 5 6 
#
# 1 0.015503 -0.003550 -0.007064 0.000000 0.000000 0.000000
# 2 -0.003550 0.011165 -0.003659 0.000000 0.000000 0.000000
# 3 -0.007064 -0.003659 0.016563 0.000000 0.000000 0.000000
# 4 0.000000 0.000000 0.000000 0.112850 0.000000 0.000000
# 5 0.000000 0.000000 0.000000 0.000000 0.037119 0.000000
# 6 0.000000 0.000000 0.000000 0.000000 0.000000 0.044228
#
#
# Mechanical properties :
#
#
# Convention : Reuss Voigt Hill
#
# Bulk Modulus (GPa) = 68.09872 68.58846 68.34359
# Shear Modulus (GPa) = 18.45919 22.62211 20.54065
#
# Velocity S-wave (km/s) = 3.23587 3.58221 3.41344
# Velocity P-wave (km/s) = 7.25187 7.48438 7.36904
#
# Compressibility (1/GPa) = 0.01468456
#
# Stress axis : x y z
#
# Youngs Moduli (GPa) = 64.50410 89.56658 60.37635
#
# Poissons Ratio (x) = 0.31800 0.42648
# Poissons Ratio (y) = 0.22902 0.22091
# Poissons Ratio (z) = 0.45564 0.32771
#
# Static dielectric constant tensor:
#      x y z
#    x 3.319930 0.000000 0.000000 
#    y 0.000000 3.513490 0.000000 
#    z 0.000000 0.000000 3.181640 
# 
# 
# High freq. dielectric constant tensor:
#      x y z
#    x 1.684730 0.000000 0.000000 
#    y 0.000000 1.678320 0.000000 
#    z 0.000000 0.000000 1.669100 
# 
# From -- ./inp_files/23283.got.cif
#   From: 2010.03.12/outbox.cif.g09.slc.cpg/sg44_12_cif.got.tgz:23283.got - 2010.04.14 02:36:11.
