data_PCOD8189485
_publ_section_title
;
Structure prediction by ZEFSAII (Michael W. Deem and Ramdas Pophale) SiO2 
 PCOD8189485
Probable space group: I M M 2
;
_chemical_formula_sum "Si O2"
_cell_formula_units_Z 48
_cell_length_a 13.245192
_cell_length_b 18.584856
_cell_length_c 8.706527
_cell_angle_alpha 90.000000
_cell_angle_beta 90.000000
_cell_angle_gamma 90.000000
_cell_volume 2143.198565
_symmetry_space_group_name_H-M "I M M 2"
_symmetry_group_IT_number 44
_symmetry_cell_setting 'orthorhombic'
loop_
_space_group_symop_operation_xyz
x,y,z
-x,-y,z
-x,y,z
x,-y,z
1/2+x,1/2+y,1/2+z
1/2-x,1/2-y,1/2+z
1/2-x,1/2+y,1/2+z
1/2+x,1/2-y,1/2+z
loop_
_atom_site_type_symbol
_atom_site_label
_atom_site_fract_x
_atom_site_fract_y
_atom_site_fract_z
Si Si1 0.293418 0.416339 0.294880
Si Si2 0.379976 0.917886 0.327053
Si Si3 0.255571 0.185058 0.543438
Si Si4 0.391583 0.084238 0.989323
Si Si5 0.620983 0.718937 0.776190
Si Si6 0.383754 0.422251 0.611148
O O1 0.304611 0.500000 0.248124
O O2 0.179594 0.395746 0.347838
O O3 0.365384 0.396083 0.436529
O O4 0.316072 0.365195 0.150616
O O5 0.500000 0.908410 0.334566
O O6 0.328520 0.865124 0.445744
O O7 0.343455 0.894653 0.154698
O O8 0.350252 0.000000 0.367395
O O9 0.329510 0.234956 0.641287
O O10 0.178443 0.232700 0.438713
O O11 0.500000 0.122859 0.961235
O O12 0.409891 0.000000 0.996118
O O13 0.500000 0.732590 0.786813
O O14 0.647899 0.635850 0.737552
O O15 0.500000 0.436131 0.629267
O O16 0.327265 0.500000 0.638109
#
# Coordination Sequence:
#
# PCOD8189485 Si02
#       6
#     8   8   8   8   8   8
#     4  10  20  34  58  91 121 152 194 243 297 361
#     4   9  18  34  60  95 130 163 202 250 308 375
#     4  12  24  41  61  86 122 167 208 257 316 371
#     4   8  15  29  50  80 119 157 190 229 283 350
#     4  11  26  45  64  90 123 162 211 261 312 374
#     4   9  19  39  65  89 116 152 195 245 299 357
#
# _framework density 22.396431
#
# number of rings (size 3 to 8) (size 9 to 14) (size 15 to 20)
#    0.000    2.167    0.000    4.000    0.000    4.667 
#    0.000    5.000    0.000    0.000    0.000    0.000 
#    0.000    0.000    0.000    0.000    0.000    0.000 
#
# Total GULP energy -297443.613427 kJ/mol
# GULP energy per Si atom -12393.483893 kJ/mol
# Density = 2.234546 g / cm^3
# Si number density = 22.396431 Si / 1000 Ang^3
#
#
#
# Elastic Constant Matrix: (Units=GPa)
#
#
# Indices 1 2 3 4 5 6 
#
# 1 69.2945 35.0949 33.4516 0.0000 0.0000 0.0000
# 2 35.0949 62.2846 44.9460 0.0000 0.0000 0.0000
# 3 33.4516 44.9460 111.5519 -0.0002 0.0000 0.0000
# 4 0.0000 0.0000 -0.0002 148.2851 0.0001 0.0000
# 5 0.0000 0.0000 0.0000 0.0001 47.3238 0.0000
# 6 0.0000 0.0000 0.0000 0.0000 0.0000 19.2398
#
#
#
# Elastic Compliance Matrix: (Units=1/GPa)
#
#
# Indices 1 2 3 4 5 6 
#
# 1 0.020540 -0.010051 -0.002110 0.000000 0.000000 0.000000
# 2 -0.010051 0.027556 -0.008088 0.000000 0.000000 0.000000
# 3 -0.002110 -0.008088 0.012856 0.000000 0.000000 0.000000
# 4 0.000000 0.000000 0.000000 0.006744 0.000000 0.000000
# 5 0.000000 0.000000 0.000000 0.000000 0.021131 0.000000
# 6 0.000000 0.000000 0.000000 0.000000 0.000000 0.051976
#
#
# Mechanical properties :
#
#
# Convention : Reuss Voigt Hill
#
# Bulk Modulus (GPa) = 48.89232 52.23511 50.56372
# Shear Modulus (GPa) = 26.57901 51.61231 39.09566
#
# Velocity S-wave (km/s) = 3.44866 4.80572 4.18259
# Velocity P-wave (km/s) = 6.14292 7.35981 6.77873
#
# Compressibility (1/GPa) = 0.02045311
#
# Stress axis : x y z
#
# Youngs Moduli (GPa) = 48.68526 36.29036 77.78435
#
# Poissons Ratio (x) = 0.36476 0.16410
# Poissons Ratio (y) = 0.48934 0.62916
# Poissons Ratio (z) = 0.10271 0.29353
#
# Static dielectric constant tensor:
#      x y z
#    x 3.631810 0.000000 0.000000 
#    y 0.000000 -1.956570 0.000000 
#    z 0.000000 0.000000 4.119620 
# 
# 
# High freq. dielectric constant tensor:
#      x y z
#    x 1.886820 0.000000 0.000000 
#    y 0.000000 1.880720 0.000000 
#    z 0.000000 0.000000 1.876100 
# 
# From -- ./inp_files/7118.got.cif
#   From: 2010.03.12/outbox.cif.g09.slc.cpg/sg44_4_cif.got.tgz:7118.got - 2010.04.14 02:36:11.
