data_PCOD8189222
_publ_section_title
;
Structure prediction by ZEFSAII (Michael W. Deem and Ramdas Pophale) SiO2 
 PCOD8189222
Probable space group: I M M 2
;
_chemical_formula_sum "Si O2"
_cell_formula_units_Z 64
_cell_length_a 9.425533
_cell_length_b 9.152099
_cell_length_c 41.731507
_cell_angle_alpha 90.000000
_cell_angle_beta 90.000000
_cell_angle_gamma 90.000000
_cell_volume 3599.902146
_symmetry_space_group_name_H-M "I M M 2"
_symmetry_group_IT_number 44
_symmetry_cell_setting 'orthorhombic'
loop_
_space_group_symop_operation_xyz
x,y,z
-x,-y,z
-x,y,z
x,-y,z
1/2+x,1/2+y,1/2+z
1/2-x,1/2-y,1/2+z
1/2-x,1/2+y,1/2+z
1/2+x,1/2-y,1/2+z
loop_
_atom_site_type_symbol
_atom_site_label
_atom_site_fract_x
_atom_site_fract_y
_atom_site_fract_z
Si Si1 0.165376 0.331162 0.807250
Si Si2 0.665049 0.169806 0.557117
Si Si3 0.164171 0.830584 0.495373
Si Si4 0.834590 0.670789 0.182606
Si Si5 0.168673 0.164852 0.119625
Si Si6 0.167812 0.329450 0.876504
Si Si7 0.332249 0.171102 0.237851
Si Si8 0.663898 0.828913 0.931495
O O1 0.200906 0.500000 0.807467
O O2 0.222822 0.269669 0.841375
O O3 0.222686 0.270677 0.773077
O O4 0.000000 0.303655 0.807156
O O5 0.500000 0.201612 0.551406
O O6 0.747773 0.225197 0.525859
O O7 0.725750 0.257818 0.587533
O O8 0.693845 0.000000 0.563786
O O9 0.217355 0.741679 0.464582
O O10 0.000000 0.800153 0.502616
O O11 0.194266 0.000000 0.488485
O O12 0.805378 0.500000 0.179027
O O13 0.775800 0.748417 0.150623
O O14 0.749706 0.732393 0.212491
O O15 0.000000 0.704685 0.187824
O O16 0.000000 0.168217 0.119218
O O17 0.227393 0.000000 0.120992
O O18 0.205854 0.500000 0.880873
O O19 0.246113 0.234382 0.902626
O O20 0.000000 0.306391 0.879961
O O21 0.500000 0.195926 0.234085
O O22 0.295967 0.000000 0.233246
O O23 0.500000 0.789432 0.925565
O O24 0.690036 0.000000 0.933716
#
# Coordination Sequence:
#
# PCOD8189222 Si02
#       8
#     8   8   8   8   8   8   8   8
#     4   7  12  26  48  72  96 122 154 195 242 289
#     4   9  17  30  49  72  95 118 149 192 239 286
#     4   9  18  33  51  69  92 125 161 194 233 283
#     4  10  20  33  49  70  98 132 167 201 239 284
#     4   9  17  30  49  71  94 123 159 197 238 283
#     4   9  17  31  53  77  97 121 159 204 245 287
#     4   9  17  31  52  75  98 125 159 200 245 291
#     4  10  21  35  49  68  98 134 166 197 239 288
#
# _framework density 17.778261000000001
#
# number of rings (size 3 to 8) (size 9 to 14) (size 15 to 20)
#    0.000    3.000    0.000    2.625    0.000    4.500 
#    0.000    3.125    0.000    8.250    0.000    0.000 
#    0.000    0.000    0.000    0.000    0.000    0.000 
#
# Total GULP energy -396572.612174 kJ/mol
# GULP energy per Si atom -12392.894130 kJ/mol
# Density = 1.773780 g / cm^3
# Si number density = 17.778261 Si / 1000 Ang^3
#
#
#
# Elastic Constant Matrix: (Units=GPa)
#
#
# Indices 1 2 3 4 5 6 
#
# 1 38.7690 32.9901 56.0018 0.0000 0.0000 0.0000
# 2 32.9901 80.6995 76.9748 0.0000 0.0000 0.0000
# 3 56.0018 76.9748 203.5191 0.0000 0.0000 0.0000
# 4 0.0000 0.0000 0.0000 30.0475 0.0000 0.0000
# 5 0.0000 0.0000 0.0000 0.0000 30.2122 0.0000
# 6 0.0000 0.0000 0.0000 0.0000 0.0000 22.3512
#
#
#
# Elastic Compliance Matrix: (Units=1/GPa)
#
#
# Indices 1 2 3 4 5 6 
#
# 1 0.048413 -0.011083 -0.009130 0.000000 0.000000 0.000000
# 2 -0.011083 0.021922 -0.005242 0.000000 0.000000 0.000000
# 3 -0.009130 -0.005242 0.009408 0.000000 0.000000 0.000000
# 4 0.000000 0.000000 0.000000 0.033281 0.000000 0.000000
# 5 0.000000 0.000000 0.000000 0.000000 0.033099 0.000000
# 6 0.000000 0.000000 0.000000 0.000000 0.000000 0.044740
#
#
# Mechanical properties :
#
#
# Convention : Reuss Voigt Hill
#
# Bulk Modulus (GPa) = 34.68076 72.76899 53.72487
# Shear Modulus (GPa) = 19.88993 26.99024 23.44009
#
# Velocity S-wave (km/s) = 3.34844 3.90058 3.63501
# Velocity P-wave (km/s) = 5.87360 7.82984 6.92118
#
# Compressibility (1/GPa) = 0.02883443
#
# Stress axis : x y z
#
# Youngs Moduli (GPa) = 20.65573 45.61613 106.28872
#
# Poissons Ratio (x) = 0.50555 0.97041
# Poissons Ratio (y) = 0.22892 0.55714
# Poissons Ratio (z) = 0.18859 0.23911
#
# Static dielectric constant tensor:
#      x y z
#    x 2.981640 0.000000 0.000000 
#    y 0.000000 3.177740 0.000000 
#    z 0.000000 0.000000 3.703470 
# 
# 
# High freq. dielectric constant tensor:
#      x y z
#    x 1.652550 0.000000 0.000000 
#    y 0.000000 1.673580 0.000000 
#    z 0.000000 0.000000 1.711660 
# 
# From -- ./inp_files/27451.got.cif
#   From: 2010.03.12/outbox.cif.g09.slc.cpg/sg44_14_cif.got.tgz:27451.got - 2010.04.14 02:36:11.
