data_PCOD8189555
_publ_section_title
;
Structure prediction by ZEFSAII (Michael W. Deem and Ramdas Pophale) SiO2 
 PCOD8189555
Probable space group: I M M 2
;
_chemical_formula_sum "Si O2"
_cell_formula_units_Z 64
_cell_length_a 30.547406
_cell_length_b 9.292649
_cell_length_c 11.981027
_cell_angle_alpha 90.000000
_cell_angle_beta 90.000000
_cell_angle_gamma 90.000000
_cell_volume 3401.010066
_symmetry_space_group_name_H-M "I M M 2"
_symmetry_group_IT_number 44
_symmetry_cell_setting 'orthorhombic'
loop_
_space_group_symop_operation_xyz
x,y,z
-x,-y,z
-x,y,z
x,-y,z
1/2+x,1/2+y,1/2+z
1/2-x,1/2-y,1/2+z
1/2-x,1/2+y,1/2+z
1/2+x,1/2-y,1/2+z
loop_
_atom_site_type_symbol
_atom_site_label
_atom_site_fract_x
_atom_site_fract_y
_atom_site_fract_z
Si Si1 0.205001 0.832376 0.991150
Si Si2 0.951913 0.835900 0.990229
Si Si3 0.827946 0.664003 0.195637
Si Si4 0.695752 0.168081 0.940026
Si Si5 0.626133 0.329219 0.338344
Si Si6 0.570760 0.165325 0.700337
Si Si7 0.549893 0.334443 0.923199
Si Si8 0.372509 0.330373 0.086554
O O1 0.253057 0.797631 0.947171
O O2 0.170041 0.773991 0.900352
O O3 0.197326 0.000000 0.011594
O O4 0.199775 0.756022 0.109357
O O5 0.955249 0.745650 0.103604
O O6 0.000000 0.829168 0.933511
O O7 0.939366 0.000000 0.021343
O O8 0.916362 0.770672 0.904755
O O9 0.811768 0.500000 0.186803
O O10 0.819546 0.723392 0.319413
O O11 0.878696 0.680105 0.168732
O O12 0.685485 0.000000 0.956568
O O13 0.669345 0.255385 0.032209
O O14 0.624874 0.500000 0.334029
O O15 0.624324 0.269425 0.212511
O O16 0.560014 0.235114 0.818419
O O17 0.555865 0.000000 0.706011
O O18 0.500000 0.310203 0.964141
O O19 0.557507 0.500000 0.888156
O O20 0.582437 0.290429 0.023402
O O21 0.363970 0.500000 0.084883
#
# Coordination Sequence:
#
# PCOD8189555 Si02
#       8
#     8   8   8   8   8   8   8   8
#     4  10  21  37  59  82 109 145 182 224 274 326
#     4  10  20  35  57  82 109 143 181 226 277 327
#     4  10  21  37  58  82 112 145 179 226 276 322
#     4  10  22  39  57  82 114 146 181 226 277 327
#     4   9  19  36  56  80 108 140 180 224 271 324
#     4  11  21  35  56  82 112 147 182 222 277 333
#     4  10  21  36  55  82 113 144 183 231 277 324
#     4  10  21  37  59  82 108 146 187 228 273 325
#
# _framework density 18.817938999999999
#
# number of rings (size 3 to 8) (size 9 to 14) (size 15 to 20)
#    0.000    2.000    2.500    0.750    1.750    4.000 
#    0.000    3.750    0.000    0.000    0.000    1.750 
#    0.000    0.000    0.000    0.000    0.000    0.000 
#
# Total GULP energy -396866.764434 kJ/mol
# GULP energy per Si atom -12402.086389 kJ/mol
# Density = 1.877511 g / cm^3
# Si number density = 18.817939 Si / 1000 Ang^3
#
#
#
# Elastic Constant Matrix: (Units=GPa)
#
#
# Indices 1 2 3 4 5 6 
#
# 1 111.4883 38.2775 56.1557 0.0000 0.0000 0.0000
# 2 38.2775 53.8596 44.3801 0.0000 0.0000 0.0000
# 3 56.1557 44.3801 145.5083 0.0000 0.0000 0.0000
# 4 0.0000 0.0000 0.0000 20.1524 0.0000 0.0000
# 5 0.0000 0.0000 0.0000 0.0000 24.4560 0.0000
# 6 0.0000 0.0000 0.0000 0.0000 0.0000 22.5847
#
#
#
# Elastic Compliance Matrix: (Units=1/GPa)
#
#
# Indices 1 2 3 4 5 6 
#
# 1 0.012703 -0.006663 -0.002870 0.000000 0.000000 0.000000
# 2 -0.006663 0.028294 -0.006058 0.000000 0.000000 0.000000
# 3 -0.002870 -0.006058 0.009828 0.000000 0.000000 0.000000
# 4 0.000000 0.000000 0.000000 0.049622 0.000000 0.000000
# 5 0.000000 0.000000 0.000000 0.000000 0.040890 0.000000
# 6 0.000000 0.000000 0.000000 0.000000 0.000000 0.044278
#
#
# Mechanical properties :
#
#
# Convention : Reuss Voigt Hill
#
# Bulk Modulus (GPa) = 50.91089 65.38699 58.14894
# Shear Modulus (GPa) = 22.38698 24.90814 23.64756
#
# Velocity S-wave (km/s) = 3.45289 3.64213 3.54877
# Velocity P-wave (km/s) = 6.55818 7.24634 6.91083
#
# Compressibility (1/GPa) = 0.01964216
#
# Stress axis : x y z
#
# Youngs Moduli (GPa) = 78.72296 35.34321 101.75050
#
# Poissons Ratio (x) = 0.23548 0.29205
# Poissons Ratio (y) = 0.52451 0.61644
# Poissons Ratio (z) = 0.22595 0.21412
#
# Static dielectric constant tensor:
#      x y z
#    x 3.619670 0.000000 0.000000 
#    y 0.000000 3.280750 0.000000 
#    z 0.000000 0.000000 3.525670 
# 
# 
# High freq. dielectric constant tensor:
#      x y z
#    x 1.745880 0.000000 0.000000 
#    y 0.000000 1.709800 0.000000 
#    z 0.000000 0.000000 1.730900 
# 
# From -- ./inp_files/11450.got.cif
#   From: 2010.03.12/outbox.cif.g09.slc.cpg/sg44_6_cif.got.tgz:11450.got - 2010.04.14 02:36:11.
