data_PCOD8189294
_publ_section_title
;
Structure prediction by ZEFSAII (Michael W. Deem and Ramdas Pophale) SiO2 
 PCOD8189294
Probable space group: I M M 2
;
_chemical_formula_sum "Si O2"
_cell_formula_units_Z 64
_cell_length_a 8.991690
_cell_length_b 29.043015
_cell_length_c 13.327595
_cell_angle_alpha 90.000000
_cell_angle_beta 90.000000
_cell_angle_gamma 90.000000
_cell_volume 3480.445292
_symmetry_space_group_name_H-M "I M M 2"
_symmetry_group_IT_number 44
_symmetry_cell_setting 'orthorhombic'
loop_
_space_group_symop_operation_xyz
x,y,z
-x,-y,z
-x,y,z
x,-y,z
1/2+x,1/2+y,1/2+z
1/2-x,1/2-y,1/2+z
1/2-x,1/2+y,1/2+z
1/2+x,1/2-y,1/2+z
loop_
_atom_site_type_symbol
_atom_site_label
_atom_site_fract_x
_atom_site_fract_y
_atom_site_fract_z
Si Si1 0.162753 0.292463 0.001530
Si Si2 0.676700 0.948729 0.903698
Si Si3 0.171014 0.103489 0.309313
Si Si4 0.670007 0.945732 0.127378
Si Si5 0.174271 0.787422 0.697363
Si Si6 0.338860 0.101697 0.504605
Si Si7 0.327813 0.711680 0.812193
Si Si8 0.177895 0.381698 0.227088
O O1 0.296214 0.289881 0.079915
O O2 0.000000 0.270824 0.031077
O O3 0.135677 0.345477 0.978588
O O4 0.229602 0.268340 0.903739
O O5 0.500000 0.950574 0.902306
O O6 0.733928 0.915060 0.815910
O O7 0.739739 0.000000 0.882180
O O8 0.727409 0.931996 0.014987
O O9 0.236404 0.079578 0.211555
O O10 0.236427 0.082644 0.414120
O O11 0.197904 0.157724 0.295075
O O12 0.000000 0.090930 0.314142
O O13 0.500000 0.930253 0.140546
O O14 0.687010 0.000000 0.141543
O O15 0.263050 0.740800 0.721216
O O16 0.244731 0.832717 0.749249
O O17 0.000000 0.784211 0.721691
O O18 0.500000 0.076378 0.500553
O O19 0.272039 0.097120 0.618366
O O20 0.500000 0.722802 0.830084
O O21 0.000000 0.374245 0.225702
#
# Coordination Sequence:
#
# PCOD8189294 Si02
#       8
#     8   8   8   8   8   8   8   8
#     4   9  17  32  52  72  96 129 169 213 259 311
#     4   8  15  31  56  82 105 134 174 218 265 316
#     4  10  20  33  52  76 102 135 173 217 264 311
#     4   9  18  34  56  79 104 137 176 217 261 315
#     4  11  21  33  50  74 103 140 179 215 259 313
#     4   8  15  28  49  74 100 132 165 202 252 309
#     4  10  20  35  52  73 102 137 175 217 265 317
#     4   9  17  32  54  78 105 136 172 218 268 316
#
# _framework density 18.388452999999998
#
# number of rings (size 3 to 8) (size 9 to 14) (size 15 to 20)
#    0.000    2.750    0.000    3.750    0.000    4.750 
#    2.250    1.250    0.000    3.375    0.000    0.000 
#    0.000    0.000    0.000    0.000    0.000    0.000 
#
# Total GULP energy -396438.134780 kJ/mol
# GULP energy per Si atom -12388.691712 kJ/mol
# Density = 1.834660 g / cm^3
# Si number density = 18.388453 Si / 1000 Ang^3
#
#
#
# Elastic Constant Matrix: (Units=GPa)
#
#
# Indices 1 2 3 4 5 6 
#
# 1 85.8740 35.6728 55.2519 0.0000 0.0001 0.0000
# 2 35.6728 42.5737 44.9231 0.0004 0.0000 0.0000
# 3 55.2519 44.9231 128.6196 0.0013 0.0003 -0.0001
# 4 0.0000 0.0004 0.0013 15.3626 0.0001 0.0000
# 5 0.0001 0.0000 0.0003 0.0001 21.9657 0.0001
# 6 0.0000 0.0000 -0.0001 0.0000 0.0001 21.2159
#
#
#
# Elastic Compliance Matrix: (Units=1/GPa)
#
#
# Indices 1 2 3 4 5 6 
#
# 1 0.019170 -0.011677 -0.004157 0.000001 0.000000 0.000000
# 2 -0.011677 0.044310 -0.010460 0.000000 0.000000 0.000000
# 3 -0.004157 -0.010460 0.013214 -0.000001 0.000000 0.000000
# 4 0.000001 0.000000 -0.000001 0.065093 0.000000 0.000000
# 5 0.000000 0.000000 0.000000 0.000000 0.045525 0.000000
# 6 0.000000 0.000000 0.000000 0.000000 0.000000 0.047134
#
#
# Mechanical properties :
#
#
# Convention : Reuss Voigt Hill
#
# Bulk Modulus (GPa) = 41.48177 58.75141 50.11659
# Shear Modulus (GPa) = 16.94515 19.79014 18.36764
#
# Velocity S-wave (km/s) = 3.03893 3.28415 3.16392
# Velocity P-wave (km/s) = 5.90940 6.81178 6.37657
#
# Compressibility (1/GPa) = 0.02410698
#
# Stress axis : x y z
#
# Youngs Moduli (GPa) = 52.16498 22.56825 75.67773
#
# Poissons Ratio (x) = 0.26352 0.31457
# Poissons Ratio (y) = 0.60911 0.79161
# Poissons Ratio (z) = 0.21683 0.23607
#
# Static dielectric constant tensor:
#      x y z
#    x 3.420550 0.000000 0.000000 
#    y 0.000000 3.211080 0.000000 
#    z 0.000000 0.000000 3.552250 
# 
# 
# High freq. dielectric constant tensor:
#      x y z
#    x 1.703370 0.000000 0.000000 
#    y 0.000000 1.680270 0.000000 
#    z 0.000000 0.000000 1.722860 
# 
# From -- ./inp_files/11417.got.cif
#   From: 2010.03.12/outbox.cif.g09.slc.cpg/sg44_6_cif.got.tgz:11417.got - 2010.04.14 02:36:11.
