data_PCOD8189416
_publ_section_title
;
Structure prediction by ZEFSAII (Michael W. Deem and Ramdas Pophale) SiO2 
 PCOD8189416
Probable space group: I M M 2
;
_chemical_formula_sum "Si O2"
_cell_formula_units_Z 64
_cell_length_a 8.720267
_cell_length_b 19.299862
_cell_length_c 20.635704
_cell_angle_alpha 90.000000
_cell_angle_beta 90.000000
_cell_angle_gamma 90.000000
_cell_volume 3472.987945
_symmetry_space_group_name_H-M "I M M 2"
_symmetry_group_IT_number 44
_symmetry_cell_setting 'orthorhombic'
loop_
_space_group_symop_operation_xyz
x,y,z
-x,-y,z
-x,y,z
x,-y,z
1/2+x,1/2+y,1/2+z
1/2-x,1/2-y,1/2+z
1/2-x,1/2+y,1/2+z
1/2+x,1/2-y,1/2+z
loop_
_atom_site_type_symbol
_atom_site_label
_atom_site_fract_x
_atom_site_fract_y
_atom_site_fract_z
Si Si1 0.321186 0.421425 0.016580
Si Si2 0.677296 0.422071 0.480354
Si Si3 0.178831 0.710173 0.683667
Si Si4 0.678793 0.297192 0.815367
Si Si5 0.823454 0.421730 0.879482
Si Si6 0.320668 0.789112 0.564088
Si Si7 0.823512 0.078400 0.131761
Si Si8 0.177911 0.286481 0.442931
O O1 0.500000 0.406020 0.025607
O O2 0.278895 0.500000 0.036355
O O3 0.224912 0.370057 0.062088
O O4 0.280053 0.407277 0.942130
O O5 0.500000 0.411489 0.462500
O O6 0.729535 0.500000 0.462020
O O7 0.703824 0.408443 0.556058
O O8 0.779277 0.367713 0.440432
O O9 0.264043 0.736660 0.748398
O O10 0.233262 0.755179 0.623493
O O11 0.216042 0.629333 0.672200
O O12 0.000000 0.720245 0.693505
O O13 0.500000 0.313246 0.811833
O O14 0.768562 0.369700 0.823893
O O15 0.719149 0.244603 0.873097
O O16 0.799682 0.500000 0.854106
O O17 0.000000 0.408156 0.898120
O O18 0.500000 0.780407 0.575630
O O19 0.276430 0.752506 0.497011
O O20 0.000000 0.093608 0.149266
O O21 0.779175 0.000000 0.150270
O O22 0.000000 0.277003 0.459986
#
# Coordination Sequence:
#
# PCOD8189416 Si02
#       8
#     8   8   8   8   8   8   8   8
#     4  10  20  35  57  86 118 149 186 234 285 335
#     4   9  18  33  56  85 115 148 185 226 277 336
#     4  12  25  39  57  82 114 149 194 241 287 341
#     4  11  24  40  57  79 114 154 193 236 287 342
#     4  10  20  34  54  82 115 152 194 234 277 334
#     4  12  23  37  60  85 115 151 190 234 284 340
#     4   9  18  34  55  80 113 152 190 226 274 337
#     4  11  22  36  58  87 114 146 190 237 283 333
#
# _framework density 18.427935999999999
#
# number of rings (size 3 to 8) (size 9 to 14) (size 15 to 20)
#    0.000    1.500    2.500    4.500    0.000    4.000 
#    0.000    1.250    0.000    0.750    0.000    3.500 
#    0.000    0.000    0.000    0.000    0.000    0.000 
#
# Total GULP energy -396927.697680 kJ/mol
# GULP energy per Si atom -12403.990553 kJ/mol
# Density = 1.838599 g / cm^3
# Si number density = 18.427936 Si / 1000 Ang^3
#
#
#
# Elastic Constant Matrix: (Units=GPa)
#
#
# Indices 1 2 3 4 5 6 
#
# 1 70.5643 31.9376 24.1381 0.0000 0.0000 0.0000
# 2 31.9376 99.9795 41.5631 0.0000 0.0000 0.0000
# 3 24.1381 41.5631 83.4385 0.0000 0.0000 0.0000
# 4 0.0000 0.0000 0.0000 20.5622 0.0000 0.0000
# 5 0.0000 0.0000 0.0000 0.0000 29.4058 0.0000
# 6 0.0000 0.0000 0.0000 0.0000 0.0000 29.5263
#
#
#
# Elastic Compliance Matrix: (Units=1/GPa)
#
#
# Indices 1 2 3 4 5 6 
#
# 1 0.017071 -0.004288 -0.002802 0.000000 0.000000 0.000000
# 2 -0.004288 0.013691 -0.005580 0.000000 0.000000 0.000000
# 3 -0.002802 -0.005580 0.015575 0.000000 0.000000 0.000000
# 4 0.000000 0.000000 0.000000 0.048633 0.000000 0.000000
# 5 0.000000 0.000000 0.000000 0.000000 0.034007 0.000000
# 6 0.000000 0.000000 0.000000 0.000000 0.000000 0.033868
#
#
# Mechanical properties :
#
#
# Convention : Reuss Voigt Hill
#
# Bulk Modulus (GPa) = 47.62587 49.91777 48.77182
# Shear Modulus (GPa) = 25.61679 26.32175 25.96927
#
# Velocity S-wave (km/s) = 3.73246 3.78347 3.75805
# Velocity P-wave (km/s) = 6.66899 6.79949 6.73456
#
# Compressibility (1/GPa) = 0.02099699
#
# Stress axis : x y z
#
# Youngs Moduli (GPa) = 58.57907 73.03870 64.20579
#
# Poissons Ratio (x) = 0.31320 0.17993
# Poissons Ratio (y) = 0.25120 0.35824
# Poissons Ratio (z) = 0.16416 0.40752
#
# Static dielectric constant tensor:
#      x y z
#    x 3.406040 0.000000 0.000000 
#    y 0.000000 3.588970 0.000000 
#    z 0.000000 0.000000 3.186970 
# 
# 
# High freq. dielectric constant tensor:
#      x y z
#    x 1.723740 0.000000 0.000000 
#    y 0.000000 1.719330 0.000000 
#    z 0.000000 0.000000 1.688770 
# 
# From -- ./inp_files/23312.got.cif
#   From: 2010.03.12/outbox.cif.g09.slc.cpg/sg44_12_cif.got.tgz:23312.got - 2010.04.14 02:36:11.
