data_PCOD8189205
_publ_section_title
;
Structure prediction by ZEFSAII (Michael W. Deem and Ramdas Pophale) SiO2 
 PCOD8189205
Probable space group: I M M 2
;
_chemical_formula_sum "Si O2"
_cell_formula_units_Z 44
_cell_length_a 27.508198
_cell_length_b 8.317873
_cell_length_c 9.171408
_cell_angle_alpha 90.000000
_cell_angle_beta 90.000000
_cell_angle_gamma 90.000000
_cell_volume 2098.507089
_symmetry_space_group_name_H-M "I M M 2"
_symmetry_group_IT_number 44
_symmetry_cell_setting 'orthorhombic'
loop_
_space_group_symop_operation_xyz
x,y,z
-x,-y,z
-x,y,z
x,-y,z
1/2+x,1/2+y,1/2+z
1/2-x,1/2-y,1/2+z
1/2-x,1/2+y,1/2+z
1/2+x,1/2-y,1/2+z
loop_
_atom_site_type_symbol
_atom_site_label
_atom_site_fract_x
_atom_site_fract_y
_atom_site_fract_z
Si Si1 0.000000 0.755272 0.231140
Si Si2 0.500000 0.500000 0.988086
Si Si3 0.079315 0.000000 0.731593
Si Si4 0.603709 0.173888 0.802607
Si Si5 0.196007 0.182717 0.198179
Si Si6 0.372030 0.186892 0.126441
Si Si7 0.276729 0.684235 0.019764
Si Si8 0.500000 0.500000 0.475640
O O1 0.049931 0.656285 0.235248
O O2 0.000000 0.850641 0.381256
O O3 0.000000 0.846964 0.079275
O O4 0.547356 0.500000 0.086843
O O5 0.109380 0.829984 0.734160
O O6 0.047986 0.000000 0.877904
O O7 0.637731 0.290607 0.706144
O O8 0.628875 0.000000 0.794439
O O9 0.602512 0.226942 0.971495
O O10 0.221653 0.288935 0.073693
O O11 0.220454 0.232529 0.350908
O O12 0.205593 0.000000 0.156396
O O13 0.313789 0.204650 0.111839
O O14 0.383667 0.000000 0.177112
O O15 0.292874 0.500000 0.039110
#
# Coordination Sequence:
#
# PCOD8189205 Si02
#       8
#     4   2   4   8   8   8   8   2
#     4  11  21  40  61  89 119 160 199 258 307 367
#     4  10  20  32  70  84 118 150 204 252 310 348
#     4  11  20  44  60  98 120 166 204 257 308 366
#     4  10  21  37  63  94 117 153 211 264 309 360
#     4  10  22  37  59  89 122 159 202 251 305 366
#     4  10  20  36  66  96 121 156 209 263 306 361
#     4  10  20  38  60  88 125 162 200 251 306 362
#     4  10  28  40  60  90 132 162 206 246 318 386
#
# _framework density 20.967286000000001
#
# number of rings (size 3 to 8) (size 9 to 14) (size 15 to 20)
#    0.000    1.818    2.727    1.364    3.818    2.182 
#    3.273    3.636    0.000    0.000    0.000    0.000 
#    0.000    0.000    0.000    0.000    0.000    0.000 
#
# Total GULP energy -272634.707894 kJ/mol
# GULP energy per Si atom -12392.486722 kJ/mol
# Density = 2.091956 g / cm^3
# Si number density = 20.967286 Si / 1000 Ang^3
#
#
#
# Elastic Constant Matrix: (Units=GPa)
#
#
# Indices 1 2 3 4 5 6 
#
# 1 110.4320 23.4628 28.9728 0.0000 0.0000 0.0000
# 2 23.4628 93.0374 17.5221 0.0000 0.0000 0.0000
# 3 28.9728 17.5221 56.7292 0.0000 0.0000 0.0000
# 4 0.0000 0.0000 0.0000 22.3279 0.0000 0.0000
# 5 0.0000 0.0000 0.0000 0.0000 28.3253 0.0000
# 6 0.0000 0.0000 0.0000 0.0000 0.0000 32.2499
#
#
#
# Elastic Compliance Matrix: (Units=1/GPa)
#
#
# Indices 1 2 3 4 5 6 
#
# 1 0.010726 -0.001777 -0.004929 0.000000 0.000000 0.000000
# 2 -0.001777 0.011707 -0.002708 0.000000 0.000000 0.000000
# 3 -0.004929 -0.002708 0.020982 0.000000 0.000000 0.000000
# 4 0.000000 0.000000 0.000000 0.044787 0.000000 0.000000
# 5 0.000000 0.000000 0.000000 0.000000 0.035304 0.000000
# 6 0.000000 0.000000 0.000000 0.000000 0.000000 0.031008
#
#
# Mechanical properties :
#
#
# Convention : Reuss Voigt Hill
#
# Bulk Modulus (GPa) = 40.67438 44.45712 42.56575
# Shear Modulus (GPa) = 27.54259 29.26335 28.40297
#
# Velocity S-wave (km/s) = 3.62829 3.73992 3.68453
# Velocity P-wave (km/s) = 6.08225 6.31652 6.20049
#
# Compressibility (1/GPa) = 0.02458550
#
# Stress axis : x y z
#
# Youngs Moduli (GPa) = 93.23090 85.42262 47.66063
#
# Poissons Ratio (x) = 0.15176 0.23493
# Poissons Ratio (y) = 0.16564 0.12909
# Poissons Ratio (z) = 0.45956 0.23136
#
# Static dielectric constant tensor:
#      x y z
#    x 3.739670 0.000000 0.000000 
#    y 0.000000 3.741690 0.000000 
#    z 0.000000 0.000000 3.461010 
# 
# 
# High freq. dielectric constant tensor:
#      x y z
#    x 1.821960 0.000000 0.000000 
#    y 0.000000 1.828160 0.000000 
#    z 0.000000 0.000000 1.789090 
# 
# From -- ./inp_files/9956.got.cif
#   From: 2010.03.12/outbox.cif.g09.slc.cpg/sg44_5_cif.got.tgz:9956.got - 2010.04.14 02:36:11.
