data_PCOD8189934
_publ_section_title
;
Structure prediction by ZEFSAII (Michael W. Deem and Ramdas Pophale) SiO2 
 PCOD8189934
Probable space group: I M M 2
;
_chemical_formula_sum "Si O2"
_cell_formula_units_Z 64
_cell_length_a 18.483689
_cell_length_b 8.990778
_cell_length_c 20.781872
_cell_angle_alpha 90.000000
_cell_angle_beta 90.000000
_cell_angle_gamma 90.000000
_cell_volume 3453.588523
_symmetry_space_group_name_H-M "I M M 2"
_symmetry_group_IT_number 44
_symmetry_cell_setting 'orthorhombic'
loop_
_space_group_symop_operation_xyz
x,y,z
-x,-y,z
-x,y,z
x,-y,z
1/2+x,1/2+y,1/2+z
1/2-x,1/2-y,1/2+z
1/2-x,1/2+y,1/2+z
1/2+x,1/2-y,1/2+z
loop_
_atom_site_type_symbol
_atom_site_label
_atom_site_fract_x
_atom_site_fract_y
_atom_site_fract_z
Si Si1 0.580672 0.176785 0.233360
Si Si2 0.084434 0.172484 0.232678
Si Si3 0.661825 0.823014 0.617265
Si Si4 0.826823 0.825990 0.355283
Si Si5 0.815955 0.677186 0.620654
Si Si6 0.839150 0.675650 0.860026
Si Si7 0.828230 0.664423 0.480640
Si Si8 0.656294 0.667256 0.487280
O O1 0.500000 0.241927 0.226496
O O2 0.628574 0.234735 0.174256
O O3 0.614655 0.233691 0.299892
O O4 0.579560 0.000000 0.232734
O O5 0.106464 0.271374 0.171990
O O6 0.127295 0.234314 0.295065
O O7 0.000000 0.192827 0.246338
O O8 0.104163 0.000000 0.219305
O O9 0.740720 0.759276 0.633449
O O10 0.631728 0.760058 0.549632
O O11 0.665008 0.000000 0.613626
O O12 0.743683 0.776677 0.346715
O O13 0.858438 0.764871 0.422848
O O14 0.835357 0.000000 0.359492
O O15 0.801283 0.500000 0.623668
O O16 0.851789 0.721015 0.551667
O O17 0.844820 0.500000 0.870097
O O18 0.873009 0.753661 0.922888
O O19 0.858664 0.500000 0.467953
O O20 0.742093 0.664957 0.482848
O O21 0.625029 0.500000 0.492091
#
# Coordination Sequence:
#
# PCOD8189934 Si02
#       8
#     8   8   8   8   8   8   8   8
#     4   9  17  30  50  75 103 137 175 212 249 293
#     4  10  21  37  54  72  99 136 173 206 246 300
#     4  11  21  33  53  79 103 128 164 210 257 301
#     4   9  17  30  50  73  96 126 164 204 246 296
#     4   9  17  32  53  76 103 135 172 209 248 299
#     4   9  16  28  49  76 102 128 164 210 254 295
#     4   8  15  27  46  73 100 125 158 205 252 291
#     4   9  17  31  51  74 100 129 164 206 252 302
#
# _framework density 18.531448999999999
#
# number of rings (size 3 to 8) (size 9 to 14) (size 15 to 20)
#    0.000    2.750    0.000    3.000    0.000    5.750 
#    0.000    4.375    0.000    4.500    0.000    0.000 
#    0.000    0.000    0.000    0.000    0.000    0.000 
#
# Total GULP energy -396724.290327 kJ/mol
# GULP energy per Si atom -12397.634073 kJ/mol
# Density = 1.848927 g / cm^3
# Si number density = 18.531449 Si / 1000 Ang^3
#
#
#
# Elastic Constant Matrix: (Units=GPa)
#
#
# Indices 1 2 3 4 5 6 
#
# 1 54.7155 21.7566 39.1477 0.0000 0.0000 0.0000
# 2 21.7566 61.7193 39.5711 0.0000 0.0000 0.0000
# 3 39.1477 39.5711 151.6703 0.0000 0.0000 0.0000
# 4 0.0000 0.0000 0.0000 33.2963 0.0000 0.0000
# 5 0.0000 0.0000 0.0000 0.0000 5.2996 0.0000
# 6 0.0000 0.0000 0.0000 0.0000 0.0000 12.2729
#
#
#
# Elastic Compliance Matrix: (Units=1/GPa)
#
#
# Indices 1 2 3 4 5 6 
#
# 1 0.023799 -0.005345 -0.004748 0.000000 0.000000 0.000000
# 2 -0.005345 0.020658 -0.004010 0.000000 0.000000 0.000000
# 3 -0.004748 -0.004010 0.008865 0.000000 0.000000 0.000000
# 4 0.000000 0.000000 0.000000 0.030033 0.000000 0.000000
# 5 0.000000 0.000000 0.000000 0.000000 0.188692 0.000000
# 6 0.000000 0.000000 0.000000 0.000000 0.000000 0.081480
#
#
# Mechanical properties :
#
#
# Convention : Reuss Voigt Hill
#
# Bulk Modulus (GPa) = 39.81676 52.11730 45.96703
# Shear Modulus (GPa) = 12.81704 21.34907 17.08305
#
# Velocity S-wave (km/s) = 2.63275 3.39786 3.03948
# Velocity P-wave (km/s) = 5.54748 6.60142 6.09726
#
# Compressibility (1/GPa) = 0.02511505
#
# Stress axis : x y z
#
# Youngs Moduli (GPa) = 42.01866 48.40840 112.80272
#
# Poissons Ratio (x) = 0.25874 0.53561
# Poissons Ratio (y) = 0.22459 0.45234
# Poissons Ratio (z) = 0.19951 0.19412
#
# Static dielectric constant tensor:
#      x y z
#    x 3.161880 0.000000 0.000000 
#    y 0.000000 3.282460 0.000000 
#    z 0.000000 0.000000 3.834110 
# 
# 
# High freq. dielectric constant tensor:
#      x y z
#    x 1.682530 0.000000 0.000000 
#    y 0.000000 1.697040 0.000000 
#    z 0.000000 0.000000 1.740430 
# 
# From -- ./inp_files/23330.got.cif
#   From: 2010.03.12/outbox.cif.g09.slc.cpg/sg44_12_cif.got.tgz:23330.got - 2010.04.14 02:36:11.
