data_PCOD8189739
_publ_section_title
;
Structure prediction by ZEFSAII (Michael W. Deem and Ramdas Pophale) SiO2 
 PCOD8189739
Probable space group: I M M 2
;
_chemical_formula_sum "Si O2"
_cell_formula_units_Z 64
_cell_length_a 19.780631
_cell_length_b 13.824167
_cell_length_c 11.729704
_cell_angle_alpha 90.000000
_cell_angle_beta 90.000000
_cell_angle_gamma 90.000000
_cell_volume 3207.496313
_symmetry_space_group_name_H-M "I M M 2"
_symmetry_group_IT_number 44
_symmetry_cell_setting 'orthorhombic'
loop_
_space_group_symop_operation_xyz
x,y,z
-x,-y,z
-x,y,z
x,-y,z
1/2+x,1/2+y,1/2+z
1/2-x,1/2-y,1/2+z
1/2-x,1/2+y,1/2+z
1/2+x,1/2-y,1/2+z
loop_
_atom_site_type_symbol
_atom_site_label
_atom_site_fract_x
_atom_site_fract_y
_atom_site_fract_z
Si Si1 0.750781 0.393181 0.909560
Si Si2 0.663364 0.110393 0.188383
Si Si3 0.889218 0.390310 0.032925
Si Si4 0.310700 0.198117 0.948834
Si Si5 0.334144 0.389033 0.413162
Si Si6 0.573433 0.767230 0.332132
Si Si7 0.422952 0.608782 0.635194
Si Si8 0.921971 0.701632 0.268194
O O1 0.719169 0.500000 0.924863
O O2 0.776487 0.380164 0.779996
O O3 0.694915 0.313663 0.936514
O O4 0.811061 0.377151 0.999492
O O5 0.594663 0.149148 0.244384
O O6 0.653004 0.000000 0.150276
O O7 0.679103 0.174695 0.079933
O O8 0.912637 0.500000 0.007387
O O9 0.901426 0.367201 0.164232
O O10 0.931695 0.314556 0.957993
O O11 0.243608 0.142598 0.908265
O O12 0.375427 0.168113 0.873659
O O13 0.339951 0.500000 0.374558
O O14 0.374448 0.322124 0.324114
O O15 0.368203 0.372884 0.536427
O O16 0.500000 0.727769 0.297849
O O17 0.500000 0.620978 0.587338
O O18 0.413220 0.500000 0.684382
O O19 0.409308 0.685745 0.735378
O O20 0.000000 0.684758 0.302266
#
# Coordination Sequence:
#
# PCOD8189739 Si02
#       8
#     8   8   8   8   8   8   8   8
#     4   9  20  38  65  93 120 157 207 262 312 358
#     4  10  23  42  60  87 123 166 215 255 300 363
#     4  10  20  37  60  88 121 156 203 258 312 361
#     4  12  24  40  63  87 127 168 206 252 308 374
#     4  11  22  36  60  94 125 157 199 255 319 376
#     4  11  21  38  64  92 124 160 205 261 313 363
#     4   9  18  35  61  92 124 157 197 250 311 371
#     4  11  24  39  58  89 126 164 204 253 311 371
#
# _framework density 19.953258000000002
#
# number of rings (size 3 to 8) (size 9 to 14) (size 15 to 20)
#    0.000    1.625    3.750    2.250    3.500    4.500 
#    0.000    1.875    0.000    0.000    0.000    1.750 
#    0.000    0.000    0.000    0.000    0.000    0.000 
#
# Total GULP energy -396782.313402 kJ/mol
# GULP energy per Si atom -12399.447294 kJ/mol
# Density = 1.990784 g / cm^3
# Si number density = 19.953258 Si / 1000 Ang^3
#
#
#
# Elastic Constant Matrix: (Units=GPa)
#
#
# Indices 1 2 3 4 5 6 
#
# 1 102.8230 38.4994 53.0560 0.0000 0.0000 0.0000
# 2 38.4994 110.7761 45.6209 0.0000 0.0000 0.0000
# 3 53.0560 45.6209 76.6666 0.0000 0.0000 0.0000
# 4 0.0000 0.0000 0.0000 20.0528 0.0000 0.0000
# 5 0.0000 0.0000 0.0000 0.0000 13.3127 0.0000
# 6 0.0000 0.0000 0.0000 0.0000 0.0000 18.0516
#
#
#
# Elastic Compliance Matrix: (Units=1/GPa)
#
#
# Indices 1 2 3 4 5 6 
#
# 1 0.015260 -0.001264 -0.009808 0.000000 0.000000 0.000000
# 2 -0.001264 0.012062 -0.006303 0.000000 0.000000 0.000000
# 3 -0.009808 -0.006303 0.023582 0.000000 0.000000 0.000000
# 4 0.000000 0.000000 0.000000 0.049868 0.000000 0.000000
# 5 0.000000 0.000000 0.000000 0.000000 0.075116 0.000000
# 6 0.000000 0.000000 0.000000 0.000000 0.000000 0.055397
#
#
# Mechanical properties :
#
#
# Convention : Reuss Voigt Hill
#
# Bulk Modulus (GPa) = 61.90641 62.73536 62.32088
# Shear Modulus (GPa) = 18.42170 20.48938 19.45554
#
# Velocity S-wave (km/s) = 3.04179 3.20796 3.12598
# Velocity P-wave (km/s) = 6.59012 6.72538 6.65809
#
# Compressibility (1/GPa) = 0.01615342
#
# Stress axis : x y z
#
# Youngs Moduli (GPa) = 65.53238 82.90301 42.40608
#
# Poissons Ratio (x) = 0.10480 0.41592
# Poissons Ratio (y) = 0.08284 0.26728
# Poissons Ratio (z) = 0.64274 0.52253
#
# Static dielectric constant tensor:
#      x y z
#    x 3.570530 0.000000 0.000000 
#    y 0.000000 3.897520 0.000000 
#    z 0.000000 0.000000 3.332750 
# 
# 
# High freq. dielectric constant tensor:
#      x y z
#    x 1.769850 0.000000 0.000000 
#    y 0.000000 1.795450 0.000000 
#    z 0.000000 0.000000 1.744370 
# 
# From -- ./inp_files/13994.got.cif
#   From: 2010.03.12/outbox.cif.g09.slc.cpg/sg44_7_cif.got.tgz:13994.got - 2010.04.14 02:36:11.
