data_PCOD8189725
_publ_section_title
;
Structure prediction by ZEFSAII (Michael W. Deem and Ramdas Pophale) SiO2 
 PCOD8189725
Probable space group: I M M 2
;
_chemical_formula_sum "Si O2"
_cell_formula_units_Z 64
_cell_length_a 9.115701
_cell_length_b 29.460839
_cell_length_c 12.639657
_cell_angle_alpha 90.000000
_cell_angle_beta 90.000000
_cell_angle_gamma 90.000000
_cell_volume 3394.458247
_symmetry_space_group_name_H-M "I M M 2"
_symmetry_group_IT_number 44
_symmetry_cell_setting 'orthorhombic'
loop_
_space_group_symop_operation_xyz
x,y,z
-x,-y,z
-x,y,z
x,-y,z
1/2+x,1/2+y,1/2+z
1/2-x,1/2-y,1/2+z
1/2-x,1/2+y,1/2+z
1/2+x,1/2-y,1/2+z
loop_
_atom_site_type_symbol
_atom_site_label
_atom_site_fract_x
_atom_site_fract_y
_atom_site_fract_z
Si Si1 0.327158 0.121687 0.902420
Si Si2 0.670963 0.879598 0.365222
Si Si3 0.669211 0.446764 0.015300
Si Si4 0.669041 0.710133 0.918513
Si Si5 0.171624 0.947523 0.753408
Si Si6 0.829385 0.349742 0.634908
Si Si7 0.834835 0.708237 0.288044
Si Si8 0.829362 0.759098 0.094326
O O1 0.500000 0.117532 0.883857
O O2 0.255399 0.078876 0.845536
O O3 0.252361 0.166852 0.847069
O O4 0.290118 0.122389 0.027788
O O5 0.500000 0.879460 0.388168
O O6 0.738724 0.922942 0.423060
O O7 0.735986 0.834910 0.419990
O O8 0.703885 0.880646 0.238819
O O9 0.500000 0.433900 0.999036
O O10 0.694348 0.500000 0.001551
O O11 0.718939 0.432005 0.134306
O O12 0.500000 0.697238 0.939051
O O13 0.697051 0.738611 0.812387
O O14 0.724665 0.749017 0.997384
O O15 0.000000 0.939099 0.767612
O O16 0.211182 0.000000 0.768582
O O17 0.728177 0.305668 0.645678
O O18 0.000000 0.334995 0.633281
O O19 0.809662 0.712193 0.162754
O O20 0.000000 0.697946 0.321753
O O21 0.000000 0.765489 0.063647
#
# Coordination Sequence:
#
# PCOD8189725 Si02
#       8
#     8   8   8   8   8   8   8   8
#     4  10  20  37  58  81 111 149 190 227 276 338
#     4  11  23  37  57  87 116 147 193 240 281 332
#     4   9  20  41  65  86 112 147 183 225 287 352
#     4  11  21  37  55  76 111 155 192 229 282 333
#     4   9  20  40  62  86 114 140 176 230 285 338
#     4  10  21  38  56  78 114 156 191 231 281 333
#     4   9  19  34  52  75 109 147 185 230 273 320
#     4  11  21  34  52  79 111 147 193 240 280 327
#
# _framework density 18.85426
#
# number of rings (size 3 to 8) (size 9 to 14) (size 15 to 20)
#    0.000    2.000    2.500    1.875    1.750    2.000 
#    0.000    2.500    0.000    3.750    0.000    0.000 
#    0.000    0.000    0.000    0.000    0.000    0.000 
#
# Total GULP energy -396456.410372 kJ/mol
# GULP energy per Si atom -12389.262824 kJ/mol
# Density = 1.881135 g / cm^3
# Si number density = 18.854260 Si / 1000 Ang^3
#
#
#
# Elastic Constant Matrix: (Units=GPa)
#
#
# Indices 1 2 3 4 5 6 
#
# 1 84.2109 44.2725 57.9875 0.0007 0.0001 0.0000
# 2 44.2725 86.3112 58.0865 0.0007 -0.0001 0.0000
# 3 57.9875 58.0865 119.5860 0.0046 -0.0005 -0.0001
# 4 0.0007 0.0007 0.0046 12.9585 0.0001 0.0001
# 5 0.0001 -0.0001 -0.0005 0.0001 25.7381 0.0001
# 6 0.0000 0.0000 -0.0001 0.0001 0.0001 34.2856
#
#
#
# Elastic Compliance Matrix: (Units=1/GPa)
#
#
# Indices 1 2 3 4 5 6 
#
# 1 0.019370 -0.005370 -0.006784 0.000002 0.000000 0.000000
# 2 -0.005370 0.018701 -0.006480 0.000002 0.000000 0.000000
# 3 -0.006784 -0.006480 0.014799 -0.000005 0.000000 0.000000
# 4 0.000002 0.000002 -0.000005 0.077169 0.000000 0.000000
# 5 0.000000 0.000000 0.000000 0.000000 0.038853 0.000000
# 6 0.000000 0.000000 0.000000 0.000000 0.000000 0.029167
#
#
# Mechanical properties :
#
#
# Convention : Reuss Voigt Hill
#
# Bulk Modulus (GPa) = 64.09231 67.86680 65.97955
# Shear Modulus (GPa) = 20.78763 23.24722 22.01742
#
# Velocity S-wave (km/s) = 3.32406 3.51521 3.42097
# Velocity P-wave (km/s) = 6.98569 7.24909 7.11860
#
# Compressibility (1/GPa) = 0.01560250
#
# Stress axis : x y z
#
# Youngs Moduli (GPa) = 51.62748 53.47214 67.57087
#
# Poissons Ratio (x) = 0.28714 0.45840
# Poissons Ratio (y) = 0.27723 0.43786
# Poissons Ratio (z) = 0.35024 0.34650
#
# Static dielectric constant tensor:
#      x y z
#    x 3.306190 0.000000 0.000000 
#    y 0.000000 3.451210 0.000000 
#    z 0.000000 0.000000 3.496450 
# 
# 
# High freq. dielectric constant tensor:
#      x y z
#    x 1.721330 0.000000 0.000000 
#    y 0.000000 1.718710 0.000000 
#    z 0.000000 0.000000 1.745250 
# 
# From -- ./inp_files/11494.got.cif
#   From: 2010.03.12/outbox.cif.g09.slc.cpg/sg44_6_cif.got.tgz:11494.got - 2010.04.14 02:36:11.
