data_PCOD8189392
_publ_section_title
;
Structure prediction by ZEFSAII (Michael W. Deem and Ramdas Pophale) SiO2 
 PCOD8189392
Probable space group: I M M 2
;
_chemical_formula_sum "Si O2"
_cell_formula_units_Z 64
_cell_length_a 9.576962
_cell_length_b 9.138734
_cell_length_c 41.355609
_cell_angle_alpha 90.000000
_cell_angle_beta 90.000000
_cell_angle_gamma 90.000000
_cell_volume 3619.497003
_symmetry_space_group_name_H-M "I M M 2"
_symmetry_group_IT_number 44
_symmetry_cell_setting 'orthorhombic'
loop_
_space_group_symop_operation_xyz
x,y,z
-x,-y,z
-x,y,z
x,-y,z
1/2+x,1/2+y,1/2+z
1/2-x,1/2-y,1/2+z
1/2-x,1/2+y,1/2+z
1/2+x,1/2-y,1/2+z
loop_
_atom_site_type_symbol
_atom_site_label
_atom_site_fract_x
_atom_site_fract_y
_atom_site_fract_z
Si Si1 0.655853 0.825532 0.540720
Si Si2 0.166274 0.662533 0.970311
Si Si3 0.165903 0.334868 0.663511
Si Si4 0.662266 0.329398 0.782071
Si Si5 0.163930 0.829132 0.727422
Si Si6 0.340240 0.671665 0.408007
Si Si7 0.338762 0.831500 0.847579
Si Si8 0.837692 0.829059 0.600126
O O1 0.500000 0.764886 0.547486
O O2 0.712034 0.772623 0.505428
O O3 0.757706 0.767662 0.568722
O O4 0.652835 0.000000 0.540140
O O5 0.227643 0.500000 0.965394
O O6 0.222680 0.760788 0.940938
O O7 0.000000 0.657886 0.970152
O O8 0.224643 0.500000 0.665140
O O9 0.219103 0.245558 0.694564
O O10 0.221814 0.256382 0.631222
O O11 0.000000 0.334180 0.662987
O O12 0.500000 0.301392 0.774256
O O13 0.700005 0.500000 0.780690
O O14 0.754809 0.242340 0.756812
O O15 0.700847 0.268511 0.817268
O O16 0.000000 0.801198 0.732548
O O17 0.198709 0.000000 0.725531
O O18 0.500000 0.720588 0.402440
O O19 0.326304 0.500000 0.411841
O O20 0.251255 0.727618 0.377606
O O21 0.500000 0.814612 0.857035
O O22 0.302239 0.000000 0.839278
O O23 0.000000 0.797037 0.594564
O O24 0.809271 0.000000 0.605883
#
# Coordination Sequence:
#
# PCOD8189392 Si02
#       8
#     8   8   8   8   8   8   8   8
#     4   8  14  26  44  64  87 117 151 185 224 273
#     4   8  14  26  44  64  87 117 150 183 225 277
#     4   9  17  30  48  69  95 126 156 189 234 283
#     4  10  21  36  53  74 101 131 161 195 239 289
#     4  10  20  34  54  78 100 125 162 203 239 281
#     4   9  17  29  46  68  91 115 149 193 233 269
#     4   9  18  33  50  66  90 126 160 188 227 281
#     4   9  16  27  45  67  89 115 151 192 229 269
#
# _framework density 17.682016999999998
#
# number of rings (size 3 to 8) (size 9 to 14) (size 15 to 20)
#    0.000    3.000    0.000    1.875    0.000    4.000 
#    0.000    3.125    0.000    4.125    0.000    0.000 
#    0.000    0.000    0.000    0.000    0.000    0.000 
#
# Total GULP energy -396724.344780 kJ/mol
# GULP energy per Si atom -12397.635774 kJ/mol
# Density = 1.764177 g / cm^3
# Si number density = 17.682017 Si / 1000 Ang^3
#
#
#
# Elastic Constant Matrix: (Units=GPa)
#
#
# Indices 1 2 3 4 5 6 
#
# 1 49.3010 36.2243 65.5262 0.0000 0.0000 0.0000
# 2 36.2243 83.5120 74.2822 0.0000 0.0000 0.0000
# 3 65.5262 74.2822 184.8504 0.0000 0.0000 0.0000
# 4 0.0000 0.0000 0.0000 32.7181 0.0000 0.0000
# 5 0.0000 0.0000 0.0000 0.0000 31.7155 0.0000
# 6 0.0000 0.0000 0.0000 0.0000 0.0000 16.4584
#
#
#
# Elastic Compliance Matrix: (Units=1/GPa)
#
#
# Indices 1 2 3 4 5 6 
#
# 1 0.041238 -0.007602 -0.011563 0.000000 0.000000 0.000000
# 2 -0.007602 0.020037 -0.005357 0.000000 0.000000 0.000000
# 3 -0.011563 -0.005357 0.011661 0.000000 0.000000 0.000000
# 4 0.000000 0.000000 0.000000 0.030564 0.000000 0.000000
# 5 0.000000 0.000000 0.000000 0.000000 0.031530 0.000000
# 6 0.000000 0.000000 0.000000 0.000000 0.000000 0.060759
#
#
# Mechanical properties :
#
#
# Convention : Reuss Voigt Hill
#
# Bulk Modulus (GPa) = 41.85590 74.41429 58.13510
# Shear Modulus (GPa) = 19.77861 25.62045 22.69953
#
# Velocity S-wave (km/s) = 3.34813 3.81064 3.58685
# Velocity P-wave (km/s) = 6.21848 7.84458 7.07838
#
# Compressibility (1/GPa) = 0.02389149
#
# Stress axis : x y z
#
# Youngs Moduli (GPa) = 24.24947 49.90830 85.75297
#
# Poissons Ratio (x) = 0.37941 0.99158
# Poissons Ratio (y) = 0.18435 0.45937
# Poissons Ratio (z) = 0.28040 0.26735
#
# Static dielectric constant tensor:
#      x y z
#    x 3.072830 0.000000 0.000000 
#    y 0.000000 3.246850 0.000000 
#    z 0.000000 0.000000 3.601780 
# 
# 
# High freq. dielectric constant tensor:
#      x y z
#    x 1.650620 0.000000 0.000000 
#    y 0.000000 1.672140 0.000000 
#    z 0.000000 0.000000 1.699890 
# 
# From -- ./inp_files/27455.got.cif
#   From: 2010.03.12/outbox.cif.g09.slc.cpg/sg44_14_cif.got.tgz:27455.got - 2010.04.14 02:36:11.
