data_PCOD8189420
_publ_section_title
;
Structure prediction by ZEFSAII (Michael W. Deem and Ramdas Pophale) SiO2 
 PCOD8189420
Probable space group: I M M 2
;
_chemical_formula_sum "Si O2"
_cell_formula_units_Z 64
_cell_length_a 8.859055
_cell_length_b 15.461019
_cell_length_c 23.080422
_cell_angle_alpha 90.000000
_cell_angle_beta 90.000000
_cell_angle_gamma 90.000000
_cell_volume 3161.325809
_symmetry_space_group_name_H-M "I M M 2"
_symmetry_group_IT_number 44
_symmetry_cell_setting 'orthorhombic'
loop_
_space_group_symop_operation_xyz
x,y,z
-x,-y,z
-x,y,z
x,-y,z
1/2+x,1/2+y,1/2+z
1/2-x,1/2-y,1/2+z
1/2-x,1/2+y,1/2+z
1/2+x,1/2-y,1/2+z
loop_
_atom_site_type_symbol
_atom_site_label
_atom_site_fract_x
_atom_site_fract_y
_atom_site_fract_z
Si Si1 0.335687 0.901977 0.329570
Si Si2 0.830240 0.355474 0.371247
Si Si3 0.678066 0.403093 0.253627
Si Si4 0.828113 0.827083 0.429013
Si Si5 0.173018 0.404305 0.496307
Si Si6 0.821900 0.740744 0.041720
Si Si7 0.179654 0.762509 0.660953
Si Si8 0.177517 0.100650 0.215062
O O1 0.500000 0.853798 0.330436
O O2 0.254254 0.900368 0.391825
O O3 0.229779 0.865756 0.278426
O O4 0.366426 0.000000 0.314046
O O5 0.721250 0.377970 0.318807
O O6 0.816784 0.255350 0.387262
O O7 0.781304 0.408321 0.428585
O O8 0.000000 0.380113 0.352607
O O9 0.500000 0.403191 0.249777
O O10 0.739375 0.500000 0.238790
O O11 0.740862 0.331529 0.208489
O O12 0.740619 0.815794 0.488897
O O13 0.000000 0.852738 0.442704
O O14 0.189023 0.500000 0.522995
O O15 0.280805 0.341502 0.532282
O O16 0.000000 0.369534 0.500705
O O17 0.743747 0.705150 0.099602
O O18 0.000000 0.730113 0.046352
O O19 0.240993 0.664999 0.670384
O O20 0.000000 0.759032 0.659376
O O21 0.000000 0.114047 0.210276
O O22 0.220401 0.000000 0.202381
#
# Coordination Sequence:
#
# PCOD8189420 Si02
#       8
#     8   8   8   8   8   8   8   8
#     4  10  20  34  54  83 116 145 178 224 277 333
#     4   9  18  32  53  82 112 141 174 214 262 319
#     4  10  22  38  56  81 111 143 182 228 277 328
#     4  10  20  36  57  80 109 145 184 224 272 332
#     4   9  18  34  55  80 112 147 180 215 261 324
#     4  11  23  38  56  78 106 140 183 233 281 332
#     4  11  23  40  60  79 107 149 193 237 283 334
#     4  10  21  37  58  86 119 152 187 229 279 338
#
# _framework density 20.244671
#
# number of rings (size 3 to 8) (size 9 to 14) (size 15 to 20)
#    0.000    2.000    0.000    4.500    0.000    8.500 
#    0.000    0.625    0.000    2.250    0.000    0.000 
#    0.000    0.000    0.000    0.000    0.000    0.000 
#
# Total GULP energy -396730.175837 kJ/mol
# GULP energy per Si atom -12397.817995 kJ/mol
# Density = 2.019859 g / cm^3
# Si number density = 20.244671 Si / 1000 Ang^3
#
#
#
# Elastic Constant Matrix: (Units=GPa)
#
#
# Indices 1 2 3 4 5 6 
#
# 1 98.1986 25.3979 33.8887 0.0000 0.0000 0.0000
# 2 25.3979 50.7530 28.9935 0.0000 0.0000 0.0000
# 3 33.8887 28.9935 103.5888 0.0000 0.0000 0.0000
# 4 0.0000 0.0000 0.0000 13.6734 0.0000 0.0000
# 5 0.0000 0.0000 0.0000 0.0000 37.9589 0.0000
# 6 0.0000 0.0000 0.0000 0.0000 0.0000 24.2197
#
#
#
# Elastic Compliance Matrix: (Units=1/GPa)
#
#
# Indices 1 2 3 4 5 6 
#
# 1 0.012319 -0.004598 -0.002743 0.000000 0.000000 0.000000
# 2 -0.004598 0.025169 -0.005540 0.000000 0.000000 0.000000
# 3 -0.002743 -0.005540 0.012102 0.000000 0.000000 0.000000
# 4 0.000000 0.000000 0.000000 0.073135 0.000000 0.000000
# 5 0.000000 0.000000 0.000000 0.000000 0.026344 0.000000
# 6 0.000000 0.000000 0.000000 0.000000 0.000000 0.041289
#
#
# Mechanical properties :
#
#
# Convention : Reuss Voigt Hill
#
# Bulk Modulus (GPa) = 41.96888 47.67784 44.82336
# Shear Modulus (GPa) = 22.31509 26.12106 24.21808
#
# Velocity S-wave (km/s) = 3.32365 3.59593 3.46246
# Velocity P-wave (km/s) = 5.95858 6.39084 6.17849
#
# Compressibility (1/GPa) = 0.02382718
#
# Stress axis : x y z
#
# Youngs Moduli (GPa) = 81.17320 39.73115 82.63250
#
# Poissons Ratio (x) = 0.18267 0.22669
# Poissons Ratio (y) = 0.37321 0.45783
# Poissons Ratio (z) = 0.22269 0.22013
#
# Static dielectric constant tensor:
#      x y z
#    x 3.687290 0.000000 0.000000 
#    y 0.000000 3.697900 0.000000 
#    z 0.000000 0.000000 3.618990 
# 
# 
# High freq. dielectric constant tensor:
#      x y z
#    x 1.790850 0.000000 0.000000 
#    y 0.000000 1.777810 0.000000 
#    z 0.000000 0.000000 1.788130 
# 
# From -- ./inp_files/23303.got.cif
#   From: 2010.03.12/outbox.cif.g09.slc.cpg/sg44_12_cif.got.tgz:23303.got - 2010.04.14 02:36:11.
