data_PCOD8189217
_publ_section_title
;
Structure prediction by ZEFSAII (Michael W. Deem and Ramdas Pophale) SiO2 
 PCOD8189217
Probable space group: I M M 2
;
_chemical_formula_sum "Si O2"
_cell_formula_units_Z 40
_cell_length_a 9.015121
_cell_length_b 8.999392
_cell_length_c 26.053731
_cell_angle_alpha 90.000000
_cell_angle_beta 90.000000
_cell_angle_gamma 90.000000
_cell_volume 2113.755032
_symmetry_space_group_name_H-M "I M M 2"
_symmetry_group_IT_number 44
_symmetry_cell_setting 'orthorhombic'
loop_
_space_group_symop_operation_xyz
x,y,z
-x,-y,z
-x,y,z
x,-y,z
1/2+x,1/2+y,1/2+z
1/2-x,1/2-y,1/2+z
1/2-x,1/2+y,1/2+z
1/2+x,1/2-y,1/2+z
loop_
_atom_site_type_symbol
_atom_site_label
_atom_site_fract_x
_atom_site_fract_y
_atom_site_fract_z
Si Si1 0.167294 0.676838 0.555640
Si Si2 0.667630 0.322689 0.455049
Si Si3 0.332505 0.176984 0.854153
Si Si4 0.831273 0.176388 0.752615
Si Si5 0.673026 0.673409 0.658212
O O1 0.167687 0.500000 0.553900
O O2 0.251057 0.739886 0.505642
O O3 0.251026 0.733311 0.606341
O O4 0.000000 0.738932 0.556150
O O5 0.500000 0.262064 0.454205
O O6 0.668267 0.500000 0.455206
O O7 0.753088 0.261287 0.405162
O O8 0.500000 0.238902 0.852075
O O9 0.243125 0.236128 0.804858
O O10 0.333193 0.000000 0.854953
O O11 0.740088 0.238651 0.705371
O O12 0.000000 0.234236 0.750482
O O13 0.825178 0.000000 0.750545
O O14 0.500000 0.707710 0.654168
O O15 0.705132 0.500000 0.666168
#
# Coordination Sequence:
#
# PCOD8189217 Si02
#       5
#     8   8   8   8   8
#     4   9  16  26  41  62  89 120 153 190 233 279
#     4   9  15  23  37  59  88 119 150 187 232 279
#     4   9  16  26  41  62  89 120 153 190 233 279
#     4  10  20  33  49  70  96 126 160 197 237 281
#     4  10  20  33  49  70  96 126 160 197 237 281
#
# _framework density 18.923667999999999
#
# number of rings (size 3 to 8) (size 9 to 14) (size 15 to 20)
#    0.000    2.600    0.000    3.000    0.000    9.600 
#    0.000    0.000    0.000    0.000    0.000    1.400 
#    0.000   11.200    0.000    0.000    0.000    0.000 
#
# Total GULP energy -248009.383561 kJ/mol
# GULP energy per Si atom -12400.469178 kJ/mol
# Density = 1.888060 g / cm^3
# Si number density = 18.923668 Si / 1000 Ang^3
#
#
#
# Elastic Constant Matrix: (Units=GPa)
#
#
# Indices 1 2 3 4 5 6 
#
# 1 141.4289 10.9308 67.4661 0.0000 0.0000 0.0000
# 2 10.9308 4.9251 11.5042 0.0000 0.0000 0.0000
# 3 67.4661 11.5042 175.9067 0.0000 0.0000 0.0000
# 4 0.0000 0.0000 0.0000 20.2088 0.0000 0.0000
# 5 0.0000 0.0000 0.0000 0.0000 48.2984 0.0000
# 6 0.0000 0.0000 0.0000 0.0000 0.0000 15.4055
#
#
#
# Elastic Compliance Matrix: (Units=1/GPa)
#
#
# Indices 1 2 3 4 5 6 
#
# 1 0.009490 -0.014826 -0.002670 0.000000 0.000000 0.000000
# 2 -0.014826 0.262810 -0.011501 0.000000 0.000000 0.000000
# 3 -0.002670 -0.011501 0.007461 0.000000 0.000000 0.000000
# 4 0.000000 0.000000 0.000000 0.049483 0.000000 0.000000
# 5 0.000000 0.000000 0.000000 0.000000 0.020705 0.000000
# 6 0.000000 0.000000 0.000000 0.000000 0.000000 0.064912
#
#
# Mechanical properties :
#
#
# Convention : Reuss Voigt Hill
#
# Bulk Modulus (GPa) = 4.50923 55.78476 30.14700
# Shear Modulus (GPa) = 9.14446 32.27318 20.70882
#
# Velocity S-wave (km/s) = 2.20063 4.13418 3.31166
# Velocity P-wave (km/s) = 2.97407 7.23404 5.53066
#
# Compressibility (1/GPa) = 0.22176720
#
# Stress axis : x y z
#
# Youngs Moduli (GPa) = 105.37026 3.80502 134.02744
#
# Poissons Ratio (x) = 0.05641 0.35789
# Poissons Ratio (y) = 1.56218 1.54151
# Poissons Ratio (z) = 0.28137 0.04376
#
# Static dielectric constant tensor:
#      x y z
#    x 3.767540 0.000000 0.000000 
#    y 0.000000 2.736000 0.000000 
#    z 0.000000 0.000000 3.709290 
# 
# 
# High freq. dielectric constant tensor:
#      x y z
#    x 1.758460 0.000000 0.000000 
#    y 0.000000 1.653920 0.000000 
#    z 0.000000 0.000000 1.756940 
# 
# From -- ./inp_files/22745.got.cif
#   From: 2010.03.12/outbox.cif.g09.slc.cpg/sg44_12_cif.got.tgz:22745.got - 2010.04.14 02:36:11.
