data_PCOD8189237
_publ_section_title
;
Structure prediction by ZEFSAII (Michael W. Deem and Ramdas Pophale) SiO2 
 PCOD8189237
Probable space group: I M M 2
;
_chemical_formula_sum "Si O2"
_cell_formula_units_Z 64
_cell_length_a 9.322095
_cell_length_b 19.361877
_cell_length_c 20.608925
_cell_angle_alpha 90.000000
_cell_angle_beta 90.000000
_cell_angle_gamma 90.000000
_cell_volume 3719.771992
_symmetry_space_group_name_H-M "I M M 2"
_symmetry_group_IT_number 44
_symmetry_cell_setting 'orthorhombic'
loop_
_space_group_symop_operation_xyz
x,y,z
-x,-y,z
-x,y,z
x,-y,z
1/2+x,1/2+y,1/2+z
1/2-x,1/2-y,1/2+z
1/2-x,1/2+y,1/2+z
1/2+x,1/2-y,1/2+z
loop_
_atom_site_type_symbol
_atom_site_label
_atom_site_fract_x
_atom_site_fract_y
_atom_site_fract_z
Si Si1 0.666713 0.922072 0.142340
Si Si2 0.669629 0.074250 0.289249
Si Si3 0.165552 0.297093 0.984177
Si Si4 0.329953 0.204492 0.729064
Si Si5 0.333259 0.781611 0.339554
Si Si6 0.668975 0.706189 0.603942
Si Si7 0.165569 0.078813 0.678143
Si Si8 0.333500 0.422571 0.028211
O O1 0.500000 0.902821 0.137215
O O2 0.723470 0.914796 0.215811
O O3 0.755943 0.868167 0.099538
O O4 0.693973 0.000000 0.116793
O O5 0.500000 0.069545 0.288088
O O6 0.720244 0.138791 0.332320
O O7 0.730223 0.000000 0.315516
O O8 0.224030 0.247734 0.040926
O O9 0.245838 0.370000 0.984156
O O10 0.000000 0.314109 0.996021
O O11 0.189400 0.260546 0.914536
O O12 0.500000 0.200053 0.736107
O O13 0.263736 0.233241 0.795310
O O14 0.284081 0.252655 0.668619
O O15 0.267800 0.127865 0.719939
O O16 0.500000 0.774281 0.318823
O O17 0.500000 0.694657 0.601772
O O18 0.207537 0.087761 0.603205
O O19 0.000000 0.099294 0.689503
O O20 0.192032 0.000000 0.700358
O O21 0.500000 0.408250 0.017547
O O22 0.293223 0.500000 0.006237
#
# Coordination Sequence:
#
# PCOD8189237 Si02
#       8
#     8   8   8   8   8   8   8   8
#     4   9  17  30  51  77  99 123 164 212 250 290
#     4   8  14  26  45  70  97 124 160 204 243 284
#     4  10  21  35  50  74 105 138 175 215 256 302
#     4  11  21  33  52  77 106 136 169 214 261 305
#     4  10  20  34  53  73 100 138 177 213 252 305
#     4  10  20  33  49  74 106 135 165 204 254 305
#     4   9  18  33  54  79 104 133 173 215 255 305
#     4   9  18  32  50  74 105 140 175 211 253 304
#
# _framework density 17.205356999999999
#
# number of rings (size 3 to 8) (size 9 to 14) (size 15 to 20)
#    0.000    2.500    2.500    1.875    0.000    2.750 
#    0.000    2.500    0.000    1.125    0.000    1.750 
#    0.000    0.000    0.000    0.000    0.000    0.000 
#
# Total GULP energy -396738.201504 kJ/mol
# GULP energy per Si atom -12398.068797 kJ/mol
# Density = 1.716620 g / cm^3
# Si number density = 17.205357 Si / 1000 Ang^3
#
#
#
# Elastic Constant Matrix: (Units=GPa)
#
#
# Indices 1 2 3 4 5 6 
#
# 1 54.8711 45.8500 36.3068 0.0000 0.0000 0.0000
# 2 45.8500 100.6802 45.4473 0.0000 0.0000 0.0000
# 3 36.3068 45.4473 82.9841 0.0000 0.0000 0.0000
# 4 0.0000 0.0000 0.0000 23.5748 0.0000 0.0000
# 5 0.0000 0.0000 0.0000 0.0000 21.7572 0.0000
# 6 0.0000 0.0000 0.0000 0.0000 0.0000 31.6500
#
#
#
# Elastic Compliance Matrix: (Units=1/GPa)
#
#
# Indices 1 2 3 4 5 6 
#
# 1 0.033233 -0.011386 -0.008304 0.000000 0.000000 0.000000
# 2 -0.011386 0.017095 -0.004381 0.000000 0.000000 0.000000
# 3 -0.008304 -0.004381 0.018083 0.000000 0.000000 0.000000
# 4 0.000000 0.000000 0.000000 0.042418 0.000000 0.000000
# 5 0.000000 0.000000 0.000000 0.000000 0.045962 0.000000
# 6 0.000000 0.000000 0.000000 0.000000 0.000000 0.031596
#
#
# Mechanical properties :
#
#
# Convention : Reuss Voigt Hill
#
# Bulk Modulus (GPa) = 49.33613 54.86038 52.09825
# Shear Modulus (GPa) = 20.55194 22.79181 21.67187
#
# Velocity S-wave (km/s) = 3.45992 3.64358 3.55294
# Velocity P-wave (km/s) = 6.68569 7.04669 6.86856
#
# Compressibility (1/GPa) = 0.02026912
#
# Stress axis : x y z
#
# Youngs Moduli (GPa) = 30.09025 58.49622 55.30033
#
# Poissons Ratio (x) = 0.66603 0.45924
# Poissons Ratio (y) = 0.34260 0.24226
# Poissons Ratio (z) = 0.24988 0.25626
#
# Static dielectric constant tensor:
#      x y z
#    x 2.980500 0.000000 0.000000 
#    y 0.000000 3.402580 0.000000 
#    z 0.000000 0.000000 3.036410 
# 
# 
# High freq. dielectric constant tensor:
#      x y z
#    x 1.649250 0.000000 0.000000 
#    y 0.000000 1.666220 0.000000 
#    z 0.000000 0.000000 1.640690 
# 
# From -- ./inp_files/20722.got.cif
#   From: 2010.03.12/outbox.cif.g09.slc.cpg/sg44_11_cif.got.tgz:20722.got - 2010.04.14 02:36:11.
