data_PCOD8189088
_publ_section_title
;
Structure prediction by ZEFSAII (Michael W. Deem and Ramdas Pophale) SiO2 
 PCOD8189088
Probable space group: I M M 2
;
_chemical_formula_sum "Si O2"
_cell_formula_units_Z 64
_cell_length_a 30.268355
_cell_length_b 8.797906
_cell_length_c 11.904185
_cell_angle_alpha 90.000000
_cell_angle_beta 90.000000
_cell_angle_gamma 90.000000
_cell_volume 3170.062348
_symmetry_space_group_name_H-M "I M M 2"
_symmetry_group_IT_number 44
_symmetry_cell_setting 'orthorhombic'
loop_
_space_group_symop_operation_xyz
x,y,z
-x,-y,z
-x,y,z
x,-y,z
1/2+x,1/2+y,1/2+z
1/2-x,1/2-y,1/2+z
1/2-x,1/2+y,1/2+z
1/2+x,1/2-y,1/2+z
loop_
_atom_site_type_symbol
_atom_site_label
_atom_site_fract_x
_atom_site_fract_y
_atom_site_fract_z
Si Si1 0.549274 0.172771 0.839420
Si Si2 0.197195 0.822395 0.871031
Si Si3 0.625676 0.678404 0.975848
Si Si4 0.327898 0.328469 0.616921
Si Si5 0.798030 0.323447 0.332337
Si Si6 0.449357 0.323435 0.368676
Si Si7 0.430670 0.671883 0.618611
Si Si8 0.625217 0.820890 0.219374
O O1 0.500000 0.184874 0.891035
O O2 0.581649 0.282321 0.907026
O O3 0.545957 0.221989 0.709455
O O4 0.566886 0.000000 0.846587
O O5 0.248520 0.781252 0.866570
O O6 0.170448 0.733719 0.776212
O O7 0.188462 0.000000 0.851935
O O8 0.179579 0.767816 0.991527
O O9 0.626984 0.500000 0.997031
O O10 0.669138 0.724869 0.907516
O O11 0.624201 0.762927 0.093210
O O12 0.309160 0.500000 0.629210
O O13 0.302781 0.217363 0.701510
O O14 0.379130 0.324781 0.645284
O O15 0.808515 0.500000 0.351185
O O16 0.500000 0.296575 0.332664
O O17 0.436045 0.500000 0.363297
O O18 0.441517 0.263114 0.495116
O O19 0.418292 0.234504 0.283629
O O20 0.449099 0.500000 0.628327
O O21 0.624763 0.000000 0.217612
#
# Coordination Sequence:
#
# PCOD8189088 Si02
#       8
#     8   8   8   8   8   8   8   8
#     4  11  24  41  63  93 128 163 204 259 316 370
#     4  10  23  44  66  92 128 168 210 256 307 369
#     4  12  26  45  67  89 122 167 212 258 311 375
#     4  10  20  38  65  93 127 168 208 254 306 365
#     4  11  24  41  65  97 129 163 207 261 315 365
#     4  10  21  40  66  93 124 165 211 257 308 372
#     4  10  19  36  64  94 126 165 206 251 305 369
#     4  12  26  43  65  92 126 165 208 261 314 369
#
# _framework density 20.188877000000002
#
# number of rings (size 3 to 8) (size 9 to 14) (size 15 to 20)
#    0.000    1.250    2.500    3.375    1.750    4.250 
#    0.000    0.000    0.000    0.000    0.000    0.000 
#    0.000    0.000    0.000    0.000    0.000    0.000 
#
# Total GULP energy -396968.563765 kJ/mol
# GULP energy per Si atom -12405.267618 kJ/mol
# Density = 2.014293 g / cm^3
# Si number density = 20.188877 Si / 1000 Ang^3
#
#
#
# Elastic Constant Matrix: (Units=GPa)
#
#
# Indices 1 2 3 4 5 6 
#
# 1 106.9576 45.3625 39.3700 0.0000 0.0000 0.0000
# 2 45.3625 83.4368 32.5399 0.0000 0.0000 0.0000
# 3 39.3700 32.5399 115.9626 0.0000 0.0000 0.0000
# 4 0.0000 0.0000 0.0000 31.8824 0.0000 0.0000
# 5 0.0000 0.0000 0.0000 0.0000 21.7626 0.0000
# 6 0.0000 0.0000 0.0000 0.0000 0.0000 18.4557
#
#
#
# Elastic Compliance Matrix: (Units=1/GPa)
#
#
# Indices 1 2 3 4 5 6 
#
# 1 0.012863 -0.005940 -0.002700 0.000000 0.000000 0.000000
# 2 -0.005940 0.016201 -0.002529 0.000000 0.000000 0.000000
# 3 -0.002700 -0.002529 0.010250 0.000000 0.000000 0.000000
# 4 0.000000 0.000000 0.000000 0.031365 0.000000 0.000000
# 5 0.000000 0.000000 0.000000 0.000000 0.045950 0.000000
# 6 0.000000 0.000000 0.000000 0.000000 0.000000 0.054184
#
#
# Mechanical properties :
#
#
# Convention : Reuss Voigt Hill
#
# Bulk Modulus (GPa) = 58.91222 60.10019 59.50620
# Shear Modulus (GPa) = 25.14954 27.02576 26.08765
#
# Velocity S-wave (km/s) = 3.53329 3.66272 3.59859
# Velocity P-wave (km/s) = 6.77417 6.90804 6.84143
#
# Compressibility (1/GPa) = 0.01697441
#
# Stress axis : x y z
#
# Youngs Moduli (GPa) = 77.74434 61.72432 97.56140
#
# Poissons Ratio (x) = 0.36665 0.26343
# Poissons Ratio (y) = 0.46181 0.24678
# Poissons Ratio (z) = 0.20992 0.15613
#
# Static dielectric constant tensor:
#      x y z
#    x 3.723330 0.000000 0.000000 
#    y 0.000000 3.636110 0.000000 
#    z 0.000000 0.000000 3.730100 
# 
# 
# High freq. dielectric constant tensor:
#      x y z
#    x 1.800810 0.000000 0.000000 
#    y 0.000000 1.783960 0.000000 
#    z 0.000000 0.000000 1.794520 
# 
# From -- ./inp_files/15027.got.cif
#   From: 2010.03.12/outbox.cif.g09.slc.cpg/sg44_8_cif.got.tgz:15027.got - 2010.04.14 02:36:11.
