data_PCOD8189224
_publ_section_title
;
Structure prediction by ZEFSAII (Michael W. Deem and Ramdas Pophale) SiO2 
 PCOD8189224
Probable space group: I M M 2
;
_chemical_formula_sum "Si O2"
_cell_formula_units_Z 64
_cell_length_a 23.498943
_cell_length_b 8.848140
_cell_length_c 18.878351
_cell_angle_alpha 90.000000
_cell_angle_beta 90.000000
_cell_angle_gamma 90.000000
_cell_volume 3925.223317
_symmetry_space_group_name_H-M "I M M 2"
_symmetry_group_IT_number 44
_symmetry_cell_setting 'orthorhombic'
loop_
_space_group_symop_operation_xyz
x,y,z
-x,-y,z
-x,y,z
x,-y,z
1/2+x,1/2+y,1/2+z
1/2-x,1/2-y,1/2+z
1/2-x,1/2+y,1/2+z
1/2+x,1/2-y,1/2+z
loop_
_atom_site_type_symbol
_atom_site_label
_atom_site_fract_x
_atom_site_fract_y
_atom_site_fract_z
Si Si1 0.228759 0.677536 0.742890
Si Si2 0.120529 0.178399 0.382588
Si Si3 0.770215 0.327798 0.023929
Si Si4 0.170226 0.674529 0.162360
Si Si5 0.255876 0.177684 0.882773
Si Si6 0.063244 0.820366 0.526065
Si Si7 0.564388 0.173517 0.751431
Si Si8 0.663189 0.325769 0.122404
O O1 0.227715 0.500000 0.752968
O O2 0.290043 0.725559 0.712539
O O3 0.218577 0.755174 0.818721
O O4 0.177969 0.726647 0.690763
O O5 0.181041 0.257126 0.377913
O O6 0.088037 0.239668 0.451896
O O7 0.081904 0.218886 0.315543
O O8 0.130636 0.000000 0.385621
O O9 0.776625 0.500000 0.998085
O O10 0.819988 0.283343 0.079842
O O11 0.709464 0.303280 0.060871
O O12 0.774935 0.220326 0.956182
O O13 0.188644 0.500000 0.173736
O O14 0.104753 0.703672 0.183365
O O15 0.258981 0.000000 0.875099
O O16 0.103102 0.767889 0.591132
O O17 0.000000 0.753757 0.537766
O O18 0.061781 0.000000 0.523017
O O19 0.500000 0.211214 0.728108
O O20 0.570453 0.000000 0.776383
O O21 0.660631 0.500000 0.145883
#
# Coordination Sequence:
#
# PCOD8189224 Si02
#       8
#     8   8   8   8   8   8   8   8
#     4  11  21  32  49  71  95 125 163 203 244 294
#     4  11  20  32  47  69  99 134 173 205 234 277
#     4   9  17  31  49  69  94 127 162 198 243 291
#     4   9  18  33  50  69  97 130 160 198 243 287
#     4  12  22  32  48  71  98 129 162 202 253 297
#     4   9  17  30  49  71  97 132 170 201 234 281
#     4  10  20  33  49  71 100 135 170 201 236 282
#     4   9  17  32  50  70  98 128 160 200 244 285
#
# _framework density 16.304805000000002
#
# number of rings (size 3 to 8) (size 9 to 14) (size 15 to 20)
#    0.000    2.000    2.500    3.750    0.000    2.750 
#    0.000    0.000    0.000    1.875    0.000    0.875 
#    0.000    3.000    0.000    0.000    0.000    0.000 
#
# Total GULP energy -396811.547297 kJ/mol
# GULP energy per Si atom -12400.360853 kJ/mol
# Density = 1.626769 g / cm^3
# Si number density = 16.304805 Si / 1000 Ang^3
#
#
#
# Elastic Constant Matrix: (Units=GPa)
#
#
# Indices 1 2 3 4 5 6 
#
# 1 94.4983 28.3184 61.5312 0.0000 0.0000 0.0000
# 2 28.3184 85.7751 49.3995 0.0000 0.0000 0.0000
# 3 61.5312 49.3995 116.7752 0.0000 0.0000 0.0000
# 4 0.0000 0.0000 0.0000 27.6785 0.0000 0.0000
# 5 0.0000 0.0000 0.0000 0.0000 23.0172 0.0000
# 6 0.0000 0.0000 0.0000 0.0000 0.0000 16.0519
#
#
#
# Elastic Compliance Matrix: (Units=1/GPa)
#
#
# Indices 1 2 3 4 5 6 
#
# 1 0.016130 -0.000569 -0.008259 0.000000 0.000000 0.000000
# 2 -0.000569 0.015434 -0.006229 0.000000 0.000000 0.000000
# 3 -0.008259 -0.006229 0.015550 0.000000 0.000000 0.000000
# 4 0.000000 0.000000 0.000000 0.036129 0.000000 0.000000
# 5 0.000000 0.000000 0.000000 0.000000 0.043446 0.000000
# 6 0.000000 0.000000 0.000000 0.000000 0.000000 0.062298
#
#
# Mechanical properties :
#
#
# Convention : Reuss Voigt Hill
#
# Bulk Modulus (GPa) = 58.82142 63.94965 61.38553
# Shear Modulus (GPa) = 22.24522 23.86948 23.05735
#
# Velocity S-wave (km/s) = 3.69770 3.83032 3.76459
# Velocity P-wave (km/s) = 7.37462 7.67256 7.52507
#
# Compressibility (1/GPa) = 0.01700061
#
# Stress axis : x y z
#
# Youngs Moduli (GPa) = 61.99551 64.79325 64.30791
#
# Poissons Ratio (x) = 0.03687 0.53109
# Poissons Ratio (y) = 0.03528 0.40058
# Poissons Ratio (z) = 0.51200 0.40360
#
# Static dielectric constant tensor:
#      x y z
#    x 3.094460 0.000000 0.000000 
#    y 0.000000 2.979350 0.000000 
#    z 0.000000 0.000000 3.196570 
# 
# 
# High freq. dielectric constant tensor:
#      x y z
#    x 1.602530 0.000000 0.000000 
#    y 0.000000 1.620070 0.000000 
#    z 0.000000 0.000000 1.623900 
# 
# From -- ./inp_files/20840.got.cif
#   From: 2010.03.12/outbox.cif.g09.slc.cpg/sg44_11_cif.got.tgz:20840.got - 2010.04.14 02:36:11.
