data_PCOD8189136
_publ_section_title
;
Structure prediction by ZEFSAII (Michael W. Deem and Ramdas Pophale) SiO2 
 PCOD8189136
Probable space group: I M M 2
;
_chemical_formula_sum "Si O2"
_cell_formula_units_Z 64
_cell_length_a 18.684892
_cell_length_b 9.152236
_cell_length_c 20.977676
_cell_angle_alpha 90.000000
_cell_angle_beta 90.000000
_cell_angle_gamma 90.000000
_cell_volume 3587.361771
_symmetry_space_group_name_H-M "I M M 2"
_symmetry_group_IT_number 44
_symmetry_cell_setting 'orthorhombic'
loop_
_space_group_symop_operation_xyz
x,y,z
-x,-y,z
-x,y,z
x,-y,z
1/2+x,1/2+y,1/2+z
1/2-x,1/2-y,1/2+z
1/2-x,1/2+y,1/2+z
1/2+x,1/2-y,1/2+z
loop_
_atom_site_type_symbol
_atom_site_label
_atom_site_fract_x
_atom_site_fract_y
_atom_site_fract_z
Si Si1 0.674478 0.173088 0.204420
Si Si2 0.419966 0.174927 0.088057
Si Si3 0.917457 0.670946 0.077209
Si Si4 0.415000 0.335208 0.451838
Si Si5 0.080034 0.674927 0.315619
Si Si6 0.417457 0.170946 0.326467
Si Si7 0.325522 0.826912 0.699256
Si Si8 0.914967 0.660029 0.451838
O O1 0.631669 0.232320 0.143122
O O2 0.630570 0.220461 0.266935
O O3 0.750000 0.250000 0.201838
O O4 0.684648 0.000000 0.202188
O O5 0.500000 0.231092 0.103302
O O6 0.420279 0.000000 0.085055
O O7 0.393118 0.238500 0.018751
O O8 0.910302 0.500000 0.063591
O O9 0.869430 0.720461 0.136741
O O10 0.000000 0.712076 0.091888
O O11 0.887198 0.754328 0.015219
O O12 0.500000 0.331094 0.451838
O O13 0.385285 0.500000 0.451838
O O14 0.387198 0.254328 0.388457
O O15 0.079721 0.500000 0.318622
O O16 0.131669 0.732320 0.260554
O O17 0.106882 0.738500 0.384925
O O18 0.000000 0.731092 0.300373
O O19 0.500000 0.212075 0.311788
O O20 0.410302 0.000000 0.340085
O O21 0.315352 0.000000 0.701488
O O22 0.879066 0.500000 0.451838
O O23 0.000000 0.643190 0.451838
#
# Coordination Sequence:
#
# PCOD8189136 Si02
#       8
#     8   8   8   8   8   8   8   8
#     4  10  20  32  46  66  95 128 160 195 233 274
#     4   8  13  24  44  68  91 116 149 188 227 268
#     4   9  17  31  51  71  91 122 164 202 236 281
#     4   9  17  29  48  75 100 118 144 193 252 297
#     4   8  13  24  44  68  91 116 149 188 227 268
#     4   9  17  31  51  71  91 122 164 202 236 281
#     4  10  20  32  46  66  95 128 160 195 233 274
#     4   7  10  18  37  66  92 108 132 181 234 266
#
# _framework density 17.840409999999999
#
# number of rings (size 3 to 8) (size 9 to 14) (size 15 to 20)
#    0.000    3.250    0.000    2.625    0.000    5.500 
#    0.000    1.250    0.000    3.750    0.000    0.000 
#    0.000    3.000    0.000    0.000    0.000    0.000 
#
# Total GULP energy -396510.701223 kJ/mol
# GULP energy per Si atom -12390.959413 kJ/mol
# Density = 1.779980 g / cm^3
# Si number density = 17.840410 Si / 1000 Ang^3
#
#
#
# Elastic Constant Matrix: (Units=GPa)
#
#
# Indices 1 2 3 4 5 6 
#
# 1 97.0075 27.7239 87.3266 0.0000 0.0000 0.0000
# 2 27.7239 33.8276 47.5274 0.0000 0.0000 0.0000
# 3 87.3266 47.5274 216.8174 0.0000 0.0000 0.0000
# 4 0.0000 0.0000 0.0000 14.5127 0.0000 0.0000
# 5 0.0000 0.0000 0.0000 0.0000 5.5394 0.0000
# 6 0.0000 0.0000 0.0000 0.0000 0.0000 23.5038
#
#
#
# Elastic Compliance Matrix: (Units=1/GPa)
#
#
# Indices 1 2 3 4 5 6 
#
# 1 0.017039 -0.006246 -0.005493 0.000000 0.000000 0.000000
# 2 -0.006246 0.045008 -0.007350 0.000000 0.000000 0.000000
# 3 -0.005493 -0.007350 0.008436 0.000000 0.000000 0.000000
# 4 0.000000 0.000000 0.000000 0.068905 0.000000 0.000000
# 5 0.000000 0.000000 0.000000 0.000000 0.180524 0.000000
# 6 0.000000 0.000000 0.000000 0.000000 0.000000 0.042546
#
#
# Mechanical properties :
#
#
# Convention : Reuss Voigt Hill
#
# Bulk Modulus (GPa) = 30.95697 74.75648 52.85673
# Shear Modulus (GPa) = 12.15346 21.04949 16.60148
#
# Velocity S-wave (km/s) = 2.61287 3.43866 3.05381
# Velocity P-wave (km/s) = 5.14710 7.59998 6.49047
#
# Compressibility (1/GPa) = 0.03230290
#
# Stress axis : x y z
#
# Youngs Moduli (GPa) = 58.68947 22.21843 118.54034
#
# Poissons Ratio (x) = 0.13878 0.65120
# Poissons Ratio (y) = 0.36658 0.87129
# Poissons Ratio (z) = 0.32241 0.16331
#
# Static dielectric constant tensor:
#      x y z
#    x 3.018100 0.000000 0.000000 
#    y 0.000000 2.881740 0.000000 
#    z 0.000000 0.000000 3.862550 
# 
# 
# High freq. dielectric constant tensor:
#      x y z
#    x 1.658130 0.000000 0.000000 
#    y 0.000000 1.640390 0.000000 
#    z 0.000000 0.000000 1.718420 
# 
# From -- ./inp_files/24347.got.cif
#   From: 2010.03.12/outbox.cif.g09.slc.cpg/sg44_13_cif.got.tgz:24347.got - 2010.04.14 02:36:11.
