data_PCOD8189538
_publ_section_title
;
Structure prediction by ZEFSAII (Michael W. Deem and Ramdas Pophale) SiO2 
 PCOD8189538
Probable space group: I M M 2
;
_chemical_formula_sum "Si O2"
_cell_formula_units_Z 64
_cell_length_a 8.598148
_cell_length_b 18.631454
_cell_length_c 20.949217
_cell_angle_alpha 90.000000
_cell_angle_beta 90.000000
_cell_angle_gamma 90.000000
_cell_volume 3355.980744
_symmetry_space_group_name_H-M "I M M 2"
_symmetry_group_IT_number 44
_symmetry_cell_setting 'orthorhombic'
loop_
_space_group_symop_operation_xyz
x,y,z
-x,-y,z
-x,y,z
x,-y,z
1/2+x,1/2+y,1/2+z
1/2-x,1/2-y,1/2+z
1/2-x,1/2+y,1/2+z
1/2+x,1/2-y,1/2+z
loop_
_atom_site_type_symbol
_atom_site_label
_atom_site_fract_x
_atom_site_fract_y
_atom_site_fract_z
Si Si1 0.174410 0.414938 0.560300
Si Si2 0.313975 0.919667 0.692703
Si Si3 0.317142 0.175385 0.303515
Si Si4 0.816809 0.918294 0.928529
Si Si5 0.314007 0.919926 0.420111
Si Si6 0.819234 0.916187 0.191826
Si Si7 0.829592 0.414679 0.056502
Si Si8 0.682865 0.169092 0.812199
O O1 0.174746 0.500000 0.557956
O O2 0.247357 0.386579 0.494293
O O3 0.276048 0.389363 0.620697
O O4 0.000000 0.384579 0.567392
O O5 0.500000 0.918558 0.688491
O O6 0.245568 0.892617 0.623445
O O7 0.251656 0.868854 0.748478
O O8 0.255052 0.000000 0.707872
O O9 0.500000 0.191320 0.307391
O O10 0.254919 0.132098 0.364884
O O11 0.282664 0.129407 0.240764
O O12 0.221242 0.248100 0.304273
O O13 0.765929 0.865617 0.872595
O O14 0.000000 0.917148 0.935317
O O15 0.758205 0.000000 0.915173
O O16 0.500000 0.920905 0.423787
O O17 0.245949 0.893038 0.489437
O O18 0.252604 0.000000 0.404595
O O19 0.000000 0.901481 0.203943
O O20 0.777477 0.000000 0.200681
O O21 0.847253 0.500000 0.056898
O O22 0.000000 0.378710 0.056290
O O23 0.500000 0.157236 0.819818
#
# Coordination Sequence:
#
# PCOD8189538 Si02
#       8
#     8   8   8   8   8   8   8   8
#     4   9  17  31  54  83 110 135 167 211 264 319
#     4   8  14  26  47  73  97 123 158 203 256 313
#     4  11  22  35  50  71 104 142 180 220 263 314
#     4  10  20  35  56  81 107 136 174 220 268 320
#     4   8  14  26  47  73  97 123 158 203 256 313
#     4  10  20  35  56  81 107 136 174 220 268 320
#     4   7  10  20  41  70  98 117 143 193 252 303
#     4  11  22  35  50  71 104 142 180 220 263 314
#
# _framework density 19.070430000000002
#
# number of rings (size 3 to 8) (size 9 to 14) (size 15 to 20)
#    0.000    2.750    0.000    4.125    0.000    4.000 
#    0.000    1.250    0.000    3.000    0.000    2.625 
#    0.000   14.000    0.000    0.000    0.000    0.000 
#
# Total GULP energy -396562.863145 kJ/mol
# GULP energy per Si atom -12392.589473 kJ/mol
# Density = 1.902703 g / cm^3
# Si number density = 19.070430 Si / 1000 Ang^3
#
#
#
# Elastic Constant Matrix: (Units=GPa)
#
#
# Indices 1 2 3 4 5 6 
#
# 1 36.6919 6.4773 12.3057 0.0000 0.0000 0.0000
# 2 6.4773 72.0372 55.5618 0.0000 0.0000 0.0000
# 3 12.3057 55.5618 173.5969 0.0000 0.0000 0.0000
# 4 0.0000 0.0000 0.0000 1.3439 0.0000 0.0000
# 5 0.0000 0.0000 0.0000 0.0000 22.8135 0.0000
# 6 0.0000 0.0000 0.0000 0.0000 0.0000 22.5330
#
#
#
# Elastic Compliance Matrix: (Units=1/GPa)
#
#
# Indices 1 2 3 4 5 6 
#
# 1 0.028011 -0.001311 -0.001566 0.000000 0.000000 0.000000
# 2 -0.001311 0.018493 -0.005826 0.000000 0.000000 0.000000
# 3 -0.001566 -0.005826 0.007736 0.000000 0.000000 0.000000
# 4 0.000000 0.000000 0.000000 0.744089 0.000000 0.000000
# 5 0.000000 0.000000 0.000000 0.000000 0.043834 0.000000
# 6 0.000000 0.000000 0.000000 0.000000 0.000000 0.044379
#
#
# Mechanical properties :
#
#
# Convention : Reuss Voigt Hill
#
# Bulk Modulus (GPa) = 27.14863 47.89063 37.51963
# Shear Modulus (GPa) = 5.45717 23.20348 14.33033
#
# Velocity S-wave (km/s) = 1.69346 3.49194 2.74422
# Velocity P-wave (km/s) = 4.25331 6.43625 5.45508
#
# Compressibility (1/GPa) = 0.03683427
#
# Stress axis : x y z
#
# Youngs Moduli (GPa) = 35.70080 54.07400 129.26264
#
# Poissons Ratio (x) = 0.07088 0.20243
# Poissons Ratio (y) = 0.04679 0.75309
# Poissons Ratio (z) = 0.05591 0.31504
#
# Static dielectric constant tensor:
#      x y z
#    x 3.153800 0.000000 0.000000 
#    y 0.000000 3.173050 0.000000 
#    z 0.000000 0.000000 4.061400 
# 
# 
# High freq. dielectric constant tensor:
#      x y z
#    x 1.708750 0.000000 0.000000 
#    y 0.000000 1.704090 0.000000 
#    z 0.000000 0.000000 1.769540 
# 
# From -- ./inp_files/23317.got.cif
#   From: 2010.03.12/outbox.cif.g09.slc.cpg/sg44_12_cif.got.tgz:23317.got - 2010.04.14 02:36:11.
