data_PCOD8189944
_publ_section_title
;
Structure prediction by ZEFSAII (Michael W. Deem and Ramdas Pophale) SiO2 
 PCOD8189944
Probable space group: I M M 2
;
_chemical_formula_sum "Si O2"
_cell_formula_units_Z 64
_cell_length_a 28.792004
_cell_length_b 8.863530
_cell_length_c 12.676706
_cell_angle_alpha 90.000000
_cell_angle_beta 90.000000
_cell_angle_gamma 90.000000
_cell_volume 3235.080048
_symmetry_space_group_name_H-M "I M M 2"
_symmetry_group_IT_number 44
_symmetry_cell_setting 'orthorhombic'
loop_
_space_group_symop_operation_xyz
x,y,z
-x,-y,z
-x,y,z
x,-y,z
1/2+x,1/2+y,1/2+z
1/2-x,1/2-y,1/2+z
1/2-x,1/2+y,1/2+z
1/2+x,1/2-y,1/2+z
loop_
_atom_site_type_symbol
_atom_site_label
_atom_site_fract_x
_atom_site_fract_y
_atom_site_fract_z
Si Si1 0.054478 0.326767 0.786690
Si Si2 0.054330 0.674362 0.547591
Si Si3 0.790545 0.334635 0.442017
Si Si4 0.620094 0.676015 0.881200
Si Si5 0.795065 0.168505 0.805700
Si Si6 0.740499 0.671926 0.651611
Si Si7 0.378580 0.677910 0.448068
Si Si8 0.642186 0.178807 0.666252
O O1 0.068320 0.500000 0.807879
O O2 0.069263 0.280876 0.667345
O O3 0.078951 0.221038 0.872402
O O4 0.000000 0.303375 0.801010
O O5 0.066452 0.500000 0.527560
O O6 0.080236 0.776110 0.462349
O O7 0.000000 0.703815 0.533140
O O8 0.814323 0.500000 0.454462
O O9 0.830313 0.209711 0.435949
O O10 0.758825 0.330330 0.339254
O O11 0.751833 0.307227 0.529947
O O12 0.615902 0.500000 0.858560
O O13 0.614844 0.762941 0.769929
O O14 0.789635 0.277306 0.705228
O O15 0.831213 0.233171 0.890858
O O16 0.811050 0.000000 0.773204
O O17 0.728761 0.500000 0.682206
O O18 0.695363 0.770611 0.675738
O O19 0.377927 0.500000 0.468395
O O20 0.382601 0.757710 0.561288
O O21 0.639366 0.000000 0.663936
#
# Coordination Sequence:
#
# PCOD8189944 Si02
#       8
#     8   8   8   8   8   8   8   8
#     4   9  20  41  67  94 123 156 195 239 294 359
#     4   9  20  42  69  93 121 157 195 240 297 358
#     4  10  21  38  56  79 116 160 200 243 292 348
#     4  12  25  39  60  90 122 157 201 250 299 353
#     4  10  21  37  55  80 118 158 197 242 293 349
#     4  11  22  37  56  80 114 156 202 252 296 343
#     4  11  23  40  61  89 123 157 201 251 299 351
#     4  12  24  40  61  83 117 162 204 247 299 358
#
# _framework density 19.783125999999999
#
# number of rings (size 3 to 8) (size 9 to 14) (size 15 to 20)
#    0.000    1.500    2.500    3.750    1.750    3.000 
#    0.000    1.875    0.000    3.750    0.000    0.000 
#    0.000    0.000    0.000    0.000    0.000    0.000 
#
# Total GULP energy -396692.785730 kJ/mol
# GULP energy per Si atom -12396.649554 kJ/mol
# Density = 1.973810 g / cm^3
# Si number density = 19.783126 Si / 1000 Ang^3
#
#
#
# Elastic Constant Matrix: (Units=GPa)
#
#
# Indices 1 2 3 4 5 6 
#
# 1 66.4510 34.7607 40.9629 0.0000 0.0000 0.0000
# 2 34.7607 113.7161 47.3823 0.0000 0.0000 0.0000
# 3 40.9629 47.3823 98.4985 0.0000 0.0000 0.0000
# 4 0.0000 0.0000 0.0000 32.7476 0.0000 0.0000
# 5 0.0000 0.0000 0.0000 0.0000 35.3166 0.0000
# 6 0.0000 0.0000 0.0000 0.0000 0.0000 29.6496
#
#
#
# Elastic Compliance Matrix: (Units=1/GPa)
#
#
# Indices 1 2 3 4 5 6 
#
# 1 0.021312 -0.003529 -0.007165 0.000000 0.000000 0.000000
# 2 -0.003529 0.011583 -0.004104 0.000000 0.000000 0.000000
# 3 -0.007165 -0.004104 0.015107 0.000000 0.000000 0.000000
# 4 0.000000 0.000000 0.000000 0.030537 0.000000 0.000000
# 5 0.000000 0.000000 0.000000 0.000000 0.028315 0.000000
# 6 0.000000 0.000000 0.000000 0.000000 0.000000 0.033727
#
#
# Mechanical properties :
#
#
# Convention : Reuss Voigt Hill
#
# Bulk Modulus (GPa) = 54.33616 58.31971 56.32793
# Shear Modulus (GPa) = 28.35885 29.91341 29.13613
#
# Velocity S-wave (km/s) = 3.79025 3.89275 3.84184
# Velocity P-wave (km/s) = 6.83229 7.05324 6.94364
#
# Compressibility (1/GPa) = 0.01840395
#
# Stress axis : x y z
#
# Youngs Moduli (GPa) = 46.92265 86.33592 66.19604
#
# Poissons Ratio (x) = 0.30467 0.47432
# Poissons Ratio (y) = 0.16559 0.27168
# Poissons Ratio (z) = 0.33622 0.35434
#
# Static dielectric constant tensor:
#      x y z
#    x 3.352510 0.000000 0.000000 
#    y 0.000000 3.586980 0.000000 
#    z 0.000000 0.000000 3.981740 
# 
# 
# High freq. dielectric constant tensor:
#      x y z
#    x 1.752870 0.000000 0.000000 
#    y 0.000000 1.769150 0.000000 
#    z 0.000000 0.000000 1.786180 
# 
# From -- ./inp_files/11432.got.cif
#   From: 2010.03.12/outbox.cif.g09.slc.cpg/sg44_6_cif.got.tgz:11432.got - 2010.04.14 02:36:11.
