data_PCOD8189863
_publ_section_title
;
Structure prediction by ZEFSAII (Michael W. Deem and Ramdas Pophale) SiO2 
 PCOD8189863
Probable space group: I M M 2
;
_chemical_formula_sum "Si O2"
_cell_formula_units_Z 48
_cell_length_a 7.768986
_cell_length_b 9.137255
_cell_length_c 33.610858
_cell_angle_alpha 90.000000
_cell_angle_beta 90.000000
_cell_angle_gamma 90.000000
_cell_volume 2385.940907
_symmetry_space_group_name_H-M "I M M 2"
_symmetry_group_IT_number 44
_symmetry_cell_setting 'orthorhombic'
loop_
_space_group_symop_operation_xyz
x,y,z
-x,-y,z
-x,y,z
x,-y,z
1/2+x,1/2+y,1/2+z
1/2-x,1/2-y,1/2+z
1/2-x,1/2+y,1/2+z
1/2+x,1/2-y,1/2+z
loop_
_atom_site_type_symbol
_atom_site_label
_atom_site_fract_x
_atom_site_fract_y
_atom_site_fract_z
Si Si1 0.195561 0.664558 0.225050
Si Si2 0.297244 0.831912 0.148148
Si Si3 0.000000 0.172658 0.355518
Si Si4 0.800656 0.832865 0.570521
Si Si5 0.805686 0.669288 0.983836
Si Si6 0.500000 0.174228 0.939357
Si Si7 0.191173 0.666502 0.799172
O O1 0.264183 0.500000 0.218880
O O2 0.205233 0.748506 0.183631
O O3 0.308100 0.740401 0.258941
O O4 0.000000 0.665714 0.239975
O O5 0.500000 0.808875 0.152433
O O6 0.231442 0.767665 0.106240
O O7 0.242808 0.000000 0.150076
O O8 0.169897 0.220190 0.331230
O O9 0.000000 0.266961 0.394912
O O10 0.000000 0.000000 0.365540
O O11 0.697666 0.793341 0.530651
O O12 0.000000 0.802026 0.561537
O O13 0.769470 0.000000 0.583328
O O14 0.752659 0.500000 0.977089
O O15 0.672867 0.770828 0.960639
O O16 0.000000 0.698396 0.968305
O O17 0.500000 0.000000 0.939539
O O18 0.233301 0.500000 0.787020
O O19 0.000000 0.680349 0.818035
#
# Coordination Sequence:
#
# PCOD8189863 Si02
#       7
#     8   8   4   8   8   4   8
#     4  11  23  37  55  81 116 158 204 249 299 358
#     4  10  21  35  53  81 117 157 202 250 302 360
#     4  10  22  42  66  92 124 160 204 252 302 368
#     4   9  17  33  57  84 118 157 201 253 308 362
#     4  10  21  40  67  94 122 163 213 259 309 375
#     4  12  26  42  64  94 134 168 202 258 316 376
#     4  10  21  39  65  93 119 153 197 246 302 361
#
# _framework density 20.117849
#
# number of rings (size 3 to 8) (size 9 to 14) (size 15 to 20)
#    0.000    1.833    1.667    2.250    0.000    7.333 
#    0.000    3.333    0.000    0.000    0.000    0.000 
#    0.000    0.000    0.000    0.000    0.000    0.000 
#
# Total GULP energy -297674.583536 kJ/mol
# GULP energy per Si atom -12403.107647 kJ/mol
# Density = 2.007206 g / cm^3
# Si number density = 20.117849 Si / 1000 Ang^3
#
#
#
# Elastic Constant Matrix: (Units=GPa)
#
#
# Indices 1 2 3 4 5 6 
#
# 1 105.1701 47.6547 53.7721 0.0000 0.0000 0.0000
# 2 47.6547 126.6394 73.3463 0.0000 0.0000 0.0000
# 3 53.7721 73.3463 124.9816 0.0000 0.0000 0.0000
# 4 0.0000 0.0000 0.0000 38.0045 0.0000 0.0000
# 5 0.0000 0.0000 0.0000 0.0000 4.5414 0.0000
# 6 0.0000 0.0000 0.0000 0.0000 0.0000 21.6462
#
#
#
# Elastic Compliance Matrix: (Units=1/GPa)
#
#
# Indices 1 2 3 4 5 6 
#
# 1 0.012669 -0.002440 -0.004019 0.000000 0.000000 0.000000
# 2 -0.002440 0.012432 -0.006246 0.000000 0.000000 0.000000
# 3 -0.004019 -0.006246 0.013396 0.000000 0.000000 0.000000
# 4 0.000000 0.000000 0.000000 0.026313 0.000000 0.000000
# 5 0.000000 0.000000 0.000000 0.000000 0.220197 0.000000
# 6 0.000000 0.000000 0.000000 0.000000 0.000000 0.046197
#
#
# Mechanical properties :
#
#
# Convention : Reuss Voigt Hill
#
# Bulk Modulus (GPa) = 76.41042 78.48192 77.44617
# Shear Modulus (GPa) = 13.85133 24.97295 19.41214
#
# Velocity S-wave (km/s) = 2.62679 3.52708 3.10969
# Velocity P-wave (km/s) = 6.87488 7.46209 7.17449
#
# Compressibility (1/GPa) = 0.01308722
#
# Stress axis : x y z
#
# Youngs Moduli (GPa) = 78.93515 80.43664 74.64971
#
# Poissons Ratio (x) = 0.19624 0.30001
# Poissons Ratio (y) = 0.19257 0.46628
# Poissons Ratio (z) = 0.31723 0.50243
#
# Static dielectric constant tensor:
#      x y z
#    x 3.721460 0.000000 0.000000 
#    y 0.000000 3.640950 0.000000 
#    z 0.000000 0.000000 3.542060 
# 
# 
# High freq. dielectric constant tensor:
#      x y z
#    x 1.791140 0.000000 0.000000 
#    y 0.000000 1.778390 0.000000 
#    z 0.000000 0.000000 1.780610 
# 
# From -- ./inp_files/26913.got.cif
#   From: 2010.03.12/outbox.cif.g09.slc.cpg/sg44_14_cif.got.tgz:26913.got - 2010.04.14 02:36:11.
