data_PCOD8189778
_publ_section_title
;
Structure prediction by ZEFSAII (Michael W. Deem and Ramdas Pophale) SiO2 
 PCOD8189778
Probable space group: I M M 2
;
_chemical_formula_sum "Si O2"
_cell_formula_units_Z 64
_cell_length_a 28.295343
_cell_length_b 8.682979
_cell_length_c 12.675750
_cell_angle_alpha 90.000000
_cell_angle_beta 90.000000
_cell_angle_gamma 90.000000
_cell_volume 3114.278006
_symmetry_space_group_name_H-M "I M M 2"
_symmetry_group_IT_number 44
_symmetry_cell_setting 'orthorhombic'
loop_
_space_group_symop_operation_xyz
x,y,z
-x,-y,z
-x,y,z
x,-y,z
1/2+x,1/2+y,1/2+z
1/2-x,1/2-y,1/2+z
1/2-x,1/2+y,1/2+z
1/2+x,1/2-y,1/2+z
loop_
_atom_site_type_symbol
_atom_site_label
_atom_site_fract_x
_atom_site_fract_y
_atom_site_fract_z
Si Si1 0.052712 0.672324 0.119480
Si Si2 0.446351 0.683207 0.985343
Si Si3 0.394136 0.317588 0.195595
Si Si4 0.074986 0.168896 0.916490
Si Si5 0.702718 0.819232 0.268192
Si Si6 0.682602 0.671060 0.479615
Si Si7 0.203537 0.679572 0.194021
Si Si8 0.385001 0.320002 0.787982
O O1 0.073338 0.500000 0.132752
O O2 0.085477 0.791987 0.181111
O O3 0.000000 0.681255 0.166224
O O4 0.049832 0.713188 0.995364
O O5 0.500000 0.748820 0.978678
O O6 0.448254 0.500000 0.983459
O O7 0.420909 0.742406 0.091401
O O8 0.415390 0.743664 0.886522
O O9 0.385247 0.500000 0.192026
O O10 0.428117 0.274546 0.294850
O O11 0.343304 0.237458 0.204866
O O12 0.051335 0.000000 0.928468
O O13 0.129572 0.157553 0.942356
O O14 0.711440 0.740964 0.381876
O O15 0.748445 0.775801 0.200809
O O16 0.698503 0.000000 0.284538
O O17 0.702151 0.500000 0.508115
O O18 0.683719 0.785822 0.578036
O O19 0.213807 0.500000 0.208472
O O20 0.165103 0.732807 0.281436
O O21 0.374437 0.500000 0.798278
#
# Coordination Sequence:
#
# PCOD8189778 Si02
#       8
#     8   8   8   8   8   8   8   8
#     4  11  23  36  53  81 117 154 194 243 300 362
#     4   9  19  37  63  92 122 162 211 263 314 369
#     4   9  19  38  62  88 121 157 203 259 311 366
#     4   9  18  33  57  84 112 147 188 241 302 363
#     4  11  23  39  60  89 124 164 207 253 310 375
#     4  10  20  38  61  86 116 150 194 249 307 367
#     4  12  24  39  61  88 121 162 207 257 315 376
#     4  11  22  38  60  87 119 157 206 260 313 375
#
# _framework density 20.550509000000002
#
# number of rings (size 3 to 8) (size 9 to 14) (size 15 to 20)
#    0.000    1.750    1.250    4.500    0.000    5.000 
#    0.000    6.250    0.000    1.875    0.000    0.000 
#    0.000    0.000    0.000    0.000    0.000    0.000 
#
# Total GULP energy -396801.735547 kJ/mol
# GULP energy per Si atom -12400.054236 kJ/mol
# Density = 2.050373 g / cm^3
# Si number density = 20.550509 Si / 1000 Ang^3
#
#
#
# Elastic Constant Matrix: (Units=GPa)
#
#
# Indices 1 2 3 4 5 6 
#
# 1 86.8597 26.3656 37.4607 0.0000 0.0000 0.0000
# 2 26.3656 73.2112 18.7589 0.0000 0.0000 0.0000
# 3 37.4607 18.7589 120.3613 0.0000 0.0000 0.0000
# 4 0.0000 0.0000 0.0000 18.3205 0.0000 0.0000
# 5 0.0000 0.0000 0.0000 0.0000 22.6805 0.0000
# 6 0.0000 0.0000 0.0000 0.0000 0.0000 23.1444
#
#
#
# Elastic Compliance Matrix: (Units=1/GPa)
#
#
# Indices 1 2 3 4 5 6 
#
# 1 0.014450 -0.004220 -0.003840 0.000000 0.000000 0.000000
# 2 -0.004220 0.015460 -0.001096 0.000000 0.000000 0.000000
# 3 -0.003840 -0.001096 0.009674 0.000000 0.000000 0.000000
# 4 0.000000 0.000000 0.000000 0.054584 0.000000 0.000000
# 5 0.000000 0.000000 0.000000 0.000000 0.044091 0.000000
# 6 0.000000 0.000000 0.000000 0.000000 0.000000 0.043207
#
#
# Mechanical properties :
#
#
# Convention : Reuss Voigt Hill
#
# Bulk Modulus (GPa) = 47.00936 49.51140 48.26038
# Shear Modulus (GPa) = 24.17014 26.01888 25.09451
#
# Velocity S-wave (km/s) = 3.43320 3.56208 3.49824
# Velocity P-wave (km/s) = 6.21615 6.40802 6.31282
#
# Compressibility (1/GPa) = 0.02127236
#
# Stress axis : x y z
#
# Youngs Moduli (GPa) = 69.20574 64.68438 103.36825
#
# Poissons Ratio (x) = 0.27297 0.39689
# Poissons Ratio (y) = 0.29205 0.11330
# Poissons Ratio (z) = 0.26572 0.07090
#
# Static dielectric constant tensor:
#      x y z
#    x 3.687280 0.000000 0.000000 
#    y 0.000000 3.601380 0.000000 
#    z 0.000000 0.000000 3.978800 
# 
# 
# High freq. dielectric constant tensor:
#      x y z
#    x 1.801450 0.000000 0.000000 
#    y 0.000000 1.789790 0.000000 
#    z 0.000000 0.000000 1.805510 
# 
# From -- ./inp_files/15104.got.cif
#   From: 2010.03.12/outbox.cif.g09.slc.cpg/sg44_8_cif.got.tgz:15104.got - 2010.04.14 02:36:11.
