data_PCOD8189316
_publ_section_title
;
Structure prediction by ZEFSAII (Michael W. Deem and Ramdas Pophale) SiO2 
 PCOD8189316
Probable space group: I M M 2
;
_chemical_formula_sum "Si O2"
_cell_formula_units_Z 64
_cell_length_a 28.511489
_cell_length_b 9.351423
_cell_length_c 12.533423
_cell_angle_alpha 90.000000
_cell_angle_beta 90.000000
_cell_angle_gamma 90.000000
_cell_volume 3341.698765
_symmetry_space_group_name_H-M "I M M 2"
_symmetry_group_IT_number 44
_symmetry_cell_setting 'orthorhombic'
loop_
_space_group_symop_operation_xyz
x,y,z
-x,-y,z
-x,y,z
x,-y,z
1/2+x,1/2+y,1/2+z
1/2-x,1/2-y,1/2+z
1/2-x,1/2+y,1/2+z
1/2+x,1/2-y,1/2+z
loop_
_atom_site_type_symbol
_atom_site_label
_atom_site_fract_x
_atom_site_fract_y
_atom_site_fract_z
Si Si1 0.414638 0.661532 0.778240
Si Si2 0.787415 0.662157 0.992670
Si Si3 0.167883 0.343596 0.217174
Si Si4 0.103163 0.171859 0.509051
Si Si5 0.445008 0.167620 0.201122
Si Si6 0.196060 0.664296 0.452247
Si Si7 0.949145 0.837746 0.062204
Si Si8 0.887098 0.666706 0.908472
O O1 0.401021 0.500000 0.799786
O O2 0.371470 0.725731 0.714067
O O3 0.455749 0.682233 0.691551
O O4 0.422718 0.722077 0.897905
O O5 0.771395 0.500000 0.964900
O O6 0.746367 0.774913 0.981681
O O7 0.831637 0.703611 0.915765
O O8 0.798981 0.675115 0.116779
O O9 0.143759 0.500000 0.214669
O O10 0.197111 0.325742 0.325071
O O11 0.071287 0.238805 0.601068
O O12 0.155169 0.240618 0.507246
O O13 0.106185 0.000000 0.524513
O O14 0.500000 0.198235 0.225461
O O15 0.412216 0.219087 0.299805
O O16 0.437115 0.000000 0.177083
O O17 0.190763 0.500000 0.491954
O O18 0.000000 0.804724 0.011907
O O19 0.933627 0.000000 0.037789
O O20 0.911234 0.734955 0.011197
O O21 0.895014 0.500000 0.921972
#
# Coordination Sequence:
#
# PCOD8189316 Si02
#       8
#     8   8   8   8   8   8   8   8
#     4   9  18  33  54  79 107 141 180 225 279 336
#     4  10  20  35  56  82 112 147 191 240 289 345
#     4   9  18  34  54  76 106 141 178 227 281 334
#     4  10  21  38  60  84 113 151 195 241 290 345
#     4  10  22  40  60  84 118 159 202 249 298 350
#     4  10  21  36  56  83 114 150 190 237 293 349
#     4  10  20  33  52  81 114 143 177 227 282 337
#     4  10  21  38  59  82 112 151 194 240 289 345
#
# _framework density 19.151935999999999
#
# number of rings (size 3 to 8) (size 9 to 14) (size 15 to 20)
#    0.000    2.250    1.250    1.125    0.000    5.000 
#    0.000    3.750    0.000    0.000    0.000    0.000 
#    0.000    0.000    0.000    0.000    0.000    0.000 
#
# Total GULP energy -396480.112591 kJ/mol
# GULP energy per Si atom -12390.003518 kJ/mol
# Density = 1.910835 g / cm^3
# Si number density = 19.151936 Si / 1000 Ang^3
#
#
#
# Elastic Constant Matrix: (Units=GPa)
#
#
# Indices 1 2 3 4 5 6 
#
# 1 79.8453 35.0995 30.3632 0.0000 0.0000 0.0000
# 2 35.0995 54.5336 36.3830 0.0000 0.0000 0.0000
# 3 30.3632 36.3830 91.2638 0.0000 0.0000 0.0000
# 4 0.0000 0.0000 0.0000 28.0332 0.0000 0.0000
# 5 0.0000 0.0000 0.0000 0.0000 21.2404 0.0000
# 6 0.0000 0.0000 0.0000 0.0000 0.0000 30.0759
#
#
#
# Elastic Compliance Matrix: (Units=1/GPa)
#
#
# Indices 1 2 3 4 5 6 
#
# 1 0.017688 -0.010161 -0.001834 0.000000 0.000000 0.000000
# 2 -0.010161 0.030819 -0.008906 0.000000 0.000000 0.000000
# 3 -0.001834 -0.008906 0.015118 0.000000 0.000000 0.000000
# 4 0.000000 0.000000 0.000000 0.035672 0.000000 0.000000
# 5 0.000000 0.000000 0.000000 0.000000 0.047080 0.000000
# 6 0.000000 0.000000 0.000000 0.000000 0.000000 0.033249
#
#
# Mechanical properties :
#
#
# Convention : Reuss Voigt Hill
#
# Bulk Modulus (GPa) = 45.82245 47.70379 46.76312
# Shear Modulus (GPa) = 21.86246 24.12304 22.99275
#
# Velocity S-wave (km/s) = 3.38232 3.55288 3.46865
# Velocity P-wave (km/s) = 6.26347 6.46473 6.36490
#
# Compressibility (1/GPa) = 0.02182336
#
# Stress axis : x y z
#
# Youngs Moduli (GPa) = 56.53398 32.44765 66.14763
#
# Poissons Ratio (x) = 0.32971 0.12132
# Poissons Ratio (y) = 0.57445 0.58908
# Poissons Ratio (z) = 0.10369 0.28896
#
# Static dielectric constant tensor:
#      x y z
#    x 3.550550 0.000000 0.000000 
#    y 0.000000 3.563060 0.000000 
#    z 0.000000 0.000000 3.777970 
# 
# 
# High freq. dielectric constant tensor:
#      x y z
#    x 1.734770 0.000000 0.000000 
#    y 0.000000 1.745350 0.000000 
#    z 0.000000 0.000000 1.752250 
# 
# From -- ./inp_files/11495.got.cif
#   From: 2010.03.12/outbox.cif.g09.slc.cpg/sg44_6_cif.got.tgz:11495.got - 2010.04.14 02:36:11.
