data_PCOD8189066
_publ_section_title
;
Structure prediction by ZEFSAII (Michael W. Deem and Ramdas Pophale) SiO2 
 PCOD8189066
Probable space group: I M M 2
;
_chemical_formula_sum "Si O2"
_cell_formula_units_Z 44
_cell_length_a 14.952617
_cell_length_b 7.530036
_cell_length_c 19.970816
_cell_angle_alpha 90.000000
_cell_angle_beta 90.000000
_cell_angle_gamma 90.000000
_cell_volume 2248.588950
_symmetry_space_group_name_H-M "I M M 2"
_symmetry_group_IT_number 44
_symmetry_cell_setting 'orthorhombic'
loop_
_space_group_symop_operation_xyz
x,y,z
-x,-y,z
-x,y,z
x,-y,z
1/2+x,1/2+y,1/2+z
1/2-x,1/2-y,1/2+z
1/2-x,1/2+y,1/2+z
1/2+x,1/2-y,1/2+z
loop_
_atom_site_type_symbol
_atom_site_label
_atom_site_fract_x
_atom_site_fract_y
_atom_site_fract_z
Si Si1 0.233415 0.203822 0.397150
Si Si2 0.783599 0.704588 0.042396
Si Si3 0.356814 0.000000 0.064835
Si Si4 0.597227 0.000000 0.205779
Si Si5 0.269508 0.707267 0.250289
Si Si6 0.096283 0.500000 0.420262
Si Si7 0.599427 0.207635 0.664797
O O1 0.297429 0.241270 0.462211
O O2 0.281945 0.257455 0.329140
O O3 0.145089 0.321765 0.398297
O O4 0.203261 0.000000 0.395992
O O5 0.756718 0.500000 0.054355
O O6 0.870115 0.751903 0.088041
O O7 0.703347 0.823682 0.068392
O O8 0.422743 0.000000 0.126963
O O9 0.417396 0.000000 0.999516
O O10 0.650711 0.179240 0.220204
O O11 0.500000 0.000000 0.242159
O O12 0.283641 0.500000 0.233570
O O13 0.174021 0.774442 0.218906
O O14 0.000000 0.500000 0.384627
O O15 0.500000 0.293542 0.676502
O O16 0.589975 0.000000 0.674549
#
# Coordination Sequence:
#
# PCOD8189066 Si02
#       7
#     8   8   4   4   8   4   8
#     4  10  20  36  60  83 113 163 202 238 298 355
#     4   9  18  34  57  85 114 154 193 238 291 353
#     4  10  19  36  60  82 112 150 198 246 300 346
#     4  12  25  40  62  88 113 152 210 260 299 351
#     4  11  22  40  61  86 122 160 195 247 305 360
#     4  10  21  36  56  88 121 152 194 248 303 363
#     4   9  18  34  59  89 120 154 191 237 297 365
#
# _framework density 19.567826
#
# number of rings (size 3 to 8) (size 9 to 14) (size 15 to 20)
#    0.000    2.000    3.636    0.273    0.000    1.455 
#    0.000    2.727    0.000    3.273    0.000    0.000 
#    0.000    0.000    0.000    0.000    0.000    0.000 
#
# Total GULP energy -272544.331538 kJ/mol
# GULP energy per Si atom -12388.378706 kJ/mol
# Density = 1.952329 g / cm^3
# Si number density = 19.567826 Si / 1000 Ang^3
#
#
#
# Elastic Constant Matrix: (Units=GPa)
#
#
# Indices 1 2 3 4 5 6 
#
# 1 115.1074 37.3104 35.4984 0.0000 0.0000 0.0000
# 2 37.3104 101.4424 19.6860 0.0000 0.0000 0.0000
# 3 35.4984 19.6860 121.4284 0.0000 0.0000 0.0000
# 4 0.0000 0.0000 0.0000 22.7328 0.0000 0.0000
# 5 0.0000 0.0000 0.0000 0.0000 11.1911 0.0000
# 6 0.0000 0.0000 0.0000 0.0000 0.0000 11.2559
#
#
#
# Elastic Compliance Matrix: (Units=1/GPa)
#
#
# Indices 1 2 3 4 5 6 
#
# 1 0.010571 -0.003395 -0.002540 0.000000 0.000000 0.000000
# 2 -0.003395 0.011268 -0.000834 0.000000 0.000000 0.000000
# 3 -0.002540 -0.000834 0.009113 0.000000 0.000000 0.000000
# 4 0.000000 0.000000 0.000000 0.043989 0.000000 0.000000
# 5 0.000000 0.000000 0.000000 0.000000 0.089357 0.000000
# 6 0.000000 0.000000 0.000000 0.000000 0.000000 0.088842
#
#
# Mechanical properties :
#
#
# Convention : Reuss Voigt Hill
#
# Bulk Modulus (GPa) = 57.42532 58.10754 57.76643
# Shear Modulus (GPa) = 18.34964 25.40152 21.87558
#
# Velocity S-wave (km/s) = 3.06558 3.60686 3.34718
# Velocity P-wave (km/s) = 6.47618 6.86337 6.67258
#
# Compressibility (1/GPa) = 0.01741392
#
# Stress axis : x y z
#
# Youngs Moduli (GPa) = 94.59511 88.74316 109.73211
#
# Poissons Ratio (x) = 0.30130 0.27872
# Poissons Ratio (y) = 0.32117 0.09155
# Poissons Ratio (z) = 0.24027 0.07404
#
# Static dielectric constant tensor:
#      x y z
#    x 3.444560 0.000000 0.000000 
#    y 0.000000 3.549180 0.000000 
#    z 0.000000 0.000000 3.979210 
# 
# 
# High freq. dielectric constant tensor:
#      x y z
#    x 1.727360 0.000000 0.000000 
#    y 0.000000 1.767870 0.000000 
#    z 0.000000 0.000000 1.777820 
# 
# From -- ./inp_files/21686.got.cif
#   From: 2010.03.12/outbox.cif.g09.slc.cpg/sg44_11_cif.got.tgz:21686.got - 2010.04.14 02:36:11.
