data_PCOD8189287
_publ_section_title
;
Structure prediction by ZEFSAII (Michael W. Deem and Ramdas Pophale) SiO2 
 PCOD8189287
Probable space group: I M M 2
;
_chemical_formula_sum "Si O2"
_cell_formula_units_Z 48
_cell_length_a 9.079783
_cell_length_b 9.252670
_cell_length_c 30.466922
_cell_angle_alpha 90.000000
_cell_angle_beta 90.000000
_cell_angle_gamma 90.000000
_cell_volume 2559.594234
_symmetry_space_group_name_H-M "I M M 2"
_symmetry_group_IT_number 44
_symmetry_cell_setting 'orthorhombic'
loop_
_space_group_symop_operation_xyz
x,y,z
-x,-y,z
-x,y,z
x,-y,z
1/2+x,1/2+y,1/2+z
1/2-x,1/2-y,1/2+z
1/2-x,1/2+y,1/2+z
1/2+x,1/2-y,1/2+z
loop_
_atom_site_type_symbol
_atom_site_label
_atom_site_fract_x
_atom_site_fract_y
_atom_site_fract_z
Si Si1 0.333927 0.171882 0.570470
Si Si2 0.166669 0.167759 0.911025
Si Si3 0.669829 0.333252 0.309858
Si Si4 0.329232 0.330196 0.735683
Si Si5 0.169890 0.168750 0.484799
Si Si6 0.827183 0.832036 0.657514
O O1 0.500000 0.231297 0.572684
O O2 0.258141 0.232754 0.526447
O O3 0.246569 0.227571 0.613011
O O4 0.329536 0.000000 0.569454
O O5 0.204108 0.199265 0.860509
O O6 0.279342 0.256427 0.940299
O O7 0.000000 0.217001 0.921481
O O8 0.186117 0.000000 0.921580
O O9 0.500000 0.298102 0.298835
O O10 0.702838 0.500000 0.298579
O O11 0.776549 0.231571 0.282171
O O12 0.500000 0.292459 0.728792
O O13 0.300550 0.500000 0.735121
O O14 0.234894 0.257873 0.697676
O O15 0.000000 0.202553 0.493054
O O16 0.200323 0.000000 0.479371
O O17 0.000000 0.806430 0.653610
O O18 0.789484 0.000000 0.665224
#
# Coordination Sequence:
#
# PCOD8189287 Si02
#       6
#     8   8   8   8   8   8
#     4   9  17  31  53  79 106 138 176 216 258 306
#     4   9  19  36  56  78 105 137 175 219 264 311
#     4   9  19  37  59  80 102 133 176 221 263 311
#     4  11  24  38  52  76 110 142 173 213 261 312
#     4  10  20  33  51  78 111 143 176 216 260 307
#     4  10  20  35  57  82 106 135 174 218 262 310
#
# _framework density 18.752970999999999
#
# number of rings (size 3 to 8) (size 9 to 14) (size 15 to 20)
#    0.000    2.333    0.000    3.500    0.000    9.333 
#    0.000    5.833    0.000    5.000    0.000    0.000 
#    0.000    0.000    0.000    0.000    0.000    0.000 
#
# Total GULP energy -297667.733551 kJ/mol
# GULP energy per Si atom -12402.822231 kJ/mol
# Density = 1.871029 g / cm^3
# Si number density = 18.752971 Si / 1000 Ang^3
#
#
#
# Elastic Constant Matrix: (Units=GPa)
#
#
# Indices 1 2 3 4 5 6 
#
# 1 105.7986 52.1162 67.8495 0.0000 0.0000 0.0000
# 2 52.1162 54.7530 48.2452 0.0000 0.0000 0.0000
# 3 67.8495 48.2452 124.7796 0.0000 0.0000 0.0000
# 4 0.0000 0.0000 0.0000 26.3749 0.0000 0.0000
# 5 0.0000 0.0000 0.0000 0.0000 42.7344 0.0000
# 6 0.0000 0.0000 0.0000 0.0000 0.0000 29.2934
#
#
#
# Elastic Compliance Matrix: (Units=1/GPa)
#
#
# Indices 1 2 3 4 5 6 
#
# 1 0.019862 -0.014241 -0.005294 0.000000 0.000000 0.000000
# 2 -0.014241 0.037912 -0.006915 0.000000 0.000000 0.000000
# 3 -0.005294 -0.006915 0.013566 0.000000 0.000000 0.000000
# 4 0.000000 0.000000 0.000000 0.037915 0.000000 0.000000
# 5 0.000000 0.000000 0.000000 0.000000 0.023400 0.000000
# 6 0.000000 0.000000 0.000000 0.000000 0.000000 0.034137
#
#
# Mechanical properties :
#
#
# Convention : Reuss Voigt Hill
#
# Bulk Modulus (GPa) = 54.22717 69.08368 61.65542
# Shear Modulus (GPa) = 22.13973 27.48857 24.81415
#
# Velocity S-wave (km/s) = 3.43971 3.83276 3.64154
# Velocity P-wave (km/s) = 6.68991 7.51702 7.11549
#
# Compressibility (1/GPa) = 0.01844094
#
# Stress axis : x y z
#
# Youngs Moduli (GPa) = 50.34764 26.37709 73.71194
#
# Poissons Ratio (x) = 0.37563 0.39023
# Poissons Ratio (y) = 0.71698 0.50971
# Poissons Ratio (z) = 0.26654 0.18239
#
# Static dielectric constant tensor:
#      x y z
#    x 3.521410 0.000000 0.000000 
#    y 0.000000 3.176250 0.000000 
#    z 0.000000 0.000000 3.553200 
# 
# 
# High freq. dielectric constant tensor:
#      x y z
#    x 1.737460 0.000000 0.000000 
#    y 0.000000 1.701290 0.000000 
#    z 0.000000 0.000000 1.743150 
# 
# From -- ./inp_files/26856.got.cif
#   From: 2010.03.12/outbox.cif.g09.slc.cpg/sg44_14_cif.got.tgz:26856.got - 2010.04.14 02:36:11.
