data_PCOD8189803
_publ_section_title
;
Structure prediction by ZEFSAII (Michael W. Deem and Ramdas Pophale) SiO2 
 PCOD8189803
Probable space group: I M M 2
;
_chemical_formula_sum "Si O2"
_cell_formula_units_Z 48
_cell_length_a 8.442513
_cell_length_b 16.969228
_cell_length_c 16.734391
_cell_angle_alpha 90.000000
_cell_angle_beta 90.000000
_cell_angle_gamma 90.000000
_cell_volume 2397.417853
_symmetry_space_group_name_H-M "I M M 2"
_symmetry_group_IT_number 44
_symmetry_cell_setting 'orthorhombic'
loop_
_space_group_symop_operation_xyz
x,y,z
-x,-y,z
-x,y,z
x,-y,z
1/2+x,1/2+y,1/2+z
1/2-x,1/2-y,1/2+z
1/2-x,1/2+y,1/2+z
1/2+x,1/2-y,1/2+z
loop_
_atom_site_type_symbol
_atom_site_label
_atom_site_fract_x
_atom_site_fract_y
_atom_site_fract_z
Si Si1 0.817064 0.179055 0.369510
Si Si2 0.184462 0.653335 0.701423
Si Si3 0.183966 0.408029 0.018605
Si Si4 0.685717 0.344846 0.346989
Si Si5 0.187727 0.000000 0.116331
Si Si6 0.315235 0.181059 0.677309
Si Si7 0.687716 0.500000 0.433906
O O1 0.715595 0.145197 0.295949
O O2 0.785551 0.126800 0.446785
O O3 0.772275 0.269800 0.386063
O O4 0.000000 0.173516 0.345777
O O5 0.241540 0.575814 0.658024
O O6 0.279529 0.726780 0.664140
O O7 0.000000 0.666965 0.686688
O O8 0.219430 0.500000 0.026158
O O9 0.240877 0.367021 0.100064
O O10 0.000000 0.390523 0.002269
O O11 0.500000 0.334933 0.362057
O O12 0.718368 0.351683 0.252709
O O13 0.754642 0.422335 0.390172
O O14 0.244699 0.000000 0.024974
O O15 0.000000 0.000000 0.124423
O O16 0.500000 0.168561 0.694013
O O17 0.500000 0.500000 0.427507
#
# Coordination Sequence:
#
# PCOD8189803 Si02
#       7
#     8   8   8   8   4   8   4
#     4  11  23  40  62  90 120 157 201 249 301 355
#     4  11  23  41  63  89 121 160 200 246 302 359
#     4  10  23  41  62  88 121 159 200 245 300 359
#     4  10  20  39  63  89 120 159 200 243 297 358
#     4  11  23  41  63  90 121 158 203 249 298 357
#     4  10  21  39  63  90 120 159 200 246 299 355
#     4   9  22  39  61  90 121 158 197 241 298 355
#
# _framework density 20.021542
#
# number of rings (size 3 to 8) (size 9 to 14) (size 15 to 20)
#    0.000    1.667    0.000    6.250    4.667    1.667 
#    0.000    3.750    0.000    0.000    0.000    0.000 
#    0.000    0.000    0.000    0.000    0.000    0.000 
#
# Total GULP energy -297724.392425 kJ/mol
# GULP energy per Si atom -12405.183018 kJ/mol
# Density = 1.997597 g / cm^3
# Si number density = 20.021542 Si / 1000 Ang^3
#
#
#
# Elastic Constant Matrix: (Units=GPa)
#
#
# Indices 1 2 3 4 5 6 
#
# 1 57.9237 13.5869 14.4757 0.0000 0.0000 0.0000
# 2 13.5869 142.0005 84.5229 0.0000 0.0000 0.0000
# 3 14.4757 84.5229 110.7243 0.0000 0.0000 0.0000
# 4 0.0000 0.0000 0.0000 35.7773 0.0000 0.0000
# 5 0.0000 0.0000 0.0000 0.0000 31.6273 0.0000
# 6 0.0000 0.0000 0.0000 0.0000 0.0000 27.4262
#
#
#
# Elastic Compliance Matrix: (Units=1/GPa)
#
#
# Indices 1 2 3 4 5 6 
#
# 1 0.017874 -0.000585 -0.001890 0.000000 0.000000 0.000000
# 2 -0.000585 0.012926 -0.009791 0.000000 0.000000 0.000000
# 3 -0.001890 -0.009791 0.016752 0.000000 0.000000 0.000000
# 4 0.000000 0.000000 0.000000 0.027951 0.000000 0.000000
# 5 0.000000 0.000000 0.000000 0.000000 0.031618 0.000000
# 6 0.000000 0.000000 0.000000 0.000000 0.000000 0.036462
#
#
# Mechanical properties :
#
#
# Convention : Reuss Voigt Hill
#
# Bulk Modulus (GPa) = 43.44010 59.53549 51.48780
# Shear Modulus (GPa) = 28.44340 32.17035 30.30687
#
# Velocity S-wave (km/s) = 3.77323 4.01282 3.89487
# Velocity P-wave (km/s) = 6.38175 7.16035 6.78223
#
# Compressibility (1/GPa) = 0.02302020
#
# Stress axis : x y z
#
# Youngs Moduli (GPa) = 55.94820 77.36388 59.69296
#
# Poissons Ratio (x) = 0.04527 0.11282
# Poissons Ratio (y) = 0.03274 0.58443
# Poissons Ratio (z) = 0.10574 0.75745
#
# Static dielectric constant tensor:
#      x y z
#    x 3.644980 0.000000 0.000000 
#    y 0.000000 3.790380 0.000000 
#    z 0.000000 0.000000 3.670360 
# 
# 
# High freq. dielectric constant tensor:
#      x y z
#    x 1.780950 0.000000 0.000000 
#    y 0.000000 1.792030 0.000000 
#    z 0.000000 0.000000 1.785560 
# 
# From -- ./inp_files/16115.got.cif
#   From: 2010.03.12/outbox.cif.g09.slc.cpg/sg44_9_cif.got.tgz:16115.got - 2010.04.14 02:36:11.
