data_PCOD8189818
_publ_section_title
;
Structure prediction by ZEFSAII (Michael W. Deem and Ramdas Pophale) SiO2 
 PCOD8189818
Probable space group: I M M 2
;
_chemical_formula_sum "Si O2"
_cell_formula_units_Z 48
_cell_length_a 17.005324
_cell_length_b 9.196657
_cell_length_c 16.791257
_cell_angle_alpha 90.000000
_cell_angle_beta 90.000000
_cell_angle_gamma 90.000000
_cell_volume 2626.020481
_symmetry_space_group_name_H-M "I M M 2"
_symmetry_group_IT_number 44
_symmetry_cell_setting 'orthorhombic'
loop_
_space_group_symop_operation_xyz
x,y,z
-x,-y,z
-x,y,z
x,-y,z
1/2+x,1/2+y,1/2+z
1/2-x,1/2-y,1/2+z
1/2-x,1/2+y,1/2+z
1/2+x,1/2-y,1/2+z
loop_
_atom_site_type_symbol
_atom_site_label
_atom_site_fract_x
_atom_site_fract_y
_atom_site_fract_z
Si Si1 0.316871 0.672450 0.284760
Si Si2 0.141835 0.666489 0.256006
Si Si3 0.000000 0.173313 0.516906
Si Si4 0.500000 0.672392 0.835703
Si Si5 0.650017 0.673046 0.111573
Si Si6 0.589683 0.672450 0.436211
Si Si7 0.177398 0.666556 0.073319
O O1 0.323466 0.500000 0.282770
O O2 0.225533 0.716883 0.291882
O O3 0.353772 0.733581 0.202245
O O4 0.364411 0.736640 0.359564
O O5 0.123182 0.500000 0.279288
O O6 0.077077 0.770989 0.292186
O O7 0.142121 0.683543 0.161167
O O8 0.077246 0.236361 0.561139
O O9 0.000000 0.228905 0.426515
O O10 0.000000 0.000000 0.520496
O O11 0.500000 0.500000 0.831831
O O12 0.647223 0.500000 0.114319
O O13 0.732082 0.720858 0.071049
O O14 0.500000 0.724235 0.429727
O O15 0.596270 0.500000 0.439245
O O16 0.626690 0.733634 0.516213
O O17 0.171614 0.500000 0.044908
#
# Coordination Sequence:
#
# PCOD8189818 Si02
#       7
#     8   8   4   4   8   8   8
#     4   8  16  32  53  75 100 134 173 208 248 303
#     4   9  19  37  56  73  98 139 182 210 243 303
#     4   9  18  29  47  78 109 130 158 207 263 307
#     4  11  23  33  49  82 111 130 164 215 267 307
#     4   8  15  30  52  75 100 132 169 209 250 298
#     4  10  21  33  50  80 110 131 162 211 263 306
#     4   9  19  35  55  75  98 135 179 212 245 299
#
# _framework density 18.278607999999998
#
# number of rings (size 3 to 8) (size 9 to 14) (size 15 to 20)
#    0.000    3.000    0.000    2.250    4.667    1.000 
#    0.000    0.000    0.000    1.000    0.000    0.000 
#    0.000    0.000    0.000    0.000    0.000    0.000 
#
# Total GULP energy -297543.979776 kJ/mol
# GULP energy per Si atom -12397.665824 kJ/mol
# Density = 1.823701 g / cm^3
# Si number density = 18.278608 Si / 1000 Ang^3
#
#
#
# Elastic Constant Matrix: (Units=GPa)
#
#
# Indices 1 2 3 4 5 6 
#
# 1 158.7578 36.4076 89.8190 0.0000 0.0000 0.0000
# 2 36.4076 24.4104 29.2449 0.0000 0.0000 0.0000
# 3 89.8190 29.2449 111.1328 0.0000 0.0000 0.0000
# 4 0.0000 0.0000 0.0000 22.6601 0.0000 0.0000
# 5 0.0000 0.0000 0.0000 0.0000 33.0479 0.0000
# 6 0.0000 0.0000 0.0000 0.0000 0.0000 19.9899
#
#
#
# Elastic Compliance Matrix: (Units=1/GPa)
#
#
# Indices 1 2 3 4 5 6 
#
# 1 0.013088 -0.010001 -0.007946 0.000000 0.000000 0.000000
# 2 -0.010001 0.067470 -0.009672 0.000000 0.000000 0.000000
# 3 -0.007946 -0.009672 0.017966 0.000000 0.000000 0.000000
# 4 0.000000 0.000000 0.000000 0.044130 0.000000 0.000000
# 5 0.000000 0.000000 0.000000 0.000000 0.030259 0.000000
# 6 0.000000 0.000000 0.000000 0.000000 0.000000 0.050025
#
#
# Mechanical properties :
#
#
# Convention : Reuss Voigt Hill
#
# Bulk Modulus (GPa) = 23.10246 67.24934 45.17590
# Shear Modulus (GPa) = 17.08791 24.39489 20.74140
#
# Velocity S-wave (km/s) = 3.06086 3.65720 3.37224
# Velocity P-wave (km/s) = 5.01581 7.39626 6.31914
#
# Compressibility (1/GPa) = 0.04328542
#
# Stress axis : x y z
#
# Youngs Moduli (GPa) = 76.40607 14.82148 55.66148
#
# Poissons Ratio (x) = 0.14822 0.44230
# Poissons Ratio (y) = 0.76410 0.53837
# Poissons Ratio (z) = 0.60714 0.14336
#
# Static dielectric constant tensor:
#      x y z
#    x 3.597740 0.000000 0.000000 
#    y 0.000000 2.872000 0.000000 
#    z 0.000000 0.000000 3.583910 
# 
# 
# High freq. dielectric constant tensor:
#      x y z
#    x 1.721990 0.000000 0.000000 
#    y 0.000000 1.657080 0.000000 
#    z 0.000000 0.000000 1.717540 
# 
# From -- ./inp_files/16114.got.cif
#   From: 2010.03.12/outbox.cif.g09.slc.cpg/sg44_9_cif.got.tgz:16114.got - 2010.04.14 02:36:11.
