data_PCOD8189761
_publ_section_title
;
Structure prediction by ZEFSAII (Michael W. Deem and Ramdas Pophale) SiO2 
 PCOD8189761
Probable space group: I M M 2
;
_chemical_formula_sum "Si O2"
_cell_formula_units_Z 48
_cell_length_a 8.452426
_cell_length_b 9.995370
_cell_length_c 28.050162
_cell_angle_alpha 90.000000
_cell_angle_beta 90.000000
_cell_angle_gamma 90.000000
_cell_volume 2369.821450
_symmetry_space_group_name_H-M "I M M 2"
_symmetry_group_IT_number 44
_symmetry_cell_setting 'orthorhombic'
loop_
_space_group_symop_operation_xyz
x,y,z
-x,-y,z
-x,y,z
x,-y,z
1/2+x,1/2+y,1/2+z
1/2-x,1/2-y,1/2+z
1/2-x,1/2+y,1/2+z
1/2+x,1/2-y,1/2+z
loop_
_atom_site_type_symbol
_atom_site_label
_atom_site_fract_x
_atom_site_fract_y
_atom_site_fract_z
Si Si1 0.813201 0.000000 0.350940
Si Si2 0.814832 0.343549 0.013440
Si Si3 0.186520 0.500000 0.355826
Si Si4 0.811994 0.243696 0.413642
Si Si5 0.185608 0.255684 0.191550
Si Si6 0.182268 0.000000 0.748977
Si Si7 0.688318 0.500000 0.746536
Si Si8 0.314758 0.844027 0.094549
O O1 0.755032 0.128538 0.378609
O O2 0.735571 0.000000 0.298853
O O3 0.000000 0.000000 0.345507
O O4 0.757939 0.500000 0.016574
O O5 0.720305 0.245719 0.048502
O O6 0.000000 0.335535 0.024799
O O7 0.780770 0.279979 0.962209
O O8 0.248281 0.625049 0.386335
O O9 0.235493 0.500000 0.300576
O O10 0.000000 0.500000 0.354619
O O11 0.000000 0.243780 0.423574
O O12 0.275197 0.376580 0.215719
O O13 0.251585 0.127526 0.218890
O O14 0.223727 0.233768 0.136292
O O15 0.000000 0.279669 0.197872
O O16 0.000000 0.000000 0.760862
O O17 0.500000 0.500000 0.747868
O O18 0.500000 0.842563 0.105089
O O19 0.257561 0.000000 0.088611
#
# Coordination Sequence:
#
# PCOD8189761 Si02
#       8
#     4   8   4   8   8   4   4   8
#     4   9  16  30  56  87 118 155 197 245 300 361
#     4  11  25  43  64  92 128 167 211 259 315 380
#     4  10  22  40  63  92 125 166 215 263 312 374
#     4  10  20  37  62  90 125 162 206 260 313 371
#     4  11  22  41  67  94 127 165 210 262 314 376
#     4  12  26  42  61  92 133 176 216 259 315 374
#     4   9  18  34  62  95 122 155 202 253 309 367
#     4  11  25  44  67  95 128 163 207 261 322 385
#
# _framework density 20.25469
#
# number of rings (size 3 to 8) (size 9 to 14) (size 15 to 20)
#    0.000    1.500    1.667    3.250    2.333    5.333 
#    0.000    0.000    0.000    1.000    0.000    0.000 
#    0.000    0.000    0.000    0.000    0.000    0.000 
#
# Total GULP energy -297543.675393 kJ/mol
# GULP energy per Si atom -12397.653141 kJ/mol
# Density = 2.020859 g / cm^3
# Si number density = 20.254690 Si / 1000 Ang^3
#
#
#
# Elastic Constant Matrix: (Units=GPa)
#
#
# Indices 1 2 3 4 5 6 
#
# 1 32.6501 15.5733 3.0269 0.0000 0.0000 0.0000
# 2 15.5733 168.0232 61.5993 0.0001 0.0000 0.0000
# 3 3.0269 61.5993 133.7276 0.0000 0.0000 0.0000
# 4 0.0000 0.0001 0.0000 49.7640 0.0000 0.0000
# 5 0.0000 0.0000 0.0000 0.0000 35.1243 0.0000
# 6 0.0000 0.0000 0.0000 0.0000 0.0000 31.7180
#
#
#
# Elastic Compliance Matrix: (Units=1/GPa)
#
#
# Indices 1 2 3 4 5 6 
#
# 1 0.032111 -0.003260 0.000775 0.000000 0.000000 0.000000
# 2 -0.003260 0.007492 -0.003377 0.000000 0.000000 0.000000
# 3 0.000775 -0.003377 0.009016 0.000000 0.000000 0.000000
# 4 0.000000 0.000000 0.000000 0.020095 0.000000 0.000000
# 5 0.000000 0.000000 0.000000 0.000000 0.028470 0.000000
# 6 0.000000 0.000000 0.000000 0.000000 0.000000 0.031528
#
#
# Mechanical properties :
#
#
# Convention : Reuss Voigt Hill
#
# Bulk Modulus (GPa) = 27.10486 54.97777 41.04132
# Shear Modulus (GPa) = 32.73646 40.26802 36.50224
#
# Velocity S-wave (km/s) = 4.02461 4.46363 4.24979
# Velocity P-wave (km/s) = 5.91673 7.33263 6.66240
#
# Compressibility (1/GPa) = 0.03689375
#
# Stress axis : x y z
#
# Youngs Moduli (GPa) = 31.14199 133.47812 110.91399
#
# Poissons Ratio (x) = 0.43518 -0.08596
# Poissons Ratio (y) = 0.10153 0.37458
# Poissons Ratio (z) = -0.02413 0.45078
#
# Static dielectric constant tensor:
#      x y z
#    x 3.420260 0.000000 0.000000 
#    y 0.000000 3.801750 0.000000 
#    z 0.000000 0.000000 3.861960 
# 
# 
# High freq. dielectric constant tensor:
#      x y z
#    x 1.772190 0.000000 0.000000 
#    y 0.000000 1.809390 0.000000 
#    z 0.000000 0.000000 1.808820 
# 
# From -- ./inp_files/27043.got.cif
#   From: 2010.03.12/outbox.cif.g09.slc.cpg/sg44_14_cif.got.tgz:27043.got - 2010.04.14 02:36:11.
