data_PCOD8189507
_publ_section_title
;
Structure prediction by ZEFSAII (Michael W. Deem and Ramdas Pophale) SiO2 
 PCOD8189507
Probable space group: I M M 2
;
_chemical_formula_sum "Si O2"
_cell_formula_units_Z 40
_cell_length_a 8.762061
_cell_length_b 23.389969
_cell_length_c 10.391994
_cell_angle_alpha 90.000000
_cell_angle_beta 90.000000
_cell_angle_gamma 90.000000
_cell_volume 2129.780301
_symmetry_space_group_name_H-M "I M M 2"
_symmetry_group_IT_number 44
_symmetry_cell_setting 'orthorhombic'
loop_
_space_group_symop_operation_xyz
x,y,z
-x,-y,z
-x,y,z
x,-y,z
1/2+x,1/2+y,1/2+z
1/2-x,1/2-y,1/2+z
1/2-x,1/2+y,1/2+z
1/2+x,1/2-y,1/2+z
loop_
_atom_site_type_symbol
_atom_site_label
_atom_site_fract_x
_atom_site_fract_y
_atom_site_fract_z
Si Si1 0.827168 0.740181 0.161980
Si Si2 0.819826 0.643574 0.581267
Si Si3 0.327214 0.121235 0.569634
Si Si4 0.681685 0.064579 0.311667
Si Si5 0.179643 0.148544 0.815344
O O1 0.724543 0.792099 0.116044
O O2 0.754832 0.711423 0.290799
O O3 0.000000 0.760824 0.189901
O O4 0.826158 0.690498 0.051699
O O5 0.757586 0.601078 0.691422
O O6 0.741833 0.623639 0.448996
O O7 0.000000 0.639231 0.565524
O O8 0.500000 0.099266 0.591970
O O9 0.253822 0.091747 0.444143
O O10 0.228522 0.106013 0.697977
O O11 0.500000 0.067022 0.315363
O O12 0.742220 0.000000 0.298389
O O13 0.000000 0.155192 0.822802
#
# Coordination Sequence:
#
# PCOD8189507 Si02
#       5
#     8   8   8   8   8
#     4   9  19  33  53  83 116 145 179 229 288 344
#     4  11  21  33  55  86 117 150 188 233 284 343
#     4   8  17  34  56  82 111 141 183 236 283 339
#     4   9  19  37  60  84 111 147 192 239 285 333
#     4  10  20  35  54  79 112 150 187 227 280 335
#
# _framework density 18.781279999999999
#
# number of rings (size 3 to 8) (size 9 to 14) (size 15 to 20)
#    1.200    1.400    0.000    2.400    2.800    0.000 
#    0.000    3.000    0.000   11.400    0.000    0.000 
#    0.000    0.000    0.000    0.000    0.000    0.000 
#
# Total GULP energy -247828.264981 kJ/mol
# GULP energy per Si atom -12391.413249 kJ/mol
# Density = 1.873853 g / cm^3
# Si number density = 18.781280 Si / 1000 Ang^3
#
#
#
# Elastic Constant Matrix: (Units=GPa)
#
#
# Indices 1 2 3 4 5 6 
#
# 1 78.4829 17.6050 43.4727 -0.0005 -0.0003 -0.0001
# 2 17.6050 82.5422 58.8914 0.0001 -0.0001 0.0000
# 3 43.4727 58.8914 173.8468 0.0005 0.0024 0.0001
# 4 -0.0005 0.0001 0.0005 24.7440 0.0000 0.0000
# 5 -0.0003 -0.0001 0.0024 0.0000 23.6037 0.0002
# 6 -0.0001 0.0000 0.0001 0.0000 0.0002 16.6135
#
#
#
# Elastic Compliance Matrix: (Units=1/GPa)
#
#
# Indices 1 2 3 4 5 6 
#
# 1 0.014819 -0.000681 -0.003475 0.000000 0.000001 0.000000
# 2 -0.000681 0.016008 -0.005252 0.000000 0.000001 0.000000
# 3 -0.003475 -0.005252 0.008400 0.000000 -0.000001 0.000000
# 4 0.000000 0.000000 0.000000 0.040414 0.000000 0.000000
# 5 0.000001 0.000001 -0.000001 0.000000 0.042366 -0.000001
# 6 0.000000 0.000000 0.000000 0.000000 -0.000001 0.060192
#
#
# Mechanical properties :
#
#
# Convention : Reuss Voigt Hill
#
# Bulk Modulus (GPa) = 48.99552 63.86780 56.43166
# Shear Modulus (GPa) = 24.05924 27.31907 25.68916
#
# Velocity S-wave (km/s) = 3.58302 3.81805 3.70240
# Velocity P-wave (km/s) = 6.57734 7.31550 6.95622
#
# Compressibility (1/GPa) = 0.02041003
#
# Stress axis : x y z
#
# Youngs Moduli (GPa) = 67.47963 62.46991 119.04241
#
# Poissons Ratio (x) = 0.04257 0.41366
# Poissons Ratio (y) = 0.04599 0.62524
# Poissons Ratio (z) = 0.23449 0.32811
#
# Static dielectric constant tensor:
#      x y z
#    x 3.196820 0.000000 0.000000 
#    y 0.000000 3.206550 0.000000 
#    z 0.000000 0.000000 3.545680 
# 
# 
# High freq. dielectric constant tensor:
#      x y z
#    x 1.714680 0.000000 0.000000 
#    y 0.000000 1.696340 0.000000 
#    z 0.000000 0.000000 1.732260 
# 
# From -- ./inp_files/4608.got.cif
#   From: 2010.03.12/outbox.cif.g09.slc.cpg/sg44_3_cif.got.tgz:4608.got - 2010.04.14 02:36:11.
