data_PCOD8189188
_publ_section_title
;
Structure prediction by ZEFSAII (Michael W. Deem and Ramdas Pophale) SiO2 
 PCOD8189188
Probable space group: I M M 2
;
_chemical_formula_sum "Si O2"
_cell_formula_units_Z 64
_cell_length_a 9.163571
_cell_length_b 15.739930
_cell_length_c 23.114285
_cell_angle_alpha 90.000000
_cell_angle_beta 90.000000
_cell_angle_gamma 90.000000
_cell_volume 3333.864999
_symmetry_space_group_name_H-M "I M M 2"
_symmetry_group_IT_number 44
_symmetry_cell_setting 'orthorhombic'
loop_
_space_group_symop_operation_xyz
x,y,z
-x,-y,z
-x,y,z
x,-y,z
1/2+x,1/2+y,1/2+z
1/2-x,1/2-y,1/2+z
1/2-x,1/2+y,1/2+z
1/2+x,1/2-y,1/2+z
loop_
_atom_site_type_symbol
_atom_site_label
_atom_site_fract_x
_atom_site_fract_y
_atom_site_fract_z
Si Si1 0.833225 0.181577 0.156130
Si Si2 0.173351 0.404837 0.438799
Si Si3 0.169762 0.902372 0.480969
Si Si4 0.167636 0.361144 0.099024
Si Si5 0.172858 0.767733 0.382927
Si Si6 0.157890 0.402612 0.564817
Si Si7 0.672320 0.237842 0.265790
Si Si8 0.665429 0.591930 0.208242
O O1 0.813096 0.263342 0.115774
O O2 0.774027 0.106750 0.115969
O O3 0.735750 0.182259 0.213500
O O4 0.000000 0.166100 0.174179
O O5 0.236044 0.500000 0.422586
O O6 0.227915 0.328450 0.397451
O O7 0.222221 0.372961 0.502792
O O8 0.000000 0.409617 0.436931
O O9 0.256298 0.880136 0.538695
O O10 0.219888 0.837379 0.430712
O O11 0.000000 0.889466 0.494550
O O12 0.201849 0.000000 0.462012
O O13 0.238851 0.414694 0.150535
O O14 0.000000 0.388169 0.093707
O O15 0.252891 0.794111 0.324157
O O16 0.000000 0.769958 0.373330
O O17 0.124551 0.500000 0.556306
O O18 0.000000 0.357518 0.578364
O O19 0.500000 0.224363 0.270438
O O20 0.717663 0.336035 0.253118
O O21 0.500000 0.612245 0.189011
O O22 0.677194 0.500000 0.239511
#
# Coordination Sequence:
#
# PCOD8189188 Si02
#       8
#     8   8   8   8   8   8   8   8
#     4  10  20  34  52  75 104 136 170 209 256 309
#     4   8  15  29  51  79 107 135 167 202 247 308
#     4  10  21  36  54  76 102 136 176 213 256 313
#     4  10  20  32  50  79 109 134 165 209 258 306
#     4  10  20  35  54  74 100 135 174 216 257 300
#     4   9  17  31  53  80 107 134 168 209 252 304
#     4  10  21  36  53  72  97 132 174 216 257 305
#     4   9  18  33  52  74 102 135 167 201 249 312
#
# _framework density 19.196937999999999
#
# number of rings (size 3 to 8) (size 9 to 14) (size 15 to 20)
#    0.000    2.500    0.000    3.000    0.000    6.250 
#    0.000    1.250    0.000    3.000    0.000    0.000 
#    0.000    0.000    0.000    0.000    0.000    0.000 
#
# Total GULP energy -396601.085077 kJ/mol
# GULP energy per Si atom -12393.783909 kJ/mol
# Density = 1.915324 g / cm^3
# Si number density = 19.196938 Si / 1000 Ang^3
#
#
#
# Elastic Constant Matrix: (Units=GPa)
#
#
# Indices 1 2 3 4 5 6 
#
# 1 63.9877 20.3065 40.2514 0.0000 0.0000 0.0000
# 2 20.3065 47.6088 33.6630 0.0000 0.0000 0.0000
# 3 40.2514 33.6630 103.5376 0.0000 0.0000 0.0000
# 4 0.0000 0.0000 0.0000 17.1479 0.0000 0.0000
# 5 0.0000 0.0000 0.0000 0.0000 32.6437 0.0000
# 6 0.0000 0.0000 0.0000 0.0000 0.0000 16.4877
#
#
#
# Elastic Compliance Matrix: (Units=1/GPa)
#
#
# Indices 1 2 3 4 5 6 
#
# 1 0.021314 -0.004197 -0.006921 0.000000 0.000000 0.000000
# 2 -0.004197 0.028101 -0.007505 0.000000 0.000000 0.000000
# 3 -0.006921 -0.007505 0.014789 0.000000 0.000000 0.000000
# 4 0.000000 0.000000 0.000000 0.058316 0.000000 0.000000
# 5 0.000000 0.000000 0.000000 0.000000 0.030634 0.000000
# 6 0.000000 0.000000 0.000000 0.000000 0.000000 0.060651
#
#
# Mechanical properties :
#
#
# Convention : Reuss Voigt Hill
#
# Bulk Modulus (GPa) = 37.09533 44.84178 40.96856
# Shear Modulus (GPa) = 19.22798 21.31675 20.27236
#
# Velocity S-wave (km/s) = 3.16827 3.33592 3.25317
# Velocity P-wave (km/s) = 5.72271 6.18444 5.95805
#
# Compressibility (1/GPa) = 0.02695757
#
# Stress axis : x y z
#
# Youngs Moduli (GPa) = 46.91789 35.58576 67.61721
#
# Poissons Ratio (x) = 0.14935 0.46801
# Poissons Ratio (y) = 0.19691 0.50746
# Poissons Ratio (z) = 0.32474 0.26707
#
# Static dielectric constant tensor:
#      x y z
#    x 3.334120 0.000000 0.000000 
#    y 0.000000 3.601600 0.000000 
#    z 0.000000 0.000000 3.391650 
# 
# 
# High freq. dielectric constant tensor:
#      x y z
#    x 1.731950 0.000000 0.000000 
#    y 0.000000 1.742350 0.000000 
#    z 0.000000 0.000000 1.738240 
# 
# From -- ./inp_files/23249.got.cif
#   From: 2010.03.12/outbox.cif.g09.slc.cpg/sg44_12_cif.got.tgz:23249.got - 2010.04.14 02:36:11.
