data_PCOD8189328
_publ_section_title
;
Structure prediction by ZEFSAII (Michael W. Deem and Ramdas Pophale) SiO2 
 PCOD8189328
Probable space group: I M M 2
;
_chemical_formula_sum "Si O2"
_cell_formula_units_Z 64
_cell_length_a 9.000839
_cell_length_b 19.411378
_cell_length_c 20.765237
_cell_angle_alpha 90.000000
_cell_angle_beta 90.000000
_cell_angle_gamma 90.000000
_cell_volume 3628.074968
_symmetry_space_group_name_H-M "I M M 2"
_symmetry_group_IT_number 44
_symmetry_cell_setting 'orthorhombic'
loop_
_space_group_symop_operation_xyz
x,y,z
-x,-y,z
-x,y,z
x,-y,z
1/2+x,1/2+y,1/2+z
1/2-x,1/2-y,1/2+z
1/2-x,1/2+y,1/2+z
1/2+x,1/2-y,1/2+z
loop_
_atom_site_type_symbol
_atom_site_label
_atom_site_fract_x
_atom_site_fract_y
_atom_site_fract_z
Si Si1 0.169635 0.923900 0.523830
Si Si2 0.830291 0.076742 0.911779
Si Si3 0.175130 0.575562 0.156025
Si Si4 0.325960 0.786952 0.717789
Si Si5 0.172394 0.784458 0.847720
Si Si6 0.826883 0.217789 0.468499
Si Si7 0.175191 0.792630 0.088317
Si Si8 0.173645 0.578366 0.544352
O O1 0.267147 0.906516 0.585569
O O2 0.198501 0.864914 0.470937
O O3 0.000000 0.921940 0.547167
O O4 0.209269 0.000000 0.495505
O O5 0.721748 0.092233 0.970957
O O6 0.000000 0.082980 0.936757
O O7 0.800013 0.000000 0.883531
O O8 0.798926 0.133526 0.857067
O O9 0.231560 0.500000 0.179218
O O10 0.227207 0.634324 0.205401
O O11 0.000000 0.577392 0.150107
O O12 0.500000 0.782553 0.732328
O O13 0.238767 0.759912 0.779878
O O14 0.282711 0.741094 0.656379
O O15 0.000000 0.766107 0.849061
O O16 0.250728 0.742292 0.903704
O O17 0.755100 0.252861 0.530696
O O18 0.000000 0.237227 0.467257
O O19 0.234395 0.871117 0.090922
O O20 0.000000 0.790906 0.075753
O O21 0.210660 0.500000 0.564530
O O22 0.000000 0.594254 0.550245
#
# Coordination Sequence:
#
# PCOD8189328 Si02
#       8
#     8   8   8   8   8   8   8   8
#     4   9  18  32  52  80 109 137 173 218 266 315
#     4   9  18  33  51  73 105 144 181 218 261 313
#     4   9  17  31  51  75 106 144 180 214 256 308
#     4  10  22  37  52  75 109 145 182 223 267 318
#     4  11  23  36  53  77 107 144 184 224 268 321
#     4  11  21  34  56  81 108 141 178 224 271 317
#     4  11  21  35  56  81 108 142 182 223 268 319
#     4  10  20  33  53  82 110 138 175 221 272 321
#
# _framework density 17.640208999999999
#
# number of rings (size 3 to 8) (size 9 to 14) (size 15 to 20)
#    0.000    2.000    2.500    1.500    0.000    3.750 
#    0.000    0.000    0.000    0.750    0.000    1.750 
#    0.000    0.000    0.000    0.000    0.000    0.000 
#
# Total GULP energy -396748.592967 kJ/mol
# GULP energy per Si atom -12398.393530 kJ/mol
# Density = 1.760006 g / cm^3
# Si number density = 17.640209 Si / 1000 Ang^3
#
#
#
# Elastic Constant Matrix: (Units=GPa)
#
#
# Indices 1 2 3 4 5 6 
#
# 1 67.7656 47.1845 54.6842 0.0000 0.0000 0.0000
# 2 47.1845 102.8827 63.6923 0.0000 0.0000 0.0000
# 3 54.6842 63.6923 119.9524 0.0000 0.0000 0.0000
# 4 0.0000 0.0000 0.0000 21.4603 0.0000 0.0000
# 5 0.0000 0.0000 0.0000 0.0000 28.6509 0.0000
# 6 0.0000 0.0000 0.0000 0.0000 0.0000 25.9238
#
#
#
# Elastic Compliance Matrix: (Units=1/GPa)
#
#
# Indices 1 2 3 4 5 6 
#
# 1 0.026269 -0.006903 -0.008310 0.000000 0.000000 0.000000
# 2 -0.006903 0.016293 -0.005505 0.000000 0.000000 0.000000
# 3 -0.008310 -0.005505 0.015048 0.000000 0.000000 0.000000
# 4 0.000000 0.000000 0.000000 0.046598 0.000000 0.000000
# 5 0.000000 0.000000 0.000000 0.000000 0.034903 0.000000
# 6 0.000000 0.000000 0.000000 0.000000 0.000000 0.038575
#
#
# Mechanical properties :
#
#
# Convention : Reuss Voigt Hill
#
# Bulk Modulus (GPa) = 61.82390 69.08029 65.45210
# Shear Modulus (GPa) = 22.27037 23.54298 22.90667
#
# Velocity S-wave (km/s) = 3.55699 3.65721 3.60745
# Velocity P-wave (km/s) = 7.21060 7.55508 7.38485
#
# Compressibility (1/GPa) = 0.01617497
#
# Stress axis : x y z
#
# Youngs Moduli (GPa) = 38.06706 61.37452 66.45400
#
# Poissons Ratio (x) = 0.42367 0.55226
# Poissons Ratio (y) = 0.26278 0.36580
# Poissons Ratio (z) = 0.31635 0.33784
#
# Static dielectric constant tensor:
#      x y z
#    x 3.337270 0.000000 0.000000 
#    y 0.000000 3.733020 0.000000 
#    z 0.000000 0.000000 2.975850 
# 
# 
# High freq. dielectric constant tensor:
#      x y z
#    x 1.690600 0.000000 0.000000 
#    y 0.000000 1.692340 0.000000 
#    z 0.000000 0.000000 1.648480 
# 
# From -- ./inp_files/20727.got.cif
#   From: 2010.03.12/outbox.cif.g09.slc.cpg/sg44_11_cif.got.tgz:20727.got - 2010.04.14 02:36:11.
