data_PCOD8189036
_publ_section_title
;
Structure prediction by ZEFSAII (Michael W. Deem and Ramdas Pophale) SiO2 
 PCOD8189036
Probable space group: I M M 2
;
_chemical_formula_sum "Si O2"
_cell_formula_units_Z 64
_cell_length_a 30.758660
_cell_length_b 9.018859
_cell_length_c 11.987588
_cell_angle_alpha 90.000000
_cell_angle_beta 90.000000
_cell_angle_gamma 90.000000
_cell_volume 3325.453023
_symmetry_space_group_name_H-M "I M M 2"
_symmetry_group_IT_number 44
_symmetry_cell_setting 'orthorhombic'
loop_
_space_group_symop_operation_xyz
x,y,z
-x,-y,z
-x,y,z
x,-y,z
1/2+x,1/2+y,1/2+z
1/2-x,1/2-y,1/2+z
1/2-x,1/2+y,1/2+z
1/2+x,1/2-y,1/2+z
loop_
_atom_site_type_symbol
_atom_site_label
_atom_site_fract_x
_atom_site_fract_y
_atom_site_fract_z
Si Si1 0.203205 0.672864 0.240670
Si Si2 0.827753 0.665937 0.997805
Si Si3 0.876193 0.824923 0.629333
Si Si4 0.048728 0.327232 0.245127
Si Si5 0.200859 0.174307 0.784451
Si Si6 0.428758 0.831659 0.506709
Si Si7 0.625927 0.675005 0.872116
Si Si8 0.049567 0.673044 0.765710
O O1 0.198307 0.500000 0.271494
O O2 0.250880 0.738746 0.266785
O O3 0.167897 0.762292 0.310288
O O4 0.198127 0.699712 0.109741
O O5 0.817698 0.500000 0.953417
O O6 0.814032 0.785682 0.907819
O O7 0.877889 0.683955 0.025259
O O8 0.833965 0.762161 0.695287
O O9 0.870931 0.778816 0.501153
O O10 0.919937 0.753650 0.677331
O O11 0.880407 0.000000 0.644269
O O12 0.062773 0.500000 0.243929
O O13 0.081314 0.239481 0.323974
O O14 0.000000 0.306781 0.292450
O O15 0.049913 0.262176 0.118217
O O16 0.202935 0.000000 0.770245
O O17 0.443429 0.756464 0.390015
O O18 0.444905 0.000000 0.498663
O O19 0.625211 0.500000 0.856287
O O20 0.062235 0.500000 0.766613
O O21 0.000000 0.698270 0.728020
#
# Coordination Sequence:
#
# PCOD8189036 Si02
#       8
#     8   8   8   8   8   8   8   8
#     4  10  22  40  61  85 115 151 190 235 282 336
#     4  10  19  35  62  87 113 149 186 229 285 339
#     4  10  23  41  57  78 113 155 190 227 283 341
#     4  10  20  37  62  87 114 151 190 230 283 344
#     4  10  22  39  59  84 115 149 189 235 281 333
#     4   9  16  32  57  86 115 143 179 227 282 334
#     4  11  24  40  59  82 114 153 192 238 285 334
#     4  10  20  35  58  87 114 143 186 236 280 329
#
# _framework density 19.245497
#
# number of rings (size 3 to 8) (size 9 to 14) (size 15 to 20)
#    0.000    2.000    2.500    0.750    1.750    4.500 
#    0.000    3.125    0.000    1.500    0.000    0.000 
#    0.000    0.000    0.000    0.000    0.000    0.000 
#
# Total GULP energy -396787.428166 kJ/mol
# GULP energy per Si atom -12399.607130 kJ/mol
# Density = 1.920169 g / cm^3
# Si number density = 19.245497 Si / 1000 Ang^3
#
#
#
# Elastic Constant Matrix: (Units=GPa)
#
#
# Indices 1 2 3 4 5 6 
#
# 1 126.4504 35.4248 63.5239 0.0000 0.0000 0.0000
# 2 35.4248 37.4146 36.2607 0.0000 0.0000 0.0000
# 3 63.5239 36.2607 95.7122 0.0000 0.0000 0.0000
# 4 0.0000 0.0000 0.0000 30.3223 0.0000 0.0000
# 5 0.0000 0.0000 0.0000 0.0000 -3.2872 0.0000
# 6 0.0000 0.0000 0.0000 0.0000 0.0000 25.5943
#
#
#
# Elastic Compliance Matrix: (Units=1/GPa)
#
#
# Indices 1 2 3 4 5 6 
#
# 1 0.012684 -0.006085 -0.006113 0.000000 0.000000 0.000000
# 2 -0.006085 0.045154 -0.013068 0.000000 0.000000 0.000000
# 3 -0.006113 -0.013068 0.019456 0.000000 0.000000 0.000000
# 4 0.000000 0.000000 0.000000 0.032979 0.000000 0.000000
# 5 0.000000 0.000000 0.000000 0.000000 -0.304209 0.000000
# 6 0.000000 0.000000 0.000000 0.000000 0.000000 0.039071
#
#
# Mechanical properties :
#
#
# Convention : Reuss Voigt Hill
#
# Bulk Modulus (GPa) = 37.36665 58.88846 48.12756
# Shear Modulus (GPa) = -52.40380 18.81706 -16.79337
#
# Velocity S-wave (km/s) = -5.22381 3.13027 -2.95716
# Velocity P-wave (km/s) = 4.11417 6.61285 3.66084
#
# Compressibility (1/GPa) = 0.02676183
#
# Stress axis : x y z
#
# Youngs Moduli (GPa) = 78.84066 22.14655 51.39797
#
# Poissons Ratio (x) = 0.13476 0.31419
# Poissons Ratio (y) = 0.47973 0.67167
# Poissons Ratio (z) = 0.48195 0.28941
#
# Static dielectric constant tensor:
#      x y z
#    x 3.751990 0.000000 0.000000 
#    y 0.000000 3.267410 0.000000 
#    z 0.000000 0.000000 3.594670 
# 
# 
# High freq. dielectric constant tensor:
#      x y z
#    x 1.764790 0.000000 0.000000 
#    y 0.000000 1.718300 0.000000 
#    z 0.000000 0.000000 1.755930 
# 
# From -- ./inp_files/11479.got.cif
#   From: 2010.03.12/outbox.cif.g09.slc.cpg/sg44_6_cif.got.tgz:11479.got - 2010.04.14 02:36:11.
