data_PCOD8189161
_publ_section_title
;
Structure prediction by ZEFSAII (Michael W. Deem and Ramdas Pophale) SiO2 
 PCOD8189161
Probable space group: I M M 2
;
_chemical_formula_sum "Si O2"
_cell_formula_units_Z 48
_cell_length_a 9.467143
_cell_length_b 9.005288
_cell_length_c 31.148552
_cell_angle_alpha 90.000000
_cell_angle_beta 90.000000
_cell_angle_gamma 90.000000
_cell_volume 2655.549531
_symmetry_space_group_name_H-M "I M M 2"
_symmetry_group_IT_number 44
_symmetry_cell_setting 'orthorhombic'
loop_
_space_group_symop_operation_xyz
x,y,z
-x,-y,z
-x,y,z
x,-y,z
1/2+x,1/2+y,1/2+z
1/2-x,1/2-y,1/2+z
1/2-x,1/2+y,1/2+z
1/2+x,1/2-y,1/2+z
loop_
_atom_site_type_symbol
_atom_site_label
_atom_site_fract_x
_atom_site_fract_y
_atom_site_fract_z
Si Si1 0.332221 0.332865 0.205080
Si Si2 0.664041 0.175161 0.866330
Si Si3 0.841074 0.176256 0.041057
Si Si4 0.335723 0.173487 0.120304
Si Si5 0.663114 0.175146 0.291203
Si Si6 0.341717 0.323607 0.446401
O O1 0.500000 0.330942 0.203373
O O2 0.273086 0.500000 0.207979
O O3 0.273160 0.255859 0.162054
O O4 0.280571 0.242018 0.246475
O O5 0.500000 0.217583 0.866720
O O6 0.740437 0.259025 0.828138
O O7 0.731958 0.233991 0.910827
O O8 0.687466 0.000000 0.860475
O O9 0.739923 0.240402 0.078068
O O10 0.000000 0.229000 0.050842
O O11 0.831475 0.000000 0.041337
O O12 0.794796 0.234496 0.993701
O O13 0.500000 0.205999 0.114269
O O14 0.304827 0.000000 0.126443
O O15 0.500000 0.219802 0.299582
O O16 0.681755 0.000000 0.289195
O O17 0.500000 0.265789 0.435535
O O18 0.343042 0.500000 0.446931
#
# Coordination Sequence:
#
# PCOD8189161 Si02
#       6
#     8   8   8   8   8   8
#     4   9  17  30  49  71  94 122 157 196 237 284
#     4  10  20  32  48  73 103 131 160 198 245 294
#     4   8  14  25  42  66  95 125 157 193 233 276
#     4   9  16  26  43  68  95 121 153 195 237 276
#     4  10  20  34  53  74  95 124 164 205 244 290
#     4   8  14  26  45  68  94 125 161 199 236 277
#
# _framework density 18.075355999999999
#
# number of rings (size 3 to 8) (size 9 to 14) (size 15 to 20)
#    0.000    3.000    0.000    2.500    0.000    4.667 
#    0.000    4.167    0.000    4.500    0.000    4.667 
#    0.000    0.000    0.000    0.000    0.000    0.000 
#
# Total GULP energy -297505.150892 kJ/mol
# GULP energy per Si atom -12396.047954 kJ/mol
# Density = 1.803422 g / cm^3
# Si number density = 18.075356 Si / 1000 Ang^3
#
#
#
# Elastic Constant Matrix: (Units=GPa)
#
#
# Indices 1 2 3 4 5 6 
#
# 1 84.8633 38.8908 87.4015 0.0000 0.0000 0.0000
# 2 38.8908 50.9309 55.5612 0.0000 0.0000 0.0000
# 3 87.4015 55.5612 201.8453 0.0000 0.0000 0.0000
# 4 0.0000 0.0000 0.0000 24.6665 0.0000 0.0000
# 5 0.0000 0.0000 0.0000 0.0000 32.9048 0.0000
# 6 0.0000 0.0000 0.0000 0.0000 0.0000 15.0530
#
#
#
# Elastic Compliance Matrix: (Units=1/GPa)
#
#
# Indices 1 2 3 4 5 6 
#
# 1 0.024483 -0.010190 -0.007797 0.000000 0.000000 0.000000
# 2 -0.010190 0.032302 -0.004479 0.000000 0.000000 0.000000
# 3 -0.007797 -0.004479 0.009563 0.000000 0.000000 0.000000
# 4 0.000000 0.000000 0.000000 0.040541 0.000000 0.000000
# 5 0.000000 0.000000 0.000000 0.000000 0.030391 0.000000
# 6 0.000000 0.000000 0.000000 0.000000 0.000000 0.066432
#
#
# Mechanical properties :
#
#
# Convention : Reuss Voigt Hill
#
# Bulk Modulus (GPa) = 46.69214 77.92739 62.30977
# Shear Modulus (GPa) = 19.54786 24.91062 22.22924
#
# Velocity S-wave (km/s) = 3.29213 3.71638 3.51067
# Velocity P-wave (km/s) = 6.35129 7.84993 7.14004
#
# Compressibility (1/GPa) = 0.02141688
#
# Stress axis : x y z
#
# Youngs Moduli (GPa) = 40.84423 30.95781 104.56649
#
# Poissons Ratio (x) = 0.31546 0.81526
# Poissons Ratio (y) = 0.41620 0.46838
# Poissons Ratio (z) = 0.31845 0.13867
#
# Static dielectric constant tensor:
#      x y z
#    x 3.229900 0.000000 0.000000 
#    y 0.000000 3.033420 0.000000 
#    z 0.000000 0.000000 3.825150 
# 
# 
# High freq. dielectric constant tensor:
#      x y z
#    x 1.675960 0.000000 0.000000 
#    y 0.000000 1.663050 0.000000 
#    z 0.000000 0.000000 1.720240 
# 
# From -- ./inp_files/26034.got.cif
#   From: 2010.03.12/outbox.cif.g09.slc.cpg/sg44_14_cif.got.tgz:26034.got - 2010.04.14 02:36:11.
