data_PCOD8189157
_publ_section_title
;
Structure prediction by ZEFSAII (Michael W. Deem and Ramdas Pophale) SiO2 
 PCOD8189157
Probable space group: I M M 2
;
_chemical_formula_sum "Si O2"
_cell_formula_units_Z 64
_cell_length_a 9.108182
_cell_length_b 30.185698
_cell_length_c 14.210855
_cell_angle_alpha 90.000000
_cell_angle_beta 90.000000
_cell_angle_gamma 90.000000
_cell_volume 3907.087442
_symmetry_space_group_name_H-M "I M M 2"
_symmetry_group_IT_number 44
_symmetry_cell_setting 'orthorhombic'
loop_
_space_group_symop_operation_xyz
x,y,z
-x,-y,z
-x,y,z
x,-y,z
1/2+x,1/2+y,1/2+z
1/2-x,1/2-y,1/2+z
1/2-x,1/2+y,1/2+z
1/2+x,1/2-y,1/2+z
loop_
_atom_site_type_symbol
_atom_site_label
_atom_site_fract_x
_atom_site_fract_y
_atom_site_fract_z
Si Si1 0.664651 0.137580 0.798310
Si Si2 0.667903 0.197923 0.295949
Si Si3 0.826593 0.212342 0.689408
Si Si4 0.829799 0.049006 0.072646
Si Si5 0.165782 0.682340 0.493575
Si Si6 0.169476 0.730476 0.997476
Si Si7 0.828014 0.549283 0.379414
Si Si8 0.171870 0.137324 0.164663
O O1 0.500000 0.144308 0.756992
O O2 0.777482 0.167588 0.741674
O O3 0.665762 0.148304 0.908639
O O4 0.712326 0.085448 0.798136
O O5 0.500000 0.189908 0.266473
O O6 0.722456 0.244065 0.247818
O O7 0.684029 0.197712 0.408678
O O8 0.765790 0.156417 0.262288
O O9 0.751863 0.211165 0.587636
O O10 0.000000 0.210461 0.677511
O O11 0.793889 0.084817 0.154319
O O12 0.000000 0.050669 0.046733
O O13 0.783795 0.000000 0.109186
O O14 0.747354 0.061696 0.977529
O O15 0.255018 0.725050 0.460884
O O16 0.246385 0.663124 0.583060
O O17 0.000000 0.695601 0.522758
O O18 0.000000 0.739163 0.023076
O O19 0.779785 0.500000 0.345228
O O20 0.000000 0.551180 0.399487
O O21 0.000000 0.147227 0.158376
#
# Coordination Sequence:
#
# PCOD8189157 Si02
#       8
#     8   8   8   8   8   8   8   8
#     4  10  20  32  48  72 100 135 170 203 243 289
#     4  10  22  36  50  70  98 129 164 204 246 289
#     4  11  22  35  51  73  99 130 166 204 245 291
#     4   9  18  31  46  69 101 132 163 201 245 293
#     4  11  20  30  47  71 101 133 166 204 240 281
#     4  11  22  37  52  69  96 131 168 206 245 288
#     4   9  17  30  48  71  99 131 167 204 244 291
#     4  11  21  31  49  73  98 134 171 201 241 292
#
# _framework density 16.380488
#
# number of rings (size 3 to 8) (size 9 to 14) (size 15 to 20)
#    0.000    1.750    3.750    1.500    0.000    3.000 
#    0.000    0.000    0.000    0.000    0.000    0.875 
#    0.000    1.000    0.000    0.000    0.000    0.000 
#
# Total GULP energy -396697.031564 kJ/mol
# GULP energy per Si atom -12396.782236 kJ/mol
# Density = 1.634320 g / cm^3
# Si number density = 16.380488 Si / 1000 Ang^3
#
#
#
# Elastic Constant Matrix: (Units=GPa)
#
#
# Indices 1 2 3 4 5 6 
#
# 1 80.1895 44.5728 35.4302 -0.0001 -0.0003 -0.0001
# 2 44.5728 105.4990 35.0429 -0.0002 0.0000 0.0000
# 3 35.4302 35.0429 70.2090 0.0017 0.0008 0.0000
# 4 -0.0001 -0.0002 0.0017 21.1134 0.0004 0.0001
# 5 -0.0003 0.0000 0.0008 0.0004 26.3622 0.0002
# 6 -0.0001 0.0000 0.0000 0.0001 0.0002 21.8339
#
#
#
# Elastic Compliance Matrix: (Units=1/GPa)
#
#
# Indices 1 2 3 4 5 6 
#
# 1 0.018486 -0.005648 -0.006510 0.000001 0.000000 0.000000
# 2 -0.005648 0.013088 -0.003682 0.000000 0.000000 0.000000
# 3 -0.006510 -0.003682 0.019366 -0.000002 -0.000001 0.000000
# 4 0.000001 0.000000 -0.000002 0.047363 -0.000001 0.000000
# 5 0.000000 0.000000 -0.000001 -0.000001 0.037933 0.000000
# 6 0.000000 0.000000 0.000000 0.000000 0.000000 0.045800
#
#
# Mechanical properties :
#
#
# Convention : Reuss Voigt Hill
#
# Bulk Modulus (GPa) = 51.92059 53.99882 52.95971
# Shear Modulus (GPa) = 22.71309 23.25202 22.98255
#
# Velocity S-wave (km/s) = 3.72774 3.77171 3.74979
# Velocity P-wave (km/s) = 7.09179 7.21142 7.15186
#
# Compressibility (1/GPa) = 0.01926018
#
# Stress axis : x y z
#
# Youngs Moduli (GPa) = 54.09481 76.40489 51.63624
#
# Poissons Ratio (x) = 0.43153 0.33614
# Poissons Ratio (y) = 0.30553 0.19015
# Poissons Ratio (z) = 0.35214 0.28135
#
# Static dielectric constant tensor:
#      x y z
#    x 3.218540 0.000000 0.000000 
#    y 0.000000 3.436200 0.000000 
#    z 0.000000 0.000000 2.866870 
# 
# 
# High freq. dielectric constant tensor:
#      x y z
#    x 1.641570 0.000000 0.000000 
#    y 0.000000 1.625920 0.000000 
#    z 0.000000 0.000000 1.599840 
# 
# From -- ./inp_files/17072.got.cif
#   From: 2010.03.12/outbox.cif.g09.slc.cpg/sg44_9_cif.got.tgz:17072.got - 2010.04.14 02:36:11.
