data_PCOD8189856
_publ_section_title
;
Structure prediction by ZEFSAII (Michael W. Deem and Ramdas Pophale) SiO2 
 PCOD8189856
Probable space group: I M M 2
;
_chemical_formula_sum "Si O2"
_cell_formula_units_Z 64
_cell_length_a 9.443463
_cell_length_b 14.709925
_cell_length_c 24.327875
_cell_angle_alpha 90.000000
_cell_angle_beta 90.000000
_cell_angle_gamma 90.000000
_cell_volume 3379.449159
_symmetry_space_group_name_H-M "I M M 2"
_symmetry_group_IT_number 44
_symmetry_cell_setting 'orthorhombic'
loop_
_space_group_symop_operation_xyz
x,y,z
-x,-y,z
-x,y,z
x,-y,z
1/2+x,1/2+y,1/2+z
1/2-x,1/2-y,1/2+z
1/2-x,1/2+y,1/2+z
1/2+x,1/2-y,1/2+z
loop_
_atom_site_type_symbol
_atom_site_label
_atom_site_fract_x
_atom_site_fract_y
_atom_site_fract_z
Si Si1 0.668589 0.600521 0.589930
Si Si2 0.334740 0.605196 0.074642
Si Si3 0.167126 0.253092 0.007986
Si Si4 0.164624 0.392568 0.300797
Si Si5 0.662896 0.102282 0.310248
Si Si6 0.657603 0.392054 0.197303
Si Si7 0.164217 0.770232 0.882565
Si Si8 0.343576 0.391884 0.709680
O O1 0.500000 0.595020 0.590156
O O2 0.731131 0.500000 0.577774
O O3 0.724130 0.668396 0.543547
O O4 0.717685 0.637087 0.649995
O O5 0.500000 0.622430 0.064079
O O6 0.296290 0.500000 0.067793
O O7 0.244347 0.656917 0.028891
O O8 0.293915 0.639516 0.136317
O O9 0.000000 0.268403 0.014229
O O10 0.209579 0.230661 0.945841
O O11 0.187527 0.500000 0.307961
O O12 0.232912 0.357106 0.243472
O O13 0.240436 0.343894 0.351681
O O14 0.000000 0.366570 0.300079
O O15 0.500000 0.100396 0.293722
O O16 0.692710 0.168031 0.361293
O O17 0.743167 0.144518 0.257773
O O18 0.715120 0.000000 0.325434
O O19 0.500000 0.354413 0.211014
O O20 0.651765 0.500000 0.196992
O O21 0.000000 0.797755 0.874949
O O22 0.500000 0.350935 0.719520
O O23 0.350288 0.500000 0.710891
#
# Coordination Sequence:
#
# PCOD8189856 Si02
#       8
#     8   8   8   8   8   8   8   8
#     4   8  15  30  51  74 101 129 158 201 255 305
#     4   9  19  36  56  78 107 142 174 209 262 322
#     4  10  21  35  53  78 103 133 179 224 257 299
#     4  10  21  36  55  80 108 137 172 219 270 313
#     4   9  18  33  51  71  99 132 165 206 252 297
#     4   8  15  31  55  80 106 137 172 209 257 322
#     4  10  22  37  52  74 104 140 180 216 256 310
#     4   8  14  27  49  75 100 126 158 198 249 308
#
# _framework density 18.937995999999998
#
# number of rings (size 3 to 8) (size 9 to 14) (size 15 to 20)
#    0.000    3.000    0.000    1.875    0.000    4.500 
#    0.000    6.875    0.000    2.625    0.000    0.000 
#    0.000    0.000    0.000    0.000    0.000    0.000 
#
# Total GULP energy -396705.765353 kJ/mol
# GULP energy per Si atom -12397.055167 kJ/mol
# Density = 1.889489 g / cm^3
# Si number density = 18.937996 Si / 1000 Ang^3
#
#
#
# Elastic Constant Matrix: (Units=GPa)
#
#
# Indices 1 2 3 4 5 6 
#
# 1 67.0963 26.6880 42.3508 0.0000 0.0000 0.0000
# 2 26.6880 47.1172 19.9521 0.0000 0.0000 0.0000
# 3 42.3508 19.9521 99.3441 0.0000 0.0000 0.0000
# 4 0.0000 0.0000 0.0000 32.1444 0.0000 0.0000
# 5 0.0000 0.0000 0.0000 0.0000 29.9628 0.0000
# 6 0.0000 0.0000 0.0000 0.0000 0.0000 24.3469
#
#
#
# Elastic Compliance Matrix: (Units=1/GPa)
#
#
# Indices 1 2 3 4 5 6 
#
# 1 0.024170 -0.010194 -0.008256 0.000000 0.000000 0.000000
# 2 -0.010194 0.027496 -0.001176 0.000000 0.000000 0.000000
# 3 -0.008256 -0.001176 0.013822 0.000000 0.000000 0.000000
# 4 0.000000 0.000000 0.000000 0.031110 0.000000 0.000000
# 5 0.000000 0.000000 0.000000 0.000000 0.033375 0.000000
# 6 0.000000 0.000000 0.000000 0.000000 0.000000 0.041073
#
#
# Mechanical properties :
#
#
# Convention : Reuss Voigt Hill
#
# Bulk Modulus (GPa) = 38.11835 43.50441 40.81138
# Shear Modulus (GPa) = 22.82642 25.59527 24.21085
#
# Velocity S-wave (km/s) = 3.47554 3.68030 3.57939
# Velocity P-wave (km/s) = 6.02308 6.40948 6.21928
#
# Compressibility (1/GPa) = 0.02623409
#
# Stress axis : x y z
#
# Youngs Moduli (GPa) = 41.37327 36.36894 72.34812
#
# Poissons Ratio (x) = 0.37075 0.59734
# Poissons Ratio (y) = 0.42177 0.08511
# Poissons Ratio (z) = 0.34160 0.04279
#
# Static dielectric constant tensor:
#      x y z
#    x 3.380770 0.000000 0.000000 
#    y 0.000000 3.417730 0.000000 
#    z 0.000000 0.000000 3.611380 
# 
# 
# High freq. dielectric constant tensor:
#      x y z
#    x 1.716130 0.000000 0.000000 
#    y 0.000000 1.729640 0.000000 
#    z 0.000000 0.000000 1.736310 
# 
# From -- ./inp_files/25080.got.cif
#   From: 2010.03.12/outbox.cif.g09.slc.cpg/sg44_13_cif.got.tgz:25080.got - 2010.04.14 02:36:11.
