data_PCOD8189756
_publ_section_title
;
Structure prediction by ZEFSAII (Michael W. Deem and Ramdas Pophale) SiO2 
 PCOD8189756
Probable space group: I M M 2
;
_chemical_formula_sum "Si O2"
_cell_formula_units_Z 56
_cell_length_a 8.811409
_cell_length_b 20.344374
_cell_length_c 15.233780
_cell_angle_alpha 90.000000
_cell_angle_beta 90.000000
_cell_angle_gamma 90.000000
_cell_volume 2730.847013
_symmetry_space_group_name_H-M "I M M 2"
_symmetry_group_IT_number 44
_symmetry_cell_setting 'orthorhombic'
loop_
_space_group_symop_operation_xyz
x,y,z
-x,-y,z
-x,y,z
x,-y,z
1/2+x,1/2+y,1/2+z
1/2-x,1/2-y,1/2+z
1/2-x,1/2+y,1/2+z
1/2+x,1/2-y,1/2+z
loop_
_atom_site_type_symbol
_atom_site_label
_atom_site_fract_x
_atom_site_fract_y
_atom_site_fract_z
Si Si1 0.175061 0.075357 0.432270
Si Si2 0.823806 0.867002 0.251305
Si Si3 0.677027 0.220942 0.105481
Si Si4 0.170977 0.000000 0.026258
Si Si5 0.326112 0.000000 0.195926
Si Si6 0.679079 0.138361 0.596388
Si Si7 0.675148 0.926523 0.770895
Si Si8 0.326294 0.881797 0.955305
O O1 0.205434 0.130574 0.356418
O O2 0.280098 0.093015 0.513889
O O3 0.000000 0.079181 0.460969
O O4 0.213762 0.000000 0.401222
O O5 0.739298 0.810685 0.196155
O O6 0.764834 0.936890 0.223180
O O7 0.000000 0.859685 0.229255
O O8 0.500000 0.228826 0.120013
O O9 0.749705 0.290392 0.086519
O O10 0.712809 0.179998 0.016746
O O11 0.313973 0.000000 0.091843
O O12 0.196183 0.064839 0.970459
O O13 0.000000 0.000000 0.065915
O O14 0.500000 0.000000 0.228448
O O15 0.500000 0.146807 0.602016
O O16 0.749437 0.104375 0.683470
O O17 0.500000 0.936555 0.750071
O O18 0.693800 0.872948 0.850029
O O19 0.743224 0.000000 0.791311
O O20 0.500000 0.904931 0.974355
#
# Coordination Sequence:
#
# PCOD8189756 Si02
#       8
#     8   8   8   4   4   8   8   8
#     4  10  22  42  66  92 123 162 206 258 321 373
#     4  11  22  39  63  92 125 160 203 258 313 370
#     4  11  24  40  60  90 126 168 207 244 303 378
#     4  12  22  32  54  89 126 157 194 245 304 364
#     4  12  22  34  56  89 126 163 200 245 306 374
#     4  11  24  41  62  89 122 166 214 260 303 358
#     4   9  18  36  64  91 114 147 200 258 309 359
#     4  10  20  37  62  87 117 156 201 247 302 368
#
# _framework density 20.506460000000001
#
# number of rings (size 3 to 8) (size 9 to 14) (size 15 to 20)
#    0.000    1.429    2.857    3.000    0.000    3.714 
#    0.000    4.286    0.000    0.000    0.000    0.000 
#    0.000    0.000    0.000    0.000    0.000    0.000 
#
# Total GULP energy -346900.965565 kJ/mol
# GULP energy per Si atom -12389.320199 kJ/mol
# Density = 2.045979 g / cm^3
# Si number density = 20.506460 Si / 1000 Ang^3
#
#
#
# Elastic Constant Matrix: (Units=GPa)
#
#
# Indices 1 2 3 4 5 6 
#
# 1 67.7831 33.8961 43.6433 0.0000 0.0000 0.0000
# 2 33.8961 99.1682 45.4669 0.0000 0.0000 0.0000
# 3 43.6433 45.4669 131.4918 0.0000 0.0000 0.0000
# 4 0.0000 0.0000 0.0000 22.5820 0.0000 0.0000
# 5 0.0000 0.0000 0.0000 0.0000 30.6244 0.0000
# 6 0.0000 0.0000 0.0000 0.0000 0.0000 31.8442
#
#
#
# Elastic Compliance Matrix: (Units=1/GPa)
#
#
# Indices 1 2 3 4 5 6 
#
# 1 0.020383 -0.004594 -0.005177 0.000000 0.000000 0.000000
# 2 -0.004594 0.013019 -0.002977 0.000000 0.000000 0.000000
# 3 -0.005177 -0.002977 0.010353 0.000000 0.000000 0.000000
# 4 0.000000 0.000000 0.000000 0.044283 0.000000 0.000000
# 5 0.000000 0.000000 0.000000 0.000000 0.032654 0.000000
# 6 0.000000 0.000000 0.000000 0.000000 0.000000 0.031403
#
#
# Mechanical properties :
#
#
# Convention : Reuss Voigt Hill
#
# Bulk Modulus (GPa) = 54.76523 60.49509 57.63016
# Shear Modulus (GPa) = 27.22176 28.70588 27.96382
#
# Velocity S-wave (km/s) = 3.64740 3.74551 3.69678
# Velocity P-wave (km/s) = 6.67101 6.94764 6.81073
#
# Compressibility (1/GPa) = 0.01825976
#
# Stress axis : x y z
#
# Youngs Moduli (GPa) = 49.05957 76.81164 96.59278
#
# Poissons Ratio (x) = 0.35284 0.50007
# Poissons Ratio (y) = 0.22536 0.28756
# Poissons Ratio (z) = 0.25399 0.22867
#
# Static dielectric constant tensor:
#      x y z
#    x 3.542440 0.000000 0.000000 
#    y 0.000000 3.659130 0.000000 
#    z 0.000000 0.000000 4.113230 
# 
# 
# High freq. dielectric constant tensor:
#      x y z
#    x 1.789180 0.000000 0.000000 
#    y 0.000000 1.790440 0.000000 
#    z 0.000000 0.000000 1.815080 
# 
# From -- ./inp_files/16523.got.cif
#   From: 2010.03.12/outbox.cif.g09.slc.cpg/sg44_9_cif.got.tgz:16523.got - 2010.04.14 02:36:11.
