data_PCOD8189381
_publ_section_title
;
Structure prediction by ZEFSAII (Michael W. Deem and Ramdas Pophale) SiO2 
 PCOD8189381
Probable space group: I M M 2
;
_chemical_formula_sum "Si O2"
_cell_formula_units_Z 48
_cell_length_a 8.865913
_cell_length_b 25.262060
_cell_length_c 12.110102
_cell_angle_alpha 90.000000
_cell_angle_beta 90.000000
_cell_angle_gamma 90.000000
_cell_volume 2712.314394
_symmetry_space_group_name_H-M "I M M 2"
_symmetry_group_IT_number 44
_symmetry_cell_setting 'orthorhombic'
loop_
_space_group_symop_operation_xyz
x,y,z
-x,-y,z
-x,y,z
x,-y,z
1/2+x,1/2+y,1/2+z
1/2-x,1/2-y,1/2+z
1/2-x,1/2+y,1/2+z
1/2+x,1/2-y,1/2+z
loop_
_atom_site_type_symbol
_atom_site_label
_atom_site_fract_x
_atom_site_fract_y
_atom_site_fract_z
Si Si1 0.176048 0.845150 0.759740
Si Si2 0.328589 0.148221 0.300893
Si Si3 0.671106 0.177243 0.535334
Si Si4 0.674195 0.559707 0.413285
Si Si5 0.822024 0.246249 0.370986
Si Si6 0.178632 0.440896 0.638877
O O1 0.233135 0.846636 0.634621
O O2 0.211146 0.902697 0.810224
O O3 0.265575 0.802880 0.832039
O O4 0.000000 0.831273 0.762465
O O5 0.500000 0.160133 0.262520
O O6 0.325814 0.135218 0.432987
O O7 0.229141 0.201452 0.281053
O O8 0.259592 0.099149 0.232603
O O9 0.500000 0.188870 0.574442
O O10 0.746025 0.231963 0.489780
O O11 0.500000 0.563078 0.446406
O O12 0.720263 0.500000 0.379169
O O13 0.767559 0.579045 0.519512
O O14 0.000000 0.246813 0.384037
O O15 0.242458 0.500000 0.662748
O O16 0.000000 0.441707 0.640938
#
# Coordination Sequence:
#
# PCOD8189381 Si02
#       6
#     8   8   8   8   8   8
#     4  11  21  35  56  79 107 143 179 218 267 317
#     4   8  17  34  52  75 110 141 171 218 263 307
#     4   9  19  36  54  76 108 139 175 220 262 312
#     4   9  20  37  54  76 107 140 176 220 265 313
#     4  10  20  34  53  78 107 140 176 215 262 317
#     4   9  17  32  56  82 108 140 177 218 263 312
#
# _framework density 17.697064000000001
#
# number of rings (size 3 to 8) (size 9 to 14) (size 15 to 20)
#    1.000    1.667    0.000    2.000    0.000    3.333 
#    0.000    4.167    0.000    1.000    0.000    0.000 
#    0.000    0.000    0.000    0.000    0.000    0.000 
#
# Total GULP energy -297422.184740 kJ/mol
# GULP energy per Si atom -12392.591031 kJ/mol
# Density = 1.765678 g / cm^3
# Si number density = 17.697064 Si / 1000 Ang^3
#
#
#
# Elastic Constant Matrix: (Units=GPa)
#
#
# Indices 1 2 3 4 5 6 
#
# 1 74.0166 34.8702 26.7560 -0.0002 0.0000 -0.0001
# 2 34.8702 94.5387 52.3300 -0.0001 0.0000 0.0000
# 3 26.7560 52.3300 91.2769 0.0001 -0.0002 -0.0002
# 4 -0.0002 -0.0001 0.0001 31.9611 0.0000 0.0000
# 5 0.0000 0.0000 -0.0002 0.0000 29.3265 0.0000
# 6 -0.0001 0.0000 -0.0002 0.0000 0.0000 19.2071
#
#
#
# Elastic Compliance Matrix: (Units=1/GPa)
#
#
# Indices 1 2 3 4 5 6 
#
# 1 0.016594 -0.005022 -0.001985 0.000000 0.000000 0.000000
# 2 -0.005022 0.017015 -0.008283 0.000000 0.000000 0.000000
# 3 -0.001985 -0.008283 0.016286 0.000000 0.000000 0.000000
# 4 0.000000 0.000000 0.000000 0.031288 0.000000 0.000000
# 5 0.000000 0.000000 0.000000 0.000000 0.034099 0.000000
# 6 0.000000 0.000000 0.000000 0.000000 0.000000 0.052064
#
#
# Mechanical properties :
#
#
# Convention : Reuss Voigt Hill
#
# Bulk Modulus (GPa) = 51.77174 54.19384 52.98279
# Shear Modulus (GPa) = 24.46626 25.82401 25.14514
#
# Velocity S-wave (km/s) = 3.72224 3.82413 3.77353
# Velocity P-wave (km/s) = 6.91313 7.08436 6.99927
#
# Compressibility (1/GPa) = 0.01931556
#
# Stress axis : x y z
#
# Youngs Moduli (GPa) = 60.26313 58.77306 61.40206
#
# Poissons Ratio (x) = 0.29514 0.12189
# Poissons Ratio (y) = 0.30263 0.50857
# Poissons Ratio (z) = 0.11963 0.48680
#
# Static dielectric constant tensor:
#      x y z
#    x 3.270780 0.000000 0.000000 
#    y 0.000000 3.304030 0.000000 
#    z 0.000000 0.000000 3.172500 
# 
# 
# High freq. dielectric constant tensor:
#      x y z
#    x 1.688140 0.000000 0.000000 
#    y 0.000000 1.669850 0.000000 
#    z 0.000000 0.000000 1.673500 
# 
# From -- ./inp_files/16601.got.cif
#   From: 2010.03.12/outbox.cif.g09.slc.cpg/sg44_9_cif.got.tgz:16601.got - 2010.04.14 02:36:11.
