data_PCOD8189306
_publ_section_title
;
Structure prediction by ZEFSAII (Michael W. Deem and Ramdas Pophale) SiO2 
 PCOD8189306
Probable space group: I M M 2
;
_chemical_formula_sum "Si O2"
_cell_formula_units_Z 56
_cell_length_a 21.164271
_cell_length_b 9.036554
_cell_length_c 14.083941
_cell_angle_alpha 90.000000
_cell_angle_beta 90.000000
_cell_angle_gamma 90.000000
_cell_volume 2693.582979
_symmetry_space_group_name_H-M "I M M 2"
_symmetry_group_IT_number 44
_symmetry_cell_setting 'orthorhombic'
loop_
_space_group_symop_operation_xyz
x,y,z
-x,-y,z
-x,y,z
x,-y,z
1/2+x,1/2+y,1/2+z
1/2-x,1/2-y,1/2+z
1/2-x,1/2+y,1/2+z
1/2+x,1/2-y,1/2+z
loop_
_atom_site_type_symbol
_atom_site_label
_atom_site_fract_x
_atom_site_fract_y
_atom_site_fract_z
Si Si1 0.611719 0.172415 0.763930
Si Si2 0.428268 0.325772 0.578472
Si Si3 0.071326 0.327215 0.472442
Si Si4 0.662224 0.834546 0.434732
Si Si5 0.431128 0.160255 0.265060
Si Si6 0.742426 0.326430 0.285157
Si Si7 0.144533 0.829258 0.628608
O O1 0.577137 0.271385 0.686260
O O2 0.579324 0.214972 0.862838
O O3 0.685422 0.213192 0.768303
O O4 0.602208 0.000000 0.739204
O O5 0.500000 0.286808 0.542795
O O6 0.417281 0.500000 0.572788
O O7 0.370305 0.250325 0.521855
O O8 0.080475 0.500000 0.486786
O O9 0.129247 0.251847 0.529829
O O10 0.000000 0.278716 0.504608
O O11 0.609234 0.846324 0.357571
O O12 0.720659 0.750501 0.384094
O O13 0.683916 0.000000 0.467916
O O14 0.500000 0.191395 0.303969
O O15 0.415048 0.294577 0.195449
O O16 0.426136 0.000000 0.211327
O O17 0.729623 0.500000 0.298531
O O18 0.705204 0.270630 0.189541
O O19 0.151441 0.000000 0.605236
#
# Coordination Sequence:
#
# PCOD8189306 Si02
#       7
#     8   8   8   8   8   8   8
#     4  10  22  41  63  83 109 150 197 243 287 339
#     4  11  24  40  59  86 119 153 191 242 301 351
#     4  10  21  37  57  81 108 141 184 232 279 327
#     4  10  20  35  58  85 114 151 192 233 281 344
#     4   9  17  30  49  75 107 142 182 227 272 323
#     4   9  20  39  59  85 119 150 186 233 286 340
#     4  10  20  33  52  79 112 146 178 219 274 335
#
# _framework density 20.790151000000002
#
# number of rings (size 3 to 8) (size 9 to 14) (size 15 to 20)
#    0.000    2.143    0.000    2.571    0.000    8.000 
#    0.000    2.857    0.000    0.000    0.000    0.000 
#    0.000    0.000    0.000    0.000    0.000    0.000 
#
# Total GULP energy -346958.760416 kJ/mol
# GULP energy per Si atom -12391.384301 kJ/mol
# Density = 2.074283 g / cm^3
# Si number density = 20.790151 Si / 1000 Ang^3
#
#
#
# Elastic Constant Matrix: (Units=GPa)
#
#
# Indices 1 2 3 4 5 6 
#
# 1 72.2159 27.8949 17.1386 0.0000 0.0000 0.0000
# 2 27.8949 72.7240 36.0863 0.0000 0.0000 0.0000
# 3 17.1386 36.0863 88.4321 0.0000 0.0000 0.0000
# 4 0.0000 0.0000 0.0000 38.1536 0.0000 0.0000
# 5 0.0000 0.0000 0.0000 0.0000 613.9199 0.0000
# 6 0.0000 0.0000 0.0000 0.0000 0.0000 26.9881
#
#
#
# Elastic Compliance Matrix: (Units=1/GPa)
#
#
# Indices 1 2 3 4 5 6 
#
# 1 0.016297 -0.005873 -0.000762 0.000000 0.000000 0.000000
# 2 -0.005873 0.019358 -0.006761 0.000000 0.000000 0.000000
# 3 -0.000762 -0.006761 0.014215 0.000000 0.000000 0.000000
# 4 0.000000 0.000000 0.000000 0.026210 0.000000 0.000000
# 5 0.000000 0.000000 0.000000 0.000000 0.001629 0.000000
# 6 0.000000 0.000000 0.000000 0.000000 0.000000 0.037053
#
#
# Mechanical properties :
#
#
# Convention : Reuss Voigt Hill
#
# Bulk Modulus (GPa) = 43.33182 43.95684 43.64433
# Shear Modulus (GPa) = 33.50158 145.96247 89.73203
#
# Velocity S-wave (km/s) = 4.01860 8.38808 6.57682
# Velocity P-wave (km/s) = 6.51306 10.72391 8.87193
#
# Compressibility (1/GPa) = 0.02307773
#
# Stress axis : x y z
#
# Youngs Moduli (GPa) = 61.36206 51.65734 70.34902
#
# Poissons Ratio (x) = 0.30338 0.05359
# Poissons Ratio (y) = 0.36037 0.47565
# Poissons Ratio (z) = 0.04675 0.34927
#
# Static dielectric constant tensor:
#      x y z
#    x -2.058060 0.000000 0.000000 
#    y 0.000000 3.912800 0.000000 
#    z 0.000000 0.000000 3.902780 
# 
# 
# High freq. dielectric constant tensor:
#      x y z
#    x 1.816980 0.000000 0.000000 
#    y 0.000000 1.803360 0.000000 
#    z 0.000000 0.000000 1.814580 
# 
# From -- ./inp_files/19174.got.cif
#   From: 2010.03.12/outbox.cif.g09.slc.cpg/sg44_10_cif.got.tgz:19174.got - 2010.04.14 02:36:11.
