data_PCOD8189386
_publ_section_title
;
Structure prediction by ZEFSAII (Michael W. Deem and Ramdas Pophale) SiO2 
 PCOD8189386
Probable space group: I M M 2
;
_chemical_formula_sum "Si O2"
_cell_formula_units_Z 64
_cell_length_a 8.650617
_cell_length_b 19.371415
_cell_length_c 20.711306
_cell_angle_alpha 90.000000
_cell_angle_beta 90.000000
_cell_angle_gamma 90.000000
_cell_volume 3470.690722
_symmetry_space_group_name_H-M "I M M 2"
_symmetry_group_IT_number 44
_symmetry_cell_setting 'orthorhombic'
loop_
_space_group_symop_operation_xyz
x,y,z
-x,-y,z
-x,y,z
x,-y,z
1/2+x,1/2+y,1/2+z
1/2-x,1/2-y,1/2+z
1/2-x,1/2+y,1/2+z
1/2+x,1/2-y,1/2+z
loop_
_atom_site_type_symbol
_atom_site_label
_atom_site_fract_x
_atom_site_fract_y
_atom_site_fract_z
Si Si1 0.679086 0.078044 0.382830
Si Si2 0.679160 0.282232 0.692553
Si Si3 0.680659 0.705792 0.313294
Si Si4 0.820369 0.211233 0.430238
Si Si5 0.181013 0.708034 0.063260
Si Si6 0.319786 0.578576 0.122075
Si Si7 0.823776 0.923863 0.247261
Si Si8 0.321005 0.922339 0.759898
O O1 0.500000 0.093935 0.395420
O O2 0.780986 0.129920 0.425288
O O3 0.711833 0.089607 0.307294
O O4 0.722739 0.000000 0.403161
O O5 0.500000 0.262928 0.703288
O O6 0.775372 0.248041 0.749616
O O7 0.736731 0.254196 0.623760
O O8 0.706302 0.365110 0.693579
O O9 0.500000 0.692407 0.314235
O O10 0.726806 0.747140 0.376781
O O11 0.766391 0.631537 0.314265
O O12 0.770728 0.237025 0.501009
O O13 0.000000 0.224022 0.419002
O O14 0.223246 0.628094 0.075258
O O15 0.000000 0.714922 0.050627
O O16 0.500000 0.593770 0.112841
O O17 0.277215 0.500000 0.103771
O O18 0.275874 0.593851 0.195824
O O19 0.000000 0.918687 0.272826
O O20 0.792458 0.000000 0.216987
O O21 0.500000 0.911468 0.743052
O O22 0.289444 0.000000 0.785090
#
# Coordination Sequence:
#
# PCOD8189386 Si02
#       8
#     8   8   8   8   8   8   8   8
#     4  10  20  34  53  80 113 147 185 228 277 334
#     4  10  20  35  57  84 113 147 186 230 280 338
#     4  12  23  36  59  86 114 147 188 236 286 336
#     4  12  25  40  57  78 111 151 195 238 286 341
#     4  11  23  38  56  79 112 150 191 236 286 339
#     4  10  20  34  53  80 114 151 191 231 274 330
#     4   9  17  31  54  83 113 145 181 223 273 330
#     4  10  20  35  57  85 116 149 186 231 282 333
#
# _framework density 18.440134
#
# number of rings (size 3 to 8) (size 9 to 14) (size 15 to 20)
#    0.000    1.500    2.500    3.750    0.000    3.250 
#    0.000    0.000    0.000    0.750    0.000    1.750 
#    0.000    0.000    0.000    0.000    0.000    0.000 
#
# Total GULP energy -396882.631862 kJ/mol
# GULP energy per Si atom -12402.582246 kJ/mol
# Density = 1.839816 g / cm^3
# Si number density = 18.440134 Si / 1000 Ang^3
#
#
#
# Elastic Constant Matrix: (Units=GPa)
#
#
# Indices 1 2 3 4 5 6 
#
# 1 56.0527 23.9169 16.9713 0.0000 0.0000 0.0000
# 2 23.9169 104.3934 46.6564 0.0000 0.0000 0.0000
# 3 16.9713 46.6564 92.3523 0.0000 0.0000 0.0000
# 4 0.0000 0.0000 0.0000 24.5370 0.0000 0.0000
# 5 0.0000 0.0000 0.0000 0.0000 28.7034 0.0000
# 6 0.0000 0.0000 0.0000 0.0000 0.0000 26.7671
#
#
#
# Elastic Compliance Matrix: (Units=1/GPa)
#
#
# Indices 1 2 3 4 5 6 
#
# 1 0.019991 -0.003795 -0.001756 0.000000 0.000000 0.000000
# 2 -0.003795 0.013093 -0.005917 0.000000 0.000000 0.000000
# 3 -0.001756 -0.005917 0.014140 0.000000 0.000000 0.000000
# 4 0.000000 0.000000 0.000000 0.040755 0.000000 0.000000
# 5 0.000000 0.000000 0.000000 0.000000 0.034839 0.000000
# 6 0.000000 0.000000 0.000000 0.000000 0.000000 0.037359
#
#
# Mechanical properties :
#
#
# Convention : Reuss Voigt Hill
#
# Bulk Modulus (GPa) = 41.17385 47.54308 44.35846
# Shear Modulus (GPa) = 26.14904 27.01843 26.58374
#
# Velocity S-wave (km/s) = 3.76979 3.83194 3.80099
# Velocity P-wave (km/s) = 6.42847 6.73919 6.58567
#
# Compressibility (1/GPa) = 0.02428726
#
# Stress axis : x y z
#
# Youngs Moduli (GPa) = 50.02130 76.37540 70.71989
#
# Poissons Ratio (x) = 0.28985 0.12422
# Poissons Ratio (y) = 0.18984 0.41847
# Poissons Ratio (z) = 0.08786 0.45193
#
# Static dielectric constant tensor:
#      x y z
#    x 3.424490 0.000000 0.000000 
#    y 0.000000 3.685980 0.000000 
#    z 0.000000 0.000000 3.190520 
# 
# 
# High freq. dielectric constant tensor:
#      x y z
#    x 1.724250 0.000000 0.000000 
#    y 0.000000 1.720420 0.000000 
#    z 0.000000 0.000000 1.684790 
# 
# From -- ./inp_files/20795.got.cif
#   From: 2010.03.12/outbox.cif.g09.slc.cpg/sg44_11_cif.got.tgz:20795.got - 2010.04.14 02:36:11.
