data_PCOD8189738
_publ_section_title
;
Structure prediction by ZEFSAII (Michael W. Deem and Ramdas Pophale) SiO2 
 PCOD8189738
Probable space group: I M M 2
;
_chemical_formula_sum "Si O2"
_cell_formula_units_Z 64
_cell_length_a 13.274031
_cell_length_b 24.595949
_cell_length_c 9.705501
_cell_angle_alpha 90.000000
_cell_angle_beta 90.000000
_cell_angle_gamma 90.000000
_cell_volume 3168.723685
_symmetry_space_group_name_H-M "I M M 2"
_symmetry_group_IT_number 44
_symmetry_cell_setting 'orthorhombic'
loop_
_space_group_symop_operation_xyz
x,y,z
-x,-y,z
-x,y,z
x,-y,z
1/2+x,1/2+y,1/2+z
1/2-x,1/2-y,1/2+z
1/2-x,1/2+y,1/2+z
1/2+x,1/2-y,1/2+z
loop_
_atom_site_type_symbol
_atom_site_label
_atom_site_fract_x
_atom_site_fract_y
_atom_site_fract_z
Si Si1 0.383802 0.822150 0.219600
Si Si2 0.810409 0.130571 0.156004
Si Si3 0.385194 0.436565 0.400752
Si Si4 0.249713 0.439377 0.148128
Si Si5 0.618267 0.608015 0.947576
Si Si6 0.618369 0.843472 0.538704
Si Si7 0.880907 0.225704 0.526037
Si Si8 0.381301 0.251556 0.725867
O O1 0.500000 0.835760 0.185419
O O2 0.311986 0.865970 0.143026
O O3 0.358976 0.826330 0.381191
O O4 0.353051 0.761800 0.161145
O O5 0.838742 0.100089 0.295777
O O6 0.853262 0.191266 0.158959
O O7 0.860776 0.097749 0.034743
O O8 0.500000 0.423333 0.351970
O O9 0.375001 0.500000 0.435665
O O10 0.302201 0.418888 0.288616
O O11 0.204984 0.500000 0.165814
O O12 0.340490 0.441744 0.037166
O O13 0.162833 0.400784 0.088703
O O14 0.500000 0.607452 0.940143
O O15 0.661590 0.663621 0.022352
O O16 0.500000 0.849033 0.560908
O O17 0.667365 0.795930 0.632585
O O18 0.843642 0.254509 0.384050
O O19 0.000000 0.219579 0.519088
O O20 0.500000 0.245383 0.718723
#
# Coordination Sequence:
#
# PCOD8189738 Si02
#       8
#     8   8   8   8   8   8   8   8
#     4  10  21  36  55  87 126 161 197 242 290 344
#     4  11  21  36  62  90 124 160 197 241 294 362
#     4  10  23  43  64  90 124 156 194 250 309 364
#     4  11  24  41  60  85 114 153 206 256 308 358
#     4  10  20  37  60  87 119 153 197 244 296 365
#     4  10  22  41  60  85 121 159 204 251 297 353
#     4   8  17  33  53  83 120 154 186 230 291 355
#     4   9  19  34  57  88 122 156 195 243 295 357
#
# _framework density 20.197406999999998
#
# number of rings (size 3 to 8) (size 9 to 14) (size 15 to 20)
#    0.000    2.125    1.250    2.250    3.500    2.500 
#    0.000    2.500    0.000    1.125    0.000    0.000 
#    0.000    0.000    0.000    0.000    0.000    0.000 
#
# Total GULP energy -396590.488547 kJ/mol
# GULP energy per Si atom -12393.452767 kJ/mol
# Density = 2.015144 g / cm^3
# Si number density = 20.197407 Si / 1000 Ang^3
#
#
#
# Elastic Constant Matrix: (Units=GPa)
#
#
# Indices 1 2 3 4 5 6 
#
# 1 35.0113 17.5423 19.7320 -0.0006 0.0002 -0.0001
# 2 17.5423 66.2815 56.3106 -0.0015 0.0005 -0.0007
# 3 19.7320 56.3106 109.9983 -0.0104 0.0015 -0.0006
# 4 -0.0006 -0.0015 -0.0104 33.5540 0.0006 0.0000
# 5 0.0002 0.0005 0.0015 0.0006 30.6512 0.0001
# 6 -0.0001 -0.0007 -0.0006 0.0000 0.0001 26.8782
#
#
#
# Elastic Compliance Matrix: (Units=1/GPa)
#
#
# Indices 1 2 3 4 5 6 
#
# 1 0.033341 -0.006624 -0.002590 0.000000 0.000000 0.000000
# 2 -0.006624 0.028015 -0.013153 -0.000003 0.000000 0.000000
# 3 -0.002590 -0.013153 0.016289 0.000004 -0.000001 0.000000
# 4 0.000000 -0.000003 0.000004 0.029803 -0.000001 0.000000
# 5 0.000000 0.000000 -0.000001 -0.000001 0.032625 0.000000
# 6 0.000000 0.000000 0.000000 0.000000 0.000000 0.037205
#
#
# Mechanical properties :
#
#
# Convention : Reuss Voigt Hill
#
# Bulk Modulus (GPa) = 30.38524 44.27344 37.32934
# Shear Modulus (GPa) = 21.46097 26.06377 23.76237
#
# Velocity S-wave (km/s) = 3.26323 3.59618 3.43374
# Velocity P-wave (km/s) = 5.41064 6.26189 5.85177
#
# Compressibility (1/GPa) = 0.03291071
#
# Stress axis : x y z
#
# Youngs Moduli (GPa) = 29.99343 35.69553 61.39089
#
# Poissons Ratio (x) = 0.23644 0.15900
# Poissons Ratio (y) = 0.19867 0.80749
# Poissons Ratio (z) = 0.07768 0.46951
#
# Static dielectric constant tensor:
#      x y z
#    x 3.849150 0.000000 0.000000 
#    y 0.000000 3.615510 0.000000 
#    z 0.000000 0.000000 3.822810 
# 
# 
# High freq. dielectric constant tensor:
#      x y z
#    x 1.804980 0.000000 0.000000 
#    y 0.000000 1.765840 0.000000 
#    z 0.000000 0.000000 1.791580 
# 
# From -- ./inp_files/7534.got.cif
#   From: 2010.03.12/outbox.cif.g09.slc.cpg/sg44_4_cif.got.tgz:7534.got - 2010.04.14 02:36:11.
