data_PCOD8189819
_publ_section_title
;
Structure prediction by ZEFSAII (Michael W. Deem and Ramdas Pophale) SiO2 
 PCOD8189819
Probable space group: I M M 2
;
_chemical_formula_sum "Si O2"
_cell_formula_units_Z 48
_cell_length_a 9.118168
_cell_length_b 16.841402
_cell_length_c 17.000714
_cell_angle_alpha 90.000000
_cell_angle_beta 90.000000
_cell_angle_gamma 90.000000
_cell_volume 2610.676101
_symmetry_space_group_name_H-M "I M M 2"
_symmetry_group_IT_number 44
_symmetry_cell_setting 'orthorhombic'
loop_
_space_group_symop_operation_xyz
x,y,z
-x,-y,z
-x,y,z
x,-y,z
1/2+x,1/2+y,1/2+z
1/2-x,1/2-y,1/2+z
1/2-x,1/2+y,1/2+z
1/2+x,1/2-y,1/2+z
loop_
_atom_site_type_symbol
_atom_site_label
_atom_site_fract_x
_atom_site_fract_y
_atom_site_fract_z
Si Si1 0.674279 0.323795 0.140180
Si Si2 0.674284 0.151336 0.173249
Si Si3 0.831492 0.680015 0.848101
Si Si4 0.325710 0.589965 0.985544
Si Si5 0.173660 0.500000 0.402179
Si Si6 0.174911 0.500000 0.580886
Si Si7 0.668837 0.638148 0.312941
O O1 0.500000 0.320562 0.138048
O O2 0.735739 0.233503 0.136317
O O3 0.722112 0.364324 0.222181
O O4 0.736842 0.373896 0.067111
O O5 0.500000 0.152493 0.168431
O O6 0.720574 0.144362 0.264494
O O7 0.739631 0.077605 0.124579
O O8 0.730648 0.642161 0.914031
O O9 0.810242 0.774514 0.848668
O O10 0.000000 0.657677 0.864728
O O11 0.500000 0.592862 0.985336
O O12 0.268121 0.500000 0.977832
O O13 0.230723 0.500000 0.491714
O O14 0.230622 0.421088 0.361082
O O15 0.000000 0.500000 0.398674
O O16 0.000000 0.500000 0.585339
O O17 0.500000 0.611127 0.319230
#
# Coordination Sequence:
#
# PCOD8189819 Si02
#       7
#     8   8   8   8   4   4   8
#     4   8  16  32  54  74  95 134 183 218 249 302
#     4   8  15  30  51  75  99 129 172 217 255 300
#     4   9  19  35  56  80 102 134 178 217 263 313
#     4  10  21  33  51  80 108 136 174 217 265 313
#     4  11  23  33  51  86 113 134 170 215 271 319
#     4   9  18  29  47  78 107 128 164 215 261 305
#     4   9  19  37  58  77 102 140 182 218 256 311
#
# _framework density 18.386042
#
# number of rings (size 3 to 8) (size 9 to 14) (size 15 to 20)
#    0.000    3.000    0.000    2.250    4.667    1.000 
#    0.000    0.833    0.000    3.000    0.000    0.000 
#    0.000    0.000    0.000    0.000    0.000    0.000 
#
# Total GULP energy -297538.625805 kJ/mol
# GULP energy per Si atom -12397.442742 kJ/mol
# Density = 1.834419 g / cm^3
# Si number density = 18.386042 Si / 1000 Ang^3
#
#
#
# Elastic Constant Matrix: (Units=GPa)
#
#
# Indices 1 2 3 4 5 6 
#
# 1 25.7435 29.3669 30.2041 0.0000 0.0000 0.0000
# 2 29.3669 116.6583 87.1257 0.0000 0.0000 0.0000
# 3 30.2041 87.1257 153.1832 0.0000 0.0000 0.0000
# 4 0.0000 0.0000 0.0000 33.5359 0.0000 0.0000
# 5 0.0000 0.0000 0.0000 0.0000 27.3384 0.0000
# 6 0.0000 0.0000 0.0000 0.0000 0.0000 25.0273
#
#
#
# Elastic Compliance Matrix: (Units=1/GPa)
#
#
# Indices 1 2 3 4 5 6 
#
# 1 0.056901 -0.010335 -0.005342 0.000000 0.000000 0.000000
# 2 -0.010335 0.016779 -0.007506 0.000000 0.000000 0.000000
# 3 -0.005342 -0.007506 0.011850 0.000000 0.000000 0.000000
# 4 0.000000 0.000000 0.000000 0.029819 0.000000 0.000000
# 5 0.000000 0.000000 0.000000 0.000000 0.036579 0.000000
# 6 0.000000 0.000000 0.000000 0.000000 0.000000 0.039956
#
#
# Mechanical properties :
#
#
# Convention : Reuss Voigt Hill
#
# Bulk Modulus (GPa) = 25.53174 65.44205 45.48690
# Shear Modulus (GPa) = 19.89619 27.10620 23.50120
#
# Velocity S-wave (km/s) = 3.29315 3.84380 3.57908
# Velocity P-wave (km/s) = 5.32695 7.44113 6.47097
#
# Compressibility (1/GPa) = 0.03916693
#
# Stress axis : x y z
#
# Youngs Moduli (GPa) = 17.57430 59.59728 84.38540
#
# Poissons Ratio (x) = 0.61592 0.45075
# Poissons Ratio (y) = 0.18163 0.63338
# Poissons Ratio (z) = 0.09387 0.44732
#
# Static dielectric constant tensor:
#      x y z
#    x 2.870890 0.000000 0.000000 
#    y 0.000000 3.698240 0.000000 
#    z 0.000000 0.000000 3.573440 
# 
# 
# High freq. dielectric constant tensor:
#      x y z
#    x 1.660330 0.000000 0.000000 
#    y 0.000000 1.725510 0.000000 
#    z 0.000000 0.000000 1.724140 
# 
# From -- ./inp_files/16170.got.cif
#   From: 2010.03.12/outbox.cif.g09.slc.cpg/sg44_9_cif.got.tgz:16170.got - 2010.04.14 02:36:11.
