data_PCOD8189522
_publ_section_title
;
Structure prediction by ZEFSAII (Michael W. Deem and Ramdas Pophale) SiO2 
 PCOD8189522
Probable space group: I M M 2
;
_chemical_formula_sum "Si O2"
_cell_formula_units_Z 48
_cell_length_a 7.849997
_cell_length_b 9.412187
_cell_length_c 33.772088
_cell_angle_alpha 90.000000
_cell_angle_beta 90.000000
_cell_angle_gamma 90.000000
_cell_volume 2495.272326
_symmetry_space_group_name_H-M "I M M 2"
_symmetry_group_IT_number 44
_symmetry_cell_setting 'orthorhombic'
loop_
_space_group_symop_operation_xyz
x,y,z
-x,-y,z
-x,y,z
x,-y,z
1/2+x,1/2+y,1/2+z
1/2-x,1/2-y,1/2+z
1/2-x,1/2+y,1/2+z
1/2+x,1/2-y,1/2+z
loop_
_atom_site_type_symbol
_atom_site_label
_atom_site_fract_x
_atom_site_fract_y
_atom_site_fract_z
Si Si1 0.307044 0.336424 0.208300
Si Si2 0.803251 0.332771 0.952027
Si Si3 0.500000 0.168104 0.084857
Si Si4 0.810607 0.836079 0.137131
Si Si5 0.000000 0.329135 0.494476
Si Si6 0.306598 0.843760 0.791182
Si Si7 0.803223 0.658733 0.861606
O O1 0.500000 0.320192 0.193887
O O2 0.246120 0.500000 0.207483
O O3 0.192108 0.246607 0.178554
O O4 0.291448 0.277252 0.253344
O O5 0.765145 0.500000 0.958453
O O6 0.774216 0.289352 0.906393
O O7 0.000000 0.300123 0.964235
O O8 0.672579 0.236217 0.976427
O O9 0.329329 0.225964 0.106530
O O10 0.500000 0.220712 0.039932
O O11 0.500000 0.000000 0.085457
O O12 0.000000 0.817857 0.118617
O O13 0.770743 0.000000 0.146364
O O14 0.000000 0.500000 0.489112
O O15 0.500000 0.853935 0.777622
O O16 0.297758 0.754341 0.831058
O O17 0.231379 0.000000 0.800650
O O18 0.732165 0.500000 0.857306
O O19 0.000000 0.665105 0.850317
#
# Coordination Sequence:
#
# PCOD8189522 Si02
#       7
#     8   8   4   8   4   8   8
#     4  10  20  35  55  78 108 148 188 228 281 336
#     4   9  20  40  62  84 116 158 198 240 294 352
#     4   9  20  39  57  83 119 149 183 233 289 343
#     4  10  20  36  60  84 108 145 188 230 279 334
#     4  11  23  37  61  93 121 151 193 245 301 359
#     4  10  21  34  49  75 111 146 182 228 280 334
#     4   9  19  36  56  77 103 141 189 234 278 329
#
# _framework density 19.236377000000001
#
# number of rings (size 3 to 8) (size 9 to 14) (size 15 to 20)
#    0.000    2.333    0.833    2.250    1.167    4.667 
#    0.000    5.000    0.000    0.000    0.000    0.000 
#    0.000    0.000    0.000    0.000    0.000    0.000 
#
# Total GULP energy -297529.974527 kJ/mol
# GULP energy per Si atom -12397.082272 kJ/mol
# Density = 1.919259 g / cm^3
# Si number density = 19.236377 Si / 1000 Ang^3
#
#
#
# Elastic Constant Matrix: (Units=GPa)
#
#
# Indices 1 2 3 4 5 6 
#
# 1 113.1120 43.1019 60.4663 0.0000 0.0000 0.0000
# 2 43.1019 65.7993 54.0591 0.0000 0.0000 0.0000
# 3 60.4663 54.0591 131.6132 0.0000 0.0000 0.0000
# 4 0.0000 0.0000 0.0000 30.2558 0.0000 0.0000
# 5 0.0000 0.0000 0.0000 0.0000 29.1593 0.0000
# 6 0.0000 0.0000 0.0000 0.0000 0.0000 25.6826
#
#
#
# Elastic Compliance Matrix: (Units=1/GPa)
#
#
# Indices 1 2 3 4 5 6 
#
# 1 0.012873 -0.005394 -0.003699 0.000000 0.000000 0.000000
# 2 -0.005394 0.025198 -0.007872 0.000000 0.000000 0.000000
# 3 -0.003699 -0.007872 0.012531 0.000000 0.000000 0.000000
# 4 0.000000 0.000000 0.000000 0.033051 0.000000 0.000000
# 5 0.000000 0.000000 0.000000 0.000000 0.034294 0.000000
# 6 0.000000 0.000000 0.000000 0.000000 0.000000 0.038937
#
#
# Mechanical properties :
#
#
# Convention : Reuss Voigt Hill
#
# Bulk Modulus (GPa) = 59.97668 69.53100 64.75384
# Shear Modulus (GPa) = 25.46182 27.21271 26.33727
#
# Velocity S-wave (km/s) = 3.64212 3.76526 3.70420
# Velocity P-wave (km/s) = 6.99522 7.42475 7.21319
#
# Compressibility (1/GPa) = 0.01667315
#
# Stress axis : x y z
#
# Youngs Moduli (GPa) = 77.67911 39.68510 79.80379
#
# Poissons Ratio (x) = 0.21406 0.29519
# Poissons Ratio (y) = 0.41899 0.62821
# Poissons Ratio (z) = 0.28733 0.31240
#
# Static dielectric constant tensor:
#      x y z
#    x 3.566360 0.000000 0.000000 
#    y 0.000000 3.354140 0.000000 
#    z 0.000000 0.000000 3.470470 
# 
# 
# High freq. dielectric constant tensor:
#      x y z
#    x 1.760350 0.000000 0.000000 
#    y 0.000000 1.729140 0.000000 
#    z 0.000000 0.000000 1.743610 
# 
# From -- ./inp_files/26929.got.cif
#   From: 2010.03.12/outbox.cif.g09.slc.cpg/sg44_14_cif.got.tgz:26929.got - 2010.04.14 02:36:11.
