data_PCOD8189649
_publ_section_title
;
Structure prediction by ZEFSAII (Michael W. Deem and Ramdas Pophale) SiO2 
 PCOD8189649
Probable space group: I M M 2
;
_chemical_formula_sum "Si O2"
_cell_formula_units_Z 40
_cell_length_a 8.882542
_cell_length_b 25.876878
_cell_length_c 8.924982
_cell_angle_alpha 90.000000
_cell_angle_beta 90.000000
_cell_angle_gamma 90.000000
_cell_volume 2051.429029
_symmetry_space_group_name_H-M "I M M 2"
_symmetry_group_IT_number 44
_symmetry_cell_setting 'orthorhombic'
loop_
_space_group_symop_operation_xyz
x,y,z
-x,-y,z
-x,y,z
x,-y,z
1/2+x,1/2+y,1/2+z
1/2-x,1/2-y,1/2+z
1/2-x,1/2+y,1/2+z
1/2+x,1/2-y,1/2+z
loop_
_atom_site_type_symbol
_atom_site_label
_atom_site_fract_x
_atom_site_fract_y
_atom_site_fract_z
Si Si1 0.322708 0.903149 0.434930
Si Si2 0.177942 0.000000 0.937318
Si Si3 0.823609 0.900603 0.754056
Si Si4 0.677321 0.199597 0.261902
Si Si5 0.820994 0.000000 0.274670
Si Si6 0.175700 0.201342 0.940565
O O1 0.500000 0.912826 0.424305
O O2 0.274788 0.898609 0.606006
O O3 0.272640 0.850948 0.352309
O O4 0.236362 0.949762 0.358523
O O5 0.233789 0.050733 0.850530
O O6 0.243855 0.000000 0.105482
O O7 0.000000 0.000000 0.948172
O O8 0.787521 0.849570 0.847002
O O9 0.000000 0.905263 0.713795
O O10 0.500000 0.203510 0.245717
O O11 0.739922 0.249538 0.349965
O O12 0.744467 0.197234 0.098168
O O13 0.000000 0.000000 0.277823
O O14 0.000000 0.207558 0.971273
#
# Coordination Sequence:
#
# PCOD8189649 Si02
#       6
#     8   4   8   8   4   8
#     4  11  23  38  56  83 117 149 185 231 285 342
#     4   9  19  35  56  82 108 137 180 233 280 324
#     4  10  20  36  58  83 111 146 191 237 280 331
#     4  10  22  38  56  82 116 151 189 236 287 338
#     4  11  22  39  62  84 110 147 188 231 280 334
#     4  10  21  37  58  84 113 150 197 240 279 333
#
# _framework density 19.498604
#
# number of rings (size 3 to 8) (size 9 to 14) (size 15 to 20)
#    0.000    1.800    0.000    3.900    0.000    5.600 
#    0.000    2.000    0.000    0.000    0.000    0.000 
#    0.000    0.000    0.000    0.000    0.000    0.000 
#
# Total GULP energy -248093.003422 kJ/mol
# GULP energy per Si atom -12404.650171 kJ/mol
# Density = 1.945422 g / cm^3
# Si number density = 19.498604 Si / 1000 Ang^3
#
#
#
# Elastic Constant Matrix: (Units=GPa)
#
#
# Indices 1 2 3 4 5 6 
#
# 1 39.0407 43.6283 38.1701 -0.0010 0.0005 -0.0003
# 2 43.6283 182.9175 75.4908 0.0108 -0.0016 0.0010
# 3 38.1701 75.4908 152.9328 -0.0075 -0.0008 -0.0018
# 4 -0.0010 0.0108 -0.0075 20.8044 -0.0035 -0.0002
# 5 0.0005 -0.0016 -0.0008 -0.0035 36.1192 -0.0010
# 6 -0.0003 0.0010 -0.0018 -0.0002 -0.0010 -13.5420
#
#
#
# Elastic Compliance Matrix: (Units=1/GPa)
#
#
# Indices 1 2 3 4 5 6 
#
# 1 0.039532 -0.006727 -0.006546 0.000003 -0.000001 0.000000
# 2 -0.006727 0.008010 -0.002275 -0.000005 0.000000 0.000001
# 3 -0.006546 -0.002275 0.009296 0.000004 0.000000 -0.000001
# 4 0.000003 -0.000005 0.000004 0.048067 0.000005 -0.000001
# 5 -0.000001 0.000000 0.000000 0.000005 0.027686 -0.000002
# 6 0.000000 0.000001 -0.000001 -0.000001 -0.000002 -0.073844
#
#
# Mechanical properties :
#
#
# Convention : Reuss Voigt Hill
#
# Bulk Modulus (GPa) = 38.84781 76.60769 57.72775
# Shear Modulus (GPa) = 50.80041 23.18310 36.99175
#
# Velocity S-wave (km/s) = 5.10979 3.45187 4.36035
# Velocity P-wave (km/s) = 7.40134 7.43380 7.41759
#
# Compressibility (1/GPa) = 0.02574147
#
# Stress axis : x y z
#
# Youngs Moduli (GPa) = 25.29579 124.83700 107.57764
#
# Poissons Ratio (x) = 0.83983 0.70420
# Poissons Ratio (y) = 0.17018 0.24474
# Poissons Ratio (z) = 0.16559 0.28401
#
# Static dielectric constant tensor:
#      x y z
#    x 3.380530 -0.000020 0.000000 
#    y -0.000020 4.159910 -0.000020 
#    z 0.000000 -0.000020 3.668400 
# 
# 
# High freq. dielectric constant tensor:
#      x y z
#    x 1.743330 0.000000 0.000000 
#    y 0.000000 1.783200 0.000000 
#    z 0.000000 0.000000 1.777400 
# 
# From -- ./inp_files/4657.got.cif
#   From: 2010.03.12/outbox.cif.g09.slc.cpg/sg44_3_cif.got.tgz:4657.got - 2010.04.14 02:36:11.
