data_PCOD8189489
_publ_section_title
;
Structure prediction by ZEFSAII (Michael W. Deem and Ramdas Pophale) SiO2 
 PCOD8189489
Probable space group: I M M 2
;
_chemical_formula_sum "Si O2"
_cell_formula_units_Z 64
_cell_length_a 31.500166
_cell_length_b 12.979549
_cell_length_c 10.112153
_cell_angle_alpha 90.000000
_cell_angle_beta 90.000000
_cell_angle_gamma 90.000000
_cell_volume 4134.434127
_symmetry_space_group_name_H-M "I M M 2"
_symmetry_group_IT_number 44
_symmetry_cell_setting 'orthorhombic'
loop_
_space_group_symop_operation_xyz
x,y,z
-x,-y,z
-x,y,z
x,-y,z
1/2+x,1/2+y,1/2+z
1/2-x,1/2-y,1/2+z
1/2-x,1/2+y,1/2+z
1/2+x,1/2-y,1/2+z
loop_
_atom_site_type_symbol
_atom_site_label
_atom_site_fract_x
_atom_site_fract_y
_atom_site_fract_z
Si Si1 0.188267 0.194574 0.934020
Si Si2 0.731855 0.883376 0.327882
Si Si3 0.545875 0.378249 0.557055
Si Si4 0.632606 0.623771 0.675738
Si Si5 0.724543 0.117150 0.021078
Si Si6 0.363918 0.618943 0.187541
Si Si7 0.320686 0.689001 0.924648
Si Si8 0.953903 0.877564 0.759424
O O1 0.201580 0.314223 0.919997
O O2 0.161365 0.170502 0.805552
O O3 0.161255 0.175232 0.063992
O O4 0.230984 0.126557 0.943232
O O5 0.730440 0.849504 0.174018
O O6 0.779807 0.874222 0.378306
O O7 0.716167 0.000000 0.344292
O O8 0.500000 0.340004 0.612927
O O9 0.546342 0.500000 0.549267
O O10 0.583964 0.342572 0.651378
O O11 0.552455 0.336119 0.408767
O O12 0.639329 0.500000 0.678370
O O13 0.643812 0.678166 0.812784
O O14 0.708209 0.000000 0.009068
O O15 0.689884 0.191319 0.952918
O O16 0.366349 0.500000 0.223626
O O17 0.412683 0.662294 0.177480
O O18 0.339274 0.635784 0.053383
O O19 0.000000 0.836681 0.704667
O O20 0.955452 0.000000 0.756886
#
# Coordination Sequence:
#
# PCOD8189489 Si02
#       8
#     8   8   8   8   8   8   8   8
#     4  11  20  31  49  71  88 123 166 193 228 284
#     4  10  20  35  50  66  94 125 156 202 247 273
#     4   8  14  25  43  67  92 124 161 189 223 276
#     4  11  19  31  49  69 100 132 155 191 236 279
#     4  10  20  35  51  66  92 126 159 199 243 278
#     4  11  19  29  45  71  98 122 160 197 228 276
#     4  11  22  33  47  71  94 126 160 196 236 285
#     4   8  14  25  42  65  94 126 157 191 229 271
#
# _framework density 15.479749
#
# number of rings (size 3 to 8) (size 9 to 14) (size 15 to 20)
#    0.000    2.000    3.750    3.000    0.000    0.000 
#    0.000    2.500    0.000    3.000    0.000    0.000 
#    0.000    6.000    0.000    0.000    0.000    0.000 
#
# Total GULP energy -396590.485585 kJ/mol
# GULP energy per Si atom -12393.452675 kJ/mol
# Density = 1.544452 g / cm^3
# Si number density = 15.479749 Si / 1000 Ang^3
#
#
#
# Elastic Constant Matrix: (Units=GPa)
#
#
# Indices 1 2 3 4 5 6 
#
# 1 152.8644 33.9154 91.2369 0.0000 0.0000 0.0000
# 2 33.9154 58.8957 24.9877 0.0000 0.0000 0.0000
# 3 91.2369 24.9877 139.4496 0.0000 0.0000 0.0000
# 4 0.0000 0.0000 0.0000 23.3256 0.0000 0.0000
# 5 0.0000 0.0000 0.0000 0.0000 21.8971 0.0000
# 6 0.0000 0.0000 0.0000 0.0000 0.0000 16.6017
#
#
#
# Elastic Compliance Matrix: (Units=1/GPa)
#
#
# Indices 1 2 3 4 5 6 
#
# 1 0.011428 -0.003689 -0.006816 0.000000 0.000000 0.000000
# 2 -0.003689 0.019567 -0.001092 0.000000 0.000000 0.000000
# 3 -0.006816 -0.001092 0.011826 0.000000 0.000000 0.000000
# 4 0.000000 0.000000 0.000000 0.042871 0.000000 0.000000
# 5 0.000000 0.000000 0.000000 0.000000 0.045668 0.000000
# 6 0.000000 0.000000 0.000000 0.000000 0.000000 0.060235
#
#
# Mechanical properties :
#
#
# Convention : Reuss Voigt Hill
#
# Bulk Modulus (GPa) = 50.95220 72.38775 61.66997
# Shear Modulus (GPa) = 22.59031 25.76955 24.17993
#
# Velocity S-wave (km/s) = 3.82428 4.08453 3.95655
# Velocity P-wave (km/s) = 7.24479 8.31318 7.79731
#
# Compressibility (1/GPa) = 0.01962624
#
# Stress axis : x y z
#
# Youngs Moduli (GPa) = 87.50057 51.10611 84.55660
#
# Poissons Ratio (x) = 0.18854 0.57635
# Poissons Ratio (y) = 0.32281 0.09237
# Poissons Ratio (z) = 0.59642 0.05583
#
# Static dielectric constant tensor:
#      x y z
#    x 3.426540 0.000000 0.000000 
#    y 0.000000 2.696710 0.000000 
#    z 0.000000 0.000000 2.637570 
# 
# 
# High freq. dielectric constant tensor:
#      x y z
#    x 1.599620 0.000000 0.000000 
#    y 0.000000 1.552490 0.000000 
#    z 0.000000 0.000000 1.591640 
# 
# From -- ./inp_files/10159.got.cif
#   From: 2010.03.12/outbox.cif.g09.slc.cpg/sg44_6_cif.got.tgz:10159.got - 2010.04.14 02:36:11.
