data_PCOD8189846
_publ_section_title
;
Structure prediction by ZEFSAII (Michael W. Deem and Ramdas Pophale) SiO2 
 PCOD8189846
Probable space group: I M M 2
;
_chemical_formula_sum "Si O2"
_cell_formula_units_Z 56
_cell_length_a 17.094285
_cell_length_b 9.534435
_cell_length_c 17.426553
_cell_angle_alpha 90.000000
_cell_angle_beta 90.000000
_cell_angle_gamma 90.000000
_cell_volume 2840.255400
_symmetry_space_group_name_H-M "I M M 2"
_symmetry_group_IT_number 44
_symmetry_cell_setting 'orthorhombic'
loop_
_space_group_symop_operation_xyz
x,y,z
-x,-y,z
-x,y,z
x,-y,z
1/2+x,1/2+y,1/2+z
1/2-x,1/2-y,1/2+z
1/2-x,1/2+y,1/2+z
1/2+x,1/2-y,1/2+z
loop_
_atom_site_type_symbol
_atom_site_label
_atom_site_fract_x
_atom_site_fract_y
_atom_site_fract_z
Si Si1 0.679561 0.335114 0.468300
Si Si2 0.852465 0.162371 0.137427
Si Si3 0.408435 0.333158 0.316614
Si Si4 0.411003 0.153426 0.761840
Si Si5 0.824473 0.659475 0.684642
Si Si6 0.351734 0.837975 0.010807
Si Si7 0.911505 0.153208 0.390372
O O1 0.680867 0.500000 0.461150
O O2 0.638089 0.294819 0.548421
O O3 0.632685 0.274554 0.394795
O O4 0.768812 0.283687 0.476219
O O5 0.910379 0.266006 0.181122
O O6 0.766892 0.190687 0.172984
O O7 0.875742 0.000000 0.149591
O O8 0.500000 0.290615 0.317871
O O9 0.399205 0.500000 0.309355
O O10 0.364798 0.263692 0.244564
O O11 0.500000 0.129311 0.786316
O O12 0.368319 0.249809 0.826352
O O13 0.369580 0.000000 0.756972
O O14 0.837780 0.500000 0.712674
O O15 0.862908 0.681736 0.601325
O O16 0.366163 0.000000 0.988400
O O17 0.413382 0.734989 0.971135
O O18 0.000000 0.128437 0.364145
O O19 0.870108 0.000000 0.395982
#
# Coordination Sequence:
#
# PCOD8189846 Si02
#       7
#     8   8   8   8   8   8   8
#     4   8  17  35  56  79 106 138 178 223 271 321
#     4   9  18  35  58  81 106 138 180 227 271 320
#     4  10  21  36  55  81 111 144 185 228 271 326
#     4  10  21  35  51  76 110 144 177 214 263 323
#     4   9  20  37  55  79 110 142 179 223 272 326
#     4   9  18  35  57  78 104 140 181 224 270 322
#     4  10  21  35  51  76 109 141 176 219 265 315
#
# _framework density 19.716536999999999
#
# number of rings (size 3 to 8) (size 9 to 14) (size 15 to 20)
#    0.000    2.714    0.000    2.571    2.000    4.286 
#    0.000    7.143    0.000    0.000    0.000    0.000 
#    0.000    0.000    0.000    0.000    0.000    0.000 
#
# Total GULP energy -346961.599455 kJ/mol
# GULP energy per Si atom -12391.485695 kJ/mol
# Density = 1.967166 g / cm^3
# Si number density = 19.716537 Si / 1000 Ang^3
#
#
#
# Elastic Constant Matrix: (Units=GPa)
#
#
# Indices 1 2 3 4 5 6 
#
# 1 40.8156 22.6770 35.5393 0.0000 0.0000 0.0000
# 2 22.6770 118.2697 68.9165 0.0000 0.0000 0.0000
# 3 35.5393 68.9165 134.1979 0.0000 0.0000 0.0000
# 4 0.0000 0.0000 0.0000 33.4588 0.0000 0.0000
# 5 0.0000 0.0000 0.0000 0.0000 31.6575 0.0000
# 6 0.0000 0.0000 0.0000 0.0000 0.0000 23.1674
#
#
#
# Elastic Compliance Matrix: (Units=1/GPa)
#
#
# Indices 1 2 3 4 5 6 
#
# 1 0.032085 -0.001713 -0.007617 0.000000 0.000000 0.000000
# 2 -0.001713 0.012157 -0.005790 0.000000 0.000000 0.000000
# 3 -0.007617 -0.005790 0.012442 0.000000 0.000000 0.000000
# 4 0.000000 0.000000 0.000000 0.029887 0.000000 0.000000
# 5 0.000000 0.000000 0.000000 0.000000 0.031588 0.000000
# 6 0.000000 0.000000 0.000000 0.000000 0.000000 0.043164
#
#
# Mechanical properties :
#
#
# Convention : Reuss Voigt Hill
#
# Bulk Modulus (GPa) = 37.81549 60.83877 49.32713
# Shear Modulus (GPa) = 24.95273 28.73343 26.84308
#
# Velocity S-wave (km/s) = 3.56135 3.82164 3.69379
# Velocity P-wave (km/s) = 6.01100 7.09908 6.57758
#
# Compressibility (1/GPa) = 0.02644419
#
# Stress axis : x y z
#
# Youngs Moduli (GPa) = 31.16741 82.25423 80.37236
#
# Poissons Ratio (x) = 0.14094 0.61220
# Poissons Ratio (y) = 0.05340 0.46532
# Poissons Ratio (z) = 0.23740 0.47622
#
# Static dielectric constant tensor:
#      x y z
#    x 3.427050 0.000000 0.000000 
#    y 0.000000 3.633260 0.000000 
#    z 0.000000 0.000000 3.778030 
# 
# 
# High freq. dielectric constant tensor:
#      x y z
#    x 1.743890 0.000000 0.000000 
#    y 0.000000 1.756730 0.000000 
#    z 0.000000 0.000000 1.777350 
# 
# From -- ./inp_files/19201.got.cif
#   From: 2010.03.12/outbox.cif.g09.slc.cpg/sg44_10_cif.got.tgz:19201.got - 2010.04.14 02:36:11.
