data_PCOD8189829
_publ_section_title
;
Structure prediction by ZEFSAII (Michael W. Deem and Ramdas Pophale) SiO2 
 PCOD8189829
Probable space group: I M M 2
;
_chemical_formula_sum "Si O2"
_cell_formula_units_Z 64
_cell_length_a 20.409826
_cell_length_b 16.121031
_cell_length_c 9.737131
_cell_angle_alpha 90.000000
_cell_angle_beta 90.000000
_cell_angle_gamma 90.000000
_cell_volume 3203.783263
_symmetry_space_group_name_H-M "I M M 2"
_symmetry_group_IT_number 44
_symmetry_cell_setting 'orthorhombic'
loop_
_space_group_symop_operation_xyz
x,y,z
-x,-y,z
-x,y,z
x,-y,z
1/2+x,1/2+y,1/2+z
1/2-x,1/2-y,1/2+z
1/2-x,1/2+y,1/2+z
1/2+x,1/2-y,1/2+z
loop_
_atom_site_type_symbol
_atom_site_label
_atom_site_fract_x
_atom_site_fract_y
_atom_site_fract_z
Si Si1 0.074417 0.903299 0.796250
Si Si2 0.318669 0.093936 0.541620
Si Si3 0.824197 0.598236 0.740547
Si Si4 0.574218 0.161168 0.719894
Si Si5 0.925583 0.596701 0.516616
Si Si6 0.181331 0.906064 0.271245
Si Si7 0.574218 0.661168 0.592971
Si Si8 0.675803 0.598236 0.072319
O O1 0.123868 0.865597 0.682276
O O2 0.000000 0.894023 0.741446
O O3 0.088391 0.000000 0.833295
O O4 0.084525 0.845714 0.930204
O O5 0.339909 0.132870 0.394326
O O6 0.377075 0.096859 0.649467
O O7 0.250339 0.129650 0.604665
O O8 0.301394 0.000000 0.506642
O O9 0.833010 0.500000 0.729277
O O10 0.876132 0.634403 0.630590
O O11 0.749661 0.629650 0.708201
O O12 0.500000 0.137544 0.680264
O O13 0.584525 0.154286 0.882662
O O14 0.593262 0.250000 0.656433
O O15 0.911609 0.500000 0.479571
O O16 0.000000 0.605977 0.571420
O O17 0.122925 0.903141 0.163398
O O18 0.160090 0.867130 0.418539
O O19 0.198606 0.000000 0.306223
O O20 0.500000 0.637544 0.632601
O O21 0.666990 0.500000 0.083589
#
# Coordination Sequence:
#
# PCOD8189829 Si02
#       8
#     8   8   8   8   8   8   8   8
#     4   9  17  31  52  77 103 131 165 203 244 294
#     4   9  17  32  53  74  98 128 162 200 245 298
#     4   8  16  31  51  77 104 125 154 204 253 290
#     4  10  21  35  48  67  99 133 166 208 250 287
#     4   9  17  31  52  77 103 131 165 203 244 294
#     4   9  17  32  53  74  98 128 162 200 245 298
#     4  10  21  35  48  67  99 133 166 208 250 287
#     4   8  16  31  51  77 104 125 154 204 253 290
#
# _framework density 19.976382999999998
#
# number of rings (size 3 to 8) (size 9 to 14) (size 15 to 20)
#    0.000    3.000    0.000    2.250    0.000    3.500 
#    0.000   12.500    0.000    4.500    0.000    0.000 
#    0.000    0.000    0.000    0.000    0.000    0.000 
#
# Total GULP energy -396459.361237 kJ/mol
# GULP energy per Si atom -12389.355039 kJ/mol
# Density = 1.993092 g / cm^3
# Si number density = 19.976383 Si / 1000 Ang^3
#
#
#
# Elastic Constant Matrix: (Units=GPa)
#
#
# Indices 1 2 3 4 5 6 
#
# 1 142.9659 21.5376 101.0871 0.0000 0.0000 0.0000
# 2 21.5376 24.6697 23.8809 0.0000 0.0000 0.0000
# 3 101.0871 23.8809 133.1388 0.0000 0.0000 0.0000
# 4 0.0000 0.0000 0.0000 15.0246 0.0000 0.0000
# 5 0.0000 0.0000 0.0000 0.0000 49.3704 0.0000
# 6 0.0000 0.0000 0.0000 0.0000 0.0000 7.4475
#
#
#
# Elastic Compliance Matrix: (Units=1/GPa)
#
#
# Indices 1 2 3 4 5 6 
#
# 1 0.015233 -0.002545 -0.011110 0.000000 0.000000 0.000000
# 2 -0.002545 0.049478 -0.006943 0.000000 0.000000 0.000000
# 3 -0.011110 -0.006943 0.017191 0.000000 0.000000 0.000000
# 4 0.000000 0.000000 0.000000 0.066558 0.000000 0.000000
# 5 0.000000 0.000000 0.000000 0.000000 0.020255 0.000000
# 6 0.000000 0.000000 0.000000 0.000000 0.000000 0.134274
#
#
# Mechanical properties :
#
#
# Convention : Reuss Voigt Hill
#
# Bulk Modulus (GPa) = 24.56491 65.97619 45.27055
# Shear Modulus (GPa) = 13.97613 24.65306 19.31460
#
# Velocity S-wave (km/s) = 2.64793 3.51680 3.11283
# Velocity P-wave (km/s) = 4.65536 7.04197 5.96916
#
# Compressibility (1/GPa) = 0.04070847
#
# Stress axis : x y z
#
# Youngs Moduli (GPa) = 65.64541 20.21104 58.16877
#
# Poissons Ratio (x) = 0.05143 0.64623
# Poissons Ratio (y) = 0.16706 0.40384
# Poissons Ratio (z) = 0.72930 0.14032
#
# Static dielectric constant tensor:
#      x y z
#    x 3.731400 0.000000 0.000000 
#    y 0.000000 3.125970 0.000000 
#    z 0.000000 0.000000 3.626100 
# 
# 
# High freq. dielectric constant tensor:
#      x y z
#    x 1.790930 0.000000 0.000000 
#    y 0.000000 1.732160 0.000000 
#    z 0.000000 0.000000 1.777830 
# 
# From -- ./inp_files/9041.got.cif
#   From: 2010.03.12/outbox.cif.g09.slc.cpg/sg44_5_cif.got.tgz:9041.got - 2010.04.14 02:36:11.
