data_PCOD8189582
_publ_section_title
;
Structure prediction by ZEFSAII (Michael W. Deem and Ramdas Pophale) SiO2 
 PCOD8189582
Probable space group: I M M 2
;
_chemical_formula_sum "Si O2"
_cell_formula_units_Z 48
_cell_length_a 14.394900
_cell_length_b 9.162370
_cell_length_c 20.264421
_cell_angle_alpha 90.000000
_cell_angle_beta 90.000000
_cell_angle_gamma 90.000000
_cell_volume 2672.702854
_symmetry_space_group_name_H-M "I M M 2"
_symmetry_group_IT_number 44
_symmetry_cell_setting 'orthorhombic'
loop_
_space_group_symop_operation_xyz
x,y,z
-x,-y,z
-x,y,z
x,-y,z
1/2+x,1/2+y,1/2+z
1/2-x,1/2-y,1/2+z
1/2-x,1/2+y,1/2+z
1/2+x,1/2-y,1/2+z
loop_
_atom_site_type_symbol
_atom_site_label
_atom_site_fract_x
_atom_site_fract_y
_atom_site_fract_z
Si Si1 0.500000 0.327264 0.441870
Si Si2 0.323165 0.332161 0.645305
Si Si3 0.697825 0.330497 0.887669
Si Si4 0.000000 0.173090 0.790803
Si Si5 0.693654 0.330834 0.495546
Si Si6 0.000000 0.831206 0.332384
Si Si7 0.500000 0.827042 0.694751
Si Si8 0.183944 0.329467 0.761348
O O1 0.500000 0.500000 0.447107
O O2 0.500000 0.274196 0.366502
O O3 0.591891 0.265289 0.477783
O O4 0.355444 0.500000 0.654435
O O5 0.284023 0.304587 0.572135
O O6 0.410276 0.228443 0.656089
O O7 0.242390 0.292702 0.696264
O O8 0.714402 0.500000 0.899521
O O9 0.589946 0.295141 0.875835
O O10 0.757564 0.277034 0.824890
O O11 0.727257 0.247521 0.953471
O O12 0.090331 0.237151 0.755242
O O13 0.000000 0.000000 0.784016
O O14 0.696571 0.500000 0.476542
O O15 0.000000 0.731100 0.268700
O O16 0.000000 0.000000 0.309046
O O17 0.500000 0.000000 0.695994
O O18 0.159756 0.500000 0.765799
#
# Coordination Sequence:
#
# PCOD8189582 Si02
#       8
#     4   8   8   4   8   4   4   8
#     4   9  17  30  50  80 110 136 170 214 271 329
#     4  10  21  39  60  80 111 155 193 225 278 349
#     4  10  20  35  58  82 110 148 187 231 275 329
#     4  11  21  34  55  83 114 144 175 226 284 331
#     4  10  20  36  58  82 111 146 185 230 278 334
#     4  10  20  39  60  81 111 153 195 224 277 351
#     4  12  23  33  55  90 121 145 180 242 292 329
#     4  10  20  36  58  82 107 146 193 230 265 326
#
# _framework density 17.959346
#
# number of rings (size 3 to 8) (size 9 to 14) (size 15 to 20)
#    0.000    1.833    3.333    1.500    0.000    3.333 
#    0.000    1.250    0.000    3.000    0.000    0.000 
#    0.000    0.000    0.000    0.000    0.000    0.000 
#
# Total GULP energy -297693.474308 kJ/mol
# GULP energy per Si atom -12403.894763 kJ/mol
# Density = 1.791847 g / cm^3
# Si number density = 17.959346 Si / 1000 Ang^3
#
#
#
# Elastic Constant Matrix: (Units=GPa)
#
#
# Indices 1 2 3 4 5 6 
#
# 1 140.8941 58.2658 65.8492 0.0000 0.0000 0.0000
# 2 58.2658 71.7653 50.7397 0.0000 0.0000 0.0000
# 3 65.8492 50.7397 127.2482 0.0000 0.0000 0.0000
# 4 0.0000 0.0000 0.0000 28.5414 0.0000 0.0000
# 5 0.0000 0.0000 0.0000 0.0000 36.9266 0.0000
# 6 0.0000 0.0000 0.0000 0.0000 0.0000 19.0725
#
#
#
# Elastic Compliance Matrix: (Units=1/GPa)
#
#
# Indices 1 2 3 4 5 6 
#
# 1 0.011503 -0.007145 -0.003104 0.000000 0.000000 0.000000
# 2 -0.007145 0.023843 -0.005810 0.000000 0.000000 0.000000
# 3 -0.003104 -0.005810 0.011781 0.000000 0.000000 0.000000
# 4 0.000000 0.000000 0.000000 0.035037 0.000000 0.000000
# 5 0.000000 0.000000 0.000000 0.000000 0.027081 0.000000
# 6 0.000000 0.000000 0.000000 0.000000 0.000000 0.052432
#
#
# Mechanical properties :
#
#
# Convention : Reuss Voigt Hill
#
# Bulk Modulus (GPa) = 66.62000 76.62412 71.62206
# Shear Modulus (GPa) = 25.15143 27.91163 26.53153
#
# Velocity S-wave (km/s) = 3.74634 3.94656 3.84775
# Velocity P-wave (km/s) = 7.47588 7.97026 7.72702
#
# Compressibility (1/GPa) = 0.01501051
#
# Stress axis : x y z
#
# Youngs Moduli (GPa) = 86.93649 41.94140 84.87953
#
# Poissons Ratio (x) = 0.29966 0.26343
# Poissons Ratio (y) = 0.62113 0.49315
# Poissons Ratio (z) = 0.26981 0.24368
#
# Static dielectric constant tensor:
#      x y z
#    x 3.340550 0.000000 0.000000 
#    y 0.000000 3.156950 0.000000 
#    z 0.000000 0.000000 3.289220 
# 
# 
# High freq. dielectric constant tensor:
#      x y z
#    x 1.698090 0.000000 0.000000 
#    y 0.000000 1.680640 0.000000 
#    z 0.000000 0.000000 1.693920 
# 
# From -- ./inp_files/20410.got.cif
#   From: 2010.03.12/outbox.cif.g09.slc.cpg/sg44_11_cif.got.tgz:20410.got - 2010.04.14 02:36:11.
