data_PCOD8189100
_publ_section_title
;
Structure prediction by ZEFSAII (Michael W. Deem and Ramdas Pophale) SiO2 
 PCOD8189100
Probable space group: I M M 2
;
_chemical_formula_sum "Si O2"
_cell_formula_units_Z 36
_cell_length_a 14.725334
_cell_length_b 13.206324
_cell_length_c 9.560078
_cell_angle_alpha 90.000000
_cell_angle_beta 90.000000
_cell_angle_gamma 90.000000
_cell_volume 1859.124773
_symmetry_space_group_name_H-M "I M M 2"
_symmetry_group_IT_number 44
_symmetry_cell_setting 'orthorhombic'
loop_
_space_group_symop_operation_xyz
x,y,z
-x,-y,z
-x,y,z
x,-y,z
1/2+x,1/2+y,1/2+z
1/2-x,1/2-y,1/2+z
1/2-x,1/2+y,1/2+z
1/2+x,1/2-y,1/2+z
loop_
_atom_site_type_symbol
_atom_site_label
_atom_site_fract_x
_atom_site_fract_y
_atom_site_fract_z
Si Si1 0.500000 0.115520 0.287501
Si Si2 0.105862 0.886520 0.877570
Si Si3 0.000000 0.620057 0.231420
Si Si4 0.859796 0.685946 0.010195
Si Si5 0.338882 0.615669 0.068130
Si Si6 0.000000 0.743781 0.508076
O O1 0.410526 0.136465 0.378564
O O2 0.500000 0.187222 0.154879
O O3 0.500000 0.000000 0.237340
O O4 0.160547 0.868692 0.734892
O O5 0.000000 0.866944 0.844405
O O6 0.121708 0.000000 0.935749
O O7 0.141351 0.808114 0.993889
O O8 0.090169 0.658739 0.153836
O O9 0.000000 0.660390 0.387898
O O10 0.000000 0.500000 0.234421
O O11 0.759280 0.643116 0.010048
O O12 0.362943 0.500000 0.031100
O O13 0.411472 0.686621 0.991885
#
# Coordination Sequence:
#
# PCOD8189100 Si02
#       6
#     4   8   4   8   8   4
#     4  11  21  40  63  90 120 158 211 252 297 362
#     4  10  19  39  68  92 118 160 207 252 304 361
#     4  11  25  42  60  90 127 163 199 251 319 365
#     4  11  21  41  65  90 119 164 207 251 299 368
#     4  11  22  39  64  91 122 161 202 252 311 365
#     4  12  24  40  61  90 127 163 202 259 306 361
#
# _framework density 19.363951
#
# number of rings (size 3 to 8) (size 9 to 14) (size 15 to 20)
#    0.000    1.111    5.556    3.333    3.111    0.000 
#    0.000    3.333    0.000    0.000    0.000    0.000 
#    0.000    0.000    0.000    0.000    0.000    0.000 
#
# Total GULP energy -223278.859843 kJ/mol
# GULP energy per Si atom -12404.381102 kJ/mol
# Density = 1.931988 g / cm^3
# Si number density = 19.363951 Si / 1000 Ang^3
#
#
#
# Elastic Constant Matrix: (Units=GPa)
#
#
# Indices 1 2 3 4 5 6 
#
# 1 119.3760 37.0073 42.5792 0.0000 0.0000 0.0000
# 2 37.0073 147.6841 50.3531 0.0000 0.0000 0.0000
# 3 42.5792 50.3531 92.5726 0.0000 0.0000 0.0000
# 4 0.0000 0.0000 0.0000 37.9627 0.0000 0.0000
# 5 0.0000 0.0000 0.0000 0.0000 17.1719 0.0000
# 6 0.0000 0.0000 0.0000 0.0000 0.0000 21.9975
#
#
#
# Elastic Compliance Matrix: (Units=1/GPa)
#
#
# Indices 1 2 3 4 5 6 
#
# 1 0.010184 -0.001172 -0.004046 0.000000 0.000000 0.000000
# 2 -0.001172 0.008448 -0.004056 0.000000 0.000000 0.000000
# 3 -0.004046 -0.004056 0.014870 0.000000 0.000000 0.000000
# 4 0.000000 0.000000 0.000000 0.026342 0.000000 0.000000
# 5 0.000000 0.000000 0.000000 0.000000 0.058235 0.000000
# 6 0.000000 0.000000 0.000000 0.000000 0.000000 0.045460
#
#
# Mechanical properties :
#
#
# Convention : Reuss Voigt Hill
#
# Bulk Modulus (GPa) = 66.88044 68.83465 67.85755
# Shear Modulus (GPa) = 26.72798 30.73930 28.73364
#
# Velocity S-wave (km/s) = 3.71926 3.98860 3.85629
# Velocity P-wave (km/s) = 7.28406 7.53903 7.41264
#
# Compressibility (1/GPa) = 0.01495206
#
# Stress axis : x y z
#
# Youngs Moduli (GPa) = 98.19758 118.37409 67.25143
#
# Poissons Ratio (x) = 0.13876 0.27212
# Poissons Ratio (y) = 0.11511 0.27276
# Poissons Ratio (z) = 0.39734 0.48011
#
# Static dielectric constant tensor:
#      x y z
#    x 3.495800 0.000000 0.000000 
#    y 0.000000 3.940740 0.000000 
#    z 0.000000 0.000000 3.318440 
# 
# 
# High freq. dielectric constant tensor:
#      x y z
#    x 1.752400 0.000000 0.000000 
#    y 0.000000 1.777840 0.000000 
#    z 0.000000 0.000000 1.731460 
# 
# From -- ./inp_files/6775.got.cif
#   From: 2010.03.12/outbox.cif.g09.slc.cpg/sg44_4_cif.got.tgz:6775.got - 2010.04.14 02:36:11.
