data_PCOD8189225
_publ_section_title
;
Structure prediction by ZEFSAII (Michael W. Deem and Ramdas Pophale) SiO2 
 PCOD8189225
Probable space group: I M M 2
;
_chemical_formula_sum "Si O2"
_cell_formula_units_Z 64
_cell_length_a 8.610806
_cell_length_b 27.968902
_cell_length_c 14.584203
_cell_angle_alpha 90.000000
_cell_angle_beta 90.000000
_cell_angle_gamma 90.000000
_cell_volume 3512.383454
_symmetry_space_group_name_H-M "I M M 2"
_symmetry_group_IT_number 44
_symmetry_cell_setting 'orthorhombic'
loop_
_space_group_symop_operation_xyz
x,y,z
-x,-y,z
-x,y,z
x,-y,z
1/2+x,1/2+y,1/2+z
1/2-x,1/2-y,1/2+z
1/2-x,1/2+y,1/2+z
1/2+x,1/2-y,1/2+z
loop_
_atom_site_type_symbol
_atom_site_label
_atom_site_fract_x
_atom_site_fract_y
_atom_site_fract_z
Si Si1 0.178087 0.238138 0.343360
Si Si2 0.319711 0.861797 0.952834
Si Si3 0.177988 0.227400 0.021201
Si Si4 0.182463 0.823100 0.767274
Si Si5 0.679612 0.555309 0.562590
Si Si6 0.315052 0.447034 0.768691
Si Si7 0.816429 0.328703 0.083663
Si Si8 0.179730 0.135521 0.397484
O O1 0.303237 0.256668 0.416362
O O2 0.225974 0.271547 0.257905
O O3 0.200444 0.181462 0.329884
O O4 0.000000 0.248737 0.373308
O O5 0.500000 0.858748 0.931736
O O6 0.274038 0.822073 0.030796
O O7 0.231501 0.853250 0.856711
O O8 0.277786 0.913760 0.991104
O O9 0.000000 0.216061 0.044786
O O10 0.239349 0.272984 0.078351
O O11 0.234952 0.850761 0.674248
O O12 0.000000 0.815420 0.767607
O O13 0.500000 0.570001 0.554554
O O14 0.703164 0.500000 0.536601
O O15 0.742077 0.564870 0.665808
O O16 0.500000 0.445131 0.768082
O O17 0.257751 0.500000 0.797560
O O18 0.247613 0.409114 0.841929
O O19 0.000000 0.332599 0.091308
O O20 0.765646 0.358116 0.993887
O O21 0.000000 0.126884 0.419990
#
# Coordination Sequence:
#
# PCOD8189225 Si02
#       8
#     8   8   8   8   8   8   8   8
#     4   9  16  27  43  66  97 128 161 201 242 283
#     4  11  21  33  51  75 104 134 167 209 255 301
#     4   9  17  30  47  66  92 128 167 202 239 287
#     4  11  21  33  50  71  99 135 173 209 247 297
#     4   9  18  34  55  77 101 131 168 207 250 303
#     4   8  15  30  53  78 101 127 162 203 245 292
#     4  10  20  33  49  71 101 136 171 208 249 293
#     4   9  17  30  50  75 101 131 167 205 245 292
#
# _framework density 18.221245
#
# number of rings (size 3 to 8) (size 9 to 14) (size 15 to 20)
#    0.000    2.500    0.000    5.625    0.000    3.250 
#    0.000    3.125    0.000    1.875    0.000    1.750 
#    0.000    0.000    0.000    0.000    0.000    0.000 
#
# Total GULP energy -396489.431097 kJ/mol
# GULP energy per Si atom -12390.294722 kJ/mol
# Density = 1.817977 g / cm^3
# Si number density = 18.221245 Si / 1000 Ang^3
#
#
#
# Elastic Constant Matrix: (Units=GPa)
#
#
# Indices 1 2 3 4 5 6 
#
# 1 68.0924 31.1536 28.7585 0.0000 0.0001 0.0000
# 2 31.1536 105.3816 57.4477 -0.0003 0.0000 0.0000
# 3 28.7585 57.4477 102.2252 -0.0012 0.0001 0.0001
# 4 0.0000 -0.0003 -0.0012 23.1697 0.0001 0.0000
# 5 0.0001 0.0000 0.0001 0.0001 22.0118 -0.0001
# 6 0.0000 0.0000 0.0001 0.0000 -0.0001 22.3435
#
#
#
# Elastic Compliance Matrix: (Units=1/GPa)
#
#
# Indices 1 2 3 4 5 6 
#
# 1 0.017566 -0.003603 -0.002917 0.000000 0.000000 0.000000
# 2 -0.003603 0.014419 -0.007090 0.000000 0.000000 0.000000
# 3 -0.002917 -0.007090 0.014587 0.000001 0.000000 0.000000
# 4 0.000000 0.000000 0.000001 0.043160 0.000000 0.000000
# 5 0.000000 0.000000 0.000000 0.000000 0.045430 0.000000
# 6 0.000000 0.000000 0.000000 0.000000 0.000000 0.044756
#
#
# Mechanical properties :
#
#
# Convention : Reuss Voigt Hill
#
# Bulk Modulus (GPa) = 51.67023 56.71320 54.19172
# Shear Modulus (GPa) = 23.40946 24.06098 23.73522
#
# Velocity S-wave (km/s) = 3.58821 3.63780 3.61309
# Velocity P-wave (km/s) = 6.75172 6.98835 6.87105
#
# Compressibility (1/GPa) = 0.01935350
#
# Stress axis : x y z
#
# Youngs Moduli (GPa) = 56.92708 69.35166 68.55330
#
# Poissons Ratio (x) = 0.24986 0.19998
# Poissons Ratio (y) = 0.20510 0.48602
# Poissons Ratio (z) = 0.16607 0.49168
#
# Static dielectric constant tensor:
#      x y z
#    x 3.173640 0.000000 0.000000 
#    y 0.000000 3.456410 0.000000 
#    z 0.000000 0.000000 3.375380 
# 
# 
# High freq. dielectric constant tensor:
#      x y z
#    x 1.697820 0.000000 0.000000 
#    y 0.000000 1.687370 0.000000 
#    z 0.000000 0.000000 1.695100 
# 
# From -- ./inp_files/16892.got.cif
#   From: 2010.03.12/outbox.cif.g09.slc.cpg/sg44_9_cif.got.tgz:16892.got - 2010.04.14 02:36:11.
