data_PCOD8189558
_publ_section_title
;
Structure prediction by ZEFSAII (Michael W. Deem and Ramdas Pophale) SiO2 
 PCOD8189558
Probable space group: I M M 2
;
_chemical_formula_sum "Si O2"
_cell_formula_units_Z 64
_cell_length_a 15.455924
_cell_length_b 8.877012
_cell_length_c 24.049069
_cell_angle_alpha 90.000000
_cell_angle_beta 90.000000
_cell_angle_gamma 90.000000
_cell_volume 3299.590533
_symmetry_space_group_name_H-M "I M M 2"
_symmetry_group_IT_number 44
_symmetry_cell_setting 'orthorhombic'
loop_
_space_group_symop_operation_xyz
x,y,z
-x,-y,z
-x,y,z
x,-y,z
1/2+x,1/2+y,1/2+z
1/2-x,1/2-y,1/2+z
1/2-x,1/2+y,1/2+z
1/2+x,1/2-y,1/2+z
loop_
_atom_site_type_symbol
_atom_site_label
_atom_site_fract_x
_atom_site_fract_y
_atom_site_fract_z
Si Si1 0.401906 0.323697 0.172450
Si Si2 0.658140 0.678450 0.054356
Si Si3 0.746360 0.820822 0.364993
Si Si4 0.144955 0.321784 0.049285
Si Si5 0.403806 0.326439 0.660889
Si Si6 0.750486 0.321817 0.738905
Si Si7 0.902043 0.173300 0.935484
Si Si8 0.405000 0.679300 0.937714
O O1 0.500000 0.290371 0.190749
O O2 0.380376 0.500000 0.174574
O O3 0.387558 0.260396 0.110038
O O4 0.339347 0.239831 0.214493
O O5 0.652935 0.500000 0.053515
O O6 0.756553 0.733621 0.053416
O O7 0.610341 0.743166 0.999925
O O8 0.756349 0.763891 0.301972
O O9 0.659875 0.754855 0.391723
O O10 0.830843 0.758079 0.397101
O O11 0.740318 0.000000 0.369177
O O12 0.137154 0.500000 0.043166
O O13 0.096716 0.269421 0.104658
O O14 0.101595 0.247601 0.995968
O O15 0.500000 0.310441 0.687303
O O16 0.383592 0.500000 0.646411
O O17 0.332924 0.262829 0.704459
O O18 0.753354 0.500000 0.737385
O O19 0.000000 0.188994 0.913059
O O20 0.874221 0.000000 0.940491
O O21 0.500000 0.733122 0.917334
O O22 0.400220 0.500000 0.938500
#
# Coordination Sequence:
#
# PCOD8189558 Si02
#       8
#     8   8   8   8   8   8   8   8
#     4  10  20  35  57  83 111 143 182 229 278 332
#     4   9  16  29  52  83 112 136 169 217 272 325
#     4  10  21  38  58  83 110 143 190 236 277 323
#     4  11  20  34  59  87 114 145 185 231 278 332
#     4  10  21  37  56  81 116 154 188 226 278 336
#     4  10  22  38  56  79 112 149 188 235 279 322
#     4  11  24  40  58  82 113 149 186 227 282 341
#     4   9  16  29  54  85 111 134 169 221 276 328
#
# _framework density 19.396346999999999
#
# number of rings (size 3 to 8) (size 9 to 14) (size 15 to 20)
#    0.000    2.000    2.500    1.500    0.000    6.000 
#    0.000    5.000    0.000    0.375    0.000    1.750 
#    0.000    0.000    0.000    0.000    0.000    0.000 
#
# Total GULP energy -396802.547943 kJ/mol
# GULP energy per Si atom -12400.079623 kJ/mol
# Density = 1.935220 g / cm^3
# Si number density = 19.396347 Si / 1000 Ang^3
#
#
#
# Elastic Constant Matrix: (Units=GPa)
#
#
# Indices 1 2 3 4 5 6 
#
# 1 131.6554 16.4350 66.9645 0.0000 0.0000 0.0000
# 2 16.4350 23.4432 27.9737 0.0000 0.0000 0.0000
# 3 66.9645 27.9737 151.2438 0.0000 0.0000 0.0000
# 4 0.0000 0.0000 0.0000 24.4120 0.0000 0.0000
# 5 0.0000 0.0000 0.0000 0.0000 15.4440 0.0000
# 6 0.0000 0.0000 0.0000 0.0000 0.0000 22.3217
#
#
#
# Elastic Compliance Matrix: (Units=1/GPa)
#
#
# Indices 1 2 3 4 5 6 
#
# 1 0.009890 -0.002192 -0.003974 0.000000 0.000000 0.000000
# 2 -0.002192 0.055223 -0.009243 0.000000 0.000000 0.000000
# 3 -0.003974 -0.009243 0.010081 0.000000 0.000000 0.000000
# 4 0.000000 0.000000 0.000000 0.040963 0.000000 0.000000
# 5 0.000000 0.000000 0.000000 0.000000 0.064750 0.000000
# 6 0.000000 0.000000 0.000000 0.000000 0.000000 0.044800
#
#
# Mechanical properties :
#
#
# Convention : Reuss Voigt Hill
#
# Bulk Modulus (GPa) = 22.53478 58.78762 40.66120
# Shear Modulus (GPa) = 18.42864 25.43348 21.93106
#
# Velocity S-wave (km/s) = 3.08573 3.62505 3.36621
# Velocity P-wave (km/s) = 4.93345 6.92067 6.00977
#
# Compressibility (1/GPa) = 0.04437585
#
# Stress axis : x y z
#
# Youngs Moduli (GPa) = 101.10873 18.10848 99.19866
#
# Poissons Ratio (x) = 0.03970 0.39417
# Poissons Ratio (y) = 0.22165 0.91692
# Poissons Ratio (z) = 0.40176 0.16738
#
# Static dielectric constant tensor:
#      x y z
#    x 3.738260 0.000000 0.000000 
#    y 0.000000 3.212890 0.000000 
#    z 0.000000 0.000000 3.668450 
# 
# 
# High freq. dielectric constant tensor:
#      x y z
#    x 1.771900 0.000000 0.000000 
#    y 0.000000 1.720180 0.000000 
#    z 0.000000 0.000000 1.754310 
# 
# From -- ./inp_files/25111.got.cif
#   From: 2010.03.12/outbox.cif.g09.slc.cpg/sg44_13_cif.got.tgz:25111.got - 2010.04.14 02:36:11.
