data_PCOD8189313
_publ_section_title
;
Structure prediction by ZEFSAII (Michael W. Deem and Ramdas Pophale) SiO2 
 PCOD8189313
Probable space group: I M M 2
;
_chemical_formula_sum "Si O2"
_cell_formula_units_Z 56
_cell_length_a 9.247326
_cell_length_b 23.337026
_cell_length_c 13.646300
_cell_angle_alpha 90.000000
_cell_angle_beta 90.000000
_cell_angle_gamma 90.000000
_cell_volume 2944.940963
_symmetry_space_group_name_H-M "I M M 2"
_symmetry_group_IT_number 44
_symmetry_cell_setting 'orthorhombic'
loop_
_space_group_symop_operation_xyz
x,y,z
-x,-y,z
-x,y,z
x,-y,z
1/2+x,1/2+y,1/2+z
1/2-x,1/2-y,1/2+z
1/2-x,1/2+y,1/2+z
1/2+x,1/2-y,1/2+z
loop_
_atom_site_type_symbol
_atom_site_label
_atom_site_fract_x
_atom_site_fract_y
_atom_site_fract_z
Si Si1 0.167542 0.384912 0.398210
Si Si2 0.167295 0.065512 0.296351
Si Si3 0.332054 0.833879 0.388505
Si Si4 0.335355 0.767554 0.794486
Si Si5 0.332977 0.840683 0.611375
Si Si6 0.834176 0.066354 0.071220
Si Si7 0.333192 0.565700 0.219905
O O1 0.189661 0.318555 0.371564
O O2 0.229821 0.394323 0.506482
O O3 0.252747 0.425084 0.322708
O O4 0.000000 0.402243 0.394730
O O5 0.263157 0.104738 0.366045
O O6 0.197283 0.081670 0.183661
O O7 0.000000 0.075237 0.321770
O O8 0.211498 0.000000 0.316427
O O9 0.500000 0.837522 0.365020
O O10 0.266156 0.785135 0.320137
O O11 0.302080 0.818930 0.501985
O O12 0.500000 0.745708 0.797739
O O13 0.293868 0.789255 0.685658
O O14 0.500000 0.858621 0.626733
O O15 0.236486 0.896184 0.634204
O O16 0.000000 0.080058 0.044715
O O17 0.800445 0.000000 0.050681
O O18 0.500000 0.583132 0.233427
O O19 0.317441 0.500000 0.187580
#
# Coordination Sequence:
#
# PCOD8189313 Si02
#       7
#     8   8   8   8   8   8   8
#     4  10  20  33  52  80 112 146 183 224 272 321
#     4   9  20  39  59  79 108 146 183 219 264 320
#     4  11  23  38  59  85 109 137 176 223 275 323
#     4   9  20  39  57  75 105 143 181 218 261 321
#     4   9  21  40  57  77 108 143 179 222 271 321
#     4   9  18  33  53  78 109 146 186 224 264 316
#     4  10  20  33  52  80 111 144 184 226 267 317
#
# _framework density 19.015661999999999
#
# number of rings (size 3 to 8) (size 9 to 14) (size 15 to 20)
#    0.000    2.429    0.000    3.429    0.000    9.714 
#    0.000    8.571    0.000    0.000    0.000    0.000 
#    0.000    0.000    0.000    0.000    0.000    0.000 
#
# Total GULP energy -347289.415257 kJ/mol
# GULP energy per Si atom -12403.193402 kJ/mol
# Density = 1.897238 g / cm^3
# Si number density = 19.015662 Si / 1000 Ang^3
#
#
#
# Elastic Constant Matrix: (Units=GPa)
#
#
# Indices 1 2 3 4 5 6 
#
# 1 114.8081 66.0613 58.8205 0.0001 0.0000 0.0000
# 2 66.0613 100.5570 55.6362 -0.0001 0.0000 0.0000
# 3 58.8205 55.6362 99.2441 -0.0001 0.0001 0.0000
# 4 0.0001 -0.0001 -0.0001 24.5757 0.0000 0.0000
# 5 0.0000 0.0000 0.0001 0.0000 33.4380 0.0000
# 6 0.0000 0.0000 0.0000 0.0000 0.0000 34.9644
#
#
#
# Elastic Compliance Matrix: (Units=1/GPa)
#
#
# Indices 1 2 3 4 5 6 
#
# 1 0.015585 -0.007434 -0.005070 0.000000 0.000000 0.000000
# 2 -0.007434 0.017962 -0.005663 0.000000 0.000000 0.000000
# 3 -0.005070 -0.005663 0.016256 0.000000 0.000000 0.000000
# 4 0.000000 0.000000 0.000000 0.040691 0.000000 0.000000
# 5 0.000000 0.000000 0.000000 0.000000 0.029906 0.000000
# 6 0.000000 0.000000 0.000000 0.000000 0.000000 0.028601
#
#
# Mechanical properties :
#
#
# Convention : Reuss Voigt Hill
#
# Bulk Modulus (GPa) = 74.24544 75.07167 74.65855
# Shear Modulus (GPa) = 26.34036 27.53504 26.93770
#
# Velocity S-wave (km/s) = 3.72586 3.80941 3.76787
# Velocity P-wave (km/s) = 7.59200 7.67551 7.63387
#
# Compressibility (1/GPa) = 0.01346884
#
# Stress axis : x y z
#
# Youngs Moduli (GPa) = 64.16462 55.67414 61.51645
#
# Poissons Ratio (x) = 0.41386 0.31187
# Poissons Ratio (y) = 0.47698 0.34840
# Poissons Ratio (z) = 0.32529 0.31531
#
# Static dielectric constant tensor:
#      x y z
#    x 3.495170 0.000000 0.000000 
#    y 0.000000 3.314020 0.000000 
#    z 0.000000 0.000000 3.462650 
# 
# 
# High freq. dielectric constant tensor:
#      x y z
#    x 1.742580 0.000000 0.000000 
#    y 0.000000 1.732410 0.000000 
#    z 0.000000 0.000000 1.738480 
# 
# From -- ./inp_files/16470.got.cif
#   From: 2010.03.12/outbox.cif.g09.slc.cpg/sg44_9_cif.got.tgz:16470.got - 2010.04.14 02:36:11.
