data_PCOD8189569
_publ_section_title
;
Structure prediction by ZEFSAII (Michael W. Deem and Ramdas Pophale) SiO2 
 PCOD8189569
Probable space group: I M M 2
;
_chemical_formula_sum "Si O2"
_cell_formula_units_Z 40
_cell_length_a 9.085285
_cell_length_b 28.964377
_cell_length_c 7.792073
_cell_angle_alpha 90.000000
_cell_angle_beta 90.000000
_cell_angle_gamma 90.000000
_cell_volume 2050.481048
_symmetry_space_group_name_H-M "I M M 2"
_symmetry_group_IT_number 44
_symmetry_cell_setting 'orthorhombic'
loop_
_space_group_symop_operation_xyz
x,y,z
-x,-y,z
-x,y,z
x,-y,z
1/2+x,1/2+y,1/2+z
1/2-x,1/2-y,1/2+z
1/2-x,1/2+y,1/2+z
1/2+x,1/2-y,1/2+z
loop_
_atom_site_type_symbol
_atom_site_label
_atom_site_fract_x
_atom_site_fract_y
_atom_site_fract_z
Si Si1 0.669537 0.796487 0.996670
Si Si2 0.169313 0.114591 0.504850
Si Si3 0.169538 0.703493 0.895670
Si Si4 0.669312 0.614608 0.387693
Si Si5 0.674823 0.551490 0.696241
O O1 0.500000 0.791546 0.944744
O O2 0.749976 0.749983 0.946215
O O3 0.739006 0.838470 0.892288
O O4 0.690371 0.806935 0.196167
O O5 0.261054 0.161499 0.500056
O O6 0.184673 0.093349 0.696295
O O7 0.230863 0.077824 0.366929
O O8 0.000000 0.126666 0.462806
O O9 0.000000 0.708447 0.947581
O O10 0.500000 0.626670 0.429788
O O11 0.730942 0.577869 0.525682
O O12 0.500000 0.548375 0.696162
O O13 0.742850 0.500000 0.696184
#
# Coordination Sequence:
#
# PCOD8189569 Si02
#       5
#     8   8   8   8   8
#     4  11  23  37  55  81 113 150 190 231 280 338
#     4  10  20  35  57  84 114 149 189 232 280 335
#     4  11  23  37  55  81 113 150 190 231 280 338
#     4  10  20  35  57  84 114 149 189 232 280 335
#     4   9  18  34  57  85 117 151 187 235 288 331
#
# _framework density 19.507618000000001
#
# number of rings (size 3 to 8) (size 9 to 14) (size 15 to 20)
#    0.000    1.800    2.000    2.400    0.000    8.800 
#    0.000    4.000    0.000    2.400    0.000    2.800 
#    0.000    0.000    0.000    0.000    0.000    0.000 
#
# Total GULP energy -248053.778168 kJ/mol
# GULP energy per Si atom -12402.688908 kJ/mol
# Density = 1.946322 g / cm^3
# Si number density = 19.507618 Si / 1000 Ang^3
#
#
#
# Elastic Constant Matrix: (Units=GPa)
#
#
# Indices 1 2 3 4 5 6 
#
# 1 78.1414 40.4028 37.8458 -0.0023 0.0012 -0.0011
# 2 40.4028 154.5702 64.9887 -0.0025 -0.0056 -0.0018
# 3 37.8458 64.9887 134.5630 -0.0144 -0.0263 -0.0082
# 4 -0.0023 -0.0025 -0.0144 30.9517 -0.0029 -0.0020
# 5 0.0012 -0.0056 -0.0263 -0.0029 22.6075 -0.0014
# 6 -0.0011 -0.0018 -0.0082 -0.0020 -0.0014 22.0013
#
#
#
# Elastic Compliance Matrix: (Units=1/GPa)
#
#
# Indices 1 2 3 4 5 6 
#
# 1 0.015742 -0.002827 -0.003062 -0.000001 -0.000005 -0.000001
# 2 -0.002827 0.008626 -0.003371 -0.000001 -0.000002 -0.000001
# 3 -0.003062 -0.003371 0.009921 0.000004 0.000011 0.000003
# 4 -0.000001 -0.000001 0.000004 0.032308 0.000004 0.000003
# 5 -0.000005 -0.000002 0.000011 0.000004 0.044233 0.000003
# 6 -0.000001 -0.000001 0.000003 0.000003 0.000003 0.045452
#
#
# Mechanical properties :
#
#
# Convention : Reuss Voigt Hill
#
# Bulk Modulus (GPa) = 63.41807 72.63881 68.02844
# Shear Modulus (GPa) = 27.76879 30.04793 28.90836
#
# Velocity S-wave (km/s) = 3.77700 3.92895 3.85372
# Velocity P-wave (km/s) = 7.18338 7.60915 7.39933
#
# Compressibility (1/GPa) = 0.01576838
#
# Stress axis : x y z
#
# Youngs Moduli (GPa) = 63.52347 115.93097 100.80070
#
# Poissons Ratio (x) = 0.32779 0.30865
# Poissons Ratio (y) = 0.17961 0.33977
# Poissons Ratio (z) = 0.19451 0.39077
#
# Static dielectric constant tensor:
#      x y z
#    x 3.364830 0.000000 -0.000010 
#    y 0.000000 3.591650 -0.000010 
#    z -0.000010 -0.000010 3.797110 
# 
# 
# High freq. dielectric constant tensor:
#      x y z
#    x 1.735110 0.000000 0.000000 
#    y 0.000000 1.752550 0.000000 
#    z 0.000000 0.000000 1.778830 
# 
# From -- ./inp_files/4421.got.cif
#   From: 2010.03.12/outbox.cif.g09.slc.cpg/sg44_3_cif.got.tgz:4421.got - 2010.04.14 02:36:11.
