data_PCOD8189858
_publ_section_title
;
Structure prediction by ZEFSAII (Michael W. Deem and Ramdas Pophale) SiO2 
 PCOD8189858
Probable space group: I M M 2
;
_chemical_formula_sum "Si O2"
_cell_formula_units_Z 48
_cell_length_a 33.809590
_cell_length_b 13.771213
_cell_length_c 5.081177
_cell_angle_alpha 90.000000
_cell_angle_beta 90.000000
_cell_angle_gamma 90.000000
_cell_volume 2365.791262
_symmetry_space_group_name_H-M "I M M 2"
_symmetry_group_IT_number 44
_symmetry_cell_setting 'orthorhombic'
loop_
_space_group_symop_operation_xyz
x,y,z
-x,-y,z
-x,y,z
x,-y,z
1/2+x,1/2+y,1/2+z
1/2-x,1/2-y,1/2+z
1/2-x,1/2+y,1/2+z
1/2+x,1/2-y,1/2+z
loop_
_atom_site_type_symbol
_atom_site_label
_atom_site_fract_x
_atom_site_fract_y
_atom_site_fract_z
Si Si1 0.346503 0.887117 0.101700
Si Si2 0.623404 0.704630 0.851892
Si Si3 0.929527 0.608537 0.826324
Si Si4 0.158383 0.886328 0.847711
Si Si5 0.455817 0.785605 0.821667
Si Si6 0.724227 0.753182 0.216025
O O1 0.381726 0.878140 0.317365
O O2 0.305307 0.846437 0.221058
O O3 0.341257 0.000000 0.009865
O O4 0.359607 0.816188 0.859387
O O5 0.646853 0.641223 0.643305
O O6 0.576907 0.701740 0.776424
O O7 0.627497 0.658537 0.141142
O O8 0.941151 0.500000 0.750871
O O9 0.951570 0.676365 0.617786
O O10 0.946146 0.629256 0.115597
O O11 0.201706 0.845137 0.790740
O O12 0.159814 0.000000 0.816460
O O13 0.500000 0.744073 0.780493
O O14 0.759106 0.766860 0.424874
#
# Coordination Sequence:
#
# PCOD8189858 Si02
#       6
#     8   8   8   8   8   8
#     4   9  20  39  61  83 115 159 194 230 283 345
#     4  10  21  40  61  88 116 148 201 243 275 344
#     4  10  21  35  53  80 113 155 203 233 267 342
#     4  11  23  42  66  85 111 154 199 243 291 338
#     4  11  21  34  55  82 117 155 185 235 300 337
#     4  11  23  38  57  87 122 148 186 241 290 346
#
# _framework density 20.289193999999998
#
# number of rings (size 3 to 8) (size 9 to 14) (size 15 to 20)
#    0.000    1.667    0.000    6.500    0.000    5.333 
#    0.000   10.000    0.000    3.000    0.000    0.000 
#    0.000    0.000    0.000    0.000    0.000    0.000 
#
# Total GULP energy -297525.241914 kJ/mol
# GULP energy per Si atom -12396.885080 kJ/mol
# Density = 2.024302 g / cm^3
# Si number density = 20.289194 Si / 1000 Ang^3
#
#
#
# Elastic Constant Matrix: (Units=GPa)
#
#
# Indices 1 2 3 4 5 6 
#
# 1 125.5961 30.9667 18.8928 0.0017 0.0006 0.0005
# 2 30.9667 117.9318 14.4605 -0.0002 -0.0005 0.0004
# 3 18.8928 14.4605 79.4068 0.0089 0.0180 0.0007
# 4 0.0017 -0.0002 0.0089 25.6052 0.0019 0.0011
# 5 0.0006 -0.0005 0.0180 0.0019 27.1978 -0.0018
# 6 0.0005 0.0004 0.0007 0.0011 -0.0018 13.3980
#
#
#
# Elastic Compliance Matrix: (Units=1/GPa)
#
#
# Indices 1 2 3 4 5 6 
#
# 1 0.008731 -0.002085 -0.001698 0.000000 0.000001 0.000000
# 2 -0.002085 0.009171 -0.001174 0.000001 0.000001 0.000000
# 3 -0.001698 -0.001174 0.013211 -0.000004 -0.000009 -0.000001
# 4 0.000000 0.000001 -0.000004 0.039055 -0.000003 -0.000003
# 5 0.000001 0.000001 -0.000009 -0.000003 0.036768 0.000005
# 6 0.000000 0.000000 -0.000001 -0.000003 0.000005 0.074638
#
#
# Mechanical properties :
#
#
# Convention : Reuss Voigt Hill
#
# Bulk Modulus (GPa) = 47.16875 50.17495 48.67185
# Shear Modulus (GPa) = 25.18215 30.48118 27.83167
#
# Velocity S-wave (km/s) = 3.52683 3.88020 3.70773
# Velocity P-wave (km/s) = 6.31533 6.69763 6.50929
#
# Compressibility (1/GPa) = 0.02120048
#
# Stress axis : x y z
#
# Youngs Moduli (GPa) = 114.52955 109.04177 75.69369
#
# Poissons Ratio (x) = 0.22730 0.12851
# Poissons Ratio (y) = 0.23874 0.08887
# Poissons Ratio (z) = 0.19445 0.12803
#
# Static dielectric constant tensor:
#      x y z
#    x 3.881220 0.000000 0.000010 
#    y 0.000000 3.518200 0.000000 
#    z 0.000010 0.000000 3.707260 
# 
# 
# High freq. dielectric constant tensor:
#      x y z
#    x 1.796520 0.000000 0.000000 
#    y 0.000000 1.763990 0.000000 
#    z 0.000000 0.000000 1.799950 
# 
# From -- ./inp_files/3280.got.cif
#   From: 2010.03.12/outbox.cif.g09.slc.cpg/sg44_2_cif.got.tgz:3280.got - 2010.04.14 02:36:11.
