data_PCOD8189674
_publ_section_title
;
Structure prediction by ZEFSAII (Michael W. Deem and Ramdas Pophale) SiO2 
 PCOD8189674
Probable space group: I M M 2
;
_chemical_formula_sum "Si O2"
_cell_formula_units_Z 64
_cell_length_a 15.531314
_cell_length_b 8.449847
_cell_length_c 24.092110
_cell_angle_alpha 90.000000
_cell_angle_beta 90.000000
_cell_angle_gamma 90.000000
_cell_volume 3161.781709
_symmetry_space_group_name_H-M "I M M 2"
_symmetry_group_IT_number 44
_symmetry_cell_setting 'orthorhombic'
loop_
_space_group_symop_operation_xyz
x,y,z
-x,-y,z
-x,y,z
x,-y,z
1/2+x,1/2+y,1/2+z
1/2-x,1/2-y,1/2+z
1/2-x,1/2+y,1/2+z
1/2+x,1/2-y,1/2+z
loop_
_atom_site_type_symbol
_atom_site_label
_atom_site_fract_x
_atom_site_fract_y
_atom_site_fract_z
Si Si1 0.162193 0.182393 0.376350
Si Si2 0.247144 0.311864 0.566604
Si Si3 0.597390 0.182345 0.765248
Si Si4 0.094089 0.685436 0.762817
Si Si5 0.403270 0.816825 0.986690
Si Si6 0.752590 0.188821 0.191845
Si Si7 0.404855 0.311899 0.495505
Si Si8 0.652920 0.316549 0.376121
O O1 0.107573 0.218624 0.321564
O O2 0.105256 0.217594 0.430354
O O3 0.245139 0.293694 0.377071
O O4 0.190746 0.000000 0.375501
O O5 0.249209 0.500000 0.567304
O O6 0.163069 0.252724 0.533087
O O7 0.243800 0.247265 0.629172
O O8 0.333158 0.242761 0.537348
O O9 0.500000 0.205218 0.743609
O O10 0.659898 0.244606 0.717370
O O11 0.617811 0.000000 0.778136
O O12 0.094037 0.500000 0.753130
O O13 0.170495 0.758755 0.725454
O O14 0.109690 0.718939 0.827159
O O15 0.000000 0.754114 0.745414
O O16 0.500000 0.794319 0.009887
O O17 0.384041 0.000000 0.973065
O O18 0.755833 0.000000 0.194652
O O19 0.500000 0.254678 0.514241
O O20 0.398858 0.500000 0.495574
O O21 0.386310 0.250898 0.433453
O O22 0.631354 0.500000 0.367285
#
# Coordination Sequence:
#
# PCOD8189674 Si02
#       8
#     8   8   8   8   8   8   8   8
#     4  12  23  36  58  87 118 150 186 234 295 353
#     4   9  18  34  55  83 115 148 191 235 277 327
#     4  11  24  41  61  85 115 152 192 237 291 350
#     4  10  21  36  54  82 120 154 188 234 287 340
#     4  10  20  36  59  86 116 152 193 235 281 337
#     4  10  21  37  59  85 115 154 196 239 285 334
#     4   9  17  30  52  82 112 141 178 228 278 325
#     4  11  20  34  58  84 113 147 189 235 283 347
#
# _framework density 20.241752000000002
#
# number of rings (size 3 to 8) (size 9 to 14) (size 15 to 20)
#    0.000    1.750    2.500    2.625    0.000    4.500 
#    0.000    4.375    0.000    0.000    0.000    1.750 
#    0.000    0.000    0.000    0.000    0.000    0.000 
#
# Total GULP energy -396836.139231 kJ/mol
# GULP energy per Si atom -12401.129351 kJ/mol
# Density = 2.019568 g / cm^3
# Si number density = 20.241752 Si / 1000 Ang^3
#
#
#
# Elastic Constant Matrix: (Units=GPa)
#
#
# Indices 1 2 3 4 5 6 
#
# 1 173.1253 15.9481 79.0176 0.0000 0.0000 0.0000
# 2 15.9481 28.1434 16.4351 0.0000 0.0000 0.0000
# 3 79.0176 16.4351 160.9566 0.0000 0.0000 0.0000
# 4 0.0000 0.0000 0.0000 23.6279 0.0000 0.0000
# 5 0.0000 0.0000 0.0000 0.0000 17.5205 0.0000
# 6 0.0000 0.0000 0.0000 0.0000 0.0000 19.2398
#
#
#
# Elastic Compliance Matrix: (Units=1/GPa)
#
#
# Indices 1 2 3 4 5 6 
#
# 1 0.007576 -0.002256 -0.003489 0.000000 0.000000 0.000000
# 2 -0.002256 0.038457 -0.002819 0.000000 0.000000 0.000000
# 3 -0.003489 -0.002819 0.008214 0.000000 0.000000 0.000000
# 4 0.000000 0.000000 0.000000 0.042323 0.000000 0.000000
# 5 0.000000 0.000000 0.000000 0.000000 0.057076 0.000000
# 6 0.000000 0.000000 0.000000 0.000000 0.000000 0.051976
#
#
# Mechanical properties :
#
#
# Convention : Reuss Voigt Hill
#
# Bulk Modulus (GPa) = 26.94069 65.00300 45.97184
# Shear Modulus (GPa) = 21.26543 28.79926 25.03235
#
# Velocity S-wave (km/s) = 3.24477 3.77605 3.52045
# Velocity P-wave (km/s) = 5.23225 7.15503 6.26781
#
# Compressibility (1/GPa) = 0.03711858
#
# Stress axis : x y z
#
# Youngs Moduli (GPa) = 131.98749 26.00297 121.74868
#
# Poissons Ratio (x) = 0.05866 0.42480
# Poissons Ratio (y) = 0.29774 0.34326
# Poissons Ratio (z) = 0.46052 0.07331
#
# Static dielectric constant tensor:
#      x y z
#    x 3.961990 0.000000 0.000000 
#    y 0.000000 3.296220 0.000000 
#    z 0.000000 0.000000 3.765010 
# 
# 
# High freq. dielectric constant tensor:
#      x y z
#    x 1.807640 0.000000 0.000000 
#    y 0.000000 1.755490 0.000000 
#    z 0.000000 0.000000 1.785840 
# 
# From -- ./inp_files/25084.got.cif
#   From: 2010.03.12/outbox.cif.g09.slc.cpg/sg44_13_cif.got.tgz:25084.got - 2010.04.14 02:36:11.
