data_PCOD8189770
_publ_section_title
;
Structure prediction by ZEFSAII (Michael W. Deem and Ramdas Pophale) SiO2 
 PCOD8189770
Probable space group: I M M 2
;
_chemical_formula_sum "Si O2"
_cell_formula_units_Z 56
_cell_length_a 13.324980
_cell_length_b 20.353052
_cell_length_c 10.235798
_cell_angle_alpha 90.000000
_cell_angle_beta 90.000000
_cell_angle_gamma 90.000000
_cell_volume 2775.989472
_symmetry_space_group_name_H-M "I M M 2"
_symmetry_group_IT_number 44
_symmetry_cell_setting 'orthorhombic'
loop_
_space_group_symop_operation_xyz
x,y,z
-x,-y,z
-x,y,z
x,-y,z
1/2+x,1/2+y,1/2+z
1/2-x,1/2-y,1/2+z
1/2-x,1/2+y,1/2+z
1/2+x,1/2-y,1/2+z
loop_
_atom_site_type_symbol
_atom_site_label
_atom_site_fract_x
_atom_site_fract_y
_atom_site_fract_z
Si Si1 0.385139 0.000000 0.792531
Si Si2 0.692905 0.868956 0.678472
Si Si3 0.688599 0.139189 0.151280
Si Si4 0.388750 0.661498 0.520739
Si Si5 0.193111 0.704933 0.920802
Si Si6 0.887203 0.924154 0.775593
Si Si7 0.880191 0.500000 0.584840
Si Si8 0.115510 0.719295 0.409907
O O1 0.360343 0.062918 0.707150
O O2 0.500000 0.000000 0.826355
O O3 0.334703 0.000000 0.936750
O O4 0.664751 0.846509 0.533513
O O5 0.812977 0.879134 0.690252
O O6 0.652732 0.814283 0.777121
O O7 0.807942 0.151211 0.134831
O O8 0.656750 0.174789 0.284345
O O9 0.662811 0.062702 0.161708
O O10 0.626830 0.168700 0.029789
O O11 0.500000 0.666385 0.583095
O O12 0.366200 0.727127 0.438455
O O13 0.382192 0.599124 0.425162
O O14 0.313235 0.717638 0.930283
O O15 0.000000 0.916311 0.719869
O O16 0.851525 0.000000 0.770584
O O17 0.000000 0.500000 0.590450
O O18 0.000000 0.741344 0.397639
#
# Coordination Sequence:
#
# PCOD8189770 Si02
#       8
#     4   8   8   8   8   8   4   8
#     4  11  22  39  66  92 115 156 211 258 302 361
#     4  12  22  40  64  91 125 161 203 254 304 366
#     4  11  23  41  62  93 126 160 204 256 306 361
#     4  10  22  39  64  90 121 162 203 250 303 361
#     4  11  26  40  57  93 133 164 196 249 314 366
#     4  10  20  37  64  93 114 149 205 260 304 352
#     4  11  22  41  68  92 117 156 209 260 304 357
#     4  11  22  40  67  91 119 165 213 250 297 363
#
# _framework density 20.172986999999999
#
# number of rings (size 3 to 8) (size 9 to 14) (size 15 to 20)
#    0.000    1.143    5.000    2.571    1.000    5.143 
#    0.000    0.714    0.000    0.000    0.000    0.000 
#    0.000    0.000    0.000    0.000    0.000    0.000 
#
# Total GULP energy -347242.851846 kJ/mol
# GULP energy per Si atom -12401.530423 kJ/mol
# Density = 2.012707 g / cm^3
# Si number density = 20.172987 Si / 1000 Ang^3
#
#
#
# Elastic Constant Matrix: (Units=GPa)
#
#
# Indices 1 2 3 4 5 6 
#
# 1 103.2190 16.3852 16.9644 0.0000 0.0000 0.0000
# 2 16.3852 93.5566 30.0263 0.0001 -0.0001 0.0000
# 3 16.9644 30.0263 93.7545 -0.0012 0.0000 0.0000
# 4 0.0000 0.0001 -0.0012 22.0964 0.0000 0.0000
# 5 0.0000 -0.0001 0.0000 0.0000 7.8021 0.0000
# 6 0.0000 0.0000 0.0000 0.0000 0.0000 19.1347
#
#
#
# Elastic Compliance Matrix: (Units=1/GPa)
#
#
# Indices 1 2 3 4 5 6 
#
# 1 0.010130 -0.001322 -0.001410 0.000000 0.000000 0.000000
# 2 -0.001322 0.012086 -0.003631 0.000000 0.000000 0.000000
# 3 -0.001410 -0.003631 0.012084 0.000001 0.000000 0.000000
# 4 0.000000 0.000000 0.000001 0.045256 0.000000 0.000000
# 5 0.000000 0.000000 0.000000 0.000000 0.128170 0.000000
# 6 0.000000 0.000000 0.000000 0.000000 0.000000 0.052261
#
#
# Mechanical properties :
#
#
# Convention : Reuss Voigt Hill
#
# Bulk Modulus (GPa) = 46.35202 46.36467 46.35835
# Shear Modulus (GPa) = 17.86326 24.95025 21.40675
#
# Velocity S-wave (km/s) = 2.97897 3.52065 3.26108
# Velocity P-wave (km/s) = 5.90419 6.28968 6.09998
#
# Compressibility (1/GPa) = 0.02157403
#
# Stress axis : x y z
#
# Youngs Moduli (GPa) = 98.72036 82.74250 82.75228
#
# Poissons Ratio (x) = 0.10936 0.11665
# Poissons Ratio (y) = 0.13048 0.30051
# Poissons Ratio (z) = 0.13916 0.30048
#
# Static dielectric constant tensor:
#      x y z
#    x 3.895990 0.000000 0.000000 
#    y 0.000000 3.597970 0.000000 
#    z 0.000000 0.000000 3.351990 
# 
# 
# High freq. dielectric constant tensor:
#      x y z
#    x 1.798970 0.000000 0.000000 
#    y 0.000000 1.788980 0.000000 
#    z 0.000000 0.000000 1.761050 
# 
# From -- ./inp_files/7427.got.cif
#   From: 2010.03.12/outbox.cif.g09.slc.cpg/sg44_4_cif.got.tgz:7427.got - 2010.04.14 02:36:11.
