data_PCOD8189301
_publ_section_title
;
Structure prediction by ZEFSAII (Michael W. Deem and Ramdas Pophale) SiO2 
 PCOD8189301
Probable space group: I M M 2
;
_chemical_formula_sum "Si O2"
_cell_formula_units_Z 56
_cell_length_a 17.277730
_cell_length_b 9.743527
_cell_length_c 17.502403
_cell_angle_alpha 90.000000
_cell_angle_beta 90.000000
_cell_angle_gamma 90.000000
_cell_volume 2946.460039
_symmetry_space_group_name_H-M "I M M 2"
_symmetry_group_IT_number 44
_symmetry_cell_setting 'orthorhombic'
loop_
_space_group_symop_operation_xyz
x,y,z
-x,-y,z
-x,y,z
x,-y,z
1/2+x,1/2+y,1/2+z
1/2-x,1/2-y,1/2+z
1/2-x,1/2+y,1/2+z
1/2+x,1/2-y,1/2+z
loop_
_atom_site_type_symbol
_atom_site_label
_atom_site_fract_x
_atom_site_fract_y
_atom_site_fract_z
Si Si1 0.173944 0.656184 0.099690
Si Si2 0.149527 0.844390 0.558845
Si Si3 0.910749 0.156864 0.395705
Si Si4 0.910643 0.651548 0.680622
Si Si5 0.092270 0.848271 0.808906
Si Si6 0.410589 0.841003 0.753614
Si Si7 0.088793 0.840905 0.979896
O O1 0.148001 0.500000 0.084060
O O2 0.265394 0.673169 0.093150
O O3 0.143614 0.702595 0.182812
O O4 0.138316 0.751494 0.036183
O O5 0.143487 0.810943 0.468739
O O6 0.096354 0.735271 0.602199
O O7 0.119271 0.000000 0.572854
O O8 0.883473 0.253432 0.326545
O O9 0.000000 0.186663 0.417892
O O10 0.900350 0.000000 0.369036
O O11 0.871700 0.500000 0.674657
O O12 0.871956 0.737951 0.749998
O O13 0.000000 0.632128 0.699203
O O14 0.118435 0.809207 0.894276
O O15 0.000000 0.852079 0.805065
O O16 0.124018 0.000000 0.787092
O O17 0.500000 0.809097 0.732523
O O18 0.399278 0.000000 0.774516
O O19 0.000000 0.797824 0.988856
O O20 0.100337 0.000000 0.999763
#
# Coordination Sequence:
#
# PCOD8189301 Si02
#       7
#     8   8   8   8   8   8   8
#     4  10  21  36  53  77 110 144 178 217 268 327
#     4  10  21  37  54  75 108 145 179 215 266 331
#     4   9  18  34  57  81 102 133 180 227 268 313
#     4  10  20  33  52  79 106 134 175 224 268 311
#     4   8  15  30  51  74 101 134 171 208 251 307
#     4   9  18  34  56  80 105 136 176 222 270 317
#     4   9  18  33  54  79 105 137 179 222 263 311
#
# _framework density 19.005856999999999
#
# number of rings (size 3 to 8) (size 9 to 14) (size 15 to 20)
#    0.000    2.714    0.000    2.143    0.000    4.571 
#    2.571    4.286    0.000    0.000    0.000    0.000 
#    0.000    0.000    0.000    0.000    0.000    0.000 
#
# Total GULP energy -347153.056162 kJ/mol
# GULP energy per Si atom -12398.323434 kJ/mol
# Density = 1.896260 g / cm^3
# Si number density = 19.005857 Si / 1000 Ang^3
#
#
#
# Elastic Constant Matrix: (Units=GPa)
#
#
# Indices 1 2 3 4 5 6 
#
# 1 38.6060 22.1855 33.8812 0.0000 0.0000 0.0000
# 2 22.1855 111.1605 80.1367 0.0000 0.0000 0.0000
# 3 33.8812 80.1367 141.5998 0.0000 0.0000 0.0000
# 4 0.0000 0.0000 0.0000 38.3796 0.0000 0.0000
# 5 0.0000 0.0000 0.0000 0.0000 -36.2118 0.0000
# 6 0.0000 0.0000 0.0000 0.0000 0.0000 19.3813
#
#
#
# Elastic Compliance Matrix: (Units=1/GPa)
#
#
# Indices 1 2 3 4 5 6 
#
# 1 0.032937 -0.001507 -0.007028 0.000000 0.000000 0.000000
# 2 -0.001507 0.015265 -0.008278 0.000000 0.000000 0.000000
# 3 -0.007028 -0.008278 0.013429 0.000000 0.000000 0.000000
# 4 0.000000 0.000000 0.000000 0.026056 0.000000 0.000000
# 5 0.000000 0.000000 0.000000 0.000000 -0.027615 0.000000
# 6 0.000000 0.000000 0.000000 0.000000 0.000000 0.051596
#
#
# Mechanical properties :
#
#
# Convention : Reuss Voigt Hill
#
# Bulk Modulus (GPa) = 35.70982 62.64146 49.17564
# Shear Modulus (GPa) = 32.33583 14.65402 23.49493
#
# Velocity S-wave (km/s) = 4.12923 2.77975 3.51977
# Velocity P-wave (km/s) = 6.44699 6.58280 6.51525
#
# Compressibility (1/GPa) = 0.02800350
#
# Stress axis : x y z
#
# Youngs Moduli (GPa) = 30.36139 65.51081 74.46695
#
# Poissons Ratio (x) = 0.09872 0.52336
# Poissons Ratio (y) = 0.04575 0.61646
# Poissons Ratio (z) = 0.21338 0.54232
#
# Static dielectric constant tensor:
#      x y z
#    x 3.560360 0.000000 0.000000 
#    y 0.000000 3.699740 0.000000 
#    z 0.000000 0.000000 3.511460 
# 
# 
# High freq. dielectric constant tensor:
#      x y z
#    x 1.707720 0.000000 0.000000 
#    y 0.000000 1.741800 0.000000 
#    z 0.000000 0.000000 1.744540 
# 
# From -- ./inp_files/22262.got.cif
#   From: 2010.03.12/outbox.cif.g09.slc.cpg/sg44_12_cif.got.tgz:22262.got - 2010.04.14 02:36:11.
