data_PCOD8189472
_publ_section_title
;
Structure prediction by ZEFSAII (Michael W. Deem and Ramdas Pophale) SiO2 
 PCOD8189472
Probable space group: I M M 2
;
_chemical_formula_sum "Si O2"
_cell_formula_units_Z 48
_cell_length_a 8.593595
_cell_length_b 10.341936
_cell_length_c 28.001739
_cell_angle_alpha 90.000000
_cell_angle_beta 90.000000
_cell_angle_gamma 90.000000
_cell_volume 2488.638019
_symmetry_space_group_name_H-M "I M M 2"
_symmetry_group_IT_number 44
_symmetry_cell_setting 'orthorhombic'
loop_
_space_group_symop_operation_xyz
x,y,z
-x,-y,z
-x,y,z
x,-y,z
1/2+x,1/2+y,1/2+z
1/2-x,1/2-y,1/2+z
1/2-x,1/2+y,1/2+z
1/2+x,1/2-y,1/2+z
loop_
_atom_site_type_symbol
_atom_site_label
_atom_site_fract_x
_atom_site_fract_y
_atom_site_fract_z
Si Si1 0.684542 0.000000 0.687021
Si Si2 0.183530 0.256497 0.535168
Si Si3 0.182720 0.753185 0.242294
Si Si4 0.680523 0.649882 0.334784
Si Si5 0.315991 0.000000 0.579474
Si Si6 0.817484 0.000000 0.089691
Si Si7 0.179560 0.649226 0.432949
Si Si8 0.818618 0.500000 0.693255
O O1 0.745372 0.872243 0.713786
O O2 0.750840 0.000000 0.633324
O O3 0.500000 0.000000 0.687571
O O4 0.257423 0.124500 0.552123
O O5 0.246521 0.372774 0.566699
O O6 0.230274 0.272117 0.479785
O O7 0.000000 0.252884 0.541539
O O8 0.217565 0.733170 0.298159
O O9 0.278616 0.875003 0.224271
O O10 0.000000 0.776747 0.234388
O O11 0.500000 0.671521 0.323948
O O12 0.729113 0.500000 0.329962
O O13 0.718829 0.698245 0.388268
O O14 0.500000 0.000000 0.580725
O O15 0.783285 0.000000 0.145679
O O16 0.000000 0.000000 0.081107
O O17 0.213111 0.500000 0.444471
O O18 0.000000 0.671944 0.420175
O O19 0.000000 0.500000 0.680027
#
# Coordination Sequence:
#
# PCOD8189472 Si02
#       8
#     4   8   8   8   4   4   8   4
#     4   9  20  37  60  85 112 149 198 241 279 337
#     4  11  22  40  62  89 121 159 202 249 301 356
#     4  11  21  39  63  88 117 157 200 242 293 353
#     4  10  20  34  56  89 122 151 192 245 298 349
#     4  11  23  39  58  87 124 161 199 245 298 357
#     4  12  24  40  63  90 119 158 205 249 296 358
#     4   9  18  35  59  85 114 151 198 247 295 353
#     4  12  26  42  59  86 123 160 198 247 301 354
#
# _framework density 19.287659000000001
#
# number of rings (size 3 to 8) (size 9 to 14) (size 15 to 20)
#    0.000    1.500    1.667    4.250    0.000    3.333 
#    0.000    3.333    0.000    3.000    0.000    0.000 
#    0.000    0.000    0.000    0.000    0.000    0.000 
#
# Total GULP energy -297718.049369 kJ/mol
# GULP energy per Si atom -12404.918724 kJ/mol
# Density = 1.924376 g / cm^3
# Si number density = 19.287659 Si / 1000 Ang^3
#
#
#
# Elastic Constant Matrix: (Units=GPa)
#
#
# Indices 1 2 3 4 5 6 
#
# 1 57.1272 24.8735 29.1766 0.0000 0.0000 0.0000
# 2 24.8735 131.0751 60.2834 0.0000 0.0000 0.0000
# 3 29.1766 60.2834 137.9029 0.0000 0.0000 0.0000
# 4 0.0000 0.0000 0.0000 57.5684 0.0000 0.0000
# 5 0.0000 0.0000 0.0000 0.0000 34.6857 0.0000
# 6 0.0000 0.0000 0.0000 0.0000 0.0000 25.7735
#
#
#
# Elastic Compliance Matrix: (Units=1/GPa)
#
#
# Indices 1 2 3 4 5 6 
#
# 1 0.020181 -0.002335 -0.003249 0.000000 0.000000 0.000000
# 2 -0.002335 0.009819 -0.003798 0.000000 0.000000 0.000000
# 3 -0.003249 -0.003798 0.009599 0.000000 0.000000 0.000000
# 4 0.000000 0.000000 0.000000 0.017371 0.000000 0.000000
# 5 0.000000 0.000000 0.000000 0.000000 0.028830 0.000000
# 6 0.000000 0.000000 0.000000 0.000000 0.000000 0.038800
#
#
# Mechanical properties :
#
#
# Convention : Reuss Voigt Hill
#
# Bulk Modulus (GPa) = 47.99778 61.64135 54.81956
# Shear Modulus (GPa) = 33.26459 37.72364 35.49412
#
# Velocity S-wave (km/s) = 4.15740 4.42729 4.29447
# Velocity P-wave (km/s) = 6.92709 7.62646 7.28517
#
# Compressibility (1/GPa) = 0.02083430
#
# Stress axis : x y z
#
# Youngs Moduli (GPa) = 49.55169 101.84020 104.17478
#
# Poissons Ratio (x) = 0.23784 0.33845
# Poissons Ratio (y) = 0.11573 0.39569
# Poissons Ratio (z) = 0.16098 0.38682
#
# Static dielectric constant tensor:
#      x y z
#    x 3.484230 0.000000 0.000000 
#    y 0.000000 3.393980 0.000000 
#    z 0.000000 0.000000 3.720480 
# 
# 
# High freq. dielectric constant tensor:
#      x y z
#    x 1.752190 0.000000 0.000000 
#    y 0.000000 1.738920 0.000000 
#    z 0.000000 0.000000 1.766860 
# 
# From -- ./inp_files/27075.got.cif
#   From: 2010.03.12/outbox.cif.g09.slc.cpg/sg44_14_cif.got.tgz:27075.got - 2010.04.14 02:36:11.
