data_PCOD8189183
_publ_section_title
;
Structure prediction by ZEFSAII (Michael W. Deem and Ramdas Pophale) SiO2 
 PCOD8189183
Probable space group: I M M 2
;
_chemical_formula_sum "Si O2"
_cell_formula_units_Z 56
_cell_length_a 8.824305
_cell_length_b 19.966502
_cell_length_c 15.482232
_cell_angle_alpha 90.000000
_cell_angle_beta 90.000000
_cell_angle_gamma 90.000000
_cell_volume 2727.822250
_symmetry_space_group_name_H-M "I M M 2"
_symmetry_group_IT_number 44
_symmetry_cell_setting 'orthorhombic'
loop_
_space_group_symop_operation_xyz
x,y,z
-x,-y,z
-x,y,z
x,-y,z
1/2+x,1/2+y,1/2+z
1/2-x,1/2-y,1/2+z
1/2-x,1/2+y,1/2+z
1/2+x,1/2-y,1/2+z
loop_
_atom_site_type_symbol
_atom_site_label
_atom_site_fract_x
_atom_site_fract_y
_atom_site_fract_z
Si Si1 0.821223 0.922691 0.622280
Si Si2 0.328309 0.108697 0.799838
Si Si3 0.173994 0.753458 0.383733
Si Si4 0.824607 0.704429 0.716271
Si Si5 0.672159 0.925061 0.117856
Si Si6 0.680865 0.208721 0.562589
Si Si7 0.661962 0.573494 0.456584
O O1 0.780424 0.901491 0.719235
O O2 0.736301 0.869122 0.560805
O O3 0.000000 0.915554 0.608968
O O4 0.770490 0.000000 0.603420
O O5 0.500000 0.092023 0.772085
O O6 0.311965 0.180239 0.844153
O O7 0.268657 0.060877 0.874503
O O8 0.256141 0.798137 0.312186
O O9 0.257860 0.756181 0.475859
O O10 0.000000 0.775587 0.396219
O O11 0.804456 0.626215 0.695255
O O12 0.739116 0.753694 0.649137
O O13 0.000000 0.726706 0.716606
O O14 0.500000 0.928305 0.087008
O O15 0.726273 0.000000 0.145439
O O16 0.758474 0.890011 0.037004
O O17 0.500000 0.210309 0.564321
O O18 0.500000 0.608742 0.433822
O O19 0.630529 0.500000 0.493430
#
# Coordination Sequence:
#
# PCOD8189183 Si02
#       7
#     8   8   8   8   8   8   8
#     4  11  24  42  65  92 126 168 214 269 330 391
#     4  11  22  36  57  87 120 158 204 254 313 378
#     4  11  24  41  62  90 123 162 211 264 318 382
#     4  11  22  39  64  92 123 161 206 261 320 380
#     4   9  19  36  57  83 117 157 200 248 307 371
#     4  12  25  42  65  94 128 170 215 266 324 388
#     4  10  20  32  49  78 115 154 195 239 294 360
#
# _framework density 20.529197
#
# number of rings (size 3 to 8) (size 9 to 14) (size 15 to 20)
#    0.000    1.286    1.429    4.714    0.000   10.000 
#    0.000    0.714    0.000    2.571    0.000    0.000 
#    0.000    0.000    0.000    0.000    0.000    0.000 
#
# Total GULP energy -346958.449907 kJ/mol
# GULP energy per Si atom -12391.373211 kJ/mol
# Density = 2.048247 g / cm^3
# Si number density = 20.529197 Si / 1000 Ang^3
#
#
#
# Elastic Constant Matrix: (Units=GPa)
#
#
# Indices 1 2 3 4 5 6 
#
# 1 118.1343 39.2734 28.2410 -0.0001 0.0000 0.0000
# 2 39.2734 84.0405 12.9216 -0.0001 0.0000 0.0000
# 3 28.2410 12.9216 78.7763 -0.0002 -0.0001 0.0001
# 4 -0.0001 -0.0001 -0.0002 25.9267 0.0000 0.0000
# 5 0.0000 0.0000 -0.0001 0.0000 40.0058 0.0000
# 6 0.0000 0.0000 0.0001 0.0000 0.0000 22.7533
#
#
#
# Elastic Compliance Matrix: (Units=1/GPa)
#
#
# Indices 1 2 3 4 5 6 
#
# 1 0.010711 -0.004529 -0.003097 0.000000 0.000000 0.000000
# 2 -0.004529 0.014122 -0.000693 0.000000 0.000000 0.000000
# 3 -0.003097 -0.000693 0.013918 0.000000 0.000000 0.000000
# 4 0.000000 0.000000 0.000000 0.038570 0.000000 0.000000
# 5 0.000000 0.000000 0.000000 0.000000 0.024996 0.000000
# 6 0.000000 0.000000 0.000000 0.000000 0.000000 0.043950
#
#
# Mechanical properties :
#
#
# Convention : Reuss Voigt Hill
#
# Bulk Modulus (GPa) = 45.22150 49.09145 47.15648
# Shear Modulus (GPa) = 29.36402 31.10484 30.23443
#
# Velocity S-wave (km/s) = 3.78610 3.89672 3.84181
# Velocity P-wave (km/s) = 6.41783 6.64912 6.53450
#
# Compressibility (1/GPa) = 0.02211338
#
# Stress axis : x y z
#
# Youngs Moduli (GPa) = 93.36180 70.81089 71.84918
#
# Poissons Ratio (x) = 0.32072 0.22251
# Poissons Ratio (y) = 0.42286 0.04977
# Poissons Ratio (z) = 0.28913 0.04905
#
# Static dielectric constant tensor:
#      x y z
#    x 3.330940 0.000000 0.000000 
#    y 0.000000 3.938940 0.000000 
#    z 0.000000 0.000000 3.655940 
# 
# 
# High freq. dielectric constant tensor:
#      x y z
#    x 1.816250 0.000000 0.000000 
#    y 0.000000 1.805920 0.000000 
#    z 0.000000 0.000000 1.787600 
# 
# From -- ./inp_files/16457.got.cif
#   From: 2010.03.12/outbox.cif.g09.slc.cpg/sg44_9_cif.got.tgz:16457.got - 2010.04.14 02:36:11.
