data_PCOD8189838
_publ_section_title
;
Structure prediction by ZEFSAII (Michael W. Deem and Ramdas Pophale) SiO2 
 PCOD8189838
Probable space group: I M M 2
;
_chemical_formula_sum "Si O2"
_cell_formula_units_Z 64
_cell_length_a 9.185824
_cell_length_b 9.672721
_cell_length_c 41.070497
_cell_angle_alpha 90.000000
_cell_angle_beta 90.000000
_cell_angle_gamma 90.000000
_cell_volume 3649.192214
_symmetry_space_group_name_H-M "I M M 2"
_symmetry_group_IT_number 44
_symmetry_cell_setting 'orthorhombic'
loop_
_space_group_symop_operation_xyz
x,y,z
-x,-y,z
-x,y,z
x,-y,z
1/2+x,1/2+y,1/2+z
1/2-x,1/2-y,1/2+z
1/2-x,1/2+y,1/2+z
1/2+x,1/2-y,1/2+z
loop_
_atom_site_type_symbol
_atom_site_label
_atom_site_fract_x
_atom_site_fract_y
_atom_site_fract_z
Si Si1 0.835531 0.835315 0.373950
Si Si2 0.167595 0.837866 0.678843
Si Si3 0.831040 0.659165 0.561184
Si Si4 0.330501 0.659935 0.000275
Si Si5 0.664226 0.835448 0.436353
Si Si6 0.829620 0.339913 0.810049
Si Si7 0.170651 0.159175 0.126361
Si Si8 0.827210 0.847325 0.751725
O O1 0.751102 0.775484 0.405321
O O2 0.754678 0.782878 0.341536
O O3 0.000000 0.778259 0.374202
O O4 0.834165 0.000000 0.374962
O O5 0.269346 0.751752 0.655264
O O6 0.220030 0.801416 0.715498
O O7 0.000000 0.794421 0.673477
O O8 0.187435 0.000000 0.671959
O O9 0.799163 0.500000 0.552492
O O10 0.778071 0.751827 0.531099
O O11 0.742189 0.707754 0.592631
O O12 0.000000 0.684658 0.568731
O O13 0.500000 0.682991 0.992791
O O14 0.296318 0.500000 0.007599
O O15 0.242221 0.715322 0.969188
O O16 0.500000 0.777747 0.435582
O O17 0.664909 0.000000 0.434973
O O18 0.796425 0.500000 0.803882
O O19 0.768222 0.259572 0.778541
O O20 0.000000 0.313335 0.815848
O O21 0.000000 0.182490 0.123373
O O22 0.210413 0.000000 0.133582
O O23 0.000000 0.852472 0.752600
O O24 0.764887 0.000000 0.759617
#
# Coordination Sequence:
#
# PCOD8189838 Si02
#       8
#     8   8   8   8   8   8   8   8
#     4   9  16  26  41  62  90 122 152 185 228 272
#     4   9  18  33  53  75  97 124 161 201 240 286
#     4   9  18  33  51  69  92 125 160 191 229 279
#     4   9  17  29  46  69  94 118 148 188 231 274
#     4   9  16  26  42  65  92 120 150 186 228 272
#     4   9  16  26  43  68  93 116 148 189 228 268
#     4  10  21  35  50  71  99 129 161 198 241 287
#     4   8  15  29  48  69  93 121 152 187 229 277
#
# _framework density 17.538126999999999
#
# number of rings (size 3 to 8) (size 9 to 14) (size 15 to 20)
#    0.000    3.000    0.000    1.875    0.000    5.500 
#    0.000    3.125    0.000    3.375    0.000    0.000 
#    0.000    0.000    0.000    0.000    0.000    0.000 
#
# Total GULP energy -396775.515704 kJ/mol
# GULP energy per Si atom -12399.234866 kJ/mol
# Density = 1.749821 g / cm^3
# Si number density = 17.538127 Si / 1000 Ang^3
#
#
#
# Elastic Constant Matrix: (Units=GPa)
#
#
# Indices 1 2 3 4 5 6 
#
# 1 82.4979 33.5489 74.7495 0.0000 0.0000 0.0000
# 2 33.5489 49.8561 67.1571 0.0000 0.0000 0.0000
# 3 74.7495 67.1571 184.5753 0.0000 0.0000 0.0000
# 4 0.0000 0.0000 0.0000 26.3475 0.0000 0.0000
# 5 0.0000 0.0000 0.0000 0.0000 29.2118 0.0000
# 6 0.0000 0.0000 0.0000 0.0000 0.0000 15.7503
#
#
#
# Elastic Compliance Matrix: (Units=1/GPa)
#
#
# Indices 1 2 3 4 5 6 
#
# 1 0.019748 -0.004934 -0.006202 0.000000 0.000000 0.000000
# 2 -0.004934 0.040570 -0.012763 0.000000 0.000000 0.000000
# 3 -0.006202 -0.012763 0.012573 0.000000 0.000000 0.000000
# 4 0.000000 0.000000 0.000000 0.037954 0.000000 0.000000
# 5 0.000000 0.000000 0.000000 0.000000 0.034233 0.000000
# 6 0.000000 0.000000 0.000000 0.000000 0.000000 0.063491
#
#
# Mechanical properties :
#
#
# Convention : Reuss Voigt Hill
#
# Bulk Modulus (GPa) = 39.85257 74.20450 57.02853
# Shear Modulus (GPa) = 18.88705 23.69352 21.29029
#
# Velocity S-wave (km/s) = 3.28520 3.67954 3.48795
# Velocity P-wave (km/s) = 6.09613 7.77524 6.98631
#
# Compressibility (1/GPa) = 0.02509249
#
# Stress axis : x y z
#
# Youngs Moduli (GPa) = 50.63885 24.64875 79.53286
#
# Poissons Ratio (x) = 0.12162 0.49328
# Poissons Ratio (y) = 0.24985 1.01508
# Poissons Ratio (z) = 0.31407 0.31459
#
# Static dielectric constant tensor:
#      x y z
#    x 3.175440 0.000000 0.000000 
#    y 0.000000 3.042840 0.000000 
#    z 0.000000 0.000000 3.465380 
# 
# 
# High freq. dielectric constant tensor:
#      x y z
#    x 1.666680 0.000000 0.000000 
#    y 0.000000 1.643860 0.000000 
#    z 0.000000 0.000000 1.690980 
# 
# From -- ./inp_files/27197.got.cif
#   From: 2010.03.12/outbox.cif.g09.slc.cpg/sg44_14_cif.got.tgz:27197.got - 2010.04.14 02:36:11.
