data_PCOD8189172
_publ_section_title
;
Structure prediction by ZEFSAII (Michael W. Deem and Ramdas Pophale) SiO2 
 PCOD8189172
Probable space group: I M M 2
;
_chemical_formula_sum "Si O2"
_cell_formula_units_Z 48
_cell_length_a 7.739328
_cell_length_b 9.252284
_cell_length_c 34.682369
_cell_angle_alpha 90.000000
_cell_angle_beta 90.000000
_cell_angle_gamma 90.000000
_cell_volume 2483.481690
_symmetry_space_group_name_H-M "I M M 2"
_symmetry_group_IT_number 44
_symmetry_cell_setting 'orthorhombic'
loop_
_space_group_symop_operation_xyz
x,y,z
-x,-y,z
-x,y,z
x,-y,z
1/2+x,1/2+y,1/2+z
1/2-x,1/2-y,1/2+z
1/2-x,1/2+y,1/2+z
1/2+x,1/2-y,1/2+z
loop_
_atom_site_type_symbol
_atom_site_label
_atom_site_fract_x
_atom_site_fract_y
_atom_site_fract_z
Si Si1 0.202878 0.335935 0.509570
Si Si2 0.500000 0.827187 0.728434
Si Si3 0.295148 0.660233 0.366331
Si Si4 0.500000 0.829265 0.642250
Si Si5 0.692159 0.672349 0.281153
Si Si6 0.698162 0.330867 0.086460
Si Si7 0.801298 0.341467 0.936256
O O1 0.272259 0.500000 0.511058
O O2 0.255655 0.256358 0.548811
O O3 0.288849 0.253720 0.474364
O O4 0.000000 0.331598 0.503551
O O5 0.500000 0.762810 0.685201
O O6 0.671015 0.768395 0.750045
O O7 0.500000 0.000000 0.728313
O O8 0.500000 0.649394 0.370706
O O9 0.214838 0.500000 0.371397
O O10 0.250284 0.723991 0.323964
O O11 0.213303 0.761634 0.399616
O O12 0.325485 0.779010 0.620515
O O13 0.500000 0.000000 0.645556
O O14 0.500000 0.731013 0.270691
O O15 0.688160 0.500000 0.281376
O O16 0.500000 0.296441 0.098449
O O17 0.721804 0.500000 0.077402
O O18 0.714596 0.500000 0.942205
O O19 0.000000 0.363367 0.926331
#
# Coordination Sequence:
#
# PCOD8189172 Si02
#       7
#     8   4   8   4   8   8   8
#     4  10  21  36  52  72  98 129 169 213 256 305
#     4   9  16  26  42  71 103 127 161 209 253 305
#     4   8  14  27  45  65  94 131 169 207 248 296
#     4   9  18  30  47  73 103 133 169 209 255 313
#     4   8  14  25  42  64  94 132 166 203 254 300
#     4   9  18  33  51  71 100 136 168 206 257 309
#     4  10  20  32  49  74 102 133 168 208 254 306
#
# _framework density 19.327703
#
# number of rings (size 3 to 8) (size 9 to 14) (size 15 to 20)
#    0.000    3.000    0.000    2.000    1.167    2.667 
#    1.500    3.333    0.000    0.000    0.000    2.333 
#    0.000    5.333    0.000    0.000    0.000    0.000 
#
# Total GULP energy -297476.287723 kJ/mol
# GULP energy per Si atom -12394.845322 kJ/mol
# Density = 1.928371 g / cm^3
# Si number density = 19.327703 Si / 1000 Ang^3
#
#
#
# Elastic Constant Matrix: (Units=GPa)
#
#
# Indices 1 2 3 4 5 6 
#
# 1 81.6545 24.8206 69.5625 0.0000 0.0000 0.0000
# 2 24.8206 78.8997 57.7761 0.0000 0.0000 0.0000
# 3 69.5625 57.7761 183.9205 0.0000 0.0000 0.0000
# 4 0.0000 0.0000 0.0000 20.8526 0.0000 0.0000
# 5 0.0000 0.0000 0.0000 0.0000 17.5075 0.0000
# 6 0.0000 0.0000 0.0000 0.0000 0.0000 10.9541
#
#
#
# Elastic Compliance Matrix: (Units=1/GPa)
#
#
# Indices 1 2 3 4 5 6 
#
# 1 0.018116 -0.000885 -0.006574 0.000000 0.000000 0.000000
# 2 -0.000885 0.016504 -0.004850 0.000000 0.000000 0.000000
# 3 -0.006574 -0.004850 0.009447 0.000000 0.000000 0.000000
# 4 0.000000 0.000000 0.000000 0.047956 0.000000 0.000000
# 5 0.000000 0.000000 0.000000 0.000000 0.057118 0.000000
# 6 0.000000 0.000000 0.000000 0.000000 0.000000 0.091290
#
#
# Mechanical properties :
#
#
# Convention : Reuss Voigt Hill
#
# Bulk Modulus (GPa) = 51.41474 72.08809 61.75142
# Shear Modulus (GPa) = 18.41404 22.68387 20.54896
#
# Velocity S-wave (km/s) = 3.08998 3.42957 3.26419
# Velocity P-wave (km/s) = 6.27614 7.28432 6.79894
#
# Compressibility (1/GPa) = 0.01944968
#
# Stress axis : x y z
#
# Youngs Moduli (GPa) = 55.19947 60.59094 105.85421
#
# Poissons Ratio (x) = 0.05364 0.69586
# Poissons Ratio (y) = 0.04886 0.51336
# Poissons Ratio (z) = 0.36287 0.29385
#
# Static dielectric constant tensor:
#      x y z
#    x 3.500510 0.000000 0.000000 
#    y 0.000000 3.451780 0.000000 
#    z 0.000000 0.000000 3.716920 
# 
# 
# High freq. dielectric constant tensor:
#      x y z
#    x 1.743860 0.000000 0.000000 
#    y 0.000000 1.710060 0.000000 
#    z 0.000000 0.000000 1.753760 
# 
# From -- ./inp_files/26952.got.cif
#   From: 2010.03.12/outbox.cif.g09.slc.cpg/sg44_14_cif.got.tgz:26952.got - 2010.04.14 02:36:11.
