data_PCOD8189971
_publ_section_title
;
Structure prediction by ZEFSAII (Michael W. Deem and Ramdas Pophale) SiO2 
 PCOD8189971
Probable space group: I M M 2
;
_chemical_formula_sum "Si O2"
_cell_formula_units_Z 40
_cell_length_a 28.370114
_cell_length_b 9.016333
_cell_length_c 7.745798
_cell_angle_alpha 90.000000
_cell_angle_beta 90.000000
_cell_angle_gamma 90.000000
_cell_volume 1981.331714
_symmetry_space_group_name_H-M "I M M 2"
_symmetry_group_IT_number 44
_symmetry_cell_setting 'orthorhombic'
loop_
_space_group_symop_operation_xyz
x,y,z
-x,-y,z
-x,y,z
x,-y,z
1/2+x,1/2+y,1/2+z
1/2-x,1/2-y,1/2+z
1/2-x,1/2+y,1/2+z
1/2+x,1/2-y,1/2+z
loop_
_atom_site_type_symbol
_atom_site_label
_atom_site_fract_x
_atom_site_fract_y
_atom_site_fract_z
Si Si1 0.299623 0.674342 0.699750
Si Si2 0.900081 0.332291 0.704372
Si Si3 0.111657 0.673463 0.320885
Si Si4 0.700157 0.830765 0.346899
Si Si5 0.944876 0.828430 0.017921
O O1 0.306398 0.500000 0.712287
O O2 0.336975 0.751466 0.825991
O O3 0.310678 0.725623 0.506906
O O4 0.247017 0.724588 0.750070
O O5 0.915131 0.500000 0.752039
O O6 0.913226 0.296171 0.505561
O O7 0.843655 0.315070 0.718061
O O8 0.927615 0.222023 0.829545
O O9 0.118557 0.500000 0.287205
O O10 0.079840 0.737695 0.169006
O O11 0.706288 0.000000 0.411229
O O12 0.000000 0.798847 0.031567
O O13 0.931996 0.000000 0.041081
#
# Coordination Sequence:
#
# PCOD8189971 Si02
#       5
#     8   8   8   8   8
#     4  11  22  36  58  90 126 167 213 257 311 371
#     4  10  22  41  65  92 125 166 210 259 313 375
#     4  11  23  41  65  93 128 167 211 260 313 377
#     4  10  21  37  57  86 125 166 208 257 312 371
#     4  11  25  44  66  94 127 164 210 266 325 380
#
# _framework density 20.18844
#
# number of rings (size 3 to 8) (size 9 to 14) (size 15 to 20)
#    0.000    1.400    2.000    3.000    0.000    7.200 
#    0.000    4.000    0.000    0.000    0.000    0.000 
#    0.000    0.000    0.000    0.000    0.000    0.000 
#
# Total GULP energy -248087.699892 kJ/mol
# GULP energy per Si atom -12404.384995 kJ/mol
# Density = 2.014249 g / cm^3
# Si number density = 20.188440 Si / 1000 Ang^3
#
#
#
# Elastic Constant Matrix: (Units=GPa)
#
#
# Indices 1 2 3 4 5 6 
#
# 1 63.7847 39.4903 19.5115 0.0000 0.0000 0.0000
# 2 39.4903 100.4411 47.3686 0.0000 0.0000 0.0000
# 3 19.5115 47.3686 110.0148 0.0000 0.0000 0.0000
# 4 0.0000 0.0000 0.0000 24.0214 0.0000 0.0000
# 5 0.0000 0.0000 0.0000 0.0000 26.7472 0.0000
# 6 0.0000 0.0000 0.0000 0.0000 0.0000 28.9144
#
#
#
# Elastic Compliance Matrix: (Units=1/GPa)
#
#
# Indices 1 2 3 4 5 6 
#
# 1 0.020726 -0.008050 -0.000210 0.000000 0.000000 0.000000
# 2 -0.008050 0.015619 -0.005297 0.000000 0.000000 0.000000
# 3 -0.000210 -0.005297 0.011408 0.000000 0.000000 0.000000
# 4 0.000000 0.000000 0.000000 0.041630 0.000000 0.000000
# 5 0.000000 0.000000 0.000000 0.000000 0.037387 0.000000
# 6 0.000000 0.000000 0.000000 0.000000 0.000000 0.034585
#
#
# Mechanical properties :
#
#
# Convention : Reuss Voigt Hill
#
# Bulk Modulus (GPa) = 48.45270 54.10906 51.28088
# Shear Modulus (GPa) = 25.59536 27.12796 26.36166
#
# Velocity S-wave (km/s) = 3.56451 3.66968 3.61748
# Velocity P-wave (km/s) = 6.40260 6.69444 6.55015
#
# Compressibility (1/GPa) = 0.02063869
#
# Stress axis : x y z
#
# Youngs Moduli (GPa) = 48.24940 64.02332 87.65919
#
# Poissons Ratio (x) = 0.51537 0.01839
# Poissons Ratio (y) = 0.38839 0.46437
# Poissons Ratio (z) = 0.01012 0.33916
#
# Static dielectric constant tensor:
#      x y z
#    x 3.766210 0.000000 0.000000 
#    y 0.000000 3.710040 0.000000 
#    z 0.000000 0.000000 3.667340 
# 
# 
# High freq. dielectric constant tensor:
#      x y z
#    x 1.790010 0.000000 0.000000 
#    y 0.000000 1.792620 0.000000 
#    z 0.000000 0.000000 1.794330 
# 
# From -- ./inp_files/4596.got.cif
#   From: 2010.03.12/outbox.cif.g09.slc.cpg/sg44_3_cif.got.tgz:4596.got - 2010.04.14 02:36:11.
