data_PCOD8189266
_publ_section_title
;
Structure prediction by ZEFSAII (Michael W. Deem and Ramdas Pophale) SiO2 
 PCOD8189266
Probable space group: I M M 2
;
_chemical_formula_sum "Si O2"
_cell_formula_units_Z 64
_cell_length_a 9.557108
_cell_length_b 9.185930
_cell_length_c 41.273692
_cell_angle_alpha 90.000000
_cell_angle_beta 90.000000
_cell_angle_gamma 90.000000
_cell_volume 3623.455603
_symmetry_space_group_name_H-M "I M M 2"
_symmetry_group_IT_number 44
_symmetry_cell_setting 'orthorhombic'
loop_
_space_group_symop_operation_xyz
x,y,z
-x,-y,z
-x,y,z
x,-y,z
1/2+x,1/2+y,1/2+z
1/2-x,1/2-y,1/2+z
1/2-x,1/2+y,1/2+z
1/2+x,1/2-y,1/2+z
loop_
_atom_site_type_symbol
_atom_site_label
_atom_site_fract_x
_atom_site_fract_y
_atom_site_fract_z
Si Si1 0.344141 0.173265 0.026780
Si Si2 0.334833 0.668122 0.160046
Si Si3 0.337738 0.329603 0.467335
Si Si4 0.833563 0.335631 0.904206
Si Si5 0.338139 0.670583 0.714482
Si Si6 0.837873 0.169377 0.841143
Si Si7 0.338545 0.832287 0.779576
Si Si8 0.166210 0.338054 0.597597
O O1 0.500000 0.236381 0.020826
O O2 0.242752 0.232256 0.998729
O O3 0.285150 0.220993 0.062216
O O4 0.349261 0.000000 0.026259
O O5 0.500000 0.691498 0.164366
O O6 0.292819 0.500000 0.162220
O O7 0.257367 0.755937 0.187739
O O8 0.282026 0.728541 0.125397
O O9 0.500000 0.295033 0.472833
O O10 0.311119 0.500000 0.462050
O O11 0.277170 0.247691 0.435878
O O12 0.776712 0.500000 0.904655
O O13 0.778047 0.256599 0.871946
O O14 0.000000 0.330031 0.904288
O O15 0.500000 0.705363 0.706914
O O16 0.307869 0.500000 0.714878
O O17 0.294638 0.735276 0.749102
O O18 0.752827 0.221483 0.809810
O O19 0.000000 0.204473 0.834759
O O20 0.813694 0.000000 0.848311
O O21 0.500000 0.809620 0.788751
O O22 0.306243 0.000000 0.771038
O O23 0.227341 0.500000 0.604533
O O24 0.000000 0.347387 0.596948
#
# Coordination Sequence:
#
# PCOD8189266 Si02
#       8
#     8   8   8   8   8   8   8   8
#     4   8  14  26  45  67  90 119 154 189 227 273
#     4  10  20  33  51  75 100 127 162 202 242 285
#     4   9  16  27  45  67  89 115 150 190 228 268
#     4   9  17  29  45  65  90 120 151 184 227 276
#     4  10  21  36  53  73  98 130 165 198 237 286
#     4   9  17  30  49  71  92 116 151 192 228 267
#     4   9  18  33  51  70  95 126 155 186 231 284
#     4   8  14  27  47  68  92 123 156 191 234 282
#
# _framework density 17.662697999999999
#
# number of rings (size 3 to 8) (size 9 to 14) (size 15 to 20)
#    0.000    3.000    0.000    1.875    0.000    4.000 
#    0.000    3.125    0.000    7.125    0.000    0.000 
#    0.000    0.000    0.000    0.000    0.000    0.000 
#
# Total GULP energy -396745.783951 kJ/mol
# GULP energy per Si atom -12398.305748 kJ/mol
# Density = 1.762250 g / cm^3
# Si number density = 17.662698 Si / 1000 Ang^3
#
#
#
# Elastic Constant Matrix: (Units=GPa)
#
#
# Indices 1 2 3 4 5 6 
#
# 1 45.8768 34.0580 62.2791 0.0000 0.0000 0.0000
# 2 34.0580 86.0216 79.5742 0.0001 0.0000 0.0000
# 3 62.2791 79.5742 189.5295 0.0001 0.0000 0.0000
# 4 0.0000 0.0001 0.0001 29.3716 0.0000 0.0000
# 5 0.0000 0.0000 0.0000 0.0000 31.4288 0.0000
# 6 0.0000 0.0000 0.0000 0.0000 0.0000 16.5614
#
#
#
# Elastic Compliance Matrix: (Units=1/GPa)
#
#
# Indices 1 2 3 4 5 6 
#
# 1 0.041284 -0.006207 -0.010960 0.000000 0.000000 0.000000
# 2 -0.006207 0.019940 -0.006332 0.000000 0.000000 0.000000
# 3 -0.010960 -0.006332 0.011536 0.000000 0.000000 0.000000
# 4 0.000000 0.000000 0.000000 0.034047 0.000000 0.000000
# 5 0.000000 0.000000 0.000000 0.000000 0.031818 0.000000
# 6 0.000000 0.000000 0.000000 0.000000 0.000000 0.060381
#
#
# Mechanical properties :
#
#
# Convention : Reuss Voigt Hill
#
# Bulk Modulus (GPa) = 38.81678 74.80563 56.81120
# Shear Modulus (GPa) = 19.63933 25.17344 22.40639
#
# Velocity S-wave (km/s) = 3.33815 3.77932 3.56556
# Velocity P-wave (km/s) = 6.07306 7.84147 7.01323
#
# Compressibility (1/GPa) = 0.02576205
#
# Stress axis : x y z
#
# Youngs Moduli (GPa) = 24.22272 50.15005 86.68331
#
# Poissons Ratio (x) = 0.31127 0.95003
# Poissons Ratio (y) = 0.15035 0.54891
# Poissons Ratio (z) = 0.26548 0.31757
#
# Static dielectric constant tensor:
#      x y z
#    x 3.053550 0.000000 0.000000 
#    y 0.000000 3.222370 0.000000 
#    z 0.000000 0.000000 3.611780 
# 
# 
# High freq. dielectric constant tensor:
#      x y z
#    x 1.649990 0.000000 0.000000 
#    y 0.000000 1.670380 0.000000 
#    z 0.000000 0.000000 1.698500 
# 
# From -- ./inp_files/27447.got.cif
#   From: 2010.03.12/outbox.cif.g09.slc.cpg/sg44_14_cif.got.tgz:27447.got - 2010.04.14 02:36:11.
