data_PCOD8189669
_publ_section_title
;
Structure prediction by ZEFSAII (Michael W. Deem and Ramdas Pophale) SiO2 
 PCOD8189669
Probable space group: I M M 2
;
_chemical_formula_sum "Si O2"
_cell_formula_units_Z 64
_cell_length_a 24.032873
_cell_length_b 9.109939
_cell_length_c 14.726392
_cell_angle_alpha 90.000000
_cell_angle_beta 90.000000
_cell_angle_gamma 90.000000
_cell_volume 3224.166915
_symmetry_space_group_name_H-M "I M M 2"
_symmetry_group_IT_number 44
_symmetry_cell_setting 'orthorhombic'
loop_
_space_group_symop_operation_xyz
x,y,z
-x,-y,z
-x,y,z
x,-y,z
1/2+x,1/2+y,1/2+z
1/2-x,1/2-y,1/2+z
1/2-x,1/2+y,1/2+z
1/2+x,1/2-y,1/2+z
loop_
_atom_site_type_symbol
_atom_site_label
_atom_site_fract_x
_atom_site_fract_y
_atom_site_fract_z
Si Si1 0.884156 0.172313 0.198250
Si Si2 0.239551 0.168170 0.197313
Si Si3 0.235832 0.665336 0.377921
Si Si4 0.563749 0.169537 0.534807
Si Si5 0.355717 0.667361 0.402573
Si Si6 0.386393 0.168385 0.889768
Si Si7 0.346262 0.671061 0.191292
Si Si8 0.062907 0.830499 0.552377
O O1 0.822000 0.199157 0.157039
O O2 0.927017 0.238624 0.126396
O O3 0.892627 0.251823 0.293732
O O4 0.895582 0.000000 0.211686
O O5 0.236536 0.209857 0.302637
O O6 0.289287 0.259474 0.150994
O O7 0.256047 0.000000 0.187279
O O8 0.239091 0.500000 0.334059
O O9 0.291538 0.685010 0.439561
O O10 0.176988 0.681430 0.429970
O O11 0.500000 0.190682 0.504130
O O12 0.603054 0.225323 0.454210
O O13 0.577566 0.000000 0.553960
O O14 0.376133 0.500000 0.417037
O O15 0.356295 0.711643 0.296400
O O16 0.403571 0.000000 0.875895
O O17 0.427970 0.240918 0.960510
O O18 0.339809 0.500000 0.178334
O O19 0.398103 0.730518 0.132909
O O20 0.000000 0.807347 0.585505
O O21 0.075600 0.000000 0.531128
#
# Coordination Sequence:
#
# PCOD8189669 Si02
#       8
#     8   8   8   8   8   8   8   8
#     4  10  21  38  60  84 110 143 182 222 269 327
#     4   9  17  30  53  85 114 138 171 218 271 327
#     4   8  16  32  54  81 112 143 175 214 265 327
#     4  11  25  41  55  77 109 144 186 232 275 322
#     4   9  18  35  59  84 110 141 178 222 272 325
#     4  10  20  36  59  85 114 145 177 221 276 326
#     4   9  19  36  58  83 111 145 183 223 270 323
#     4  10  22  39  56  77 108 147 192 233 266 313
#
# _framework density 19.850090000000002
#
# number of rings (size 3 to 8) (size 9 to 14) (size 15 to 20)
#    0.000    2.500    0.000    2.250    0.000    7.750 
#    0.000    5.000    0.000    0.000    0.000    0.000 
#    0.000    0.000    0.000    0.000    0.000    0.000 
#
# Total GULP energy -396639.451550 kJ/mol
# GULP energy per Si atom -12394.982861 kJ/mol
# Density = 1.980491 g / cm^3
# Si number density = 19.850090 Si / 1000 Ang^3
#
#
#
# Elastic Constant Matrix: (Units=GPa)
#
#
# Indices 1 2 3 4 5 6 
#
# 1 78.6378 32.3710 15.1714 0.0000 0.0000 0.0000
# 2 32.3710 76.0641 24.9026 0.0000 0.0000 0.0000
# 3 15.1714 24.9026 44.2128 0.0000 0.0000 0.0000
# 4 0.0000 0.0000 0.0000 25.8821 0.0000 0.0000
# 5 0.0000 0.0000 0.0000 0.0000 33.6147 0.0000
# 6 0.0000 0.0000 0.0000 0.0000 0.0000 31.6022
#
#
#
# Elastic Compliance Matrix: (Units=1/GPa)
#
#
# Indices 1 2 3 4 5 6 
#
# 1 0.015557 -0.005975 -0.001973 0.000000 0.000000 0.000000
# 2 -0.005975 0.018414 -0.008321 0.000000 0.000000 0.000000
# 3 -0.001973 -0.008321 0.027982 0.000000 0.000000 0.000000
# 4 0.000000 0.000000 0.000000 0.038637 0.000000 0.000000
# 5 0.000000 0.000000 0.000000 0.000000 0.029749 0.000000
# 6 0.000000 0.000000 0.000000 0.000000 0.000000 0.031643
#
#
# Mechanical properties :
#
#
# Convention : Reuss Voigt Hill
#
# Bulk Modulus (GPa) = 33.99696 38.20054 36.09875
# Shear Modulus (GPa) = 24.47099 26.65112 25.56106
#
# Velocity S-wave (km/s) = 3.51492 3.66815 3.59235
# Velocity P-wave (km/s) = 5.79973 6.10137 5.95246
#
# Compressibility (1/GPa) = 0.02941439
#
# Stress axis : x y z
#
# Youngs Moduli (GPa) = 64.28143 54.30732 35.73751
#
# Poissons Ratio (x) = 0.32446 0.07051
# Poissons Ratio (y) = 0.38405 0.29738
# Poissons Ratio (z) = 0.12683 0.45191
#
# Static dielectric constant tensor:
#      x y z
#    x 3.866490 0.000000 0.000000 
#    y 0.000000 3.599770 0.000000 
#    z 0.000000 0.000000 3.339280 
# 
# 
# High freq. dielectric constant tensor:
#      x y z
#    x 1.782960 0.000000 0.000000 
#    y 0.000000 1.774940 0.000000 
#    z 0.000000 0.000000 1.748580 
# 
# From -- ./inp_files/16831.got.cif
#   From: 2010.03.12/outbox.cif.g09.slc.cpg/sg44_9_cif.got.tgz:16831.got - 2010.04.14 02:36:11.
