data_PCOD8189146
_publ_section_title
;
Structure prediction by ZEFSAII (Michael W. Deem and Ramdas Pophale) SiO2 
 PCOD8189146
Probable space group: I M M 2
;
_chemical_formula_sum "Si O2"
_cell_formula_units_Z 48
_cell_length_a 8.526780
_cell_length_b 11.971323
_cell_length_c 25.867380
_cell_angle_alpha 90.000000
_cell_angle_beta 90.000000
_cell_angle_gamma 90.000000
_cell_volume 2640.460346
_symmetry_space_group_name_H-M "I M M 2"
_symmetry_group_IT_number 44
_symmetry_cell_setting 'orthorhombic'
loop_
_space_group_symop_operation_xyz
x,y,z
-x,-y,z
-x,y,z
x,-y,z
1/2+x,1/2+y,1/2+z
1/2-x,1/2-y,1/2+z
1/2-x,1/2+y,1/2+z
1/2+x,1/2-y,1/2+z
loop_
_atom_site_type_symbol
_atom_site_label
_atom_site_fract_x
_atom_site_fract_y
_atom_site_fract_z
Si Si1 0.814116 0.764046 0.561620
Si Si2 0.313852 0.000000 0.694602
Si Si3 0.314216 0.000000 0.577861
Si Si4 0.313430 0.126735 0.851989
Si Si5 0.186455 0.279385 0.247928
Si Si6 0.186333 0.625274 0.465444
Si Si7 0.313563 0.626238 0.657938
O O1 0.756751 0.889659 0.552272
O O2 0.745792 0.700459 0.511410
O O3 0.747424 0.707180 0.613165
O O4 0.000000 0.758745 0.564560
O O5 0.244716 0.890175 0.721277
O O6 0.500000 0.000000 0.697971
O O7 0.255661 0.000000 0.636350
O O8 0.500000 0.000000 0.572000
O O9 0.500000 0.124160 0.851483
O O10 0.253730 0.214509 0.807774
O O11 0.254069 0.166599 0.908699
O O12 0.254243 0.000000 0.840365
O O13 0.244145 0.172714 0.214268
O O14 0.000000 0.281034 0.246800
O O15 0.247269 0.500000 0.474964
O O16 0.000000 0.628228 0.466548
O O17 0.500000 0.627196 0.655196
O O18 0.248191 0.500000 0.651399
#
# Coordination Sequence:
#
# PCOD8189146 Si02
#       7
#     8   4   4   8   8   8   8
#     4  11  21  33  50  72 101 130 162 202 248 298
#     4   9  14  23  43  69  93 117 145 190 245 288
#     4  11  21  35  53  73  99 127 161 200 243 294
#     4   8  12  20  39  66  93 122 157 197 248 295
#     4   9  14  23  42  68  95 122 156 201 249 292
#     4   8  15  27  43  66  97 130 159 195 243 290
#     4  10  20  32  47  70 101 134 168 203 242 291
#
# _framework density 18.178647999999999
#
# number of rings (size 3 to 8) (size 9 to 14) (size 15 to 20)
#    0.000    2.667    2.500    2.250    0.000    1.000 
#    0.000    0.000    1.833    0.000    0.000    2.333 
#    0.000    2.667    0.000    0.000    0.000    0.000 
#
# Total GULP energy -297335.620695 kJ/mol
# GULP energy per Si atom -12388.984196 kJ/mol
# Density = 1.813727 g / cm^3
# Si number density = 18.178648 Si / 1000 Ang^3
#
#
#
# Elastic Constant Matrix: (Units=GPa)
#
#
# Indices 1 2 3 4 5 6 
#
# 1 16.2029 12.8015 13.1316 0.0000 0.0000 0.0000
# 2 12.8015 126.5569 73.2810 0.0000 0.0000 0.0000
# 3 13.1316 73.2810 161.1230 0.0000 0.0000 0.0000
# 4 0.0000 0.0000 0.0000 25.1619 0.0000 0.0000
# 5 0.0000 0.0000 0.0000 0.0000 15.0054 0.0000
# 6 0.0000 0.0000 0.0000 0.0000 0.0000 16.5917
#
#
#
# Elastic Compliance Matrix: (Units=1/GPa)
#
#
# Indices 1 2 3 4 5 6 
#
# 1 0.068341 -0.005006 -0.003293 0.000000 0.000000 0.000000
# 2 -0.005006 0.011093 -0.004637 0.000000 0.000000 0.000000
# 3 -0.003293 -0.004637 0.008584 0.000000 0.000000 0.000000
# 4 0.000000 0.000000 0.000000 0.039743 0.000000 0.000000
# 5 0.000000 0.000000 0.000000 0.000000 0.066643 0.000000
# 6 0.000000 0.000000 0.000000 0.000000 0.000000 0.060271
#
#
# Mechanical properties :
#
#
# Convention : Reuss Voigt Hill
#
# Bulk Modulus (GPa) = 16.09122 55.81232 35.95177
# Shear Modulus (GPa) = 16.59678 24.99637 20.79658
#
# Velocity S-wave (km/s) = 3.02484 3.71218 3.38599
# Velocity P-wave (km/s) = 4.59026 7.01017 5.92507
#
# Compressibility (1/GPa) = 0.06214567
#
# Stress axis : x y z
#
# Youngs Moduli (GPa) = 14.63241 90.14591 116.49667
#
# Poissons Ratio (x) = 0.45128 0.38363
# Poissons Ratio (y) = 0.07325 0.54023
# Poissons Ratio (z) = 0.04819 0.41803
#
# Static dielectric constant tensor:
#      x y z
#    x 2.807770 0.000000 0.000000 
#    y 0.000000 3.949740 0.000000 
#    z 0.000000 0.000000 3.894560 
# 
# 
# High freq. dielectric constant tensor:
#      x y z
#    x 1.649260 0.000000 0.000000 
#    y 0.000000 1.690150 0.000000 
#    z 0.000000 0.000000 1.716440 
# 
# From -- ./inp_files/25415.got.cif
#   From: 2010.03.12/outbox.cif.g09.slc.cpg/sg44_13_cif.got.tgz:25415.got - 2010.04.14 02:36:11.
