data_PCOD8189327
_publ_section_title
;
Structure prediction by ZEFSAII (Michael W. Deem and Ramdas Pophale) SiO2 
 PCOD8189327
Probable space group: I M M 2
;
_chemical_formula_sum "Si O2"
_cell_formula_units_Z 64
_cell_length_a 19.308465
_cell_length_b 9.057478
_cell_length_c 20.683667
_cell_angle_alpha 90.000000
_cell_angle_beta 90.000000
_cell_angle_gamma 90.000000
_cell_volume 3617.283724
_symmetry_space_group_name_H-M "I M M 2"
_symmetry_group_IT_number 44
_symmetry_cell_setting 'orthorhombic'
loop_
_space_group_symop_operation_xyz
x,y,z
-x,-y,z
-x,y,z
x,-y,z
1/2+x,1/2+y,1/2+z
1/2-x,1/2-y,1/2+z
1/2-x,1/2+y,1/2+z
1/2+x,1/2-y,1/2+z
loop_
_atom_site_type_symbol
_atom_site_label
_atom_site_fract_x
_atom_site_fract_y
_atom_site_fract_z
Si Si1 0.076719 0.673388 0.849450
Si Si2 0.202840 0.326389 0.281184
Si Si3 0.078655 0.328086 0.701462
Si Si4 0.578279 0.329154 0.727655
Si Si5 0.921421 0.328035 0.092116
Si Si6 0.795012 0.169030 0.899014
Si Si7 0.209077 0.173566 0.654624
Si Si8 0.705994 0.670772 0.543803
O O1 0.084758 0.500000 0.856264
O O2 0.088497 0.721575 0.775472
O O3 0.132166 0.748108 0.895574
O O4 0.000000 0.722497 0.871889
O O5 0.186881 0.500000 0.283206
O O6 0.130860 0.236622 0.280359
O O7 0.240950 0.270307 0.346109
O O8 0.249089 0.283043 0.219203
O O9 0.096212 0.500000 0.693060
O O10 0.130811 0.233097 0.658178
O O11 0.000000 0.295946 0.678840
O O12 0.500000 0.310092 0.753725
O O13 0.594894 0.500000 0.713405
O O14 0.589738 0.235664 0.663229
O O15 0.901554 0.500000 0.094089
O O16 0.870646 0.241888 0.044153
O O17 0.000000 0.304043 0.068060
O O18 0.810781 0.000000 0.882784
O O19 0.764363 0.188913 0.971068
O O20 0.244018 0.245760 0.592528
O O21 0.207288 0.000000 0.644203
O O22 0.701035 0.500000 0.563779
#
# Coordination Sequence:
#
# PCOD8189327 Si02
#       8
#     8   8   8   8   8   8   8   8
#     4   9  18  32  51  77 108 142 178 214 256 309
#     4  10  20  35  55  79 107 138 176 220 265 313
#     4   9  18  33  54  81 111 141 176 218 264 314
#     4  10  20  33  53  82 110 136 172 217 265 316
#     4  10  20  34  52  75 106 143 180 217 259 310
#     4  10  22  38  53  75 106 142 181 219 261 312
#     4  11  21  34  56  82 108 138 176 224 270 313
#     4  11  23  37  54  75 106 144 181 221 264 315
#
# _framework density 17.692833
#
# number of rings (size 3 to 8) (size 9 to 14) (size 15 to 20)
#    0.000    2.000    2.500    2.250    0.000    4.500 
#    0.000    3.750    0.000    0.750    0.000    1.750 
#    0.000    0.000    0.000    0.000    0.000    0.000 
#
# Total GULP energy -396841.871220 kJ/mol
# GULP energy per Si atom -12401.308476 kJ/mol
# Density = 1.765256 g / cm^3
# Si number density = 17.692833 Si / 1000 Ang^3
#
#
#
# Elastic Constant Matrix: (Units=GPa)
#
#
# Indices 1 2 3 4 5 6 
#
# 1 107.1663 50.5485 52.8609 0.0000 0.0000 0.0000
# 2 50.5485 78.9401 42.1839 0.0000 0.0000 0.0000
# 3 52.8609 42.1839 93.8002 0.0000 0.0000 0.0000
# 4 0.0000 0.0000 0.0000 23.6445 0.0000 0.0000
# 5 0.0000 0.0000 0.0000 0.0000 24.9762 0.0000
# 6 0.0000 0.0000 0.0000 0.0000 0.0000 35.2524
#
#
#
# Elastic Compliance Matrix: (Units=1/GPa)
#
#
# Indices 1 2 3 4 5 6 
#
# 1 0.015286 -0.006825 -0.005545 0.000000 0.000000 0.000000
# 2 -0.006825 0.019723 -0.005023 0.000000 0.000000 0.000000
# 3 -0.005545 -0.005023 0.016045 0.000000 0.000000 0.000000
# 4 0.000000 0.000000 0.000000 0.042293 0.000000 0.000000
# 5 0.000000 0.000000 0.000000 0.000000 0.040038 0.000000
# 6 0.000000 0.000000 0.000000 0.000000 0.000000 0.028367
#
#
# Mechanical properties :
#
#
# Convention : Reuss Voigt Hill
#
# Bulk Modulus (GPa) = 61.47586 63.45481 62.46534
# Shear Modulus (GPa) = 24.75743 25.72885 25.24314
#
# Velocity S-wave (km/s) = 3.74477 3.81753 3.78132
# Velocity P-wave (km/s) = 7.31569 7.44137 7.37880
#
# Compressibility (1/GPa) = 0.01626655
#
# Stress axis : x y z
#
# Youngs Moduli (GPa) = 65.42138 50.70339 62.32512
#
# Poissons Ratio (x) = 0.34605 0.34558
# Poissons Ratio (y) = 0.44649 0.31309
# Poissons Ratio (z) = 0.36275 0.25471
#
# Static dielectric constant tensor:
#      x y z
#    x 3.392770 0.000000 0.000000 
#    y 0.000000 3.283210 0.000000 
#    z 0.000000 0.000000 3.081930 
# 
# 
# High freq. dielectric constant tensor:
#      x y z
#    x 1.685010 0.000000 0.000000 
#    y 0.000000 1.690810 0.000000 
#    z 0.000000 0.000000 1.659390 
# 
# From -- ./inp_files/22297.got.cif
#   From: 2010.03.12/outbox.cif.g09.slc.cpg/sg44_12_cif.got.tgz:22297.got - 2010.04.14 02:36:11.
