data_PCOD8189695
_publ_section_title
;
Structure prediction by ZEFSAII (Michael W. Deem and Ramdas Pophale) SiO2 
 PCOD8189695
Probable space group: I M M 2
;
_chemical_formula_sum "Si O2"
_cell_formula_units_Z 40
_cell_length_a 17.487071
_cell_length_b 20.840685
_cell_length_c 5.166193
_cell_angle_alpha 90.000000
_cell_angle_beta 90.000000
_cell_angle_gamma 90.000000
_cell_volume 1882.780490
_symmetry_space_group_name_H-M "I M M 2"
_symmetry_group_IT_number 44
_symmetry_cell_setting 'orthorhombic'
loop_
_space_group_symop_operation_xyz
x,y,z
-x,-y,z
-x,y,z
x,-y,z
1/2+x,1/2+y,1/2+z
1/2-x,1/2-y,1/2+z
1/2-x,1/2+y,1/2+z
1/2+x,1/2-y,1/2+z
loop_
_atom_site_type_symbol
_atom_site_label
_atom_site_fract_x
_atom_site_fract_y
_atom_site_fract_z
Si Si1 0.334527 0.074270 0.766730
Si Si2 0.586142 0.388965 0.896077
Si Si3 0.911408 0.625421 0.751041
Si Si4 0.914010 0.771067 0.704428
Si Si5 0.832111 0.116280 0.891642
O O1 0.363508 0.106018 0.502518
O O2 0.257851 0.109059 0.860344
O O3 0.319407 0.000000 0.711658
O O4 0.394313 0.081469 0.001968
O O5 0.500000 0.414403 0.854925
O O6 0.639333 0.413099 0.662129
O O7 0.586954 0.310705 0.931478
O O8 0.622609 0.419343 0.157819
O O9 0.889132 0.697751 0.667600
O O10 0.000000 0.617836 0.822785
O O11 0.855098 0.807794 0.895965
O O12 0.000000 0.774642 0.822816
#
# Coordination Sequence:
#
# PCOD8189695 Si02
#       5
#     8   8   8   8   8
#     4  12  27  44  62  87 125 172 216 260 307 360
#     4   9  17  33  60  93 127 161 191 234 304 377
#     4  11  25  43  67  92 118 159 213 267 320 375
#     4   8  19  36  63  96 125 153 191 248 314 374
#     4  10  20  36  61  90 127 163 197 249 311 372
#
# _framework density 21.245173000000001
#
# number of rings (size 3 to 8) (size 9 to 14) (size 15 to 20)
#    1.200    0.800    0.000    3.600    2.800    4.000 
#    0.000    0.000    0.000    6.600    0.000    0.000 
#    0.000    0.000    0.000    0.000    0.000    0.000 
#
# Total GULP energy -247816.724883 kJ/mol
# GULP energy per Si atom -12390.836244 kJ/mol
# Density = 2.119682 g / cm^3
# Si number density = 21.245173 Si / 1000 Ang^3
#
#
#
# Elastic Constant Matrix: (Units=GPa)
#
#
# Indices 1 2 3 4 5 6 
#
# 1 99.0872 35.0828 34.4374 0.0000 0.0000 0.0000
# 2 35.0828 67.3292 9.2415 0.0000 0.0000 0.0000
# 3 34.4374 9.2415 141.5606 0.0000 0.0000 0.0000
# 4 0.0000 0.0000 0.0000 10.4785 0.0000 0.0000
# 5 0.0000 0.0000 0.0000 0.0000 44.1188 0.0000
# 6 0.0000 0.0000 0.0000 0.0000 0.0000 1.9759
#
#
#
# Elastic Compliance Matrix: (Units=1/GPa)
#
#
# Indices 1 2 3 4 5 6 
#
# 1 0.013413 -0.006600 -0.002832 0.000000 0.000000 0.000000
# 2 -0.006600 0.018235 0.000415 0.000000 0.000000 0.000000
# 3 -0.002832 0.000415 0.007726 0.000000 0.000000 0.000000
# 4 0.000000 0.000000 0.000000 0.095434 0.000000 0.000000
# 5 0.000000 0.000000 0.000000 0.000000 0.022666 0.000000
# 6 0.000000 0.000000 0.000000 0.000000 0.000000 0.506099
#
#
# Mechanical properties :
#
#
# Convention : Reuss Voigt Hill
#
# Bulk Modulus (GPa) = 46.86193 51.72229 49.29211
# Shear Modulus (GPa) = 7.25983 26.59566 16.92774
#
# Velocity S-wave (km/s) = 1.85056 3.54198 2.82579
# Velocity P-wave (km/s) = 5.16446 6.41294 5.82226
#
# Compressibility (1/GPa) = 0.02133928
#
# Stress axis : x y z
#
# Youngs Moduli (GPa) = 74.55229 54.84059 129.43338
#
# Poissons Ratio (x) = 0.36197 0.36658
# Poissons Ratio (y) = 0.49208 -0.05375
# Poissons Ratio (z) = 0.21115 -0.02277
#
# Static dielectric constant tensor:
#      x y z
#    x 3.719430 0.000000 0.000000 
#    y 0.000000 3.543530 0.000000 
#    z 0.000000 0.000000 3.695500 
# 
# 
# High freq. dielectric constant tensor:
#      x y z
#    x 1.835140 0.000000 0.000000 
#    y 0.000000 1.806700 0.000000 
#    z 0.000000 0.000000 1.832990 
# 
# From -- ./inp_files/1975.got.cif
#   From: 2010.03.12/outbox.cif.g09.slc.cpg/sg44_1_cif.got.tgz:1975.got - 2010.04.14 02:36:11.
