data_PCOD8189926
_publ_section_title
;
Structure prediction by ZEFSAII (Michael W. Deem and Ramdas Pophale) SiO2 
 PCOD8189926
Probable space group: I M M 2
;
_chemical_formula_sum "Si O2"
_cell_formula_units_Z 56
_cell_length_a 18.506883
_cell_length_b 8.850461
_cell_length_c 16.847923
_cell_angle_alpha 90.000000
_cell_angle_beta 90.000000
_cell_angle_gamma 90.000000
_cell_volume 2759.596218
_symmetry_space_group_name_H-M "I M M 2"
_symmetry_group_IT_number 44
_symmetry_cell_setting 'orthorhombic'
loop_
_space_group_symop_operation_xyz
x,y,z
-x,-y,z
-x,y,z
x,-y,z
1/2+x,1/2+y,1/2+z
1/2-x,1/2-y,1/2+z
1/2-x,1/2+y,1/2+z
1/2+x,1/2-y,1/2+z
loop_
_atom_site_type_symbol
_atom_site_label
_atom_site_fract_x
_atom_site_fract_y
_atom_site_fract_z
Si Si1 0.582649 0.677928 0.157980
Si Si2 0.805864 0.321831 0.765322
Si Si3 0.801288 0.826051 0.935034
Si Si4 0.666118 0.323115 0.000454
Si Si5 0.082803 0.826186 0.061209
Si Si6 0.332904 0.824951 0.701603
Si Si7 0.416181 0.172996 0.861642
O O1 0.500000 0.731288 0.151368
O O2 0.588012 0.500000 0.171288
O O3 0.618103 0.759512 0.233401
O O4 0.623499 0.729313 0.078469
O O5 0.806435 0.500000 0.764326
O O6 0.794472 0.267732 0.854847
O O7 0.742249 0.263887 0.707937
O O8 0.741065 0.767762 0.996846
O O9 0.785906 0.000000 0.914120
O O10 0.879291 0.804322 0.975626
O O11 0.683146 0.500000 0.001908
O O12 0.616764 0.286185 0.925184
O O13 0.122384 0.723704 0.125148
O O14 0.000000 0.773815 0.052134
O O15 0.088181 0.000000 0.088519
O O16 0.381480 0.789782 0.777452
O O17 0.313322 0.000000 0.693416
O O18 0.500000 0.207682 0.853739
O O19 0.401098 0.000000 0.886997
#
# Coordination Sequence:
#
# PCOD8189926 Si02
#       7
#     8   8   8   8   8   8   8
#     4  10  23  43  65  91 126 167 207 251 309 372
#     4  12  25  41  64  94 124 161 210 261 311 363
#     4  11  23  41  64  90 123 166 210 254 309 371
#     4  11  22  38  62  92 123 159 206 255 304 363
#     4  10  23  42  64  92 125 162 206 256 310 367
#     4  11  22  39  63  91 125 165 207 250 304 369
#     4  10  21  36  57  87 124 165 204 246 302 366
#
# _framework density 20.292824
#
# number of rings (size 3 to 8) (size 9 to 14) (size 15 to 20)
#    0.000    1.286    1.429    4.286    0.000    7.714 
#    0.000    1.429    0.000    0.000    0.000    0.000 
#    0.000    0.000    0.000    0.000    0.000    0.000 
#
# Total GULP energy -347389.038764 kJ/mol
# GULP energy per Si atom -12406.751384 kJ/mol
# Density = 2.024664 g / cm^3
# Si number density = 20.292824 Si / 1000 Ang^3
#
#
#
# Elastic Constant Matrix: (Units=GPa)
#
#
# Indices 1 2 3 4 5 6 
#
# 1 149.5695 48.4852 54.3334 0.0000 0.0000 0.0000
# 2 48.4852 68.4265 27.9466 0.0000 0.0000 0.0000
# 3 54.3334 27.9466 63.9752 0.0000 0.0000 0.0000
# 4 0.0000 0.0000 0.0000 4.2722 0.0000 0.0000
# 5 0.0000 0.0000 0.0000 0.0000 18.3909 0.0000
# 6 0.0000 0.0000 0.0000 0.0000 0.0000 32.6811
#
#
#
# Elastic Compliance Matrix: (Units=1/GPa)
#
#
# Indices 1 2 3 4 5 6 
#
# 1 0.010808 -0.004758 -0.007100 0.000000 0.000000 0.000000
# 2 -0.004758 0.019882 -0.004644 0.000000 0.000000 0.000000
# 3 -0.007100 -0.004644 0.023690 0.000000 0.000000 0.000000
# 4 0.000000 0.000000 0.000000 0.234073 0.000000 0.000000
# 5 0.000000 0.000000 0.000000 0.000000 0.054375 0.000000
# 6 0.000000 0.000000 0.000000 0.000000 0.000000 0.030599
#
#
# Mechanical properties :
#
#
# Convention : Reuss Voigt Hill
#
# Bulk Modulus (GPa) = 46.78428 60.38905 53.58667
# Shear Modulus (GPa) = 12.09024 21.14925 16.61974
#
# Velocity S-wave (km/s) = 2.44353 3.23182 2.86492
# Velocity P-wave (km/s) = 5.57366 6.61435 6.11618
#
# Compressibility (1/GPa) = 0.02137470
#
# Stress axis : x y z
#
# Youngs Moduli (GPa) = 92.52820 50.29550 42.21188
#
# Poissons Ratio (x) = 0.23931 0.29971
# Poissons Ratio (y) = 0.44025 0.19605
# Poissons Ratio (z) = 0.65697 0.23359
#
# Static dielectric constant tensor:
#      x y z
#    x 3.933500 0.000000 0.000000 
#    y 0.000000 3.661330 0.000000 
#    z 0.000000 0.000000 3.682190 
# 
# 
# High freq. dielectric constant tensor:
#      x y z
#    x 1.807330 0.000000 0.000000 
#    y 0.000000 1.792170 0.000000 
#    z 0.000000 0.000000 1.796960 
# 
# From -- ./inp_files/19205.got.cif
#   From: 2010.03.12/outbox.cif.g09.slc.cpg/sg44_10_cif.got.tgz:19205.got - 2010.04.14 02:36:11.
