data_PCOD8189751
_publ_section_title
;
Structure prediction by ZEFSAII (Michael W. Deem and Ramdas Pophale) SiO2 
 PCOD8189751
Probable space group: I M M 2
;
_chemical_formula_sum "Si O2"
_cell_formula_units_Z 48
_cell_length_a 9.019957
_cell_length_b 18.210522
_cell_length_c 14.929523
_cell_angle_alpha 90.000000
_cell_angle_beta 90.000000
_cell_angle_gamma 90.000000
_cell_volume 2452.295461
_symmetry_space_group_name_H-M "I M M 2"
_symmetry_group_IT_number 44
_symmetry_cell_setting 'orthorhombic'
loop_
_space_group_symop_operation_xyz
x,y,z
-x,-y,z
-x,y,z
x,-y,z
1/2+x,1/2+y,1/2+z
1/2-x,1/2-y,1/2+z
1/2-x,1/2+y,1/2+z
1/2+x,1/2-y,1/2+z
loop_
_atom_site_type_symbol
_atom_site_label
_atom_site_fract_x
_atom_site_fract_y
_atom_site_fract_z
Si Si1 0.172821 0.851523 0.055090
Si Si2 0.825058 0.271800 0.196377
Si Si3 0.330388 0.079270 0.607450
Si Si4 0.170221 0.882010 0.439092
Si Si5 0.171045 0.241705 0.885387
Si Si6 0.674567 0.000000 0.108991
Si Si7 0.666338 0.500000 0.790433
O O1 0.232055 0.790522 0.126713
O O2 0.260330 0.927172 0.063858
O O3 0.000000 0.865729 0.073594
O O4 0.199169 0.825973 0.952763
O O5 0.772558 0.353098 0.166997
O O6 0.762585 0.261647 0.294831
O O7 0.000000 0.266772 0.203293
O O8 0.500000 0.094411 0.577599
O O9 0.225045 0.069680 0.521812
O O10 0.319888 0.000000 0.658574
O O11 0.276984 0.812428 0.439666
O O12 0.000000 0.858448 0.452258
O O13 0.189488 0.927120 0.348051
O O14 0.000000 0.248562 0.859949
O O15 0.500000 0.000000 0.095427
O O16 0.712110 0.000000 0.213658
O O17 0.500000 0.500000 0.749405
#
# Coordination Sequence:
#
# PCOD8189751 Si02
#       7
#     8   8   8   8   8   4   4
#     4  10  22  43  65  83 121 167 199 240 304 369
#     4  10  21  40  63  90 122 161 202 244 301 363
#     4  10  20  37  61  88 123 161 196 241 297 354
#     4  11  21  35  58  88 122 157 196 243 296 359
#     4  11  23  40  62  90 118 157 206 250 298 357
#     4  12  26  40  60  91 118 149 204 261 300 346
#     4  10  22  38  56  85 124 163 194 233 304 372
#
# _framework density 19.573497
#
# number of rings (size 3 to 8) (size 9 to 14) (size 15 to 20)
#    0.000    1.500    2.500    2.750    0.000    8.000 
#    1.500    0.000    0.000    0.000    0.000    0.000 
#    0.000    0.000    0.000    0.000    0.000    0.000 
#
# Total GULP energy -297570.514080 kJ/mol
# GULP energy per Si atom -12398.771420 kJ/mol
# Density = 1.952895 g / cm^3
# Si number density = 19.573497 Si / 1000 Ang^3
#
#
#
# Elastic Constant Matrix: (Units=GPa)
#
#
# Indices 1 2 3 4 5 6 
#
# 1 40.8404 43.9484 25.3304 0.0000 0.0000 0.0000
# 2 43.9484 143.5929 29.9723 0.0000 0.0000 0.0000
# 3 25.3304 29.9723 73.4108 0.0000 0.0000 0.0000
# 4 0.0000 0.0000 0.0000 24.5747 0.0000 0.0000
# 5 0.0000 0.0000 0.0000 0.0000 32.2844 0.0000
# 6 0.0000 0.0000 0.0000 0.0000 0.0000 18.3122
#
#
#
# Elastic Compliance Matrix: (Units=1/GPa)
#
#
# Indices 1 2 3 4 5 6 
#
# 1 0.042549 -0.010886 -0.010237 0.000000 0.000000 0.000000
# 2 -0.010886 0.010398 -0.000489 0.000000 0.000000 0.000000
# 3 -0.010237 -0.000489 0.017354 0.000000 0.000000 0.000000
# 4 0.000000 0.000000 0.000000 0.040692 0.000000 0.000000
# 5 0.000000 0.000000 0.000000 0.000000 0.030975 0.000000
# 6 0.000000 0.000000 0.000000 0.000000 0.000000 0.054608
#
#
# Mechanical properties :
#
#
# Convention : Reuss Voigt Hill
#
# Bulk Modulus (GPa) = 36.93178 50.70516 43.81847
# Shear Modulus (GPa) = 20.09431 25.60713 22.85072
#
# Velocity S-wave (km/s) = 3.20755 3.62090 3.42048
# Velocity P-wave (km/s) = 5.71201 6.59109 6.16723
#
# Compressibility (1/GPa) = 0.02707695
#
# Stress axis : x y z
#
# Youngs Moduli (GPa) = 23.50214 96.17226 57.62361
#
# Poissons Ratio (x) = 1.04693 0.58990
# Poissons Ratio (y) = 0.25584 0.02819
# Poissons Ratio (z) = 0.24059 0.04704
#
# Static dielectric constant tensor:
#      x y z
#    x 3.474990 0.000000 0.000000 
#    y 0.000000 3.758790 0.000000 
#    z 0.000000 0.000000 3.440270 
# 
# 
# High freq. dielectric constant tensor:
#      x y z
#    x 1.757660 0.000000 0.000000 
#    y 0.000000 1.777420 0.000000 
#    z 0.000000 0.000000 1.752770 
# 
# From -- ./inp_files/16123.got.cif
#   From: 2010.03.12/outbox.cif.g09.slc.cpg/sg44_9_cif.got.tgz:16123.got - 2010.04.14 02:36:11.
