data_PCOD8189740
_publ_section_title
;
Structure prediction by ZEFSAII (Michael W. Deem and Ramdas Pophale) SiO2 
 PCOD8189740
Probable space group: I M M 2
;
_chemical_formula_sum "Si O2"
_cell_formula_units_Z 48
_cell_length_a 16.151697
_cell_length_b 7.747736
_cell_length_c 20.003706
_cell_angle_alpha 90.000000
_cell_angle_beta 90.000000
_cell_angle_gamma 90.000000
_cell_volume 2503.245452
_symmetry_space_group_name_H-M "I M M 2"
_symmetry_group_IT_number 44
_symmetry_cell_setting 'orthorhombic'
loop_
_space_group_symop_operation_xyz
x,y,z
-x,-y,z
-x,y,z
x,-y,z
1/2+x,1/2+y,1/2+z
1/2-x,1/2-y,1/2+z
1/2-x,1/2+y,1/2+z
1/2+x,1/2-y,1/2+z
loop_
_atom_site_type_symbol
_atom_site_label
_atom_site_fract_x
_atom_site_fract_y
_atom_site_fract_z
Si Si1 0.500000 0.295208 0.076751
Si Si2 0.500000 0.306190 0.224049
Si Si3 0.592772 0.000000 0.826456
Si Si4 0.093872 0.500000 0.168428
Si Si5 0.677376 0.700731 0.032847
Si Si6 0.286577 0.303384 0.650864
Si Si7 0.298427 0.301209 0.881242
Si Si8 0.827418 0.698807 0.770413
O O1 0.500000 0.500000 0.077907
O O2 0.500000 0.210139 0.151798
O O3 0.417686 0.232544 0.037670
O O4 0.500000 0.500000 0.201078
O O5 0.419421 0.274077 0.269035
O O6 0.632480 0.824156 0.852730
O O7 0.500000 0.000000 0.853408
O O8 0.596937 0.000000 0.747538
O O9 0.136481 0.325494 0.140783
O O10 0.000000 0.500000 0.141653
O O11 0.683190 0.500000 0.052269
O O12 0.732405 0.808717 0.083934
O O13 0.713772 0.735756 0.959366
O O14 0.317308 0.500000 0.665621
O O15 0.231487 0.226135 0.711965
O O16 0.326429 0.500000 0.868853
O O17 0.212026 0.262698 0.843042
O O18 0.836737 0.500000 0.755134
#
# Coordination Sequence:
#
# PCOD8189740 Si02
#       8
#     4   4   4   4   8   8   8   8
#     4   9  18  31  53  89 125 155 192 235 298 366
#     4  11  21  31  59  91 117 154 193 246 294 352
#     4  11  24  38  60  90 120 157 203 250 299 364
#     4  11  24  42  66  88 116 159 205 260 307 356
#     4  10  20  37  60  88 124 164 199 243 304 368
#     4  11  22  38  63  91 120 154 200 255 307 366
#     4  10  23  40  60  85 121 166 202 245 299 365
#     4  10  21  38  57  84 119 157 199 244 296 353
#
# _framework density 19.175108000000002
#
# number of rings (size 3 to 8) (size 9 to 14) (size 15 to 20)
#    0.000    1.667    4.167    0.250    4.667    0.667 
#    0.000    2.083    1.833    0.000    0.000    0.000 
#    0.000    0.000    0.000    0.000    0.000    0.000 
#
# Total GULP energy -297568.691067 kJ/mol
# GULP energy per Si atom -12398.695461 kJ/mol
# Density = 1.913146 g / cm^3
# Si number density = 19.175108 Si / 1000 Ang^3
#
#
#
# Elastic Constant Matrix: (Units=GPa)
#
#
# Indices 1 2 3 4 5 6 
#
# 1 147.5945 51.2378 59.8276 0.0000 0.0000 0.0000
# 2 51.2378 75.4950 23.3588 0.0000 0.0000 0.0000
# 3 59.8276 23.3588 119.7305 0.0000 0.0000 0.0000
# 4 0.0000 0.0000 0.0000 23.3211 0.0000 0.0000
# 5 0.0000 0.0000 0.0000 0.0000 32.1888 0.0000
# 6 0.0000 0.0000 0.0000 0.0000 0.0000 19.8014
#
#
#
# Elastic Compliance Matrix: (Units=1/GPa)
#
#
# Indices 1 2 3 4 5 6 
#
# 1 0.010457 -0.005832 -0.004087 0.000000 0.000000 0.000000
# 2 -0.005832 0.017350 -0.000471 0.000000 0.000000 0.000000
# 3 -0.004087 -0.000471 0.010486 0.000000 0.000000 0.000000
# 4 0.000000 0.000000 0.000000 0.042880 0.000000 0.000000
# 5 0.000000 0.000000 0.000000 0.000000 0.031067 0.000000
# 6 0.000000 0.000000 0.000000 0.000000 0.000000 0.050501
#
#
# Mechanical properties :
#
#
# Convention : Reuss Voigt Hill
#
# Bulk Modulus (GPa) = 57.10157 67.96314 62.53236
# Shear Modulus (GPa) = 26.40496 28.95532 27.68014
#
# Velocity S-wave (km/s) = 3.71488 3.89015 3.80352
# Velocity P-wave (km/s) = 6.94580 7.46311 7.20910
#
# Compressibility (1/GPa) = 0.01751265
#
# Stress axis : x y z
#
# Youngs Moduli (GPa) = 95.63166 57.63745 95.36313
#
# Poissons Ratio (x) = 0.33616 0.38977
# Poissons Ratio (y) = 0.55775 0.04487
# Poissons Ratio (z) = 0.39087 0.02712
#
# Static dielectric constant tensor:
#      x y z
#    x 3.445960 0.000000 0.000000 
#    y 0.000000 3.498800 0.000000 
#    z 0.000000 0.000000 3.449810 
# 
# 
# High freq. dielectric constant tensor:
#      x y z
#    x 1.733090 0.000000 0.000000 
#    y 0.000000 1.748100 0.000000 
#    z 0.000000 0.000000 1.737840 
# 
# From -- ./inp_files/21759.got.cif
#   From: 2010.03.12/outbox.cif.g09.slc.cpg/sg44_11_cif.got.tgz:21759.got - 2010.04.14 02:36:11.
