data_PCOD8189613
_publ_section_title
;
Structure prediction by ZEFSAII (Michael W. Deem and Ramdas Pophale) SiO2 
 PCOD8189613
Probable space group: I M M 2
;
_chemical_formula_sum "Si O2"
_cell_formula_units_Z 64
_cell_length_a 8.817745
_cell_length_b 28.793480
_cell_length_c 12.808173
_cell_angle_alpha 90.000000
_cell_angle_beta 90.000000
_cell_angle_gamma 90.000000
_cell_volume 3251.912695
_symmetry_space_group_name_H-M "I M M 2"
_symmetry_group_IT_number 44
_symmetry_cell_setting 'orthorhombic'
loop_
_space_group_symop_operation_xyz
x,y,z
-x,-y,z
-x,y,z
x,-y,z
1/2+x,1/2+y,1/2+z
1/2-x,1/2-y,1/2+z
1/2-x,1/2+y,1/2+z
1/2+x,1/2-y,1/2+z
loop_
_atom_site_type_symbol
_atom_site_label
_atom_site_fract_x
_atom_site_fract_y
_atom_site_fract_z
Si Si1 0.821029 0.362374 0.382170
Si Si2 0.819733 0.119019 0.664543
Si Si3 0.679907 0.757364 0.850086
Si Si4 0.833248 0.202819 0.533377
Si Si5 0.677102 0.446414 0.782678
Si Si6 0.833054 0.288795 0.666282
Si Si7 0.825006 0.445291 0.997542
Si Si8 0.177877 0.120111 0.096978
O O1 0.752150 0.386267 0.279038
O O2 0.771812 0.308481 0.389488
O O3 0.760742 0.387946 0.486335
O O4 0.000000 0.368541 0.378178
O O5 0.749883 0.166113 0.609310
O O6 0.770631 0.076334 0.592141
O O7 0.000000 0.120286 0.678683
O O8 0.500000 0.754607 0.834183
O O9 0.766441 0.749351 0.743739
O O10 0.740384 0.713231 0.920317
O O11 0.849303 0.256744 0.565467
O O12 0.000000 0.180718 0.519400
O O13 0.500000 0.438549 0.803715
O O14 0.716761 0.500000 0.762453
O O15 0.730439 0.419095 0.679289
O O16 0.764197 0.427500 0.885232
O O17 0.719067 0.330698 0.647896
O O18 0.000000 0.307753 0.698271
O O19 0.801038 0.500000 0.005793
O O20 0.000000 0.430832 0.008184
O O21 0.000000 0.117942 0.076420
#
# Coordination Sequence:
#
# PCOD8189613 Si02
#       8
#     8   8   8   8   8   8   8   8
#     4  11  22  38  59  83 117 159 199 244 294 343
#     4  11  22  38  61  87 118 157 200 242 287 348
#     4  10  20  36  53  75 111 154 195 239 287 336
#     4   9  19  35  53  76 111 151 193 236 279 331
#     4   9  20  41  66  89 115 149 189 236 292 353
#     4  11  21  36  54  80 115 153 194 238 285 342
#     4  10  22  41  64  91 121 149 185 239 298 352
#     4  11  23  38  59  87 116 152 198 245 293 351
#
# _framework density 19.680726
#
# number of rings (size 3 to 8) (size 9 to 14) (size 15 to 20)
#    0.000    1.750    2.500    1.875    1.750    2.250 
#    0.000    1.250    0.000    2.250    0.000    0.000 
#    0.000    0.000    0.000    0.000    0.000    0.000 
#
# Total GULP energy -396583.434360 kJ/mol
# GULP energy per Si atom -12393.232324 kJ/mol
# Density = 1.963593 g / cm^3
# Si number density = 19.680726 Si / 1000 Ang^3
#
#
#
# Elastic Constant Matrix: (Units=GPa)
#
#
# Indices 1 2 3 4 5 6 
#
# 1 72.1202 28.1254 51.1703 -0.0001 0.0001 0.0000
# 2 28.1254 62.7491 44.9745 -0.0004 0.0000 0.0000
# 3 51.1703 44.9745 134.1839 0.0000 0.0001 0.0001
# 4 -0.0001 -0.0004 0.0000 37.0561 0.0001 0.0000
# 5 0.0001 0.0000 0.0001 0.0001 29.7491 0.0000
# 6 0.0000 0.0000 0.0001 0.0000 0.0000 25.6266
#
#
#
# Elastic Compliance Matrix: (Units=1/GPa)
#
#
# Indices 1 2 3 4 5 6 
#
# 1 0.019968 -0.004597 -0.006074 0.000000 0.000000 0.000000
# 2 -0.004597 0.022033 -0.005632 0.000000 0.000000 0.000000
# 3 -0.006074 -0.005632 0.011656 0.000000 0.000000 0.000000
# 4 0.000000 0.000000 0.000000 0.026986 0.000000 0.000000
# 5 0.000000 0.000000 0.000000 0.000000 0.033615 0.000000
# 6 0.000000 0.000000 0.000000 0.000000 0.000000 0.039022
#
#
# Mechanical properties :
#
#
# Convention : Reuss Voigt Hill
#
# Bulk Modulus (GPa) = 47.50031 57.51041 52.50536
# Shear Modulus (GPa) = 25.91972 28.13855 27.02914
#
# Velocity S-wave (km/s) = 3.63300 3.78531 3.70994
# Velocity P-wave (km/s) = 6.46422 6.95628 6.71476
#
# Compressibility (1/GPa) = 0.02105250
#
# Stress axis : x y z
#
# Youngs Moduli (GPa) = 50.08035 45.38547 85.78921
#
# Poissons Ratio (x) = 0.20862 0.52109
# Poissons Ratio (y) = 0.23020 0.48317
# Poissons Ratio (z) = 0.30419 0.25562
#
# Static dielectric constant tensor:
#      x y z
#    x 3.470690 0.000000 0.000000 
#    y 0.000000 3.440160 0.000000 
#    z 0.000000 0.000000 3.710100 
# 
# 
# High freq. dielectric constant tensor:
#      x y z
#    x 1.758500 0.000000 0.000000 
#    y 0.000000 1.749940 0.000000 
#    z 0.000000 0.000000 1.781770 
# 
# From -- ./inp_files/11446.got.cif
#   From: 2010.03.12/outbox.cif.g09.slc.cpg/sg44_6_cif.got.tgz:11446.got - 2010.04.14 02:36:11.
