data_PCOD8189060
_publ_section_title
;
Structure prediction by ZEFSAII (Michael W. Deem and Ramdas Pophale) SiO2 
 PCOD8189060
Probable space group: I M M 2
;
_chemical_formula_sum "Si O2"
_cell_formula_units_Z 48
_cell_length_a 8.830214
_cell_length_b 10.363346
_cell_length_c 28.023154
_cell_angle_alpha 90.000000
_cell_angle_beta 90.000000
_cell_angle_gamma 90.000000
_cell_volume 2564.414598
_symmetry_space_group_name_H-M "I M M 2"
_symmetry_group_IT_number 44
_symmetry_cell_setting 'orthorhombic'
loop_
_space_group_symop_operation_xyz
x,y,z
-x,-y,z
-x,y,z
x,-y,z
1/2+x,1/2+y,1/2+z
1/2-x,1/2-y,1/2+z
1/2-x,1/2+y,1/2+z
1/2+x,1/2-y,1/2+z
loop_
_atom_site_type_symbol
_atom_site_label
_atom_site_fract_x
_atom_site_fract_y
_atom_site_fract_z
Si Si1 0.820381 0.000000 0.412730
Si Si2 0.326492 0.351597 0.178564
Si Si3 0.679632 0.500000 0.021426
Si Si4 0.320264 0.500000 0.424426
Si Si5 0.320852 0.748897 0.367145
Si Si6 0.822228 0.250354 0.576567
Si Si7 0.179028 0.000000 0.032120
Si Si8 0.175824 0.650179 0.275060
O O1 0.757981 0.875006 0.386894
O O2 0.762728 0.000000 0.467188
O O3 0.000000 0.000000 0.410059
O O4 0.500000 0.332949 0.194242
O O5 0.295026 0.500000 0.165004
O O6 0.287326 0.266541 0.132501
O O7 0.221121 0.304758 0.221946
O O8 0.500000 0.500000 0.025312
O O9 0.742221 0.372377 0.047501
O O10 0.500000 0.500000 0.423705
O O11 0.259732 0.626982 0.397467
O O12 0.256102 0.500000 0.478171
O O13 0.500000 0.764370 0.370921
O O14 0.273793 0.731642 0.312295
O O15 0.734967 0.375187 0.559549
O O16 0.000000 0.268063 0.567251
O O17 0.000000 0.000000 0.031008
O O18 0.216278 0.500000 0.281412
O O19 0.000000 0.678153 0.283500
#
# Coordination Sequence:
#
# PCOD8189060 Si02
#       8
#     4   8   4   4   8   8   4   8
#     4  11  23  37  54  83 120 151 182 231 286 333
#     4   9  17  32  57  84 109 140 182 229 275 328
#     4   9  18  35  60  85 110 144 190 234 274 323
#     4   9  20  37  58  81 108 146 194 236 270 321
#     4  11  21  38  60  82 110 150 193 231 274 331
#     4  10  19  36  59  84 111 146 189 230 271 326
#     4  11  23  37  52  79 118 153 184 227 280 329
#     4  10  20  34  55  85 116 142 178 230 285 334
#
# _framework density 18.717721999999998
#
# number of rings (size 3 to 8) (size 9 to 14) (size 15 to 20)
#    0.000    2.000    1.667    2.500    0.000    1.333 
#    0.000    4.583    0.000    3.000    0.000    0.000 
#    0.000    0.000    0.000    0.000    0.000    0.000 
#
# Total GULP energy -297683.273966 kJ/mol
# GULP energy per Si atom -12403.469749 kJ/mol
# Density = 1.867512 g / cm^3
# Si number density = 18.717722 Si / 1000 Ang^3
#
#
#
# Elastic Constant Matrix: (Units=GPa)
#
#
# Indices 1 2 3 4 5 6 
#
# 1 59.6387 38.2555 43.9187 0.0000 0.0000 0.0000
# 2 38.2555 137.6076 68.6211 0.0000 0.0000 0.0000
# 3 43.9187 68.6211 137.4317 0.0000 0.0000 0.0000
# 4 0.0000 0.0000 0.0000 29.7854 0.0000 0.0000
# 5 0.0000 0.0000 0.0000 0.0000 29.1028 0.0000
# 6 0.0000 0.0000 0.0000 0.0000 0.0000 7.2283
#
#
#
# Elastic Compliance Matrix: (Units=1/GPa)
#
#
# Indices 1 2 3 4 5 6 
#
# 1 0.023243 -0.003672 -0.005594 0.000000 0.000000 0.000000
# 2 -0.003672 0.010256 -0.003948 0.000000 0.000000 0.000000
# 3 -0.005594 -0.003948 0.011035 0.000000 0.000000 0.000000
# 4 0.000000 0.000000 0.000000 0.033573 0.000000 0.000000
# 5 0.000000 0.000000 0.000000 0.000000 0.034361 0.000000
# 6 0.000000 0.000000 0.000000 0.000000 0.000000 0.138345
#
#
# Mechanical properties :
#
#
# Convention : Reuss Voigt Hill
#
# Bulk Modulus (GPa) = 55.22827 70.69650 62.96239
# Shear Modulus (GPa) = 17.65058 25.48216 21.56637
#
# Velocity S-wave (km/s) = 3.07414 3.69371 3.39807
# Velocity P-wave (km/s) = 6.49387 7.48620 7.00762
#
# Compressibility (1/GPa) = 0.01810667
#
# Stress axis : x y z
#
# Youngs Moduli (GPa) = 43.02448 97.49941 90.61908
#
# Poissons Ratio (x) = 0.35801 0.50694
# Poissons Ratio (y) = 0.15798 0.35774
# Poissons Ratio (z) = 0.24069 0.38490
#
# Static dielectric constant tensor:
#      x y z
#    x 3.259540 0.000000 0.000000 
#    y 0.000000 3.403800 0.000000 
#    z 0.000000 0.000000 3.601580 
# 
# 
# High freq. dielectric constant tensor:
#      x y z
#    x 1.713600 0.000000 0.000000 
#    y 0.000000 1.716580 0.000000 
#    z 0.000000 0.000000 1.742280 
# 
# From -- ./inp_files/26992.got.cif
#   From: 2010.03.12/outbox.cif.g09.slc.cpg/sg44_14_cif.got.tgz:26992.got - 2010.04.14 02:36:11.
