data_PCOD8189291
_publ_section_title
;
Structure prediction by ZEFSAII (Michael W. Deem and Ramdas Pophale) SiO2 
 PCOD8189291
Probable space group: I M M 2
;
_chemical_formula_sum "Si O2"
_cell_formula_units_Z 64
_cell_length_a 14.096712
_cell_length_b 17.501597
_cell_length_c 13.871557
_cell_angle_alpha 90.000000
_cell_angle_beta 90.000000
_cell_angle_gamma 90.000000
_cell_volume 3422.320803
_symmetry_space_group_name_H-M "I M M 2"
_symmetry_group_IT_number 44
_symmetry_cell_setting 'orthorhombic'
loop_
_space_group_symop_operation_xyz
x,y,z
-x,-y,z
-x,y,z
x,-y,z
1/2+x,1/2+y,1/2+z
1/2-x,1/2-y,1/2+z
1/2-x,1/2+y,1/2+z
1/2+x,1/2-y,1/2+z
loop_
_atom_site_type_symbol
_atom_site_label
_atom_site_fract_x
_atom_site_fract_y
_atom_site_fract_z
Si Si1 0.776576 0.857181 0.192400
Si Si2 0.714919 0.299031 0.240755
Si Si3 0.109314 0.171603 0.553293
Si Si4 0.607694 0.635030 0.512177
Si Si5 0.761836 0.088695 0.403610
Si Si6 0.224406 0.415487 0.387977
Si Si7 0.107594 0.285885 0.905114
Si Si8 0.108053 0.650699 0.554393
O O1 0.787746 0.766077 0.206073
O O2 0.859950 0.883512 0.120863
O O3 0.788899 0.903431 0.291132
O O4 0.672719 0.873126 0.145515
O O5 0.662417 0.343419 0.154394
O O6 0.778870 0.359307 0.297507
O O7 0.636646 0.256362 0.306461
O O8 0.152321 0.119619 0.468782
O O9 0.120946 0.260587 0.526917
O O10 0.000000 0.148146 0.564815
O O11 0.500000 0.607901 0.497193
O O12 0.672954 0.588173 0.438832
O O13 0.620094 0.725738 0.492435
O O14 0.669345 0.139192 0.427330
O O15 0.742033 0.000000 0.427375
O O16 0.207638 0.500000 0.348203
O O17 0.139963 0.395803 0.460954
O O18 0.000000 0.313527 0.894516
O O19 0.000000 0.630457 0.580961
#
# Coordination Sequence:
#
# PCOD8189291 Si02
#       8
#     8   8   8   8   8   8   8   8
#     4   9  18  33  53  76 102 134 175 216 254 300
#     4   9  17  33  55  78 102 132 170 217 260 303
#     4  10  20  36  57  77  99 135 184 227 257 293
#     4   9  18  34  56  77  97 128 171 215 256 300
#     4  11  23  35  48  73 110 144 172 207 255 309
#     4  10  20  33  51  80 114 138 159 200 263 325
#     4   9  17  33  57  80  99 124 166 217 263 308
#     4   9  18  35  60  84 103 130 172 219 263 308
#
# _framework density 18.700759999999999
#
# number of rings (size 3 to 8) (size 9 to 14) (size 15 to 20)
#    0.000    2.500    0.000    4.125    0.000    7.500 
#    0.000    0.625    0.000    0.750    0.000    1.750 
#    0.000    0.000    0.000    0.000    0.000    0.000 
#
# Total GULP energy -396775.795361 kJ/mol
# GULP energy per Si atom -12399.243605 kJ/mol
# Density = 1.865820 g / cm^3
# Si number density = 18.700760 Si / 1000 Ang^3
#
#
#
# Elastic Constant Matrix: (Units=GPa)
#
#
# Indices 1 2 3 4 5 6 
#
# 1 53.1121 13.3428 26.5763 0.0000 0.0000 0.0000
# 2 13.3428 72.4299 18.1494 0.0000 0.0000 0.0000
# 3 26.5763 18.1494 72.5095 0.0000 0.0000 0.0000
# 4 0.0000 0.0000 0.0000 11.2086 0.0000 0.0000
# 5 0.0000 0.0000 0.0000 0.0000 19.5125 0.0000
# 6 0.0000 0.0000 0.0000 0.0000 0.0000 16.7679
#
#
#
# Elastic Compliance Matrix: (Units=1/GPa)
#
#
# Indices 1 2 3 4 5 6 
#
# 1 0.023413 -0.002307 -0.008004 0.000000 0.000000 0.000000
# 2 -0.002307 0.014958 -0.002898 0.000000 0.000000 0.000000
# 3 -0.008004 -0.002898 0.017450 0.000000 0.000000 0.000000
# 4 0.000000 0.000000 0.000000 0.089217 0.000000 0.000000
# 5 0.000000 0.000000 0.000000 0.000000 0.051249 0.000000
# 6 0.000000 0.000000 0.000000 0.000000 0.000000 0.059638
#
#
# Mechanical properties :
#
#
# Convention : Reuss Voigt Hill
#
# Bulk Modulus (GPa) = 34.01139 34.90984 34.46062
# Shear Modulus (GPa) = 17.11484 18.83001 17.97242
#
# Velocity S-wave (km/s) = 3.02850 3.17663 3.10345
# Velocity P-wave (km/s) = 5.51867 5.67122 5.59547
#
# Compressibility (1/GPa) = 0.02940191
#
# Stress axis : x y z
#
# Youngs Moduli (GPa) = 42.71191 66.85494 57.30569
#
# Poissons Ratio (x) = 0.15426 0.45866
# Poissons Ratio (y) = 0.09856 0.16609
# Poissons Ratio (z) = 0.34185 0.19376
#
# Static dielectric constant tensor:
#      x y z
#    x 3.334840 0.000000 0.000000 
#    y 0.000000 3.258010 0.000000 
#    z 0.000000 0.000000 3.481160 
# 
# 
# High freq. dielectric constant tensor:
#      x y z
#    x 1.714650 0.000000 0.000000 
#    y 0.000000 1.709480 0.000000 
#    z 0.000000 0.000000 1.724930 
# 
# From -- ./inp_files/18606.got.cif
#   From: 2010.03.12/outbox.cif.g09.slc.cpg/sg44_10_cif.got.tgz:18606.got - 2010.04.14 02:36:11.
