data_PCOD8189125
_publ_section_title
;
Structure prediction by ZEFSAII (Michael W. Deem and Ramdas Pophale) SiO2 
 PCOD8189125
Probable space group: I M M 2
;
_chemical_formula_sum "Si O2"
_cell_formula_units_Z 48
_cell_length_a 9.263281
_cell_length_b 7.932282
_cell_length_c 34.207854
_cell_angle_alpha 90.000000
_cell_angle_beta 90.000000
_cell_angle_gamma 90.000000
_cell_volume 2513.557438
_symmetry_space_group_name_H-M "I M M 2"
_symmetry_group_IT_number 44
_symmetry_cell_setting 'orthorhombic'
loop_
_space_group_symop_operation_xyz
x,y,z
-x,-y,z
-x,y,z
x,-y,z
1/2+x,1/2+y,1/2+z
1/2-x,1/2-y,1/2+z
1/2-x,1/2+y,1/2+z
1/2+x,1/2-y,1/2+z
loop_
_atom_site_type_symbol
_atom_site_label
_atom_site_fract_x
_atom_site_fract_y
_atom_site_fract_z
Si Si1 0.827870 0.000000 0.981081
Si Si2 0.160125 0.306944 0.769202
Si Si3 0.332653 0.692839 0.118261
Si Si4 0.832142 0.500000 0.562031
Si Si5 0.328573 0.813869 0.430694
Si Si6 0.835105 0.807611 0.850044
Si Si7 0.164042 0.303105 0.196087
O O1 0.768953 0.831991 0.959207
O O2 0.764840 0.000000 0.024047
O O3 0.000000 0.000000 0.983764
O O4 0.143289 0.500000 0.779541
O O5 0.237039 0.223604 0.807532
O O6 0.260783 0.288335 0.731933
O O7 0.000000 0.228436 0.760711
O O8 0.500000 0.706870 0.129562
O O9 0.295342 0.500000 0.104709
O O10 0.242784 0.745906 0.156130
O O11 0.292638 0.828415 0.085146
O O12 0.000000 0.500000 0.550635
O O13 0.500000 0.793372 0.428206
O O14 0.265389 0.793800 0.386523
O O15 0.284576 0.000000 0.446518
O O16 0.000000 0.749523 0.844415
O O17 0.822279 0.000000 0.862629
O O18 0.173826 0.500000 0.204016
O O19 0.000000 0.240019 0.192969
#
# Coordination Sequence:
#
# PCOD8189125 Si02
#       7
#     4   8   8   4   8   8   8
#     4  10  20  34  52  80 110 138 174 218 270 322
#     4  10  20  31  47  75 107 140 181 225 266 313
#     4   9  19  37  59  80 104 137 177 222 268 316
#     4  10  22  38  58  82 108 138 176 220 268 326
#     4   9  16  28  48  75 108 141 174 217 266 314
#     4   9  15  26  46  72 103 138 178 222 265 306
#     4  10  21  36  53  75 105 140 177 219 272 326
#
# _framework density 19.096440000000001
#
# number of rings (size 3 to 8) (size 9 to 14) (size 15 to 20)
#    0.000    2.500    0.833    1.500    1.167    5.333 
#    0.000    0.000    0.000    1.000    0.000    0.000 
#    0.000    0.000    0.000    0.000    0.000    0.000 
#
# Total GULP energy -297476.576459 kJ/mol
# GULP energy per Si atom -12394.857352 kJ/mol
# Density = 1.905298 g / cm^3
# Si number density = 19.096440 Si / 1000 Ang^3
#
#
#
# Elastic Constant Matrix: (Units=GPa)
#
#
# Indices 1 2 3 4 5 6 
#
# 1 49.7426 27.6496 46.0239 0.0000 0.0000 0.0000
# 2 27.6496 116.8872 71.6261 0.0001 0.0000 0.0000
# 3 46.0239 71.6261 145.7168 0.0000 0.0000 0.0000
# 4 0.0000 0.0001 0.0000 29.2378 0.0000 0.0000
# 5 0.0000 0.0000 0.0000 0.0000 20.7551 0.0000
# 6 0.0000 0.0000 0.0000 0.0000 0.0000 12.6789
#
#
#
# Elastic Compliance Matrix: (Units=1/GPa)
#
#
# Indices 1 2 3 4 5 6 
#
# 1 0.028656 -0.001764 -0.008184 0.000000 0.000000 0.000000
# 2 -0.001764 0.012351 -0.005514 0.000000 0.000000 0.000000
# 3 -0.008184 -0.005514 0.012158 0.000000 0.000000 0.000000
# 4 0.000000 0.000000 0.000000 0.034202 0.000000 0.000000
# 5 0.000000 0.000000 0.000000 0.000000 0.048181 0.000000
# 6 0.000000 0.000000 0.000000 0.000000 0.000000 0.078871
#
#
# Mechanical properties :
#
#
# Convention : Reuss Voigt Hill
#
# Bulk Modulus (GPa) = 44.96043 66.99397 55.97720
# Shear Modulus (GPa) = 19.78183 23.67082 21.72632
#
# Velocity S-wave (km/s) = 3.22202 3.52453 3.37666
# Velocity P-wave (km/s) = 6.11857 7.19174 6.67675
#
# Compressibility (1/GPa) = 0.02224178
#
# Stress axis : x y z
#
# Youngs Moduli (GPa) = 34.89677 80.96212 82.25056
#
# Poissons Ratio (x) = 0.14279 0.67313
# Poissons Ratio (y) = 0.06154 0.45355
# Poissons Ratio (z) = 0.28559 0.44644
#
# Static dielectric constant tensor:
#      x y z
#    x 3.104180 0.000000 0.000000 
#    y 0.000000 3.687560 0.000000 
#    z 0.000000 0.000000 3.447070 
# 
# 
# High freq. dielectric constant tensor:
#      x y z
#    x 1.689540 0.000000 0.000000 
#    y 0.000000 1.755900 0.000000 
#    z 0.000000 0.000000 1.745940 
# 
# From -- ./inp_files/26887.got.cif
#   From: 2010.03.12/outbox.cif.g09.slc.cpg/sg44_14_cif.got.tgz:26887.got - 2010.04.14 02:36:11.
