data_PCOD8189071
_publ_section_title
;
Structure prediction by ZEFSAII (Michael W. Deem and Ramdas Pophale) SiO2 
 PCOD8189071
Probable space group: I M M 2
;
_chemical_formula_sum "Si O2"
_cell_formula_units_Z 40
_cell_length_a 11.697067
_cell_length_b 8.686854
_cell_length_c 20.226671
_cell_angle_alpha 90.000000
_cell_angle_beta 90.000000
_cell_angle_gamma 90.000000
_cell_volume 2055.246467
_symmetry_space_group_name_H-M "I M M 2"
_symmetry_group_IT_number 44
_symmetry_cell_setting 'orthorhombic'
loop_
_space_group_symop_operation_xyz
x,y,z
-x,-y,z
-x,y,z
x,-y,z
1/2+x,1/2+y,1/2+z
1/2-x,1/2-y,1/2+z
1/2-x,1/2+y,1/2+z
1/2+x,1/2-y,1/2+z
loop_
_atom_site_type_symbol
_atom_site_label
_atom_site_fract_x
_atom_site_fract_y
_atom_site_fract_z
Si Si1 0.500000 0.823819 0.632630
Si Si2 0.500000 0.320576 0.771342
Si Si3 0.201232 0.176991 0.058844
Si Si4 0.870680 0.678346 0.670362
Si Si5 0.238885 0.317696 0.291816
Si Si6 0.872194 0.180771 0.917681
O O1 0.500000 0.707627 0.693392
O O2 0.611190 0.793565 0.589582
O O3 0.500000 0.000000 0.657764
O O4 0.500000 0.500000 0.786074
O O5 0.387637 0.246585 0.803192
O O6 0.322108 0.202068 0.095915
O O7 0.159486 0.000000 0.067443
O O8 0.208173 0.218540 0.980999
O O9 0.867841 0.500000 0.690146
O O10 0.791836 0.768008 0.721971
O O11 0.000000 0.742804 0.671865
O O12 0.232541 0.500000 0.293216
O O13 0.315340 0.249662 0.351638
O O14 0.000000 0.250630 0.926993
O O15 0.882758 0.000000 0.908071
#
# Coordination Sequence:
#
# PCOD8189071 Si02
#       6
#     4   4   8   8   8   8
#     4  12  22  34  58  92 118 139 182 245 296 341
#     4  12  24  40  60  82 114 155 192 235 296 361
#     4  10  19  36  61  84 114 154 193 233 283 347
#     4  10  21  36  56  85 117 154 197 235 283 346
#     4  11  22  37  59  88 116 147 194 246 292 339
#     4   9  18  34  58  87 115 149 191 234 283 341
#
# _framework density 19.462384
#
# number of rings (size 3 to 8) (size 9 to 14) (size 15 to 20)
#    0.000    1.600    3.000    3.000    0.000    1.200 
#    1.800    2.000    0.000    0.000    0.000    0.000 
#    0.000    0.000    0.000    0.000    0.000    0.000 
#
# Total GULP energy -247985.378885 kJ/mol
# GULP energy per Si atom -12399.268944 kJ/mol
# Density = 1.941809 g / cm^3
# Si number density = 19.462384 Si / 1000 Ang^3
#
#
#
# Elastic Constant Matrix: (Units=GPa)
#
#
# Indices 1 2 3 4 5 6 
#
# 1 140.8525 32.0704 57.1069 0.0000 0.0000 0.0000
# 2 32.0704 58.7726 20.0633 0.0000 0.0000 0.0000
# 3 57.1069 20.0633 132.5546 0.0000 0.0000 0.0000
# 4 0.0000 0.0000 0.0000 21.8508 0.0000 0.0000
# 5 0.0000 0.0000 0.0000 0.0000 39.5842 0.0000
# 6 0.0000 0.0000 0.0000 0.0000 0.0000 20.8168
#
#
#
# Elastic Compliance Matrix: (Units=1/GPa)
#
#
# Indices 1 2 3 4 5 6 
#
# 1 0.009398 -0.003950 -0.003451 0.000000 0.000000 0.000000
# 2 -0.003950 0.019602 -0.001265 0.000000 0.000000 0.000000
# 3 -0.003451 -0.001265 0.009222 0.000000 0.000000 0.000000
# 4 0.000000 0.000000 0.000000 0.045765 0.000000 0.000000
# 5 0.000000 0.000000 0.000000 0.000000 0.025263 0.000000
# 6 0.000000 0.000000 0.000000 0.000000 0.000000 0.048038
#
#
# Mechanical properties :
#
#
# Convention : Reuss Voigt Hill
#
# Bulk Modulus (GPa) = 47.87005 61.18456 54.52730
# Shear Modulus (GPa) = 27.53542 31.31296 29.42419
#
# Velocity S-wave (km/s) = 3.76547 4.01546 3.89247
# Velocity P-wave (km/s) = 6.59959 7.28039 6.94833
#
# Compressibility (1/GPa) = 0.02088989
#
# Stress axis : x y z
#
# Youngs Moduli (GPa) = 106.40308 51.01487 108.43271
#
# Poissons Ratio (x) = 0.20152 0.37420
# Poissons Ratio (y) = 0.42032 0.13718
# Poissons Ratio (z) = 0.36720 0.06454
#
# Static dielectric constant tensor:
#      x y z
#    x 3.759860 0.000000 0.000000 
#    y 0.000000 3.299130 0.000000 
#    z 0.000000 0.000000 3.678860 
# 
# 
# High freq. dielectric constant tensor:
#      x y z
#    x 1.759230 0.000000 0.000000 
#    y 0.000000 1.735250 0.000000 
#    z 0.000000 0.000000 1.759030 
# 
# From -- ./inp_files/22781.got.cif
#   From: 2010.03.12/outbox.cif.g09.slc.cpg/sg44_12_cif.got.tgz:22781.got - 2010.04.14 02:36:11.
