data_PCOD8189536
_publ_section_title
;
Structure prediction by ZEFSAII (Michael W. Deem and Ramdas Pophale) SiO2 
 PCOD8189536
Probable space group: I M M 2
;
_chemical_formula_sum "Si O2"
_cell_formula_units_Z 48
_cell_length_a 7.888304
_cell_length_b 9.212335
_cell_length_c 33.870709
_cell_angle_alpha 90.000000
_cell_angle_beta 90.000000
_cell_angle_gamma 90.000000
_cell_volume 2461.374229
_symmetry_space_group_name_H-M "I M M 2"
_symmetry_group_IT_number 44
_symmetry_cell_setting 'orthorhombic'
loop_
_space_group_symop_operation_xyz
x,y,z
-x,-y,z
-x,y,z
x,-y,z
1/2+x,1/2+y,1/2+z
1/2-x,1/2-y,1/2+z
1/2-x,1/2+y,1/2+z
1/2+x,1/2-y,1/2+z
loop_
_atom_site_type_symbol
_atom_site_label
_atom_site_fract_x
_atom_site_fract_y
_atom_site_fract_z
Si Si1 0.189169 0.832452 0.516040
Si Si2 0.312207 0.327333 0.823737
Si Si3 0.807366 0.164389 0.089004
Si Si4 0.000000 0.327670 0.963555
Si Si5 0.693379 0.336419 0.161903
Si Si6 0.500000 0.826399 0.374864
Si Si7 0.697916 0.664194 0.734909
O O1 0.193830 0.746024 0.556931
O O2 0.329643 0.772059 0.485471
O O3 0.000000 0.814020 0.497779
O O4 0.227564 0.000000 0.525837
O O5 0.500000 0.268690 0.835895
O O6 0.316395 0.500000 0.824973
O O7 0.168881 0.266104 0.853246
O O8 0.267061 0.278668 0.779234
O O9 0.799804 0.241195 0.131326
O O10 0.000000 0.167978 0.074018
O O11 0.741137 0.000000 0.093494
O O12 0.000000 0.264327 0.919300
O O13 0.000000 0.500000 0.961537
O O14 0.500000 0.336214 0.147846
O O15 0.765987 0.500000 0.162611
O O16 0.704196 0.269647 0.205475
O O17 0.500000 0.000000 0.374200
O O18 0.500000 0.668997 0.725185
O O19 0.766482 0.500000 0.729830
#
# Coordination Sequence:
#
# PCOD8189536 Si02
#       7
#     8   8   8   4   8   4   8
#     4  10  20  35  56  80 109 147 183 219 271 327
#     4   8  15  27  44  71 106 140 177 222 267 317
#     4  11  23  38  57  80 105 137 180 226 273 324
#     4   9  18  32  49  77 113 145 183 227 269 325
#     4  11  24  37  50  75 108 141 179 222 269 323
#     4   9  16  26  46  75 107 145 181 215 271 327
#     4   9  18  33  52  75 103 137 180 226 271 317
#
# _framework density 19.501300000000001
#
# number of rings (size 3 to 8) (size 9 to 14) (size 15 to 20)
#    0.000    2.333    0.833    3.000    1.167    7.667 
#    0.000    3.333    0.000    0.000    0.000    2.333 
#    0.000    2.667    0.000    0.000    0.000    0.000 
#
# Total GULP energy -297590.557881 kJ/mol
# GULP energy per Si atom -12399.606578 kJ/mol
# Density = 1.945691 g / cm^3
# Si number density = 19.501300 Si / 1000 Ang^3
#
#
#
# Elastic Constant Matrix: (Units=GPa)
#
#
# Indices 1 2 3 4 5 6 
#
# 1 113.3735 29.5772 62.3437 0.0000 0.0000 0.0000
# 2 29.5772 76.4117 40.9947 0.0000 0.0000 0.0000
# 3 62.3437 40.9947 138.7890 0.0000 0.0000 0.0000
# 4 0.0000 0.0000 0.0000 17.9758 0.0000 0.0000
# 5 0.0000 0.0000 0.0000 0.0000 30.3969 0.0000
# 6 0.0000 0.0000 0.0000 0.0000 0.0000 17.1814
#
#
#
# Elastic Compliance Matrix: (Units=1/GPa)
#
#
# Indices 1 2 3 4 5 6 
#
# 1 0.011986 -0.002081 -0.004769 0.000000 0.000000 0.000000
# 2 -0.002081 0.015913 -0.003766 0.000000 0.000000 0.000000
# 3 -0.004769 -0.003766 0.010460 0.000000 0.000000 0.000000
# 4 0.000000 0.000000 0.000000 0.055630 0.000000 0.000000
# 5 0.000000 0.000000 0.000000 0.000000 0.032898 0.000000
# 6 0.000000 0.000000 0.000000 0.000000 0.000000 0.058202
#
#
# Mechanical properties :
#
#
# Convention : Reuss Voigt Hill
#
# Bulk Modulus (GPa) = 58.38728 66.04505 62.21616
# Shear Modulus (GPa) = 23.58162 26.15474 24.86818
#
# Velocity S-wave (km/s) = 3.48118 3.66618 3.57488
# Velocity P-wave (km/s) = 6.79436 7.20151 7.00089
#
# Compressibility (1/GPa) = 0.01712702
#
# Stress axis : x y z
#
# Youngs Moduli (GPa) = 83.43116 62.84336 95.60361
#
# Poissons Ratio (x) = 0.13076 0.45598
# Poissons Ratio (y) = 0.17359 0.36000
# Poissons Ratio (z) = 0.39792 0.23664
#
# Static dielectric constant tensor:
#      x y z
#    x 3.683140 0.000000 0.000000 
#    y 0.000000 3.203300 0.000000 
#    z 0.000000 0.000000 3.544120 
# 
# 
# High freq. dielectric constant tensor:
#      x y z
#    x 1.769600 0.000000 0.000000 
#    y 0.000000 1.714500 0.000000 
#    z 0.000000 0.000000 1.754290 
# 
# From -- ./inp_files/26881.got.cif
#   From: 2010.03.12/outbox.cif.g09.slc.cpg/sg44_14_cif.got.tgz:26881.got - 2010.04.14 02:36:11.
