data_PCOD8189242
_publ_section_title
;
Structure prediction by ZEFSAII (Michael W. Deem and Ramdas Pophale) SiO2 
 PCOD8189242
Probable space group: I M M 2
;
_chemical_formula_sum "Si O2"
_cell_formula_units_Z 64
_cell_length_a 18.419910
_cell_length_b 9.412036
_cell_length_c 20.656493
_cell_angle_alpha 90.000000
_cell_angle_beta 90.000000
_cell_angle_gamma 90.000000
_cell_volume 3581.192561
_symmetry_space_group_name_H-M "I M M 2"
_symmetry_group_IT_number 44
_symmetry_cell_setting 'orthorhombic'
loop_
_space_group_symop_operation_xyz
x,y,z
-x,-y,z
-x,y,z
x,-y,z
1/2+x,1/2+y,1/2+z
1/2-x,1/2-y,1/2+z
1/2-x,1/2+y,1/2+z
1/2+x,1/2-y,1/2+z
loop_
_atom_site_type_symbol
_atom_site_label
_atom_site_fract_x
_atom_site_fract_y
_atom_site_fract_z
Si Si1 0.585362 0.665674 0.813460
Si Si2 0.161899 0.665913 0.199901
Si Si3 0.083366 0.332895 0.579951
Si Si4 0.914079 0.343166 0.435030
Si Si5 0.580732 0.669177 0.309315
Si Si6 0.415612 0.164182 0.569906
Si Si7 0.913439 0.158035 0.950203
Si Si8 0.830742 0.166166 0.687136
O O1 0.500000 0.693037 0.802995
O O2 0.604150 0.500000 0.813233
O O3 0.629081 0.742591 0.757313
O O4 0.612694 0.730174 0.881831
O O5 0.146164 0.500000 0.213426
O O6 0.124678 0.717696 0.133834
O O7 0.246303 0.698483 0.193000
O O8 0.091087 0.500000 0.592748
O O9 0.109489 0.295040 0.507015
O O10 0.136305 0.248020 0.626677
O O11 0.000000 0.284847 0.591365
O O12 0.881906 0.500000 0.418830
O O13 0.000000 0.354179 0.434490
O O14 0.500000 0.730171 0.296184
O O15 0.577764 0.500000 0.310852
O O16 0.610555 0.719671 0.379807
O O17 0.633015 0.725047 0.252981
O O18 0.500000 0.198328 0.579415
O O19 0.382731 0.244465 0.507656
O O20 0.400775 0.000000 0.557426
O O21 0.000000 0.154797 0.951247
O O22 0.882100 0.000000 0.961023
O O23 0.846637 0.000000 0.677427
#
# Coordination Sequence:
#
# PCOD8189242 Si02
#       8
#     8   8   8   8   8   8   8   8
#     4  10  20  33  52  78 101 123 161 212 257 297
#     4  10  21  35  49  68  99 137 169 198 241 298
#     4   9  18  33  53  77 103 131 165 205 251 302
#     4   8  15  30  52  75  99 128 161 199 247 303
#     4   8  14  27  48  72  95 119 151 193 239 283
#     4   9  17  30  48  68  90 119 156 195 235 282
#     4   8  14  26  46  70  92 114 146 192 240 282
#     4  10  20  33  50  72  99 133 171 206 240 287
#
# _framework density 17.871141000000001
#
# number of rings (size 3 to 8) (size 9 to 14) (size 15 to 20)
#    0.000    3.000    0.000    2.625    0.000    3.500 
#    0.000    4.375    0.000    6.750    0.000    0.000 
#    0.000    0.000    0.000    0.000    0.000    0.000 
#
# Total GULP energy -396689.880286 kJ/mol
# GULP energy per Si atom -12396.558759 kJ/mol
# Density = 1.783047 g / cm^3
# Si number density = 17.871141 Si / 1000 Ang^3
#
#
#
# Elastic Constant Matrix: (Units=GPa)
#
#
# Indices 1 2 3 4 5 6 
#
# 1 58.5680 41.7826 64.0769 0.0000 0.0000 0.0000
# 2 41.7826 76.1912 80.3041 0.0000 0.0000 0.0000
# 3 64.0769 80.3041 191.7963 0.0000 0.0000 0.0000
# 4 0.0000 0.0000 0.0000 35.3565 0.0000 0.0000
# 5 0.0000 0.0000 0.0000 0.0000 2.3549 0.0000
# 6 0.0000 0.0000 0.0000 0.0000 0.0000 17.8070
#
#
#
# Elastic Compliance Matrix: (Units=1/GPa)
#
#
# Indices 1 2 3 4 5 6 
#
# 1 0.031341 -0.011010 -0.005861 0.000000 0.000000 0.000000
# 2 -0.011010 0.027359 -0.007777 0.000000 0.000000 0.000000
# 3 -0.005861 -0.007777 0.010428 0.000000 0.000000 0.000000
# 4 0.000000 0.000000 0.000000 0.028283 0.000000 0.000000
# 5 0.000000 0.000000 0.000000 0.000000 0.424645 0.000000
# 6 0.000000 0.000000 0.000000 0.000000 0.000000 0.056158
#
#
# Mechanical properties :
#
#
# Convention : Reuss Voigt Hill
#
# Bulk Modulus (GPa) = 50.42113 77.65365 64.03739
# Shear Modulus (GPa) = 7.88494 20.46315 14.17404
#
# Velocity S-wave (km/s) = 2.10278 3.38751 2.81930
# Velocity P-wave (km/s) = 5.84556 7.67116 6.81972
#
# Compressibility (1/GPa) = 0.01983295
#
# Stress axis : x y z
#
# Youngs Moduli (GPa) = 31.90738 36.55060 95.89492
#
# Poissons Ratio (x) = 0.40241 0.56202
# Poissons Ratio (y) = 0.35129 0.74577
# Poissons Ratio (z) = 0.18700 0.28425
#
# Static dielectric constant tensor:
#      x y z
#    x 3.011140 0.000000 0.000000 
#    y 0.000000 3.273750 0.000000 
#    z 0.000000 0.000000 3.744730 
# 
# 
# High freq. dielectric constant tensor:
#      x y z
#    x 1.659680 0.000000 0.000000 
#    y 0.000000 1.673170 0.000000 
#    z 0.000000 0.000000 1.710110 
# 
# From -- ./inp_files/24359.got.cif
#   From: 2010.03.12/outbox.cif.g09.slc.cpg/sg44_13_cif.got.tgz:24359.got - 2010.04.14 02:36:11.
