data_PCOD8189058
_publ_section_title
;
Structure prediction by ZEFSAII (Michael W. Deem and Ramdas Pophale) SiO2 
 PCOD8189058
Probable space group: I M M 2
;
_chemical_formula_sum "Si O2"
_cell_formula_units_Z 56
_cell_length_a 20.248466
_cell_length_b 9.282977
_cell_length_c 15.085577
_cell_angle_alpha 90.000000
_cell_angle_beta 90.000000
_cell_angle_gamma 90.000000
_cell_volume 2835.576233
_symmetry_space_group_name_H-M "I M M 2"
_symmetry_group_IT_number 44
_symmetry_cell_setting 'orthorhombic'
loop_
_space_group_symop_operation_xyz
x,y,z
-x,-y,z
-x,y,z
x,-y,z
1/2+x,1/2+y,1/2+z
1/2-x,1/2-y,1/2+z
1/2-x,1/2+y,1/2+z
1/2+x,1/2-y,1/2+z
loop_
_atom_site_type_symbol
_atom_site_label
_atom_site_fract_x
_atom_site_fract_y
_atom_site_fract_z
Si Si1 0.375203 0.828324 0.295800
Si Si2 0.500000 0.346501 0.036517
Si Si3 0.628725 0.329839 0.645101
Si Si4 0.374379 0.833753 0.992696
Si Si5 0.577030 0.332315 0.455920
Si Si6 0.075126 0.663005 0.307981
Si Si7 0.500000 0.343023 0.235631
Si Si8 0.276421 0.830006 0.141970
O O1 0.372254 0.758874 0.394373
O O2 0.437895 0.756620 0.252115
O O3 0.313527 0.784275 0.232954
O O4 0.382539 0.000000 0.302775
O O5 0.500000 0.500000 0.982826
O O6 0.500000 0.392330 0.136738
O O7 0.563859 0.255602 0.020801
O O8 0.630160 0.500000 0.656394
O O9 0.589941 0.283792 0.556556
O O10 0.589157 0.268418 0.727690
O O11 0.702879 0.264403 0.643112
O O12 0.370148 0.812464 0.885966
O O13 0.387557 0.000000 0.016127
O O14 0.312118 0.776894 0.050592
O O15 0.500000 0.300498 0.430528
O O16 0.594509 0.500000 0.445035
O O17 0.080378 0.500000 0.273077
O O18 0.000000 0.692820 0.343562
O O19 0.500000 0.500000 0.288950
O O20 0.271720 0.000000 0.137739
#
# Coordination Sequence:
#
# PCOD8189058 Si02
#       8
#     8   4   8   8   8   8   4   8
#     4  11  21  34  58  87 113 150 190 231 283 337
#     4  11  21  31  51  86 119 146 183 235 288 332
#     4  10  22  41  60  80 112 156 196 234 281 337
#     4  10  19  36  59  82 114 153 188 228 281 343
#     4  10  21  37  58  84 113 146 188 241 290 334
#     4  10  21  37  60  89 114 142 189 245 289 330
#     4  11  21  33  51  82 121 150 181 233 286 338
#     4   9  20  37  58  84 115 152 195 227 269 345
#
# _framework density 19.749074
#
# number of rings (size 3 to 8) (size 9 to 14) (size 15 to 20)
#    0.000    1.857    2.857    1.286    0.000    3.714 
#    0.000    3.571    0.000    0.000    0.000    0.000 
#    0.000    0.000    0.000    0.000    0.000    0.000 
#
# Total GULP energy -346941.090910 kJ/mol
# GULP energy per Si atom -12390.753247 kJ/mol
# Density = 1.970412 g / cm^3
# Si number density = 19.749074 Si / 1000 Ang^3
#
#
#
# Elastic Constant Matrix: (Units=GPa)
#
#
# Indices 1 2 3 4 5 6 
#
# 1 77.2788 20.0650 31.6045 0.0000 0.0000 0.0000
# 2 20.0650 54.1669 39.7823 0.0000 0.0000 0.0000
# 3 31.6045 39.7823 124.2210 0.0000 0.0000 0.0000
# 4 0.0000 0.0000 0.0000 29.3341 0.0000 0.0000
# 5 0.0000 0.0000 0.0000 0.0000 3.6657 0.0000
# 6 0.0000 0.0000 0.0000 0.0000 0.0000 52.3534
#
#
#
# Elastic Compliance Matrix: (Units=1/GPa)
#
#
# Indices 1 2 3 4 5 6 
#
# 1 0.014959 -0.003590 -0.002656 0.000000 0.000000 0.000000
# 2 -0.003590 0.025001 -0.007093 0.000000 0.000000 0.000000
# 3 -0.002656 -0.007093 0.010998 0.000000 0.000000 0.000000
# 4 0.000000 0.000000 0.000000 0.034090 0.000000 0.000000
# 5 0.000000 0.000000 0.000000 0.000000 0.272803 0.000000
# 6 0.000000 0.000000 0.000000 0.000000 0.000000 0.019101
#
#
# Mechanical properties :
#
#
# Convention : Reuss Voigt Hill
#
# Bulk Modulus (GPa) = 41.18970 48.73005 44.95987
# Shear Modulus (GPa) = 12.14410 28.01829 20.08119
#
# Velocity S-wave (km/s) = 2.48245 3.77067 3.19222
# Velocity P-wave (km/s) = 5.39616 6.60949 6.03340
#
# Compressibility (1/GPa) = 0.02427791
#
# Stress axis : x y z
#
# Youngs Moduli (GPa) = 66.85120 39.99846 90.92972
#
# Poissons Ratio (x) = 0.14361 0.24150
# Poissons Ratio (y) = 0.24003 0.64498
# Poissons Ratio (z) = 0.17755 0.28372
#
# Static dielectric constant tensor:
#      x y z
#    x 3.881440 0.000000 0.000000 
#    y 0.000000 3.528370 0.000000 
#    z 0.000000 0.000000 3.921390 
# 
# 
# High freq. dielectric constant tensor:
#      x y z
#    x 1.756450 0.000000 0.000000 
#    y 0.000000 1.756350 0.000000 
#    z 0.000000 0.000000 1.784420 
# 
# From -- ./inp_files/19234.got.cif
#   From: 2010.03.12/outbox.cif.g09.slc.cpg/sg44_10_cif.got.tgz:19234.got - 2010.04.14 02:36:11.
