data_PCOD8189377
_publ_section_title
;
Structure prediction by ZEFSAII (Michael W. Deem and Ramdas Pophale) SiO2 
 PCOD8189377
Probable space group: I M M 2
;
_chemical_formula_sum "Si O2"
_cell_formula_units_Z 56
_cell_length_a 9.350462
_cell_length_b 17.432867
_cell_length_c 17.839157
_cell_angle_alpha 90.000000
_cell_angle_beta 90.000000
_cell_angle_gamma 90.000000
_cell_volume 2907.878217
_symmetry_space_group_name_H-M "I M M 2"
_symmetry_group_IT_number 44
_symmetry_cell_setting 'orthorhombic'
loop_
_space_group_symop_operation_xyz
x,y,z
-x,-y,z
-x,y,z
x,-y,z
1/2+x,1/2+y,1/2+z
1/2-x,1/2-y,1/2+z
1/2-x,1/2+y,1/2+z
1/2+x,1/2-y,1/2+z
loop_
_atom_site_type_symbol
_atom_site_label
_atom_site_fract_x
_atom_site_fract_y
_atom_site_fract_z
Si Si1 0.159222 0.409715 0.307250
Si Si2 0.332529 0.661872 0.710858
Si Si3 0.666878 0.168165 0.658102
Si Si4 0.668883 0.415055 0.860969
Si Si5 0.340773 0.089655 0.084169
Si Si6 0.339233 0.591696 0.445594
Si Si7 0.667695 0.411123 0.027902
O O1 0.151922 0.500000 0.314541
O O2 0.215309 0.388095 0.225023
O O3 0.265586 0.376501 0.369990
O O4 0.000000 0.374403 0.319715
O O5 0.500000 0.644219 0.699772
O O6 0.292553 0.747126 0.685810
O O7 0.285907 0.646424 0.797296
O O8 0.242184 0.603565 0.660996
O O9 0.500000 0.160135 0.640141
O O10 0.751951 0.145833 0.583971
O O11 0.500000 0.421376 0.865623
O O12 0.729886 0.500000 0.840913
O O13 0.722191 0.389972 0.943795
O O14 0.500000 0.126473 0.085691
O O15 0.355192 0.000000 0.071064
O O16 0.250113 0.125345 0.015497
O O17 0.500000 0.624412 0.449899
O O18 0.341748 0.500000 0.446549
O O19 0.500000 0.396309 0.037103
O O20 0.704399 0.500000 0.045533
#
# Coordination Sequence:
#
# PCOD8189377 Si02
#       7
#     8   8   8   8   8   8   8
#     4   9  17  31  50  71 101 141 180 218 259 305
#     4  10  20  35  54  77 108 142 178 218 266 326
#     4  10  21  35  51  77 113 146 177 216 268 328
#     4   8  15  31  56  81 102 132 179 230 273 315
#     4  10  20  34  53  77 105 137 175 219 266 316
#     4   9  17  30  50  76 102 130 169 213 256 304
#     4   9  18  34  57  82 106 137 184 235 276 321
#
# _framework density 19.258029000000001
#
# number of rings (size 3 to 8) (size 9 to 14) (size 15 to 20)
#    0.000    2.714    0.000    2.571    0.000    5.143 
#    2.571    2.143    0.000    0.857    0.000    0.000 
#    0.000    0.000    0.000    0.000    0.000    0.000 
#
# Total GULP energy -347106.308587 kJ/mol
# GULP energy per Si atom -12396.653878 kJ/mol
# Density = 1.921420 g / cm^3
# Si number density = 19.258029 Si / 1000 Ang^3
#
#
#
# Elastic Constant Matrix: (Units=GPa)
#
#
# Indices 1 2 3 4 5 6 
#
# 1 91.1373 30.4301 70.7082 0.0000 0.0000 0.0000
# 2 30.4301 51.4494 51.9207 0.0000 0.0000 0.0000
# 3 70.7082 51.9207 178.4615 0.0000 0.0000 0.0000
# 4 0.0000 0.0000 0.0000 22.5934 0.0000 0.0000
# 5 0.0000 0.0000 0.0000 0.0000 32.8759 0.0000
# 6 0.0000 0.0000 0.0000 0.0000 0.0000 18.8814
#
#
#
# Elastic Compliance Matrix: (Units=1/GPa)
#
#
# Indices 1 2 3 4 5 6 
#
# 1 0.016543 -0.004487 -0.005249 0.000000 0.000000 0.000000
# 2 -0.004487 0.028732 -0.006581 0.000000 0.000000 0.000000
# 3 -0.005249 -0.006581 0.009598 0.000000 0.000000 0.000000
# 4 0.000000 0.000000 0.000000 0.044261 0.000000 0.000000
# 5 0.000000 0.000000 0.000000 0.000000 0.030417 0.000000
# 6 0.000000 0.000000 0.000000 0.000000 0.000000 0.052962
#
#
# Mechanical properties :
#
#
# Convention : Reuss Voigt Hill
#
# Bulk Modulus (GPa) = 44.96837 69.68513 57.32675
# Shear Modulus (GPa) = 22.46568 26.06942 24.26755
#
# Velocity S-wave (km/s) = 3.41920 3.68325 3.55368
# Velocity P-wave (km/s) = 6.24412 7.37238 6.83158
#
# Compressibility (1/GPa) = 0.02223785
#
# Stress axis : x y z
#
# Youngs Moduli (GPa) = 60.44781 34.80411 104.18975
#
# Poissons Ratio (x) = 0.15618 0.54689
# Poissons Ratio (y) = 0.27126 0.68570
# Poissons Ratio (z) = 0.31729 0.22905
#
# Static dielectric constant tensor:
#      x y z
#    x 3.472180 0.000000 0.000000 
#    y 0.000000 3.199880 0.000000 
#    z 0.000000 0.000000 3.774750 
# 
# 
# High freq. dielectric constant tensor:
#      x y z
#    x 1.731810 0.000000 0.000000 
#    y 0.000000 1.717950 0.000000 
#    z 0.000000 0.000000 1.763490 
# 
# From -- ./inp_files/20653.got.cif
#   From: 2010.03.12/outbox.cif.g09.slc.cpg/sg44_11_cif.got.tgz:20653.got - 2010.04.14 02:36:11.
