data_PCOD8189446
_publ_section_title
;
Structure prediction by ZEFSAII (Michael W. Deem and Ramdas Pophale) SiO2 
 PCOD8189446
Probable space group: I M M 2
;
_chemical_formula_sum "Si O2"
_cell_formula_units_Z 48
_cell_length_a 8.743029
_cell_length_b 23.256550
_cell_length_c 11.860097
_cell_angle_alpha 90.000000
_cell_angle_beta 90.000000
_cell_angle_gamma 90.000000
_cell_volume 2411.545440
_symmetry_space_group_name_H-M "I M M 2"
_symmetry_group_IT_number 44
_symmetry_cell_setting 'orthorhombic'
loop_
_space_group_symop_operation_xyz
x,y,z
-x,-y,z
-x,y,z
x,-y,z
1/2+x,1/2+y,1/2+z
1/2-x,1/2-y,1/2+z
1/2-x,1/2+y,1/2+z
1/2+x,1/2-y,1/2+z
loop_
_atom_site_type_symbol
_atom_site_label
_atom_site_fract_x
_atom_site_fract_y
_atom_site_fract_z
Si Si1 0.176747 0.150317 0.939540
Si Si2 0.179355 0.650804 0.201732
Si Si3 0.820410 0.224753 0.147818
Si Si4 0.330191 0.065257 0.093115
Si Si5 0.318844 0.381745 0.793562
Si Si6 0.319433 0.434064 0.028876
O O1 0.287697 0.148976 0.833786
O O2 0.000000 0.153156 0.902129
O O3 0.222033 0.202806 0.022763
O O4 0.207246 0.092826 0.009375
O O5 0.250910 0.711641 0.159521
O O6 0.000000 0.647036 0.179854
O O7 0.255300 0.596688 0.139999
O O8 0.762755 0.181004 0.246898
O O9 0.000000 0.229439 0.162862
O O10 0.500000 0.093569 0.083978
O O11 0.266624 0.070342 0.219826
O O12 0.342081 0.000000 0.057601
O O13 0.500000 0.388736 0.778205
O O14 0.269017 0.394822 0.921990
O O15 0.500000 0.435972 0.038599
O O16 0.257208 0.500000 0.020161
#
# Coordination Sequence:
#
# PCOD8189446 Si02
#       6
#     8   8   8   8   8   8
#     4  10  21  39  59  81 111 148 192 235 280 342
#     4  11  23  38  58  85 117 152 189 237 294 348
#     4   8  18  36  58  85 115 143 182 235 292 349
#     4  10  20  34  55  85 117 147 184 233 288 339
#     4   9  18  36  61  86 114 149 191 240 286 337
#     4  10  22  39  59  85 117 158 204 240 280 343
#
# _framework density 19.904249
#
# number of rings (size 3 to 8) (size 9 to 14) (size 15 to 20)
#    0.000    2.333    0.000    3.000    2.333    3.667 
#    0.000    7.500    0.000    0.000    0.000    0.000 
#    0.000    0.000    0.000    0.000    0.000    0.000 
#
# Total GULP energy -297494.718913 kJ/mol
# GULP energy per Si atom -12395.613288 kJ/mol
# Density = 1.985895 g / cm^3
# Si number density = 19.904249 Si / 1000 Ang^3
#
#
#
# Elastic Constant Matrix: (Units=GPa)
#
#
# Indices 1 2 3 4 5 6 
#
# 1 25.9282 22.6466 14.4879 -0.0002 -0.0001 -0.0001
# 2 22.6466 114.1399 49.6454 -0.0002 0.0003 0.0000
# 3 14.4879 49.6454 113.1334 -0.0010 0.0002 0.0001
# 4 -0.0002 -0.0002 -0.0010 15.0900 0.0002 0.0000
# 5 -0.0001 0.0003 0.0002 0.0002 25.0279 0.0000
# 6 -0.0001 0.0000 0.0001 0.0000 0.0000 22.8616
#
#
#
# Elastic Compliance Matrix: (Units=1/GPa)
#
#
# Indices 1 2 3 4 5 6 
#
# 1 0.047170 -0.008320 -0.002390 0.000000 0.000000 0.000000
# 2 -0.008320 0.012295 -0.004330 0.000000 0.000000 0.000000
# 3 -0.002390 -0.004330 0.011045 0.000001 0.000000 0.000000
# 4 0.000000 0.000000 0.000001 0.066269 -0.000001 0.000000
# 5 0.000000 0.000000 0.000000 -0.000001 0.039955 0.000000
# 6 0.000000 0.000000 0.000000 0.000000 0.000000 0.043741
#
#
# Mechanical properties :
#
#
# Convention : Reuss Voigt Hill
#
# Bulk Modulus (GPa) = 24.73306 47.41793 36.07549
# Shear Modulus (GPa) = 18.93707 23.69068 21.31388
#
# Velocity S-wave (km/s) = 3.08784 3.45372 3.27589
# Velocity P-wave (km/s) = 5.01657 6.30706 5.69846
#
# Compressibility (1/GPa) = 0.04043171
#
# Stress axis : x y z
#
# Youngs Moduli (GPa) = 21.19990 81.33240 90.53661
#
# Poissons Ratio (x) = 0.67665 0.21636
# Poissons Ratio (y) = 0.17637 0.39202
# Poissons Ratio (z) = 0.05066 0.35217
#
# Static dielectric constant tensor:
#      x y z
#    x 3.525730 0.000000 0.000000 
#    y 0.000000 3.882030 0.000000 
#    z 0.000000 0.000000 3.590810 
# 
# 
# High freq. dielectric constant tensor:
#      x y z
#    x 1.761070 0.000000 0.000000 
#    y 0.000000 1.777750 0.000000 
#    z 0.000000 0.000000 1.775300 
# 
# From -- ./inp_files/11143.got.cif
#   From: 2010.03.12/outbox.cif.g09.slc.cpg/sg44_6_cif.got.tgz:11143.got - 2010.04.14 02:36:11.
