data_PCOD8189530
_publ_section_title
;
Structure prediction by ZEFSAII (Michael W. Deem and Ramdas Pophale) SiO2 
 PCOD8189530
Probable space group: I M M 2
;
_chemical_formula_sum "Si O2"
_cell_formula_units_Z 48
_cell_length_a 29.720670
_cell_length_b 9.181282
_cell_length_c 9.903820
_cell_angle_alpha 90.000000
_cell_angle_beta 90.000000
_cell_angle_gamma 90.000000
_cell_volume 2702.493518
_symmetry_space_group_name_H-M "I M M 2"
_symmetry_group_IT_number 44
_symmetry_cell_setting 'orthorhombic'
loop_
_space_group_symop_operation_xyz
x,y,z
-x,-y,z
-x,y,z
x,-y,z
1/2+x,1/2+y,1/2+z
1/2-x,1/2-y,1/2+z
1/2-x,1/2+y,1/2+z
1/2+x,1/2-y,1/2+z
loop_
_atom_site_type_symbol
_atom_site_label
_atom_site_fract_x
_atom_site_fract_y
_atom_site_fract_z
Si Si1 0.447373 0.333656 0.408630
Si Si2 0.282000 0.831080 0.936455
Si Si3 0.118824 0.330626 0.719016
Si Si4 0.789430 0.171409 0.707900
Si Si5 0.883714 0.334268 0.408798
Si Si6 0.550016 0.671579 0.714440
O O1 0.500000 0.316379 0.379561
O O2 0.432245 0.500000 0.381916
O O3 0.421421 0.225163 0.311092
O O4 0.436134 0.287394 0.561935
O O5 0.246903 0.790281 0.821379
O O6 0.331728 0.794791 0.881214
O O7 0.279497 0.000000 0.979432
O O8 0.271042 0.735852 0.067850
O O9 0.127842 0.500000 0.747204
O O10 0.164048 0.243736 0.753967
O O11 0.104554 0.304293 0.564601
O O12 0.796597 0.000000 0.691516
O O13 0.893855 0.500000 0.369089
O O14 0.914269 0.233657 0.317641
O O15 0.500000 0.733194 0.746179
O O16 0.549415 0.500000 0.730896
#
# Coordination Sequence:
#
# PCOD8189530 Si02
#       6
#     8   8   8   8   8   8
#     4   9  19  36  55  76 104 136 172 214 258 308
#     4   9  20  37  53  75 107 136 168 214 260 304
#     4  10  21  36  53  76 107 138 172 215 259 305
#     4  10  20  35  56  79 104 137 175 212 256 310
#     4   9  19  35  52  73 103 135 167 207 254 303
#     4   9  19  35  53  75 103 133 168 211 255 301
#
# _framework density 17.761374
#
# number of rings (size 3 to 8) (size 9 to 14) (size 15 to 20)
#    0.000    2.667    0.000    3.000    0.000    8.000 
#    0.000    8.333    0.000    0.000    0.000    0.000 
#    0.000    0.000    0.000    0.000    0.000    0.000 
#
# Total GULP energy -297629.928155 kJ/mol
# GULP energy per Si atom -12401.247006 kJ/mol
# Density = 1.772095 g / cm^3
# Si number density = 17.761374 Si / 1000 Ang^3
#
#
#
# Elastic Constant Matrix: (Units=GPa)
#
#
# Indices 1 2 3 4 5 6 
#
# 1 97.7256 54.3675 79.1541 0.0000 0.0000 0.0000
# 2 54.3675 77.0434 62.1086 0.0000 0.0000 0.0000
# 3 79.1541 62.1086 107.9962 0.0000 0.0000 0.0000
# 4 0.0000 0.0000 0.0000 33.7609 0.0000 0.0000
# 5 0.0000 0.0000 0.0000 0.0000 30.5418 0.0000
# 6 0.0000 0.0000 0.0000 0.0000 0.0000 32.4788
#
#
#
# Elastic Compliance Matrix: (Units=1/GPa)
#
#
# Indices 1 2 3 4 5 6 
#
# 1 0.026443 -0.005660 -0.016126 0.000000 0.000000 0.000000
# 2 -0.005660 0.025410 -0.010465 0.000000 0.000000 0.000000
# 3 -0.016126 -0.010465 0.027097 0.000000 0.000000 0.000000
# 4 0.000000 0.000000 0.000000 0.029620 0.000000 0.000000
# 5 0.000000 0.000000 0.000000 0.000000 0.032742 0.000000
# 6 0.000000 0.000000 0.000000 0.000000 0.000000 0.030789
#
#
# Mechanical properties :
#
#
# Convention : Reuss Voigt Hill
#
# Bulk Modulus (GPa) = 69.21118 74.89173 72.05145
# Shear Modulus (GPa) = 20.71087 25.16529 22.93808
#
# Velocity S-wave (km/s) = 3.41847 3.76820 3.59759
# Velocity P-wave (km/s) = 7.39142 7.82237 7.60995
#
# Compressibility (1/GPa) = 0.01444853
#
# Stress axis : x y z
#
# Youngs Moduli (GPa) = 37.81724 39.35432 36.90462
#
# Poissons Ratio (x) = 0.22276 0.59511
# Poissons Ratio (y) = 0.21406 0.38620
# Poissons Ratio (z) = 0.60983 0.41183
#
# Static dielectric constant tensor:
#      x y z
#    x 3.357210 0.000000 0.000000 
#    y 0.000000 3.266220 0.000000 
#    z 0.000000 0.000000 3.318580 
# 
# 
# High freq. dielectric constant tensor:
#      x y z
#    x 1.690470 0.000000 0.000000 
#    y 0.000000 1.689840 0.000000 
#    z 0.000000 0.000000 1.688030 
# 
# From -- ./inp_files/4868.got.cif
#   From: 2010.03.12/outbox.cif.g09.slc.cpg/sg44_3_cif.got.tgz:4868.got - 2010.04.14 02:36:11.
