data_PCOD8189421
_publ_section_title
;
Structure prediction by ZEFSAII (Michael W. Deem and Ramdas Pophale) SiO2 
 PCOD8189421
Probable space group: I M M 2
;
_chemical_formula_sum "Si O2"
_cell_formula_units_Z 64
_cell_length_a 8.832905
_cell_length_b 16.075315
_cell_length_c 22.815527
_cell_angle_alpha 90.000000
_cell_angle_beta 90.000000
_cell_angle_gamma 90.000000
_cell_volume 3239.616155
_symmetry_space_group_name_H-M "I M M 2"
_symmetry_group_IT_number 44
_symmetry_cell_setting 'orthorhombic'
loop_
_space_group_symop_operation_xyz
x,y,z
-x,-y,z
-x,y,z
x,-y,z
1/2+x,1/2+y,1/2+z
1/2-x,1/2-y,1/2+z
1/2-x,1/2+y,1/2+z
1/2+x,1/2-y,1/2+z
loop_
_atom_site_type_symbol
_atom_site_label
_atom_site_fract_x
_atom_site_fract_y
_atom_site_fract_z
Si Si1 0.830155 0.121712 0.419960
Si Si2 0.677311 0.259083 0.745536
Si Si3 0.170527 0.408395 0.800771
Si Si4 0.676009 0.411425 0.457849
Si Si5 0.821958 0.405086 0.044520
Si Si6 0.665243 0.198335 0.872121
Si Si7 0.820705 0.764609 0.628601
Si Si8 0.178886 0.096999 0.086838
O O1 0.742151 0.083095 0.365200
O O2 0.741572 0.101371 0.479112
O O3 0.840961 0.219164 0.410264
O O4 0.000000 0.084138 0.423657
O O5 0.500000 0.260022 0.730788
O O6 0.731804 0.353497 0.755911
O O7 0.714118 0.210461 0.805290
O O8 0.768575 0.211768 0.694399
O O9 0.167917 0.500000 0.772702
O O10 0.000000 0.372184 0.806173
O O11 0.500000 0.423082 0.464320
O O12 0.753903 0.500000 0.445642
O O13 0.708205 0.355707 0.402347
O O14 0.732052 0.378786 0.520870
O O15 0.790414 0.500000 0.067626
O O16 0.746946 0.333938 0.084944
O O17 0.000000 0.386950 0.043024
O O18 0.500000 0.155522 0.874722
O O19 0.762885 0.668872 0.623313
O O20 0.000000 0.766974 0.621806
O O21 0.000000 0.107202 0.096682
O O22 0.225174 0.000000 0.101379
#
# Coordination Sequence:
#
# PCOD8189421 Si02
#       8
#     8   8   8   8   8   8   8   8
#     4  10  20  34  55  85 118 148 182 227 280 340
#     4  10  22  40  58  76 104 144 190 234 277 333
#     4  10  20  34  54  83 117 149 183 225 275 334
#     4   9  18  32  52  80 110 139 174 216 264 322
#     4  11  24  41  61  85 114 151 195 241 290 346
#     4   9  19  34  53  79 107 139 178 219 269 326
#     4  12  25  40  60  85 114 149 192 243 295 346
#     4   9  19  37  60  86 118 156 193 227 272 337
#
# _framework density 19.755427000000001
#
# number of rings (size 3 to 8) (size 9 to 14) (size 15 to 20)
#    0.000    2.000    0.000    5.250    0.000   10.000 
#    0.000    1.875    0.000    0.750    0.000    0.000 
#    0.000    0.000    0.000    0.000    0.000    0.000 
#
# Total GULP energy -396524.181347 kJ/mol
# GULP energy per Si atom -12391.380667 kJ/mol
# Density = 1.971046 g / cm^3
# Si number density = 19.755427 Si / 1000 Ang^3
#
#
#
# Elastic Constant Matrix: (Units=GPa)
#
#
# Indices 1 2 3 4 5 6 
#
# 1 99.9986 31.8495 32.6677 0.0000 0.0000 0.0000
# 2 31.8495 66.6181 37.5368 0.0000 0.0000 0.0000
# 3 32.6677 37.5368 85.8441 0.0000 0.0000 0.0000
# 4 0.0000 0.0000 0.0000 1.4329 0.0000 0.0000
# 5 0.0000 0.0000 0.0000 0.0000 35.6516 0.0000
# 6 0.0000 0.0000 0.0000 0.0000 0.0000 13.1372
#
#
#
# Elastic Compliance Matrix: (Units=1/GPa)
#
#
# Indices 1 2 3 4 5 6 
#
# 1 0.012282 -0.004297 -0.002795 0.000000 0.000000 0.000000
# 2 -0.004297 0.021422 -0.007732 0.000000 0.000000 0.000000
# 3 -0.002795 -0.007732 0.016094 0.000000 0.000000 0.000000
# 4 0.000000 0.000000 0.000000 0.697907 0.000000 0.000000
# 5 0.000000 0.000000 0.000000 0.000000 0.028049 0.000000
# 6 0.000000 0.000000 0.000000 0.000000 0.000000 0.076120
#
#
# Mechanical properties :
#
#
# Convention : Reuss Voigt Hill
#
# Bulk Modulus (GPa) = 49.62854 50.72986 50.17920
# Shear Modulus (GPa) = 5.62913 20.07145 12.85029
#
# Velocity S-wave (km/s) = 1.68985 3.19093 2.55320
# Velocity P-wave (km/s) = 5.38363 6.26983 5.84355
#
# Compressibility (1/GPa) = 0.02014969
#
# Stress axis : x y z
#
# Youngs Moduli (GPa) = 81.42156 46.68114 62.13686
#
# Poissons Ratio (x) = 0.20059 0.17366
# Poissons Ratio (y) = 0.34987 0.48044
# Poissons Ratio (z) = 0.22756 0.36093
#
# Static dielectric constant tensor:
#      x y z
#    x 3.690300 0.000000 0.000000 
#    y 0.000000 3.636760 0.000000 
#    z 0.000000 0.000000 3.559100 
# 
# 
# High freq. dielectric constant tensor:
#      x y z
#    x 1.773710 0.000000 0.000000 
#    y 0.000000 1.764410 0.000000 
#    z 0.000000 0.000000 1.768530 
# 
# From -- ./inp_files/23327.got.cif
#   From: 2010.03.12/outbox.cif.g09.slc.cpg/sg44_12_cif.got.tgz:23327.got - 2010.04.14 02:36:11.
