data_PCOD8189465
_publ_section_title
;
Structure prediction by ZEFSAII (Michael W. Deem and Ramdas Pophale) SiO2 
 PCOD8189465
Probable space group: I M M 2
;
_chemical_formula_sum "Si O2"
_cell_formula_units_Z 64
_cell_length_a 8.918676
_cell_length_b 32.760787
_cell_length_c 11.549623
_cell_angle_alpha 90.000000
_cell_angle_beta 90.000000
_cell_angle_gamma 90.000000
_cell_volume 3374.601704
_symmetry_space_group_name_H-M "I M M 2"
_symmetry_group_IT_number 44
_symmetry_cell_setting 'orthorhombic'
loop_
_space_group_symop_operation_xyz
x,y,z
-x,-y,z
-x,y,z
x,-y,z
1/2+x,1/2+y,1/2+z
1/2-x,1/2-y,1/2+z
1/2-x,1/2+y,1/2+z
1/2+x,1/2-y,1/2+z
loop_
_atom_site_type_symbol
_atom_site_label
_atom_site_fract_x
_atom_site_fract_y
_atom_site_fract_z
Si Si1 0.166143 0.047744 0.891320
Si Si2 0.676884 0.952593 0.655560
Si Si3 0.832003 0.830038 0.937412
Si Si4 0.822254 0.119464 0.520919
Si Si5 0.826933 0.398952 0.555861
Si Si6 0.329414 0.721260 0.660725
Si Si7 0.172863 0.194755 0.680599
Si Si8 0.822292 0.351625 0.783854
O O1 0.266205 0.061413 0.782039
O O2 0.000000 0.066466 0.874256
O O3 0.157070 0.000000 0.898742
O O4 0.235460 0.061516 0.014504
O O5 0.500000 0.946329 0.650747
O O6 0.753118 0.923914 0.559284
O O7 0.719986 0.000000 0.630639
O O8 0.795144 0.811140 0.814799
O O9 0.000000 0.848864 0.940370
O O10 0.710207 0.864794 0.960335
O O11 0.815678 0.794897 0.031210
O O12 0.774821 0.154708 0.610921
O O13 0.757797 0.131801 0.397026
O O14 0.000000 0.114460 0.512807
O O15 0.776882 0.383311 0.682169
O O16 0.000000 0.409975 0.554100
O O17 0.500000 0.721273 0.705697
O O18 0.270418 0.766745 0.645468
O O19 0.234315 0.693727 0.750603
O O20 0.000000 0.204300 0.653914
O O21 0.000000 0.349608 0.801979
#
# Coordination Sequence:
#
# PCOD8189465 Si02
#       8
#     8   8   8   8   8   8   8   8
#     4  10  20  34  56  86 118 150 183 228 286 344
#     4  10  21  38  61  89 121 156 194 239 292 348
#     4   9  19  36  55  76 105 141 179 222 279 338
#     4  11  23  38  59  88 118 154 199 244 293 351
#     4  10  20  35  57  82 107 142 185 232 284 337
#     4  10  21  36  56  82 108 143 188 233 285 343
#     4  10  22  37  54  80 113 146 182 232 285 340
#     4  10  22  40  59  79 112 155 195 239 292 347
#
# _framework density 18.965199999999999
#
# number of rings (size 3 to 8) (size 9 to 14) (size 15 to 20)
#    0.000    2.000    0.000    3.000    1.750    6.000 
#    0.000    0.625    0.000    0.750    0.000    0.000 
#    0.000    0.000    0.000    0.000    0.000    0.000 
#
# Total GULP energy -396810.577057 kJ/mol
# GULP energy per Si atom -12400.330533 kJ/mol
# Density = 1.892203 g / cm^3
# Si number density = 18.965200 Si / 1000 Ang^3
#
#
#
# Elastic Constant Matrix: (Units=GPa)
#
#
# Indices 1 2 3 4 5 6 
#
# 1 96.3595 48.6238 51.5905 -0.0019 -0.0011 -0.0010
# 2 48.6238 91.1644 57.5380 -0.0053 -0.0050 -0.0043
# 3 51.5905 57.5380 102.9369 -0.0095 -0.0040 -0.0044
# 4 -0.0019 -0.0053 -0.0095 24.0410 -0.0011 -0.0011
# 5 -0.0011 -0.0050 -0.0040 -0.0011 30.6592 -0.0029
# 6 -0.0010 -0.0043 -0.0044 -0.0011 -0.0029 33.8863
#
#
#
# Elastic Compliance Matrix: (Units=1/GPa)
#
#
# Indices 1 2 3 4 5 6 
#
# 1 0.015657 -0.005251 -0.004912 -0.000002 -0.000001 -0.000001
# 2 -0.005251 0.018709 -0.007826 0.000001 0.000002 0.000001
# 3 -0.004912 -0.007826 0.016551 0.000004 0.000001 0.000001
# 4 -0.000002 0.000001 0.000004 0.041596 0.000001 0.000001
# 5 -0.000001 0.000002 0.000001 0.000001 0.032617 0.000003
# 6 -0.000001 0.000001 0.000001 0.000001 0.000003 0.029510
#
#
# Mechanical properties :
#
#
# Convention : Reuss Voigt Hill
#
# Bulk Modulus (GPa) = 66.93705 67.32950 67.13328
# Shear Modulus (GPa) = 25.56255 26.56454 26.06354
#
# Velocity S-wave (km/s) = 3.67531 3.74665 3.71115
# Velocity P-wave (km/s) = 7.30629 7.36853 7.33747
#
# Compressibility (1/GPa) = 0.01493941
#
# Stress axis : x y z
#
# Youngs Moduli (GPa) = 63.86766 53.44966 60.41847
#
# Poissons Ratio (x) = 0.28065 0.29679
# Poissons Ratio (y) = 0.33535 0.47285
# Poissons Ratio (z) = 0.31374 0.41831
#
# Static dielectric constant tensor:
#      x y z
#    x 3.649180 0.000000 0.000000 
#    y 0.000000 3.487290 0.000000 
#    z 0.000000 0.000000 3.544530 
# 
# 
# High freq. dielectric constant tensor:
#      x y z
#    x 1.747290 0.000000 0.000000 
#    y 0.000000 1.738060 0.000000 
#    z 0.000000 0.000000 1.734620 
# 
# From -- ./inp_files/11413.got.cif
#   From: 2010.03.12/outbox.cif.g09.slc.cpg/sg44_6_cif.got.tgz:11413.got - 2010.04.14 02:36:11.
