data_PCOD8189940
_publ_section_title
;
Structure prediction by ZEFSAII (Michael W. Deem and Ramdas Pophale) SiO2 
 PCOD8189940
Probable space group: I M M 2
;
_chemical_formula_sum "Si O2"
_cell_formula_units_Z 64
_cell_length_a 8.892642
_cell_length_b 27.516743
_cell_length_c 14.425285
_cell_angle_alpha 90.000000
_cell_angle_beta 90.000000
_cell_angle_gamma 90.000000
_cell_volume 3529.817393
_symmetry_space_group_name_H-M "I M M 2"
_symmetry_group_IT_number 44
_symmetry_cell_setting 'orthorhombic'
loop_
_space_group_symop_operation_xyz
x,y,z
-x,-y,z
-x,y,z
x,-y,z
1/2+x,1/2+y,1/2+z
1/2-x,1/2-y,1/2+z
1/2-x,1/2+y,1/2+z
1/2+x,1/2-y,1/2+z
loop_
_atom_site_type_symbol
_atom_site_label
_atom_site_fract_x
_atom_site_fract_y
_atom_site_fract_z
Si Si1 0.172098 0.556417 0.834970
Si Si2 0.676004 0.361365 0.157867
Si Si3 0.675041 0.633160 0.710077
Si Si4 0.172603 0.329166 0.332480
Si Si5 0.826298 0.556257 0.047216
Si Si6 0.322655 0.778275 0.538880
Si Si7 0.823608 0.675779 0.542579
Si Si8 0.673090 0.282081 0.848173
O O1 0.195432 0.500000 0.813203
O O2 0.279722 0.585613 0.766750
O O3 0.000000 0.571708 0.817442
O O4 0.216976 0.567760 0.940937
O O5 0.500000 0.352897 0.145856
O O6 0.720918 0.361122 0.266394
O O7 0.720313 0.412941 0.114230
O O8 0.767120 0.318392 0.110079
O O9 0.500000 0.630749 0.687819
O O10 0.764460 0.634835 0.613110
O O11 0.718519 0.681245 0.767301
O O12 0.216341 0.341216 0.438530
O O13 0.201529 0.272253 0.312135
O O14 0.000000 0.342893 0.312683
O O15 0.797637 0.500000 0.069697
O O16 0.000000 0.569883 0.064543
O O17 0.500000 0.774343 0.546261
O O18 0.254442 0.726607 0.566554
O O19 0.276009 0.794444 0.435975
O O20 0.000000 0.683594 0.553332
O O21 0.500000 0.288606 0.879150
#
# Coordination Sequence:
#
# PCOD8189940 Si02
#       8
#     8   8   8   8   8   8   8   8
#     4   9  19  36  56  78 105 137 173 212 255 305
#     4  12  23  33  51  78 107 139 174 212 256 309
#     4  11  21  32  52  80 108 138 172 211 257 310
#     4   9  19  36  54  72 100 138 177 216 256 300
#     4   9  19  37  59  81 106 136 170 210 256 306
#     4  11  21  33  51  75 106 141 176 215 256 302
#     4  10  21  37  55  74 101 137 176 218 260 304
#     4   9  19  34  50  74 107 139 172 211 256 307
#
# _framework density 18.131249
#
# number of rings (size 3 to 8) (size 9 to 14) (size 15 to 20)
#    0.000    2.000    0.000    6.000    0.000    7.500 
#    0.000    1.250    0.000    0.750    0.000    5.250 
#    0.000    0.000    0.000    0.000    0.000    0.000 
#
# Total GULP energy -396925.085474 kJ/mol
# GULP energy per Si atom -12403.908921 kJ/mol
# Density = 1.808998 g / cm^3
# Si number density = 18.131249 Si / 1000 Ang^3
#
#
#
# Elastic Constant Matrix: (Units=GPa)
#
#
# Indices 1 2 3 4 5 6 
#
# 1 93.8277 38.6614 52.3441 -0.0002 0.0000 0.0000
# 2 38.6614 64.6573 55.7544 0.0000 0.0000 0.0000
# 3 52.3441 55.7544 106.7013 -0.0002 -0.0002 -0.0001
# 4 -0.0002 0.0000 -0.0002 27.7945 -0.0001 0.0000
# 5 0.0000 0.0000 -0.0002 -0.0001 30.0656 0.0000
# 6 0.0000 0.0000 -0.0001 0.0000 0.0000 30.0254
#
#
#
# Elastic Compliance Matrix: (Units=1/GPa)
#
#
# Indices 1 2 3 4 5 6 
#
# 1 0.015492 -0.004932 -0.005023 0.000000 0.000000 0.000000
# 2 -0.004932 0.029720 -0.013110 0.000000 0.000000 0.000000
# 3 -0.005023 -0.013110 0.018686 0.000000 0.000000 0.000000
# 4 0.000000 0.000000 0.000000 0.035978 0.000000 0.000000
# 5 0.000000 0.000000 0.000000 0.000000 0.033261 0.000000
# 6 0.000000 0.000000 0.000000 0.000000 0.000000 0.033305
#
#
# Mechanical properties :
#
#
# Convention : Reuss Voigt Hill
#
# Bulk Modulus (GPa) = 56.27893 62.07846 59.17869
# Shear Modulus (GPa) = 22.88372 25.47218 24.17795
#
# Velocity S-wave (km/s) = 3.55648 3.75224 3.65567
# Velocity P-wave (km/s) = 6.92617 7.28595 7.10834
#
# Compressibility (1/GPa) = 0.01776864
#
# Stress axis : x y z
#
# Youngs Moduli (GPa) = 64.54852 33.64702 53.51529
#
# Poissons Ratio (x) = 0.16596 0.26879
# Poissons Ratio (y) = 0.31838 0.70159
# Poissons Ratio (z) = 0.32420 0.44111
#
# Static dielectric constant tensor:
#      x y z
#    x 3.316440 0.000000 0.000000 
#    y 0.000000 3.152540 0.000000 
#    z 0.000000 0.000000 3.453950 
# 
# 
# High freq. dielectric constant tensor:
#      x y z
#    x 1.705930 0.000000 0.000000 
#    y 0.000000 1.680600 0.000000 
#    z 0.000000 0.000000 1.704680 
# 
# From -- ./inp_files/16767.got.cif
#   From: 2010.03.12/outbox.cif.g09.slc.cpg/sg44_9_cif.got.tgz:16767.got - 2010.04.14 02:36:11.
