data_PCOD8189341
_publ_section_title
;
Structure prediction by ZEFSAII (Michael W. Deem and Ramdas Pophale) SiO2 
 PCOD8189341
Probable space group: I M M 2
;
_chemical_formula_sum "Si O2"
_cell_formula_units_Z 64
_cell_length_a 27.531762
_cell_length_b 8.914911
_cell_length_c 14.623368
_cell_angle_alpha 90.000000
_cell_angle_beta 90.000000
_cell_angle_gamma 90.000000
_cell_volume 3589.206352
_symmetry_space_group_name_H-M "I M M 2"
_symmetry_group_IT_number 44
_symmetry_cell_setting 'orthorhombic'
loop_
_space_group_symop_operation_xyz
x,y,z
-x,-y,z
-x,y,z
x,-y,z
1/2+x,1/2+y,1/2+z
1/2-x,1/2-y,1/2+z
1/2-x,1/2+y,1/2+z
1/2+x,1/2-y,1/2+z
loop_
_atom_site_type_symbol
_atom_site_label
_atom_site_fract_x
_atom_site_fract_y
_atom_site_fract_z
Si Si1 0.141792 0.677238 0.465650
Si Si2 0.053549 0.321920 0.343473
Si Si3 0.279976 0.677070 0.841560
Si Si4 0.716375 0.825077 0.653017
Si Si5 0.056233 0.326994 0.137828
Si Si6 0.179369 0.828543 0.841870
Si Si7 0.361538 0.672319 0.531582
Si Si8 0.828977 0.827969 0.639588
O O1 0.146837 0.500000 0.455269
O O2 0.093152 0.737506 0.415514
O O3 0.188390 0.757337 0.423553
O O4 0.139702 0.722990 0.572316
O O5 0.051357 0.500000 0.343854
O O6 0.067435 0.269799 0.240800
O O7 0.000000 0.258848 0.370019
O O8 0.285304 0.500000 0.840181
O O9 0.299240 0.743570 0.746290
O O10 0.224469 0.720209 0.860574
O O11 0.683134 0.765145 0.572012
O O12 0.771990 0.790603 0.628596
O O13 0.706866 0.000000 0.667134
O O14 0.071324 0.500000 0.127675
O O15 0.086895 0.230456 0.066509
O O16 0.000000 0.303485 0.113921
O O17 0.154874 0.791098 0.743837
O O18 0.199244 0.000000 0.838205
O O19 0.139723 0.807435 0.921573
O O20 0.355087 0.500000 0.559671
O O21 0.839492 0.000000 0.614192
#
# Coordination Sequence:
#
# PCOD8189341 Si02
#       8
#     8   8   8   8   8   8   8   8
#     4  11  20  30  50  76 100 129 164 203 248 298
#     4   8  16  32  52  73  97 126 159 193 235 291
#     4  11  21  32  49  74 103 133 166 206 247 291
#     4  10  20  34  50  70 101 138 169 201 245 297
#     4   9  18  34  55  76 100 132 165 198 246 308
#     4   9  20  37  52  68  96 135 173 207 246 292
#     4  11  21  32  51  77 101 129 168 211 252 298
#     4   9  19  35  51  68  96 133 170 208 245 284
#
# _framework density 17.831240999999999
#
# number of rings (size 3 to 8) (size 9 to 14) (size 15 to 20)
#    0.000    2.250    0.000    5.250    0.000    6.750 
#    0.000    0.625    0.000    3.750    0.000    3.500 
#    0.000    0.000    0.000    0.000    0.000    0.000 
#
# Total GULP energy -396821.512194 kJ/mol
# GULP energy per Si atom -12400.672256 kJ/mol
# Density = 1.779066 g / cm^3
# Si number density = 17.831241 Si / 1000 Ang^3
#
#
#
# Elastic Constant Matrix: (Units=GPa)
#
#
# Indices 1 2 3 4 5 6 
#
# 1 73.0347 33.9576 61.5386 0.0000 0.0000 0.0000
# 2 33.9576 81.9560 47.8454 0.0000 0.0000 0.0000
# 3 61.5386 47.8454 133.3848 0.0000 0.0000 0.0000
# 4 0.0000 0.0000 0.0000 30.2007 0.0000 0.0000
# 5 0.0000 0.0000 0.0000 0.0000 27.3412 0.0000
# 6 0.0000 0.0000 0.0000 0.0000 0.0000 20.9310
#
#
#
# Elastic Compliance Matrix: (Units=1/GPa)
#
#
# Indices 1 2 3 4 5 6 
#
# 1 0.023550 -0.004319 -0.009316 0.000000 0.000000 0.000000
# 2 -0.004319 0.016226 -0.003828 0.000000 0.000000 0.000000
# 3 -0.009316 -0.003828 0.013168 0.000000 0.000000 0.000000
# 4 0.000000 0.000000 0.000000 0.033112 0.000000 0.000000
# 5 0.000000 0.000000 0.000000 0.000000 0.036575 0.000000
# 6 0.000000 0.000000 0.000000 0.000000 0.000000 0.047776
#
#
# Mechanical properties :
#
#
# Convention : Reuss Voigt Hill
#
# Bulk Modulus (GPa) = 55.49781 63.89542 59.69662
# Shear Modulus (GPa) = 23.65893 25.36350 24.51122
#
# Velocity S-wave (km/s) = 3.64651 3.77559 3.71161
# Velocity P-wave (km/s) = 6.99435 7.41067 7.20551
#
# Compressibility (1/GPa) = 0.01801873
#
# Stress axis : x y z
#
# Youngs Moduli (GPa) = 42.46364 61.63042 75.94230
#
# Poissons Ratio (x) = 0.26619 0.70745
# Poissons Ratio (y) = 0.18341 0.29067
# Poissons Ratio (z) = 0.39557 0.23589
#
# Static dielectric constant tensor:
#      x y z
#    x 3.200110 0.000000 0.000000 
#    y 0.000000 3.201230 0.000000 
#    z 0.000000 0.000000 3.457460 
# 
# 
# High freq. dielectric constant tensor:
#      x y z
#    x 1.664140 0.000000 0.000000 
#    y 0.000000 1.684000 0.000000 
#    z 0.000000 0.000000 1.694710 
# 
# From -- ./inp_files/19704.got.cif
#   From: 2010.03.12/outbox.cif.g09.slc.cpg/sg44_10_cif.got.tgz:19704.got - 2010.04.14 02:36:11.
