data_PCOD8189985
_publ_section_title
;
Structure prediction by ZEFSAII (Michael W. Deem and Ramdas Pophale) SiO2 
 PCOD8189985
Probable space group: I M M 2
;
_chemical_formula_sum "Si O2"
_cell_formula_units_Z 48
_cell_length_a 14.187298
_cell_length_b 24.213495
_cell_length_c 7.087766
_cell_angle_alpha 90.000000
_cell_angle_beta 90.000000
_cell_angle_gamma 90.000000
_cell_volume 2434.818218
_symmetry_space_group_name_H-M "I M M 2"
_symmetry_group_IT_number 44
_symmetry_cell_setting 'orthorhombic'
loop_
_space_group_symop_operation_xyz
x,y,z
-x,-y,z
-x,y,z
x,-y,z
1/2+x,1/2+y,1/2+z
1/2-x,1/2-y,1/2+z
1/2-x,1/2+y,1/2+z
1/2+x,1/2-y,1/2+z
loop_
_atom_site_type_symbol
_atom_site_label
_atom_site_fract_x
_atom_site_fract_y
_atom_site_fract_z
Si Si1 0.894515 0.562465 0.397620
Si Si2 0.104934 0.350377 0.726416
Si Si3 0.893495 0.223668 0.658376
Si Si4 0.705321 0.644883 0.892812
Si Si5 0.109738 0.143526 0.988787
Si Si6 0.797419 0.063267 0.707542
O O1 0.885733 0.500000 0.479569
O O2 0.875456 0.605610 0.563170
O O3 0.815200 0.571187 0.238082
O O4 0.000000 0.571590 0.312301
O O5 0.117982 0.288956 0.646655
O O6 0.181124 0.358796 0.889840
O O7 0.000000 0.358036 0.811297
O O8 0.824156 0.200457 0.499565
O O9 0.868326 0.198376 0.864475
O O10 0.000000 0.205668 0.607595
O O11 0.665192 0.646799 0.683576
O O12 0.670654 0.592072 0.012379
O O13 0.144643 0.089278 0.879770
O O14 0.000000 0.137949 0.034990
O O15 0.826928 0.000000 0.692607
#
# Coordination Sequence:
#
# PCOD8189985 Si02
#       6
#     8   8   8   8   8   8
#     4   9  18  36  60  83 115 155 189 229 284 341
#     4  10  21  37  58  89 119 149 194 240 282 338
#     4   9  21  39  57  83 120 152 189 236 281 340
#     4  11  22  35  61  87 114 155 191 236 289 342
#     4  10  21  40  60  83 116 154 191 234 289 340
#     4  10  22  39  58  85 116 149 192 239 286 341
#
# _framework density 19.713996999999999
#
# number of rings (size 3 to 8) (size 9 to 14) (size 15 to 20)
#    0.000    2.167    1.667    0.500    2.333    3.000 
#    0.000    0.000    0.000    0.000    0.000    0.000 
#    0.000    0.000    0.000    0.000    0.000    0.000 
#
# Total GULP energy -297551.289547 kJ/mol
# GULP energy per Si atom -12397.970398 kJ/mol
# Density = 1.966913 g / cm^3
# Si number density = 19.713997 Si / 1000 Ang^3
#
#
#
# Elastic Constant Matrix: (Units=GPa)
#
#
# Indices 1 2 3 4 5 6 
#
# 1 80.9949 24.7838 42.5849 0.0046 0.0011 -0.0004
# 2 24.7838 122.4553 46.1628 -0.0151 -0.0011 0.0003
# 3 42.5849 46.1628 113.5057 -0.0621 -0.0037 0.0016
# 4 0.0046 -0.0151 -0.0621 15.4291 -0.0031 0.0013
# 5 0.0011 -0.0011 -0.0037 -0.0031 30.4104 -0.0001
# 6 -0.0004 0.0003 0.0016 0.0013 -0.0001 28.9567
#
#
#
# Elastic Compliance Matrix: (Units=1/GPa)
#
#
# Indices 1 2 3 4 5 6 
#
# 1 0.015509 -0.001117 -0.005364 -0.000027 -0.000001 0.000001
# 2 -0.001117 0.009725 -0.003536 -0.000004 0.000000 0.000000
# 3 -0.005364 -0.003536 0.012261 0.000048 0.000002 -0.000001
# 4 -0.000027 -0.000004 0.000048 0.064813 0.000007 -0.000003
# 5 -0.000001 0.000000 0.000002 0.000007 0.032883 0.000000
# 6 0.000001 0.000000 -0.000001 -0.000003 0.000000 0.034534
#
#
# Mechanical properties :
#
#
# Convention : Reuss Voigt Hill
#
# Bulk Modulus (GPa) = 57.27293 60.44655 58.85974
# Shear Modulus (GPa) = 25.56493 28.52086 27.04289
#
# Velocity S-wave (km/s) = 3.60500 3.80772 3.70775
# Velocity P-wave (km/s) = 6.81491 7.07530 6.94633
#
# Compressibility (1/GPa) = 0.01746025
#
# Stress axis : x y z
#
# Youngs Moduli (GPa) = 64.48052 102.82389 81.55927
#
# Poissons Ratio (x) = 0.11481 0.43752
# Poissons Ratio (y) = 0.07200 0.28843
# Poissons Ratio (z) = 0.34590 0.36363
#
# Static dielectric constant tensor:
#      x y z
#    x 3.943330 0.000000 -0.000010 
#    y 0.000000 3.628700 0.000000 
#    z -0.000010 0.000000 3.295000 
# 
# 
# High freq. dielectric constant tensor:
#      x y z
#    x 1.784160 0.000000 0.000000 
#    y 0.000000 1.774740 0.000000 
#    z 0.000000 0.000000 1.745810 
# 
# From -- ./inp_files/1589.got.cif
#   From: 2010.03.12/outbox.cif.g09.slc.cpg/sg44_1_cif.got.tgz:1589.got - 2010.04.14 02:36:11.
