data_PCOD8189314
_publ_section_title
;
Structure prediction by ZEFSAII (Michael W. Deem and Ramdas Pophale) SiO2 
 PCOD8189314
Probable space group: I M M 2
;
_chemical_formula_sum "Si O2"
_cell_formula_units_Z 64
_cell_length_a 9.190952
_cell_length_b 28.260469
_cell_length_c 12.715368
_cell_angle_alpha 90.000000
_cell_angle_beta 90.000000
_cell_angle_gamma 90.000000
_cell_volume 3302.697493
_symmetry_space_group_name_H-M "I M M 2"
_symmetry_group_IT_number 44
_symmetry_cell_setting 'orthorhombic'
loop_
_space_group_symop_operation_xyz
x,y,z
-x,-y,z
-x,y,z
x,-y,z
1/2+x,1/2+y,1/2+z
1/2-x,1/2-y,1/2+z
1/2-x,1/2+y,1/2+z
1/2+x,1/2-y,1/2+z
loop_
_atom_site_type_symbol
_atom_site_label
_atom_site_fract_x
_atom_site_fract_y
_atom_site_fract_z
Si Si1 0.673940 0.396389 0.015680
Si Si2 0.660837 0.681003 0.735312
Si Si3 0.172754 0.615411 0.413796
Si Si4 0.329570 0.944604 0.709957
Si Si5 0.331175 0.300551 0.503021
Si Si6 0.838157 0.551919 0.600083
Si Si7 0.657838 0.573283 0.792325
Si Si8 0.669434 0.804983 0.437921
O O1 0.500000 0.390353 0.024645
O O2 0.736364 0.424877 0.113585
O O3 0.716754 0.426960 0.912118
O O4 0.744076 0.344183 0.005504
O O5 0.500000 0.705076 0.745751
O O6 0.726762 0.688568 0.619855
O O7 0.643044 0.626148 0.753340
O O8 0.773139 0.701558 0.819455
O O9 0.219238 0.586178 0.310670
O O10 0.244124 0.667614 0.417568
O O11 0.234622 0.587138 0.515722
O O12 0.000000 0.620245 0.417284
O O13 0.500000 0.937702 0.685989
O O14 0.293692 0.000000 0.728906
O O15 0.500000 0.313448 0.489935
O O16 0.301980 0.245323 0.490124
O O17 0.839751 0.500000 0.547450
O O18 0.761696 0.546452 0.712566
O O19 0.000000 0.570128 0.623610
O O20 0.500000 0.548481 0.788963
O O21 0.500000 0.818932 0.435937
#
# Coordination Sequence:
#
# PCOD8189314 Si02
#       8
#     8   8   8   8   8   8   8   8
#     4  10  22  40  60  83 116 154 196 246 297 350
#     4   9  18  35  55  75 109 149 182 229 289 343
#     4  10  21  37  58  84 114 151 195 242 292 349
#     4  10  22  41  63  86 118 161 205 250 301 358
#     4  10  21  37  57  83 116 153 195 243 296 355
#     4  10  20  33  52  81 113 142 177 225 279 335
#     4   9  18  34  55  77 104 142 181 224 281 338
#     4  10  21  36  57  86 116 151 196 244 296 355
#
# _framework density 19.3781
#
# number of rings (size 3 to 8) (size 9 to 14) (size 15 to 20)
#    0.000    2.250    1.250    1.875    0.000    8.000 
#    0.000    6.250    0.000    2.250    0.000    0.000 
#    0.000    0.000    0.000    0.000    0.000    0.000 
#
# Total GULP energy -396664.734040 kJ/mol
# GULP energy per Si atom -12395.772939 kJ/mol
# Density = 1.933399 g / cm^3
# Si number density = 19.378100 Si / 1000 Ang^3
#
#
#
# Elastic Constant Matrix: (Units=GPa)
#
#
# Indices 1 2 3 4 5 6 
#
# 1 70.8383 40.3872 46.4800 -0.0006 -0.0001 0.0001
# 2 40.3872 64.7114 48.4701 0.0006 0.0001 0.0006
# 3 46.4800 48.4701 121.1821 -0.0010 -0.0002 -0.0001
# 4 -0.0006 0.0006 -0.0010 19.2124 0.0001 0.0005
# 5 -0.0001 0.0001 -0.0002 0.0001 30.4681 0.0002
# 6 0.0001 0.0006 -0.0001 0.0005 0.0002 36.2525
#
#
#
# Elastic Compliance Matrix: (Units=1/GPa)
#
#
# Indices 1 2 3 4 5 6 
#
# 1 0.023513 -0.011307 -0.004496 0.000001 0.000000 0.000000
# 2 -0.011307 0.027501 -0.006663 -0.000002 0.000000 0.000000
# 3 -0.004496 -0.006663 0.012641 0.000001 0.000000 0.000000
# 4 0.000001 -0.000002 0.000001 0.052050 0.000000 -0.000001
# 5 0.000000 0.000000 0.000000 0.000000 0.032821 0.000000
# 6 0.000000 0.000000 0.000000 -0.000001 0.000000 0.027584
#
#
# Mechanical properties :
#
#
# Convention : Reuss Voigt Hill
#
# Bulk Modulus (GPa) = 53.40891 58.60070 56.00480
# Shear Modulus (GPa) = 21.99890 25.27956 23.63923
#
# Velocity S-wave (km/s) = 3.37300 3.61576 3.49649
# Velocity P-wave (km/s) = 6.54147 6.90927 6.72788
#
# Compressibility (1/GPa) = 0.01872347
#
# Stress axis : x y z
#
# Youngs Moduli (GPa) = 42.52902 36.36256 79.10505
#
# Poissons Ratio (x) = 0.41117 0.35565
# Poissons Ratio (y) = 0.48089 0.52705
# Poissons Ratio (z) = 0.19121 0.24227
#
# Static dielectric constant tensor:
#      x y z
#    x 3.670430 0.000000 0.000000 
#    y 0.000000 3.453310 0.000000 
#    z 0.000000 0.000000 3.779740 
# 
# 
# High freq. dielectric constant tensor:
#      x y z
#    x 1.747960 0.000000 0.000000 
#    y 0.000000 1.753920 0.000000 
#    z 0.000000 0.000000 1.755980 
# 
# From -- ./inp_files/11525.got.cif
#   From: 2010.03.12/outbox.cif.g09.slc.cpg/sg44_6_cif.got.tgz:11525.got - 2010.04.14 02:36:11.
