data_PCOD8189594
_publ_section_title
;
Structure prediction by ZEFSAII (Michael W. Deem and Ramdas Pophale) SiO2 
 PCOD8189594
Probable space group: I M M 2
;
_chemical_formula_sum "Si O2"
_cell_formula_units_Z 64
_cell_length_a 15.332974
_cell_length_b 9.190863
_cell_length_c 23.594173
_cell_angle_alpha 90.000000
_cell_angle_beta 90.000000
_cell_angle_gamma 90.000000
_cell_volume 3324.967857
_symmetry_space_group_name_H-M "I M M 2"
_symmetry_group_IT_number 44
_symmetry_cell_setting 'orthorhombic'
loop_
_space_group_symop_operation_xyz
x,y,z
-x,-y,z
-x,y,z
x,-y,z
1/2+x,1/2+y,1/2+z
1/2-x,1/2-y,1/2+z
1/2-x,1/2+y,1/2+z
1/2+x,1/2-y,1/2+z
loop_
_atom_site_type_symbol
_atom_site_label
_atom_site_fract_x
_atom_site_fract_y
_atom_site_fract_z
Si Si1 0.250490 0.827452 0.384330
Si Si2 0.903044 0.165732 0.088479
Si Si3 0.651129 0.170083 0.696210
Si Si4 0.902100 0.334630 0.579741
Si Si5 0.351151 0.328356 0.190664
Si Si6 0.900248 0.668365 0.320974
Si Si7 0.097149 0.333415 0.800277
Si Si8 0.743112 0.329210 0.501849
O O1 0.159967 0.765616 0.360766
O O2 0.331148 0.777339 0.344944
O O3 0.268357 0.762698 0.445603
O O4 0.243664 0.000000 0.388559
O O5 0.901636 0.252558 0.146859
O O6 0.000000 0.180217 0.062220
O O7 0.879402 0.000000 0.102898
O O8 0.833204 0.226006 0.043673
O O9 0.751012 0.219718 0.694039
O O10 0.610852 0.218256 0.756079
O O11 0.640309 0.000000 0.686562
O O12 0.882952 0.500000 0.599440
O O13 0.892379 0.230099 0.633102
O O14 0.836091 0.290594 0.529821
O O15 0.000000 0.319006 0.555395
O O16 0.363244 0.500000 0.192386
O O17 0.401063 0.261725 0.243795
O O18 0.872396 0.500000 0.327781
O O19 0.000000 0.692173 0.339775
O O20 0.116787 0.500000 0.783736
O O21 0.000000 0.317838 0.826902
O O22 0.734787 0.500000 0.487937
#
# Coordination Sequence:
#
# PCOD8189594 Si02
#       8
#     8   8   8   8   8   8   8   8
#     4  11  24  40  60  85 114 148 194 246 290 332
#     4  10  21  37  59  87 116 149 190 234 281 335
#     4  10  20  35  58  87 119 152 186 227 282 343
#     4  10  21  38  60  84 112 151 192 227 276 342
#     4  11  21  34  58  90 120 148 184 233 286 335
#     4  10  21  39  62  86 116 155 193 229 280 347
#     4  10  22  40  60  83 115 155 193 230 281 347
#     4  10  22  40  59  80 112 151 194 238 282 335
#
# _framework density 19.248307
#
# number of rings (size 3 to 8) (size 9 to 14) (size 15 to 20)
#    0.000    1.750    2.500    1.500    0.000    6.500 
#    0.000    1.250    0.000    0.000    0.000    0.000 
#    0.000    0.000    0.000    0.000    0.000    0.000 
#
# Total GULP energy -396929.626828 kJ/mol
# GULP energy per Si atom -12404.050838 kJ/mol
# Density = 1.920450 g / cm^3
# Si number density = 19.248307 Si / 1000 Ang^3
#
#
#
# Elastic Constant Matrix: (Units=GPa)
#
#
# Indices 1 2 3 4 5 6 
#
# 1 107.7148 26.9286 28.1626 0.0000 0.0000 0.0000
# 2 26.9286 53.8459 35.4763 0.0000 0.0000 0.0000
# 3 28.1626 35.4763 93.8546 0.0000 0.0000 0.0000
# 4 0.0000 0.0000 0.0000 36.4480 0.0000 0.0000
# 5 0.0000 0.0000 0.0000 0.0000 13.3566 0.0000
# 6 0.0000 0.0000 0.0000 0.0000 0.0000 25.0390
#
#
#
# Elastic Compliance Matrix: (Units=1/GPa)
#
#
# Indices 1 2 3 4 5 6 
#
# 1 0.010787 -0.004344 -0.001595 0.000000 0.000000 0.000000
# 2 -0.004344 0.026480 -0.008706 0.000000 0.000000 0.000000
# 3 -0.001595 -0.008706 0.014424 0.000000 0.000000 0.000000
# 4 0.000000 0.000000 0.000000 0.027436 0.000000 0.000000
# 5 0.000000 0.000000 0.000000 0.000000 0.074869 0.000000
# 6 0.000000 0.000000 0.000000 0.000000 0.000000 0.039938
#
#
# Mechanical properties :
#
#
# Convention : Reuss Voigt Hill
#
# Bulk Modulus (GPa) = 44.63926 48.50561 46.57243
# Shear Modulus (GPa) = 21.67419 25.95857 23.81638
#
# Velocity S-wave (km/s) = 3.35928 3.67633 3.52138
# Velocity P-wave (km/s) = 6.18773 6.57839 6.38605
#
# Compressibility (1/GPa) = 0.02240181
#
# Stress axis : x y z
#
# Youngs Moduli (GPa) = 92.70689 37.76504 69.32891
#
# Poissons Ratio (x) = 0.16404 0.11057
# Poissons Ratio (y) = 0.40269 0.60355
# Poissons Ratio (z) = 0.14785 0.32877
#
# Static dielectric constant tensor:
#      x y z
#    x 3.752120 0.000000 0.000000 
#    y 0.000000 3.436260 0.000000 
#    z 0.000000 0.000000 3.380210 
# 
# 
# High freq. dielectric constant tensor:
#      x y z
#    x 1.767300 0.000000 0.000000 
#    y 0.000000 1.742800 0.000000 
#    z 0.000000 0.000000 1.739050 
# 
# From -- ./inp_files/24341.got.cif
#   From: 2010.03.12/outbox.cif.g09.slc.cpg/sg44_13_cif.got.tgz:24341.got - 2010.04.14 02:36:11.
