data_PCOD8189938
_publ_section_title
;
Structure prediction by ZEFSAII (Michael W. Deem and Ramdas Pophale) SiO2 
 PCOD8189938
Probable space group: I M M 2
;
_chemical_formula_sum "Si O2"
_cell_formula_units_Z 64
_cell_length_a 27.359166
_cell_length_b 8.708293
_cell_length_c 14.483050
_cell_angle_alpha 90.000000
_cell_angle_beta 90.000000
_cell_angle_gamma 90.000000
_cell_volume 3450.610324
_symmetry_space_group_name_H-M "I M M 2"
_symmetry_group_IT_number 44
_symmetry_cell_setting 'orthorhombic'
loop_
_space_group_symop_operation_xyz
x,y,z
-x,-y,z
-x,y,z
x,-y,z
1/2+x,1/2+y,1/2+z
1/2-x,1/2-y,1/2+z
1/2-x,1/2+y,1/2+z
1/2+x,1/2-y,1/2+z
loop_
_atom_site_type_symbol
_atom_site_label
_atom_site_fract_x
_atom_site_fract_y
_atom_site_fract_z
Si Si1 0.716863 0.824556 0.761900
Si Si2 0.135846 0.821251 0.382707
Si Si3 0.443151 0.821774 0.755800
Si Si4 0.670806 0.320503 0.255182
Si Si5 0.276339 0.823137 0.551242
Si Si6 0.825810 0.320745 0.559947
Si Si7 0.631607 0.820187 0.431176
Si Si8 0.443669 0.322450 0.563650
O O1 0.683402 0.712614 0.821073
O O2 0.773121 0.780949 0.779312
O O3 0.704123 0.798863 0.654752
O O4 0.706048 0.000000 0.791149
O O5 0.086565 0.773281 0.331018
O O6 0.137829 0.728675 0.478475
O O7 0.134338 0.000000 0.405144
O O8 0.500000 0.785364 0.771718
O O9 0.426850 0.772259 0.653413
O O10 0.430718 0.000000 0.767384
O O11 0.660471 0.500000 0.264240
O O12 0.658422 0.269093 0.151752
O O13 0.635823 0.228910 0.324730
O O14 0.229470 0.719158 0.529745
O O15 0.318929 0.770345 0.482997
O O16 0.260761 0.000000 0.536346
O O17 0.830356 0.500000 0.579087
O O18 0.586213 0.731601 0.474947
O O19 0.621983 0.000000 0.439612
O O20 0.500000 0.290458 0.540712
O O21 0.433651 0.500000 0.584321
#
# Coordination Sequence:
#
# PCOD8189938 Si02
#       8
#     8   8   8   8   8   8   8   8
#     4   9  18  33  52  76 108 143 178 217 260 308
#     4  12  23  34  53  79 108 141 177 217 262 315
#     4  10  21  38  59  82 109 139 172 214 263 314
#     4  10  21  37  54  74 105 142 180 223 267 310
#     4   9  19  34  51  75 108 142 177 217 261 310
#     4  11  22  36  54  75 103 140 182 223 263 310
#     4  11  21  33  54  81 108 141 180 219 262 315
#     4  10  21  37  57  82 111 141 174 214 262 315
#
# _framework density 18.547443999999999
#
# number of rings (size 3 to 8) (size 9 to 14) (size 15 to 20)
#    0.000    1.750    0.000    6.000    0.000    8.000 
#    0.000    0.000    0.000    0.750    0.000    0.000 
#    0.000    0.000    0.000    0.000    0.000    0.000 
#
# Total GULP energy -396995.844180 kJ/mol
# GULP energy per Si atom -12406.120131 kJ/mol
# Density = 1.850523 g / cm^3
# Si number density = 18.547444 Si / 1000 Ang^3
#
#
#
# Elastic Constant Matrix: (Units=GPa)
#
#
# Indices 1 2 3 4 5 6 
#
# 1 60.6352 22.5063 45.3693 0.0000 0.0000 0.0000
# 2 22.5063 64.6872 15.6844 0.0000 0.0000 0.0000
# 3 45.3693 15.6844 91.6500 0.0000 0.0000 0.0000
# 4 0.0000 0.0000 0.0000 34.2392 0.0000 0.0000
# 5 0.0000 0.0000 0.0000 0.0000 29.0105 0.0000
# 6 0.0000 0.0000 0.0000 0.0000 0.0000 28.8599
#
#
#
# Elastic Compliance Matrix: (Units=1/GPa)
#
#
# Indices 1 2 3 4 5 6 
#
# 1 0.028843 -0.006858 -0.013104 0.000000 0.000000 0.000000
# 2 -0.006858 0.017759 0.000356 0.000000 0.000000 0.000000
# 3 -0.013104 0.000356 0.017337 0.000000 0.000000 0.000000
# 4 0.000000 0.000000 0.000000 0.029206 0.000000 0.000000
# 5 0.000000 0.000000 0.000000 0.000000 0.034470 0.000000
# 6 0.000000 0.000000 0.000000 0.000000 0.000000 0.034650
#
#
# Mechanical properties :
#
#
# Convention : Reuss Voigt Hill
#
# Bulk Modulus (GPa) = 40.44362 42.67694 41.56028
# Shear Modulus (GPa) = 23.84133 27.31606 25.57870
#
# Velocity S-wave (km/s) = 3.58917 3.84183 3.71765
# Velocity P-wave (km/s) = 6.24732 6.53751 6.39406
#
# Compressibility (1/GPa) = 0.02472578
#
# Stress axis : x y z
#
# Youngs Moduli (GPa) = 34.67104 56.31021 57.67946
#
# Poissons Ratio (x) = 0.38616 0.75585
# Poissons Ratio (y) = 0.23776 -0.02051
# Poissons Ratio (z) = 0.45434 -0.02003
#
# Static dielectric constant tensor:
#      x y z
#    x 3.235590 0.000000 0.000000 
#    y 0.000000 3.409800 0.000000 
#    z 0.000000 0.000000 3.442050 
# 
# 
# High freq. dielectric constant tensor:
#      x y z
#    x 1.696300 0.000000 0.000000 
#    y 0.000000 1.729860 0.000000 
#    z 0.000000 0.000000 1.722960 
# 
# From -- ./inp_files/19460.got.cif
#   From: 2010.03.12/outbox.cif.g09.slc.cpg/sg44_10_cif.got.tgz:19460.got - 2010.04.14 02:36:11.
