data_PCOD8189897
_publ_section_title
;
Structure prediction by ZEFSAII (Michael W. Deem and Ramdas Pophale) SiO2 
 PCOD8189897
Probable space group: I M M 2
;
_chemical_formula_sum "Si O2"
_cell_formula_units_Z 48
_cell_length_a 9.017071
_cell_length_b 23.312790
_cell_length_c 11.819581
_cell_angle_alpha 90.000000
_cell_angle_beta 90.000000
_cell_angle_gamma 90.000000
_cell_volume 2484.630558
_symmetry_space_group_name_H-M "I M M 2"
_symmetry_group_IT_number 44
_symmetry_cell_setting 'orthorhombic'
loop_
_space_group_symop_operation_xyz
x,y,z
-x,-y,z
-x,y,z
x,-y,z
1/2+x,1/2+y,1/2+z
1/2-x,1/2-y,1/2+z
1/2-x,1/2+y,1/2+z
1/2+x,1/2-y,1/2+z
loop_
_atom_site_type_symbol
_atom_site_label
_atom_site_fract_x
_atom_site_fract_y
_atom_site_fract_z
Si Si1 0.175255 0.772894 0.439450
Si Si2 0.665296 0.565279 0.992705
Si Si3 0.177106 0.933552 0.054877
Si Si4 0.672379 0.843367 0.622229
Si Si5 0.166974 0.131136 0.272653
Si Si6 0.825613 0.645541 0.378726
O O1 0.241609 0.792272 0.559360
O O2 0.238659 0.811990 0.333712
O O3 0.219020 0.706901 0.430209
O O4 0.000000 0.783049 0.442618
O O5 0.500000 0.582107 0.036633
O O6 0.700045 0.500000 0.013290
O O7 0.674404 0.578586 0.860025
O O8 0.793101 0.597523 0.059922
O O9 0.242764 0.893968 0.158174
O O10 0.000000 0.931948 0.053648
O O11 0.230622 0.000000 0.064881
O O12 0.239331 0.905994 0.939685
O O13 0.500000 0.828523 0.617912
O O14 0.727665 0.850988 0.749756
O O15 0.000000 0.147575 0.239771
O O16 0.000000 0.633562 0.388890
#
# Coordination Sequence:
#
# PCOD8189897 Si02
#       6
#     8   8   8   8   8   8
#     4   9  19  37  59  81 107 140 182 229 279 337
#     4   9  17  32  56  81 107 143 182 221 269 322
#     4  10  21  36  57  85 113 147 192 232 270 325
#     4  10  21  36  54  79 109 140 179 226 276 326
#     4   8  15  31  57  83 106 136 179 231 275 317
#     4  10  23  39  55  78 111 150 184 221 277 337
#
# _framework density 19.318767999999999
#
# number of rings (size 3 to 8) (size 9 to 14) (size 15 to 20)
#    0.000    2.667    0.000    2.000    2.333    5.333 
#    0.000    6.667    0.000    4.000    0.000    0.000 
#    0.000    0.000    0.000    0.000    0.000    0.000 
#
# Total GULP energy -297420.665432 kJ/mol
# GULP energy per Si atom -12392.527726 kJ/mol
# Density = 1.927480 g / cm^3
# Si number density = 19.318768 Si / 1000 Ang^3
#
#
#
# Elastic Constant Matrix: (Units=GPa)
#
#
# Indices 1 2 3 4 5 6 
#
# 1 25.3173 19.6249 23.2086 0.0001 -0.0001 0.0000
# 2 19.6249 98.4619 36.0800 0.0001 0.0000 0.0000
# 3 23.2086 36.0800 98.1662 -0.0003 -0.0001 -0.0001
# 4 0.0001 0.0001 -0.0003 20.1691 0.0000 0.0000
# 5 -0.0001 0.0000 -0.0001 0.0000 27.8867 0.0000
# 6 0.0000 0.0000 -0.0001 0.0000 0.0000 23.0076
#
#
#
# Elastic Compliance Matrix: (Units=1/GPa)
#
#
# Indices 1 2 3 4 5 6 
#
# 1 0.054391 -0.007083 -0.010256 0.000000 0.000000 0.000000
# 2 -0.007083 0.012659 -0.002978 0.000000 0.000000 0.000000
# 3 -0.010256 -0.002978 0.013706 0.000000 0.000000 0.000000
# 4 0.000000 0.000000 0.000000 0.049581 0.000000 0.000000
# 5 0.000000 0.000000 0.000000 0.000000 0.035859 0.000000
# 6 0.000000 0.000000 0.000000 0.000000 0.000000 0.043464
#
#
# Mechanical properties :
#
#
# Convention : Reuss Voigt Hill
#
# Bulk Modulus (GPa) = 24.92384 42.19693 33.56039
# Shear Modulus (GPa) = 18.96323 23.74814 21.35568
#
# Velocity S-wave (km/s) = 3.13644 3.50991 3.32842
# Velocity P-wave (km/s) = 5.10350 6.18998 5.67281
#
# Compressibility (1/GPa) = 0.04012222
#
# Stress axis : x y z
#
# Youngs Moduli (GPa) = 18.38551 78.99365 72.95981
#
# Poissons Ratio (x) = 0.55949 0.74827
# Poissons Ratio (y) = 0.13022 0.21729
# Poissons Ratio (z) = 0.18856 0.23527
#
# Static dielectric constant tensor:
#      x y z
#    x 3.204250 0.000000 0.000000 
#    y 0.000000 3.614540 0.000000 
#    z 0.000000 0.000000 3.608670 
# 
# 
# High freq. dielectric constant tensor:
#      x y z
#    x 1.717290 0.000000 0.000000 
#    y 0.000000 1.760220 0.000000 
#    z 0.000000 0.000000 1.754250 
# 
# From -- ./inp_files/11150.got.cif
#   From: 2010.03.12/outbox.cif.g09.slc.cpg/sg44_6_cif.got.tgz:11150.got - 2010.04.14 02:36:11.
