data_PCOD8189129
_publ_section_title
;
Structure prediction by ZEFSAII (Michael W. Deem and Ramdas Pophale) SiO2 
 PCOD8189129
Probable space group: I M M 2
;
_chemical_formula_sum "Si O2"
_cell_formula_units_Z 52
_cell_length_a 21.094035
_cell_length_b 7.616025
_cell_length_c 18.726380
_cell_angle_alpha 90.000000
_cell_angle_beta 90.000000
_cell_angle_gamma 90.000000
_cell_volume 3008.443469
_symmetry_space_group_name_H-M "I M M 2"
_symmetry_group_IT_number 44
_symmetry_cell_setting 'orthorhombic'
loop_
_space_group_symop_operation_xyz
x,y,z
-x,-y,z
-x,y,z
x,-y,z
1/2+x,1/2+y,1/2+z
1/2-x,1/2-y,1/2+z
1/2-x,1/2+y,1/2+z
1/2+x,1/2-y,1/2+z
loop_
_atom_site_type_symbol
_atom_site_label
_atom_site_fract_x
_atom_site_fract_y
_atom_site_fract_z
Si Si1 0.751214 0.795994 0.085710
Si Si2 0.147872 0.000000 0.585710
Si Si3 0.574526 0.500000 0.938579
Si Si4 0.784526 0.203276 0.239273
Si Si5 0.425474 0.500000 0.232841
Si Si6 0.849971 0.697306 0.372419
Si Si7 0.150030 0.302693 0.799001
Si Si8 0.284525 0.296723 0.432147
O O1 0.689232 0.676482 0.085711
O O2 0.794378 0.755790 0.155294
O O3 0.728671 0.000000 0.085709
O O4 0.794378 0.755786 0.016126
O O5 0.103954 0.000000 0.516786
O O6 0.103953 0.000000 0.654634
O O7 0.500000 0.500000 0.946906
O O8 0.593829 0.673329 0.894272
O O9 0.837039 0.302564 0.286722
O O10 0.713676 0.265685 0.259784
O O11 0.791676 0.000000 0.257435
O O12 0.500000 0.500000 0.224515
O O13 0.406171 0.326670 0.277148
O O14 0.868317 0.500000 0.396005
O O15 0.786325 0.765683 0.411636
O O16 0.131684 0.500000 0.775415
O O17 0.162962 0.302564 0.884698
O O18 0.291676 0.500000 0.413987
#
# Coordination Sequence:
#
# PCOD8189129 Si02
#       8
#     8   4   4   8   4   8   8   8
#     4  10  20  31  51  85 118 143 169 219 281 340
#     4  12  23  36  56  76 110 152 191 216 262 324
#     4  12  25  40  54  75 110 155 197 224 258 315
#     4   9  17  31  53  81 113 137 171 224 284 333
#     4  12  25  40  54  75 110 155 197 224 258 315
#     4  10  20  34  54  78 105 141 184 230 276 321
#     4  10  20  34  54  78 105 141 184 230 276 321
#     4   9  17  31  53  81 113 137 171 224 284 333
#
# _framework density 17.284685
#
# number of rings (size 3 to 8) (size 9 to 14) (size 15 to 20)
#    0.000    1.846    4.615    0.231    4.308    0.615 
#    0.000    0.000    0.000    2.769    0.000    2.154 
#    0.000    2.462    0.000    0.000    0.000    0.000 
#
# Total GULP energy -322361.050438 kJ/mol
# GULP energy per Si atom -12398.501940 kJ/mol
# Density = 1.724534 g / cm^3
# Si number density = 17.284685 Si / 1000 Ang^3
#
#
#
# Elastic Constant Matrix: (Units=GPa)
#
#
# Indices 1 2 3 4 5 6 
#
# 1 54.6163 38.4387 34.7497 0.0000 0.0000 0.0000
# 2 38.4387 92.6391 36.9257 0.0000 0.0000 0.0000
# 3 34.7497 36.9257 141.5604 0.0000 0.0000 0.0000
# 4 0.0000 0.0000 0.0000 18.2822 0.0000 0.0000
# 5 0.0000 0.0000 0.0000 0.0000 14.1291 0.0000
# 6 0.0000 0.0000 0.0000 0.0000 0.0000 19.4459
#
#
#
# Elastic Compliance Matrix: (Units=1/GPa)
#
#
# Indices 1 2 3 4 5 6 
#
# 1 0.028018 -0.009915 -0.004291 0.000000 0.000000 0.000000
# 2 -0.009915 0.015556 -0.001624 0.000000 0.000000 0.000000
# 3 -0.004291 -0.001624 0.008541 0.000000 0.000000 0.000000
# 4 0.000000 0.000000 0.000000 0.054698 0.000000 0.000000
# 5 0.000000 0.000000 0.000000 0.000000 0.070776 0.000000
# 6 0.000000 0.000000 0.000000 0.000000 0.000000 0.051425
#
#
# Mechanical properties :
#
#
# Convention : Reuss Voigt Hill
#
# Bulk Modulus (GPa) = 48.88883 56.56044 52.72464
# Shear Modulus (GPa) = 18.69211 22.28489 20.48850
#
# Velocity S-wave (km/s) = 3.29207 3.59456 3.44663
# Velocity P-wave (km/s) = 6.54188 7.07260 6.81241
#
# Compressibility (1/GPa) = 0.02045457
#
# Stress axis : x y z
#
# Youngs Moduli (GPa) = 35.69124 64.28461 117.08025
#
# Poissons Ratio (x) = 0.63738 0.50245
# Poissons Ratio (y) = 0.35388 0.19012
# Poissons Ratio (z) = 0.15317 0.10439
#
# Static dielectric constant tensor:
#      x y z
#    x 2.689060 0.000000 0.000000 
#    y 0.000000 3.355970 0.000000 
#    z 0.000000 0.000000 3.572790 
# 
# 
# High freq. dielectric constant tensor:
#      x y z
#    x 1.596330 0.000000 0.000000 
#    y 0.000000 1.682890 0.000000 
#    z 0.000000 0.000000 1.684820 
# 
# From -- ./inp_files/22107.got.cif
#   From: 2010.03.12/outbox.cif.g09.slc.cpg/sg44_12_cif.got.tgz:22107.got - 2010.04.14 02:36:11.
