data_PCOD8189177
_publ_section_title
;
Structure prediction by ZEFSAII (Michael W. Deem and Ramdas Pophale) SiO2 
 PCOD8189177
Probable space group: I M M 2
;
_chemical_formula_sum "Si O2"
_cell_formula_units_Z 64
_cell_length_a 9.320390
_cell_length_b 15.619376
_cell_length_c 23.170117
_cell_angle_alpha 90.000000
_cell_angle_beta 90.000000
_cell_angle_gamma 90.000000
_cell_volume 3373.074953
_symmetry_space_group_name_H-M "I M M 2"
_symmetry_group_IT_number 44
_symmetry_cell_setting 'orthorhombic'
loop_
_space_group_symop_operation_xyz
x,y,z
-x,-y,z
-x,y,z
x,-y,z
1/2+x,1/2+y,1/2+z
1/2-x,1/2-y,1/2+z
1/2-x,1/2+y,1/2+z
1/2+x,1/2-y,1/2+z
loop_
_atom_site_type_symbol
_atom_site_label
_atom_site_fract_x
_atom_site_fract_y
_atom_site_fract_z
Si Si1 0.165824 0.597692 0.172910
Si Si2 0.343941 0.401009 0.064424
Si Si3 0.168290 0.235875 0.242176
Si Si4 0.663214 0.638070 0.522893
Si Si5 0.830219 0.903979 0.150263
Si Si6 0.337161 0.904259 0.913636
Si Si7 0.341197 0.176490 0.474386
Si Si8 0.830634 0.240887 0.855379
O O1 0.209885 0.500000 0.191205
O O2 0.248506 0.633586 0.117040
O O3 0.198207 0.665664 0.223459
O O4 0.000000 0.600147 0.155663
O O5 0.500000 0.355461 0.065077
O O6 0.365022 0.500000 0.074660
O O7 0.270648 0.388835 0.002128
O O8 0.226010 0.167207 0.195282
O O9 0.260896 0.217258 0.299034
O O10 0.000000 0.222269 0.255078
O O11 0.500000 0.603337 0.515501
O O12 0.726568 0.617114 0.586054
O O13 0.765805 0.593311 0.476692
O O14 0.665549 0.739126 0.513450
O O15 0.000000 0.898124 0.148663
O O16 0.779880 0.000000 0.168370
O O17 0.500000 0.868199 0.917948
O O18 0.244905 0.849250 0.868693
O O19 0.339438 0.000000 0.888654
O O20 0.500000 0.136190 0.476800
O O21 0.299058 0.195178 0.408382
O O22 0.000000 0.225423 0.847371
#
# Coordination Sequence:
#
# PCOD8189177 Si02
#       8
#     8   8   8   8   8   8   8   8
#     4   9  18  33  53  76 104 139 173 205 250 309
#     4  10  20  32  49  77 107 131 162 208 259 309
#     4  10  20  35  54  75 102 136 176 220 259 301
#     4   9  17  31  53  79 106 135 169 208 249 301
#     4   9  17  30  51  78 105 136 173 211 256 310
#     4  10  20  33  51  78 110 139 167 203 251 307
#     4   9  18  33  52  73  98 131 169 209 257 311
#     4  10  22  38  54  73  98 132 176 218 257 305
#
# _framework density 18.973783999999998
#
# number of rings (size 3 to 8) (size 9 to 14) (size 15 to 20)
#    0.000    2.500    0.000    3.000    0.000    7.750 
#    0.000    2.500    0.000    3.375    0.000    0.000 
#    0.000    0.000    0.000    0.000    0.000    0.000 
#
# Total GULP energy -396701.022474 kJ/mol
# GULP energy per Si atom -12396.906952 kJ/mol
# Density = 1.893060 g / cm^3
# Si number density = 18.973784 Si / 1000 Ang^3
#
#
#
# Elastic Constant Matrix: (Units=GPa)
#
#
# Indices 1 2 3 4 5 6 
#
# 1 83.4407 16.1500 44.2903 0.0000 0.0000 0.0000
# 2 16.1500 53.6797 36.5967 0.0000 0.0000 0.0000
# 3 44.2903 36.5967 116.3168 0.0000 0.0000 0.0000
# 4 0.0000 0.0000 0.0000 17.7956 0.0000 0.0000
# 5 0.0000 0.0000 0.0000 0.0000 32.2905 0.0000
# 6 0.0000 0.0000 0.0000 0.0000 0.0000 17.9446
#
#
#
# Elastic Compliance Matrix: (Units=1/GPa)
#
#
# Indices 1 2 3 4 5 6 
#
# 1 0.015047 -0.000790 -0.005481 0.000000 0.000000 0.000000
# 2 -0.000790 0.023758 -0.007174 0.000000 0.000000 0.000000
# 3 -0.005481 -0.007174 0.012941 0.000000 0.000000 0.000000
# 4 0.000000 0.000000 0.000000 0.056194 0.000000 0.000000
# 5 0.000000 0.000000 0.000000 0.000000 0.030969 0.000000
# 6 0.000000 0.000000 0.000000 0.000000 0.000000 0.055727
#
#
# Mechanical properties :
#
#
# Convention : Reuss Voigt Hill
#
# Bulk Modulus (GPa) = 40.23234 49.72347 44.97791
# Shear Modulus (GPa) = 21.75705 24.03281 22.89493
#
# Velocity S-wave (km/s) = 3.38996 3.56284 3.47747
# Velocity P-wave (km/s) = 6.04753 6.57179 6.31510
#
# Compressibility (1/GPa) = 0.02485562
#
# Stress axis : x y z
#
# Youngs Moduli (GPa) = 66.45979 42.09162 77.27239
#
# Poissons Ratio (x) = 0.03327 0.42351
# Poissons Ratio (y) = 0.05253 0.55435
# Poissons Ratio (z) = 0.36425 0.30196
#
# Static dielectric constant tensor:
#      x y z
#    x 3.581220 0.000000 0.000000 
#    y 0.000000 3.418360 0.000000 
#    z 0.000000 0.000000 3.401500 
# 
# 
# High freq. dielectric constant tensor:
#      x y z
#    x 1.726180 0.000000 0.000000 
#    y 0.000000 1.725060 0.000000 
#    z 0.000000 0.000000 1.730550 
# 
# From -- ./inp_files/23285.got.cif
#   From: 2010.03.12/outbox.cif.g09.slc.cpg/sg44_12_cif.got.tgz:23285.got - 2010.04.14 02:36:11.
