data_PCOD8189986
_publ_section_title
;
Structure prediction by ZEFSAII (Michael W. Deem and Ramdas Pophale) SiO2 
 PCOD8189986
Probable space group: I M M 2
;
_chemical_formula_sum "Si O2"
_cell_formula_units_Z 48
_cell_length_a 9.018799
_cell_length_b 7.649232
_cell_length_c 34.343010
_cell_angle_alpha 90.000000
_cell_angle_beta 90.000000
_cell_angle_gamma 90.000000
_cell_volume 2369.217313
_symmetry_space_group_name_H-M "I M M 2"
_symmetry_group_IT_number 44
_symmetry_cell_setting 'orthorhombic'
loop_
_space_group_symop_operation_xyz
x,y,z
-x,-y,z
-x,y,z
x,-y,z
1/2+x,1/2+y,1/2+z
1/2-x,1/2-y,1/2+z
1/2-x,1/2+y,1/2+z
1/2+x,1/2-y,1/2+z
loop_
_atom_site_type_symbol
_atom_site_label
_atom_site_fract_x
_atom_site_fract_y
_atom_site_fract_z
Si Si1 0.334532 0.208669 0.278330
Si Si2 0.674524 0.796090 0.430760
Si Si3 0.676869 0.000000 0.980510
Si Si4 0.167619 0.307299 0.118935
Si Si5 0.175672 0.696487 0.693088
Si Si6 0.675926 0.500000 0.563187
Si Si7 0.164940 0.206942 0.352555
O O1 0.500000 0.281363 0.285518
O O2 0.275038 0.268664 0.235735
O O3 0.230074 0.284994 0.312355
O O4 0.338721 0.000000 0.279129
O O5 0.500000 0.760793 0.433405
O O6 0.758726 0.676777 0.461775
O O7 0.730047 0.737928 0.388150
O O8 0.711460 0.000000 0.439094
O O9 0.500000 0.000000 0.976917
O O10 0.726470 0.000000 0.024899
O O11 0.178698 0.500000 0.099980
O O12 0.259065 0.313217 0.158856
O O13 0.227026 0.169659 0.087504
O O14 0.000000 0.257511 0.129885
O O15 0.235250 0.500000 0.687030
O O16 0.000000 0.701216 0.690898
O O17 0.500000 0.500000 0.553553
O O18 0.000000 0.283572 0.359179
O O19 0.158740 0.000000 0.349294
#
# Coordination Sequence:
#
# PCOD8189986 Si02
#       7
#     8   8   4   8   8   4   8
#     4   8  14  25  43  71 107 149 195 240 284 340
#     4  10  21  39  64  90 119 160 203 242 291 357
#     4  12  26  42  64  94 126 154 190 248 306 360
#     4  10  21  37  59  85 112 147 190 235 286 345
#     4   9  17  30  51  79 112 150 194 240 289 344
#     4  10  22  42  62  84 116 152 192 238 290 356
#     4   9  16  27  47  79 116 152 194 244 295 344
#
# _framework density 20.259854000000001
#
# number of rings (size 3 to 8) (size 9 to 14) (size 15 to 20)
#    0.000    2.500    0.833    2.750    0.000    5.333 
#    0.000    3.333    1.833    0.000    0.000    0.000 
#    0.000    0.000    0.000    0.000    0.000    0.000 
#
# Total GULP energy -297531.501818 kJ/mol
# GULP energy per Si atom -12397.145909 kJ/mol
# Density = 2.021374 g / cm^3
# Si number density = 20.259854 Si / 1000 Ang^3
#
#
#
# Elastic Constant Matrix: (Units=GPa)
#
#
# Indices 1 2 3 4 5 6 
#
# 1 105.9581 38.1936 69.6909 0.0000 0.0000 0.0000
# 2 38.1936 86.3649 56.8689 0.0000 0.0000 0.0000
# 3 69.6909 56.8689 166.4357 0.0000 0.0000 0.0000
# 4 0.0000 0.0000 0.0000 -2.8997 0.0000 0.0000
# 5 0.0000 0.0000 0.0000 0.0000 36.9602 0.0000
# 6 0.0000 0.0000 0.0000 0.0000 0.0000 17.7494
#
#
#
# Elastic Compliance Matrix: (Units=1/GPa)
#
#
# Indices 1 2 3 4 5 6 
#
# 1 0.013571 -0.002916 -0.004686 0.000000 0.000000 0.000000
# 2 -0.002916 0.015567 -0.004098 0.000000 0.000000 0.000000
# 3 -0.004686 -0.004098 0.009371 0.000000 0.000000 0.000000
# 4 0.000000 0.000000 0.000000 -0.344863 0.000000 0.000000
# 5 0.000000 0.000000 0.000000 0.000000 0.027056 0.000000
# 6 0.000000 0.000000 0.000000 0.000000 0.000000 0.056340
#
#
# Mechanical properties :
#
#
# Convention : Reuss Voigt Hill
#
# Bulk Modulus (GPa) = 66.18850 76.47395 71.33123
# Shear Modulus (GPa) = -25.70396 23.29568 -1.20414
#
# Velocity S-wave (km/s) = -3.56577 3.39461 -0.77178
# Velocity P-wave (km/s) = 3.97339 7.29336 5.87285
#
# Compressibility (1/GPa) = 0.01510836
#
# Stress axis : x y z
#
# Youngs Moduli (GPa) = 73.68683 64.23983 106.71460
#
# Poissons Ratio (x) = 0.18731 0.50009
# Poissons Ratio (y) = 0.21486 0.43732
# Poissons Ratio (z) = 0.34531 0.26325
#
# Static dielectric constant tensor:
#      x y z
#    x 3.685050 0.000000 0.000000 
#    y 0.000000 3.544350 0.000000 
#    z 0.000000 0.000000 3.753400 
# 
# 
# High freq. dielectric constant tensor:
#      x y z
#    x 1.783560 0.000000 0.000000 
#    y 0.000000 1.776590 0.000000 
#    z 0.000000 0.000000 1.792250 
# 
# From -- ./inp_files/26983.got.cif
#   From: 2010.03.12/outbox.cif.g09.slc.cpg/sg44_14_cif.got.tgz:26983.got - 2010.04.14 02:36:11.
