data_PCOD8189583
_publ_section_title
;
Structure prediction by ZEFSAII (Michael W. Deem and Ramdas Pophale) SiO2 
 PCOD8189583
Probable space group: I M M 2
;
_chemical_formula_sum "Si O2"
_cell_formula_units_Z 40
_cell_length_a 22.750163
_cell_length_b 9.593976
_cell_length_c 10.115855
_cell_angle_alpha 90.000000
_cell_angle_beta 90.000000
_cell_angle_gamma 90.000000
_cell_volume 2207.932214
_symmetry_space_group_name_H-M "I M M 2"
_symmetry_group_IT_number 44
_symmetry_cell_setting 'orthorhombic'
loop_
_space_group_symop_operation_xyz
x,y,z
-x,-y,z
-x,y,z
x,-y,z
1/2+x,1/2+y,1/2+z
1/2-x,1/2-y,1/2+z
1/2-x,1/2+y,1/2+z
1/2+x,1/2-y,1/2+z
loop_
_atom_site_type_symbol
_atom_site_label
_atom_site_fract_x
_atom_site_fract_y
_atom_site_fract_z
Si Si1 0.500000 0.661596 0.213620
Si Si2 0.500000 0.841222 0.475298
Si Si3 0.125338 0.339015 0.079256
Si Si4 0.190572 0.661643 0.815234
Si Si5 0.827131 0.839726 0.317974
Si Si6 0.625010 0.662269 0.100851
O O1 0.500000 0.500000 0.251682
O O2 0.500000 0.744605 0.348696
O O3 0.557292 0.701172 0.128520
O O4 0.556046 0.811475 0.566572
O O5 0.500000 0.000000 0.423114
O O6 0.140186 0.500000 0.105611
O O7 0.148832 0.252166 0.200441
O O8 0.156440 0.287600 0.945349
O O9 0.177398 0.500000 0.785601
O O10 0.258743 0.690622 0.840090
O O11 0.168686 0.750430 0.691878
O O12 0.861932 0.797836 0.449969
O O13 0.838145 0.000000 0.280985
O O14 0.637996 0.500000 0.127366
#
# Coordination Sequence:
#
# PCOD8189583 Si02
#       6
#     4   4   8   8   8   8
#     4  10  20  35  58  84 108 140 186 229 274 330
#     4  10  20  37  60  82 108 142 184 229 274 328
#     4  10  21  37  58  83 111 144 183 228 275 325
#     4  10  20  36  58  82 109 146 188 226 270 326
#     4  10  22  37  54  82 116 146 181 225 275 329
#     4  10  21  37  57  82 112 145 183 229 276 325
#
# _framework density 18.116498
#
# number of rings (size 3 to 8) (size 9 to 14) (size 15 to 20)
#    0.000    2.000    2.000    1.200    0.000    5.600 
#    0.000    1.000    0.000    0.000    0.000    0.000 
#    0.000    0.000    0.000    0.000    0.000    0.000 
#
# Total GULP energy -248090.614817 kJ/mol
# GULP energy per Si atom -12404.530741 kJ/mol
# Density = 1.807526 g / cm^3
# Si number density = 18.116498 Si / 1000 Ang^3
#
#
#
# Elastic Constant Matrix: (Units=GPa)
#
#
# Indices 1 2 3 4 5 6 
#
# 1 81.7312 28.8717 24.7629 0.0000 0.0000 0.0000
# 2 28.8717 55.4961 48.6290 0.0000 0.0000 0.0000
# 3 24.7629 48.6290 96.1982 0.0000 0.0000 0.0000
# 4 0.0000 0.0000 0.0000 39.2727 0.0000 0.0000
# 5 0.0000 0.0000 0.0000 0.0000 -41.4484 0.0000
# 6 0.0000 0.0000 0.0000 0.0000 0.0000 28.2406
#
#
#
# Elastic Compliance Matrix: (Units=1/GPa)
#
#
# Indices 1 2 3 4 5 6 
#
# 1 0.014991 -0.007931 0.000150 0.000000 0.000000 0.000000
# 2 -0.007931 0.036544 -0.016432 0.000000 0.000000 0.000000
# 3 0.000150 -0.016432 0.018663 0.000000 0.000000 0.000000
# 4 0.000000 0.000000 0.000000 0.025463 0.000000 0.000000
# 5 0.000000 0.000000 0.000000 0.000000 -0.024126 0.000000
# 6 0.000000 0.000000 0.000000 0.000000 0.000000 0.035410
#
#
# Mechanical properties :
#
#
# Convention : Reuss Voigt Hill
#
# Bulk Modulus (GPa) = 45.92782 48.66139 47.29461
# Shear Modulus (GPa) = 30.74532 13.95712 22.35122
#
# Velocity S-wave (km/s) = 4.12404 2.77864 3.51629
# Velocity P-wave (km/s) = 6.93422 6.10025 6.53056
#
# Compressibility (1/GPa) = 0.02177330
#
# Stress axis : x y z
#
# Youngs Moduli (GPa) = 66.70543 27.36464 53.58232
#
# Poissons Ratio (x) = 0.21702 -0.00804
# Poissons Ratio (y) = 0.52902 0.88044
# Poissons Ratio (z) = -0.01001 0.44964
#
# Static dielectric constant tensor:
#      x y z
#    x 5.294180 0.000000 0.000000 
#    y 0.000000 3.341580 0.000000 
#    z 0.000000 0.000000 3.275210 
# 
# 
# High freq. dielectric constant tensor:
#      x y z
#    x 1.720360 0.000000 0.000000 
#    y 0.000000 1.698980 0.000000 
#    z 0.000000 0.000000 1.700480 
# 
# From -- ./inp_files/4489.got.cif
#   From: 2010.03.12/outbox.cif.g09.slc.cpg/sg44_3_cif.got.tgz:4489.got - 2010.04.14 02:36:11.
