data_PCOD8189488
_publ_section_title
;
Structure prediction by ZEFSAII (Michael W. Deem and Ramdas Pophale) SiO2 
 PCOD8189488
Probable space group: I M M 2
;
_chemical_formula_sum "Si O2"
_cell_formula_units_Z 64
_cell_length_a 9.063520
_cell_length_b 30.514643
_cell_length_c 14.298065
_cell_angle_alpha 90.000000
_cell_angle_beta 90.000000
_cell_angle_gamma 90.000000
_cell_volume 3954.416940
_symmetry_space_group_name_H-M "I M M 2"
_symmetry_group_IT_number 44
_symmetry_cell_setting 'orthorhombic'
loop_
_space_group_symop_operation_xyz
x,y,z
-x,-y,z
-x,y,z
x,-y,z
1/2+x,1/2+y,1/2+z
1/2-x,1/2-y,1/2+z
1/2-x,1/2+y,1/2+z
1/2+x,1/2-y,1/2+z
loop_
_atom_site_type_symbol
_atom_site_label
_atom_site_fract_x
_atom_site_fract_y
_atom_site_fract_z
Si Si1 0.675567 0.215783 0.429770
Si Si2 0.328631 0.049624 0.033038
Si Si3 0.325280 0.770704 0.640739
Si Si4 0.665552 0.182818 0.126632
Si Si5 0.170359 0.868798 0.967328
Si Si6 0.335329 0.135205 0.317393
Si Si7 0.170347 0.199992 0.814203
Si Si8 0.176385 0.547794 0.745719
O O1 0.500000 0.214984 0.420760
O O2 0.726474 0.214812 0.537339
O O3 0.745784 0.172157 0.380477
O O4 0.731864 0.260044 0.378956
O O5 0.500000 0.062520 0.027445
O O6 0.238580 0.082516 0.966075
O O7 0.303457 0.000000 0.997194
O O8 0.269187 0.054308 0.139091
O O9 0.500000 0.767585 0.646946
O O10 0.254658 0.724158 0.665041
O O11 0.263934 0.804138 0.718655
O O12 0.500000 0.196549 0.096995
O O13 0.659548 0.148133 0.209293
O O14 0.747557 0.162224 0.039572
O O15 0.189558 0.846438 0.866124
O O16 0.000000 0.871208 0.996267
O O17 0.500000 0.130575 0.358119
O O18 0.260571 0.086428 0.314229
O O19 0.000000 0.208813 0.789000
O O20 0.229806 0.500000 0.782571
O O21 0.000000 0.549740 0.744609
#
# Coordination Sequence:
#
# PCOD8189488 Si02
#       8
#     8   8   8   8   8   8   8   8
#     4   9  17  30  45  63  91 122 156 195 239 280
#     4   9  17  30  48  71  98 125 158 198 238 289
#     4  11  21  33  47  68  95 123 160 207 243 277
#     4  11  19  29  48  69  93 129 165 193 234 291
#     4  11  21  32  47  69  99 130 163 203 241 283
#     4   9  15  25  44  65  86 123 158 181 224 283
#     4  10  20  35  49  65  93 129 162 198 240 283
#     4   8  13  22  39  66  94 116 148 191 225 268
#
# _framework density 16.184434
#
# number of rings (size 3 to 8) (size 9 to 14) (size 15 to 20)
#    0.000    2.250    3.750    1.875    0.000    1.250 
#    0.000    0.000    0.000    0.000    0.000    0.875 
#    0.000    3.000    0.000    0.000    0.000    0.000 
#
# Total GULP energy -396578.979211 kJ/mol
# GULP energy per Si atom -12393.093100 kJ/mol
# Density = 1.614760 g / cm^3
# Si number density = 16.184434 Si / 1000 Ang^3
#
#
#
# Elastic Constant Matrix: (Units=GPa)
#
#
# Indices 1 2 3 4 5 6 
#
# 1 55.3256 23.6742 27.2924 -0.0005 0.0000 0.0000
# 2 23.6742 111.5434 34.8478 -0.0008 0.0000 -0.0001
# 3 27.2924 34.8478 68.4888 -0.0013 -0.0001 -0.0001
# 4 -0.0005 -0.0008 -0.0013 23.2488 0.0000 0.0000
# 5 0.0000 0.0000 -0.0001 0.0000 20.5213 -0.0001
# 6 0.0000 -0.0001 -0.0001 0.0000 -0.0001 21.1906
#
#
#
# Elastic Compliance Matrix: (Units=1/GPa)
#
#
# Indices 1 2 3 4 5 6 
#
# 1 0.023026 -0.002402 -0.007954 0.000000 0.000000 0.000000
# 2 -0.002402 0.010910 -0.004594 0.000000 0.000000 0.000000
# 3 -0.007954 -0.004594 0.020108 0.000001 0.000000 0.000000
# 4 0.000000 0.000000 0.000001 0.043013 0.000000 0.000000
# 5 0.000000 0.000000 0.000000 0.000000 0.048730 0.000000
# 6 0.000000 0.000000 0.000000 0.000000 0.000000 0.047191
#
#
# Mechanical properties :
#
#
# Convention : Reuss Voigt Hill
#
# Bulk Modulus (GPa) = 41.41687 45.22076 43.31882
# Shear Modulus (GPa) = 21.65199 22.96170 22.30684
#
# Velocity S-wave (km/s) = 3.66160 3.77072 3.71656
# Velocity P-wave (km/s) = 6.59716 6.85269 6.72614
#
# Compressibility (1/GPa) = 0.02414475
#
# Stress axis : x y z
#
# Youngs Moduli (GPa) = 43.42854 91.65732 49.73199
#
# Poissons Ratio (x) = 0.22019 0.39554
# Poissons Ratio (y) = 0.10433 0.22846
# Poissons Ratio (z) = 0.34541 0.42106
#
# Static dielectric constant tensor:
#      x y z
#    x 2.832720 0.000000 0.000000 
#    y 0.000000 3.356080 0.000000 
#    z 0.000000 0.000000 2.922510 
# 
# 
# High freq. dielectric constant tensor:
#      x y z
#    x 1.594540 0.000000 0.000000 
#    y 0.000000 1.623280 0.000000 
#    z 0.000000 0.000000 1.592900 
# 
# From -- ./inp_files/17118.got.cif
#   From: 2010.03.12/outbox.cif.g09.slc.cpg/sg44_9_cif.got.tgz:17118.got - 2010.04.14 02:36:11.
