data_PCOD8189936
_publ_section_title
;
Structure prediction by ZEFSAII (Michael W. Deem and Ramdas Pophale) SiO2 
 PCOD8189936
Probable space group: I M M 2
;
_chemical_formula_sum "Si O2"
_cell_formula_units_Z 64
_cell_length_a 9.074614
_cell_length_b 14.770355
_cell_length_c 24.205746
_cell_angle_alpha 90.000000
_cell_angle_beta 90.000000
_cell_angle_gamma 90.000000
_cell_volume 3244.423707
_symmetry_space_group_name_H-M "I M M 2"
_symmetry_group_IT_number 44
_symmetry_cell_setting 'orthorhombic'
loop_
_space_group_symop_operation_xyz
x,y,z
-x,-y,z
-x,y,z
x,-y,z
1/2+x,1/2+y,1/2+z
1/2-x,1/2-y,1/2+z
1/2-x,1/2+y,1/2+z
1/2+x,1/2-y,1/2+z
loop_
_atom_site_type_symbol
_atom_site_label
_atom_site_fract_x
_atom_site_fract_y
_atom_site_fract_z
Si Si1 0.828225 0.605652 0.573590
Si Si2 0.326781 0.605411 0.093004
Si Si3 0.175107 0.258781 0.010846
Si Si4 0.171816 0.398978 0.321769
Si Si5 0.824718 0.100692 0.302089
Si Si6 0.662630 0.392421 0.215587
Si Si7 0.326399 0.736262 0.896347
Si Si8 0.336310 0.392553 0.681664
O O1 0.794214 0.500000 0.564044
O O2 0.741221 0.661284 0.527268
O O3 0.774910 0.639306 0.633869
O O4 0.000000 0.627247 0.568288
O O5 0.500000 0.624325 0.083651
O O6 0.291764 0.500000 0.083031
O O7 0.229506 0.662901 0.051342
O O8 0.279465 0.636593 0.154928
O O9 0.000000 0.253767 0.011392
O O10 0.232213 0.283516 0.950262
O O11 0.233513 0.500000 0.333998
O O12 0.236435 0.356340 0.265322
O O13 0.210043 0.336862 0.374170
O O14 0.000000 0.401372 0.311302
O O15 0.769099 0.165909 0.350353
O O16 0.774665 0.138878 0.241708
O O17 0.000000 0.097028 0.301196
O O18 0.760542 0.000000 0.312934
O O19 0.500000 0.352731 0.225257
O O20 0.657860 0.500000 0.216462
O O21 0.500000 0.724564 0.908849
O O22 0.500000 0.352814 0.669515
O O23 0.346613 0.500000 0.683237
#
# Coordination Sequence:
#
# PCOD8189936 Si02
#       8
#     8   8   8   8   8   8   8   8
#     4  10  21  38  60  84 111 145 184 226 275 332
#     4   9  19  38  62  85 112 148 186 224 271 328
#     4  12  26  40  55  79 111 146 189 237 281 327
#     4   9  18  32  51  77 109 142 174 214 266 321
#     4   8  15  30  54  81 106 135 172 216 267 321
#     4   8  15  30  54  83 111 138 171 213 264 323
#     4  10  21  37  54  73 101 140 189 231 263 315
#     4   8  14  28  52  82 113 140 171 215 267 324
#
# _framework density 19.726154000000001
#
# number of rings (size 3 to 8) (size 9 to 14) (size 15 to 20)
#    0.000    2.750    0.000    3.000    0.000    4.000 
#    0.000    5.625    0.000    0.750    0.000    0.000 
#    0.000    0.000    0.000    0.000    0.000    0.000 
#
# Total GULP energy -396682.357873 kJ/mol
# GULP energy per Si atom -12396.323684 kJ/mol
# Density = 1.968126 g / cm^3
# Si number density = 19.726154 Si / 1000 Ang^3
#
#
#
# Elastic Constant Matrix: (Units=GPa)
#
#
# Indices 1 2 3 4 5 6 
#
# 1 67.0158 13.6507 25.4612 0.0000 0.0000 0.0000
# 2 13.6507 42.3944 1.2680 0.0000 0.0000 0.0000
# 3 25.4612 1.2680 78.8835 0.0000 0.0000 0.0000
# 4 0.0000 0.0000 0.0000 29.0640 0.0000 0.0000
# 5 0.0000 0.0000 0.0000 0.0000 36.2516 0.0000
# 6 0.0000 0.0000 0.0000 0.0000 0.0000 19.8541
#
#
#
# Elastic Compliance Matrix: (Units=1/GPa)
#
#
# Indices 1 2 3 4 5 6 
#
# 1 0.018295 -0.005717 -0.005813 0.000000 0.000000 0.000000
# 2 -0.005717 0.025386 0.001437 0.000000 0.000000 0.000000
# 3 -0.005813 0.001437 0.014530 0.000000 0.000000 0.000000
# 4 0.000000 0.000000 0.000000 0.034407 0.000000 0.000000
# 5 0.000000 0.000000 0.000000 0.000000 0.027585 0.000000
# 6 0.000000 0.000000 0.000000 0.000000 0.000000 0.050368
#
#
# Mechanical properties :
#
#
# Convention : Reuss Voigt Hill
#
# Bulk Modulus (GPa) = 26.29843 29.89482 28.09662
# Shear Modulus (GPa) = 24.57834 26.89485 25.73660
#
# Velocity S-wave (km/s) = 3.53367 3.69645 3.61597
# Velocity P-wave (km/s) = 5.47812 5.77980 5.63098
#
# Compressibility (1/GPa) = 0.03802508
#
# Stress axis : x y z
#
# Youngs Moduli (GPa) = 54.65988 39.39203 68.82249
#
# Poissons Ratio (x) = 0.22520 0.40008
# Poissons Ratio (y) = 0.31249 -0.09891
# Poissons Ratio (z) = 0.31775 -0.05661
#
# Static dielectric constant tensor:
#      x y z
#    x 3.441690 0.000000 0.000000 
#    y 0.000000 3.717950 0.000000 
#    z 0.000000 0.000000 3.785430 
# 
# 
# High freq. dielectric constant tensor:
#      x y z
#    x 1.744170 0.000000 0.000000 
#    y 0.000000 1.763640 0.000000 
#    z 0.000000 0.000000 1.772800 
# 
# From -- ./inp_files/25099.got.cif
#   From: 2010.03.12/outbox.cif.g09.slc.cpg/sg44_13_cif.got.tgz:25099.got - 2010.04.14 02:36:11.
