data_PCOD8189685
_publ_section_title
;
Structure prediction by ZEFSAII (Michael W. Deem and Ramdas Pophale) SiO2 
 PCOD8189685
Probable space group: I M M 2
;
_chemical_formula_sum "Si O2"
_cell_formula_units_Z 48
_cell_length_a 16.868495
_cell_length_b 8.495720
_cell_length_c 16.854704
_cell_angle_alpha 90.000000
_cell_angle_beta 90.000000
_cell_angle_gamma 90.000000
_cell_volume 2415.447805
_symmetry_space_group_name_H-M "I M M 2"
_symmetry_group_IT_number 44
_symmetry_cell_setting 'orthorhombic'
loop_
_space_group_symop_operation_xyz
x,y,z
-x,-y,z
-x,y,z
x,-y,z
1/2+x,1/2+y,1/2+z
1/2-x,1/2-y,1/2+z
1/2-x,1/2+y,1/2+z
1/2+x,1/2-y,1/2+z
loop_
_atom_site_type_symbol
_atom_site_label
_atom_site_fract_x
_atom_site_fract_y
_atom_site_fract_z
Si Si1 0.151748 0.815735 0.068560
Si Si2 0.673496 0.815845 0.091839
Si Si3 0.500000 0.685100 0.656566
Si Si4 0.807877 0.815959 0.894398
Si Si5 0.500000 0.819266 0.827966
Si Si6 0.140634 0.817722 0.425935
Si Si7 0.591714 0.317170 0.242664
O O1 0.236054 0.753885 0.102712
O O2 0.078310 0.737465 0.115768
O O3 0.147981 0.000000 0.083007
O O4 0.145171 0.774970 0.975231
O O5 0.623715 0.784896 0.170283
O O6 0.673331 0.000000 0.070993
O O7 0.633842 0.725078 0.018591
O O8 0.500000 0.500000 0.640405
O O9 0.500000 0.714506 0.749514
O O10 0.726960 0.718414 0.890308
O O11 0.862975 0.764344 0.821829
O O12 0.786421 0.000000 0.891982
O O13 0.422410 0.784441 0.878692
O O14 0.500000 0.000000 0.802282
O O15 0.120517 0.000000 0.414330
O O16 0.500000 0.278797 0.255822
O O17 0.605881 0.500000 0.223926
#
# Coordination Sequence:
#
# PCOD8189685 Si02
#       7
#     8   8   4   8   4   8   8
#     4   8  17  34  59  86 115 152 196 240 289 344
#     4  10  21  39  60  86 119 159 199 242 297 355
#     4  10  20  36  60  91 120 155 198 241 282 345
#     4   9  19  38  61  89 121 157 195 243 298 351
#     4  12  26  42  60  87 120 155 192 245 304 355
#     4  11  23  41  64  88 115 154 199 246 296 357
#     4  10  22  37  58  89 123 157 199 246 294 349
#
# _framework density 19.872093
#
# number of rings (size 3 to 8) (size 9 to 14) (size 15 to 20)
#    0.000    2.167    0.000    3.750    4.667    1.000 
#    0.000    3.333    0.000    0.000    0.000    0.000 
#    0.000    0.000    0.000    0.000    0.000    0.000 
#
# Total GULP energy -297642.615824 kJ/mol
# GULP energy per Si atom -12401.775659 kJ/mol
# Density = 1.982686 g / cm^3
# Si number density = 19.872093 Si / 1000 Ang^3
#
#
#
# Elastic Constant Matrix: (Units=GPa)
#
#
# Indices 1 2 3 4 5 6 
#
# 1 98.6473 9.4643 64.2362 0.0000 0.0000 0.0000
# 2 9.4643 42.2981 6.7876 0.0000 0.0000 0.0000
# 3 64.2362 6.7876 117.4602 0.0000 0.0000 0.0000
# 4 0.0000 0.0000 0.0000 23.8054 0.0000 0.0000
# 5 0.0000 0.0000 0.0000 0.0000 31.5188 0.0000
# 6 0.0000 0.0000 0.0000 0.0000 0.0000 23.0207
#
#
#
# Elastic Compliance Matrix: (Units=1/GPa)
#
#
# Indices 1 2 3 4 5 6 
#
# 1 0.015942 -0.002188 -0.008592 0.000000 0.000000 0.000000
# 2 -0.002188 0.024163 -0.000200 0.000000 0.000000 0.000000
# 3 -0.008592 -0.000200 0.013224 0.000000 0.000000 0.000000
# 4 0.000000 0.000000 0.000000 0.042007 0.000000 0.000000
# 5 0.000000 0.000000 0.000000 0.000000 0.031727 0.000000
# 6 0.000000 0.000000 0.000000 0.000000 0.000000 0.043439
#
#
# Mechanical properties :
#
#
# Convention : Reuss Voigt Hill
#
# Bulk Modulus (GPa) = 31.87798 46.59798 39.23798
# Shear Modulus (GPa) = 24.64049 27.53015 26.08532
#
# Velocity S-wave (km/s) = 3.52512 3.72609 3.62700
# Velocity P-wave (km/s) = 5.71358 6.48163 6.10969
#
# Compressibility (1/GPa) = 0.03136961
#
# Stress axis : x y z
#
# Youngs Moduli (GPa) = 62.72839 41.38490 75.62199
#
# Poissons Ratio (x) = 0.09056 0.64972
# Poissons Ratio (y) = 0.13727 0.01509
# Poissons Ratio (z) = 0.53894 0.00826
#
# Static dielectric constant tensor:
#      x y z
#    x 3.891750 0.000000 0.000000 
#    y 0.000000 3.337620 0.000000 
#    z 0.000000 0.000000 3.609060 
# 
# 
# High freq. dielectric constant tensor:
#      x y z
#    x 1.785580 0.000000 0.000000 
#    y 0.000000 1.752540 0.000000 
#    z 0.000000 0.000000 1.781300 
# 
# From -- ./inp_files/16200.got.cif
#   From: 2010.03.12/outbox.cif.g09.slc.cpg/sg44_9_cif.got.tgz:16200.got - 2010.04.14 02:36:11.
