data_PCOD8189673
_publ_section_title
;
Structure prediction by ZEFSAII (Michael W. Deem and Ramdas Pophale) SiO2 
 PCOD8189673
Probable space group: I M M 2
;
_chemical_formula_sum "Si O2"
_cell_formula_units_Z 48
_cell_length_a 8.585722
_cell_length_b 23.283934
_cell_length_c 11.773459
_cell_angle_alpha 90.000000
_cell_angle_beta 90.000000
_cell_angle_gamma 90.000000
_cell_volume 2353.624941
_symmetry_space_group_name_H-M "I M M 2"
_symmetry_group_IT_number 44
_symmetry_cell_setting 'orthorhombic'
loop_
_space_group_symop_operation_xyz
x,y,z
-x,-y,z
-x,y,z
x,-y,z
1/2+x,1/2+y,1/2+z
1/2-x,1/2-y,1/2+z
1/2-x,1/2+y,1/2+z
1/2+x,1/2-y,1/2+z
loop_
_atom_site_type_symbol
_atom_site_label
_atom_site_fract_x
_atom_site_fract_y
_atom_site_fract_z
Si Si1 0.176240 0.845260 0.178360
Si Si2 0.320259 0.139978 0.536339
Si Si3 0.685008 0.267725 0.882379
Si Si4 0.184931 0.433978 0.248779
Si Si5 0.323469 0.435189 0.854362
Si Si6 0.815285 0.851927 0.928171
O O1 0.248903 0.802095 0.271921
O O2 0.186829 0.909270 0.228437
O O3 0.000000 0.825207 0.158386
O O4 0.258057 0.846711 0.055404
O O5 0.500000 0.155664 0.553424
O O6 0.233400 0.199042 0.499214
O O7 0.252386 0.108970 0.649587
O O8 0.299842 0.093996 0.436847
O O9 0.500000 0.262010 0.882105
O O10 0.764087 0.206247 0.866331
O O11 0.246434 0.500000 0.233652
O O12 0.244541 0.407946 0.367407
O O13 0.000000 0.434770 0.246773
O O14 0.500000 0.426700 0.901900
O O15 0.272974 0.500000 0.843240
O O16 0.000000 0.858915 0.928944
#
# Coordination Sequence:
#
# PCOD8189673 Si02
#       6
#     8   8   8   8   8   8
#     4   8  18  36  55  78 111 147 184 228 285 347
#     4  10  20  36  59  86 116 151 194 242 291 344
#     4  10  21  39  61  85 115 151 190 237 299 358
#     4  10  23  42  60  82 119 165 203 239 295 356
#     4   9  17  32  56  83 111 147 189 232 284 342
#     4  11  23  38  59  87 115 150 196 243 290 349
#
# _framework density 20.394072999999999
#
# number of rings (size 3 to 8) (size 9 to 14) (size 15 to 20)
#    0.000    2.333    0.000    3.000    2.333    3.333 
#    0.000    9.167    0.000    0.000    0.000    0.000 
#    0.000    0.000    0.000    0.000    0.000    0.000 
#
# Total GULP energy -297454.086078 kJ/mol
# GULP energy per Si atom -12393.920253 kJ/mol
# Density = 2.034766 g / cm^3
# Si number density = 20.394073 Si / 1000 Ang^3
#
#
#
# Elastic Constant Matrix: (Units=GPa)
#
#
# Indices 1 2 3 4 5 6 
#
# 1 26.5861 13.4686 16.1240 0.0000 -0.0001 0.0000
# 2 13.4686 101.3124 25.9852 0.0000 0.0000 0.0000
# 3 16.1240 25.9852 110.1763 0.0001 0.0000 -0.0001
# 4 0.0000 0.0000 0.0001 27.5869 0.0000 0.0000
# 5 -0.0001 0.0000 0.0000 0.0000 25.0417 0.0000
# 6 0.0000 0.0000 -0.0001 0.0000 0.0000 28.5433
#
#
#
# Elastic Compliance Matrix: (Units=1/GPa)
#
#
# Indices 1 2 3 4 5 6 
#
# 1 0.043020 -0.004369 -0.005266 0.000000 0.000000 0.000000
# 2 -0.004369 0.010950 -0.001943 0.000000 0.000000 0.000000
# 3 -0.005266 -0.001943 0.010305 0.000000 0.000000 0.000000
# 4 0.000000 0.000000 0.000000 0.036249 0.000000 0.000000
# 5 0.000000 0.000000 0.000000 0.000000 0.039933 0.000000
# 6 0.000000 0.000000 0.000000 0.000000 0.000000 0.035034
#
#
# Mechanical properties :
#
#
# Convention : Reuss Voigt Hill
#
# Bulk Modulus (GPa) = 24.31874 38.80336 31.56105
# Shear Modulus (GPa) = 23.54562 28.40084 25.97323
#
# Velocity S-wave (km/s) = 3.40153 3.73581 3.57258
# Velocity P-wave (km/s) = 5.23235 6.13811 5.70324
#
# Compressibility (1/GPa) = 0.04112055
#
# Stress axis : x y z
#
# Youngs Moduli (GPa) = 23.24482 91.32739 97.03791
#
# Poissons Ratio (x) = 0.39898 0.51096
# Poissons Ratio (y) = 0.10155 0.18856
# Poissons Ratio (z) = 0.12240 0.17746
#
# Static dielectric constant tensor:
#      x y z
#    x 3.395700 0.000000 0.000000 
#    y 0.000000 3.821470 0.000000 
#    z 0.000000 0.000000 3.926800 
# 
# 
# High freq. dielectric constant tensor:
#      x y z
#    x 1.770760 0.000000 0.000000 
#    y 0.000000 1.804020 0.000000 
#    z 0.000000 0.000000 1.796690 
# 
# From -- ./inp_files/11136.got.cif
#   From: 2010.03.12/outbox.cif.g09.slc.cpg/sg44_6_cif.got.tgz:11136.got - 2010.04.14 02:36:11.
