data_PCOD8189052
_publ_section_title
;
Structure prediction by ZEFSAII (Michael W. Deem and Ramdas Pophale) SiO2 
 PCOD8189052
Probable space group: I M M 2
;
_chemical_formula_sum "Si O2"
_cell_formula_units_Z 56
_cell_length_a 23.674159
_cell_length_b 13.584960
_cell_length_c 9.487121
_cell_angle_alpha 90.000000
_cell_angle_beta 90.000000
_cell_angle_gamma 90.000000
_cell_volume 3051.176732
_symmetry_space_group_name_H-M "I M M 2"
_symmetry_group_IT_number 44
_symmetry_cell_setting 'orthorhombic'
loop_
_space_group_symop_operation_xyz
x,y,z
-x,-y,z
-x,y,z
x,-y,z
1/2+x,1/2+y,1/2+z
1/2-x,1/2-y,1/2+z
1/2-x,1/2+y,1/2+z
1/2+x,1/2-y,1/2+z
loop_
_atom_site_type_symbol
_atom_site_label
_atom_site_fract_x
_atom_site_fract_y
_atom_site_fract_z
Si Si1 0.646435 0.612682 0.325330
Si Si2 0.845117 0.245342 0.094539
Si Si3 0.932917 0.189888 0.598902
Si Si4 0.147039 0.112297 0.367171
Si Si5 0.566824 0.106013 0.984855
Si Si6 0.259702 0.388720 0.092262
Si Si7 0.435619 0.887833 0.666925
O O1 0.636002 0.500000 0.367217
O O2 0.659523 0.672550 0.464738
O O3 0.590186 0.651817 0.247694
O O4 0.699930 0.624923 0.225296
O O5 0.855166 0.183270 0.234780
O O6 0.789172 0.309786 0.106326
O O7 0.898043 0.317876 0.068573
O O8 0.906600 0.129755 0.468959
O O9 0.913955 0.304813 0.584662
O O10 0.000000 0.176540 0.594231
O O11 0.205073 0.131913 0.450662
O O12 0.144200 0.000000 0.314660
O O13 0.500000 0.101191 0.974870
O O14 0.589666 0.000000 0.042862
O O15 0.588840 0.121939 0.825761
O O16 0.234994 0.500000 0.090124
O O17 0.500000 0.851071 0.656848
O O18 0.430755 0.000000 0.613888
#
# Coordination Sequence:
#
# PCOD8189052 Si02
#       7
#     8   8   8   8   8   8   8
#     4  10  23  39  54  78 115 148 177 224 277 321
#     4  12  20  34  59  83 106 141 183 223 272 326
#     4  10  19  36  58  78 105 151 191 216 264 328
#     4  10  21  35  54  80 108 138 182 233 266 305
#     4   8  14  28  51  78 106 134 171 221 266 307
#     4   9  20  39  58  78 104 140 181 221 274 332
#     4   9  18  32  51  80 114 141 171 221 279 323
#
# _framework density 18.353573000000001
#
# number of rings (size 3 to 8) (size 9 to 14) (size 15 to 20)
#    0.000    2.286    1.429    3.857    0.000    1.714 
#    0.000    1.429    0.000    7.714    0.000    0.000 
#    0.000    0.000    0.000    0.000    0.000    0.000 
#
# Total GULP energy -347151.799978 kJ/mol
# GULP energy per Si atom -12398.278571 kJ/mol
# Density = 1.831180 g / cm^3
# Si number density = 18.353573 Si / 1000 Ang^3
#
#
#
# Elastic Constant Matrix: (Units=GPa)
#
#
# Indices 1 2 3 4 5 6 
#
# 1 81.1228 48.7193 15.5998 0.0000 0.0000 0.0000
# 2 48.7193 122.7771 33.1267 0.0000 0.0000 0.0000
# 3 15.5998 33.1267 63.3349 0.0000 0.0000 0.0000
# 4 0.0000 0.0000 0.0000 32.8776 0.0000 0.0000
# 5 0.0000 0.0000 0.0000 0.0000 12.5917 0.0000
# 6 0.0000 0.0000 0.0000 0.0000 0.0000 31.2369
#
#
#
# Elastic Compliance Matrix: (Units=1/GPa)
#
#
# Indices 1 2 3 4 5 6 
#
# 1 0.016213 -0.006236 -0.000732 0.000000 0.000000 0.000000
# 2 -0.006236 0.011882 -0.004679 0.000000 0.000000 0.000000
# 3 -0.000732 -0.004679 0.018416 0.000000 0.000000 0.000000
# 4 0.000000 0.000000 0.000000 0.030416 0.000000 0.000000
# 5 0.000000 0.000000 0.000000 0.000000 0.079418 0.000000
# 6 0.000000 0.000000 0.000000 0.000000 0.000000 0.032013
#
#
# Mechanical properties :
#
#
# Convention : Reuss Voigt Hill
#
# Bulk Modulus (GPa) = 43.06937 51.34736 47.20837
# Shear Modulus (GPa) = 22.79049 26.66051 24.72550
#
# Velocity S-wave (km/s) = 3.52767 3.81544 3.67437
# Velocity P-wave (km/s) = 6.33324 6.88822 6.61656
#
# Compressibility (1/GPa) = 0.02321835
#
# Stress axis : x y z
#
# Youngs Moduli (GPa) = 61.67968 84.16290 54.29936
#
# Poissons Ratio (x) = 0.52484 0.03973
# Poissons Ratio (y) = 0.38464 0.25405
# Poissons Ratio (z) = 0.04513 0.39377
#
# Static dielectric constant tensor:
#      x y z
#    x 3.227190 0.000000 0.000000 
#    y 0.000000 3.782720 0.000000 
#    z 0.000000 0.000000 3.205610 
# 
# 
# High freq. dielectric constant tensor:
#      x y z
#    x 1.700300 0.000000 0.000000 
#    y 0.000000 1.731890 0.000000 
#    z 0.000000 0.000000 1.690710 
# 
# From -- ./inp_files/7398.got.cif
#   From: 2010.03.12/outbox.cif.g09.slc.cpg/sg44_4_cif.got.tgz:7398.got - 2010.04.14 02:36:11.
