data_PCOD8189329
_publ_section_title
;
Structure prediction by ZEFSAII (Michael W. Deem and Ramdas Pophale) SiO2 
 PCOD8189329
Probable space group: I M M 2
;
_chemical_formula_sum "Si O2"
_cell_formula_units_Z 56
_cell_length_a 9.037468
_cell_length_b 14.149659
_cell_length_c 22.787929
_cell_angle_alpha 90.000000
_cell_angle_beta 90.000000
_cell_angle_gamma 90.000000
_cell_volume 2914.054057
_symmetry_space_group_name_H-M "I M M 2"
_symmetry_group_IT_number 44
_symmetry_cell_setting 'orthorhombic'
loop_
_space_group_symop_operation_xyz
x,y,z
-x,-y,z
-x,y,z
x,-y,z
1/2+x,1/2+y,1/2+z
1/2-x,1/2-y,1/2+z
1/2-x,1/2+y,1/2+z
1/2+x,1/2-y,1/2+z
loop_
_atom_site_type_symbol
_atom_site_label
_atom_site_fract_x
_atom_site_fract_y
_atom_site_fract_z
Si Si1 0.667010 0.110764 0.511190
Si Si2 0.830223 0.205944 0.408309
Si Si3 0.327442 0.106728 0.645851
Si Si4 0.175437 0.392738 0.801331
Si Si5 0.168745 0.110116 0.083564
Si Si6 0.324967 0.783175 0.186665
Si Si7 0.668966 0.894282 0.964986
O O1 0.500000 0.143385 0.495791
O O2 0.785017 0.163225 0.470914
O O3 0.703762 0.135553 0.578493
O O4 0.681854 0.000000 0.500094
O O5 0.730608 0.163718 0.357519
O O6 0.806336 0.319549 0.412268
O O7 0.000000 0.180236 0.395584
O O8 0.500000 0.115071 0.659992
O O9 0.238454 0.176781 0.688515
O O10 0.272454 0.000000 0.657762
O O11 0.237162 0.500000 0.801694
O O12 0.233681 0.339861 0.743351
O O13 0.000000 0.393898 0.803305
O O14 0.269501 0.164583 0.129116
O O15 0.000000 0.145308 0.089159
O O16 0.183564 0.000000 0.097383
O O17 0.223646 0.132933 0.018283
O O18 0.500000 0.778787 0.185824
O O19 0.500000 0.888565 0.987813
O O20 0.704754 0.000000 0.941446
#
# Coordination Sequence:
#
# PCOD8189329 Si02
#       7
#     8   8   8   8   8   8   8
#     4   9  18  33  53  77 108 145 177 207 254 317
#     4  11  22  34  53  81 107 135 176 224 268 308
#     4   9  19  36  57  82 112 145 180 218 263 317
#     4  10  23  42  59  75 101 140 180 216 262 321
#     4  10  20  33  53  83 114 143 178 221 269 321
#     4  11  22  36  56  80 107 142 183 225 269 319
#     4   9  19  36  55  77 109 144 175 212 263 322
#
# _framework density 19.217213999999998
#
# number of rings (size 3 to 8) (size 9 to 14) (size 15 to 20)
#    0.000    2.143    0.000    3.857    0.000    9.143 
#    0.000    2.143    0.000    2.571    0.000    0.000 
#    0.000    0.000    0.000    0.000    0.000    0.000 
#
# Total GULP energy -347246.153006 kJ/mol
# GULP energy per Si atom -12401.648322 kJ/mol
# Density = 1.917347 g / cm^3
# Si number density = 19.217214 Si / 1000 Ang^3
#
#
#
# Elastic Constant Matrix: (Units=GPa)
#
#
# Indices 1 2 3 4 5 6 
#
# 1 41.6970 33.1374 26.3699 0.0000 0.0000 0.0000
# 2 33.1374 104.9682 76.2057 0.0000 0.0000 0.0000
# 3 26.3699 76.2057 72.8930 0.0000 0.0000 0.0000
# 4 0.0000 0.0000 0.0000 32.1864 0.0000 0.0000
# 5 0.0000 0.0000 0.0000 0.0000 21.5417 0.0000
# 6 0.0000 0.0000 0.0000 0.0000 0.0000 32.3700
#
#
#
# Elastic Compliance Matrix: (Units=1/GPa)
#
#
# Indices 1 2 3 4 5 6 
#
# 1 0.032330 -0.007117 -0.004256 0.000000 0.000000 0.000000
# 2 -0.007117 0.041093 -0.040386 0.000000 0.000000 0.000000
# 3 -0.004256 -0.040386 0.057480 0.000000 0.000000 0.000000
# 4 0.000000 0.000000 0.000000 0.031069 0.000000 0.000000
# 5 0.000000 0.000000 0.000000 0.000000 0.046422 0.000000
# 6 0.000000 0.000000 0.000000 0.000000 0.000000 0.030893
#
#
# Mechanical properties :
#
#
# Convention : Reuss Voigt Hill
#
# Bulk Modulus (GPa) = 36.51529 54.55380 45.53454
# Shear Modulus (GPa) = 14.20728 22.80929 18.50829
#
# Velocity S-wave (km/s) = 2.72196 3.44891 3.10677
# Velocity P-wave (km/s) = 5.37785 6.65654 6.05107
#
# Compressibility (1/GPa) = 0.02738579
#
# Stress axis : x y z
#
# Youngs Moduli (GPa) = 30.93149 24.33481 17.39735
#
# Poissons Ratio (x) = 0.17318 0.07404
# Poissons Ratio (y) = 0.22013 0.70262
# Poissons Ratio (z) = 0.13163 0.98280
#
# Static dielectric constant tensor:
#      x y z
#    x 3.465190 0.000000 0.000000 
#    y 0.000000 3.847980 0.000000 
#    z 0.000000 0.000000 3.332510 
# 
# 
# High freq. dielectric constant tensor:
#      x y z
#    x 1.744990 0.000000 0.000000 
#    y 0.000000 1.767530 0.000000 
#    z 0.000000 0.000000 1.723420 
# 
# From -- ./inp_files/23004.got.cif
#   From: 2010.03.12/outbox.cif.g09.slc.cpg/sg44_12_cif.got.tgz:23004.got - 2010.04.14 02:36:11.
