data_PCOD8189548
_publ_section_title
;
Structure prediction by ZEFSAII (Michael W. Deem and Ramdas Pophale) SiO2 
 PCOD8189548
Probable space group: I M M 2
;
_chemical_formula_sum "Si O2"
_cell_formula_units_Z 40
_cell_length_a 28.253920
_cell_length_b 9.359896
_cell_length_c 7.703179
_cell_angle_alpha 90.000000
_cell_angle_beta 90.000000
_cell_angle_gamma 90.000000
_cell_volume 2037.134595
_symmetry_space_group_name_H-M "I M M 2"
_symmetry_group_IT_number 44
_symmetry_cell_setting 'orthorhombic'
loop_
_space_group_symop_operation_xyz
x,y,z
-x,-y,z
-x,y,z
x,-y,z
1/2+x,1/2+y,1/2+z
1/2-x,1/2-y,1/2+z
1/2-x,1/2+y,1/2+z
1/2+x,1/2-y,1/2+z
loop_
_atom_site_type_symbol
_atom_site_label
_atom_site_fract_x
_atom_site_fract_y
_atom_site_fract_z
Si Si1 0.703205 0.663680 0.419090
Si Si2 0.800132 0.335865 0.258266
Si Si3 0.394368 0.663620 0.257424
Si Si4 0.555544 0.336495 0.609698
Si Si5 0.399160 0.165191 0.919882
O O1 0.709925 0.500000 0.475883
O O2 0.752202 0.726067 0.343553
O O3 0.687071 0.749833 0.586829
O O4 0.662281 0.679879 0.275732
O O5 0.792659 0.500000 0.205244
O O6 0.843026 0.316617 0.391991
O O7 0.408276 0.500000 0.216989
O O8 0.419494 0.716085 0.433397
O O9 0.412909 0.760865 0.100781
O O10 0.500000 0.321540 0.582902
O O11 0.570382 0.500000 0.650261
O O12 0.571567 0.237155 0.766465
O O13 0.413839 0.000000 0.928654
#
# Coordination Sequence:
#
# PCOD8189548 Si02
#       5
#     8   8   8   8   8
#     4  10  20  35  56  83 116 157 203 244 287 346
#     4  10  21  35  53  83 120 157 196 242 294 348
#     4  10  21  38  61  88 118 156 203 248 294 349
#     4  10  22  42  66  89 115 153 203 254 298 345
#     4  11  23  38  59  89 125 159 194 241 303 362
#
# _framework density 19.635425000000001
#
# number of rings (size 3 to 8) (size 9 to 14) (size 15 to 20)
#    0.000    1.800    2.000    1.800    0.000    4.400 
#    0.000    2.000    0.000    0.000    0.000    0.000 
#    0.000    0.000    0.000    0.000    0.000    0.000 
#
# Total GULP energy -248100.091098 kJ/mol
# GULP energy per Si atom -12405.004555 kJ/mol
# Density = 1.959073 g / cm^3
# Si number density = 19.635425 Si / 1000 Ang^3
#
#
#
# Elastic Constant Matrix: (Units=GPa)
#
#
# Indices 1 2 3 4 5 6 
#
# 1 79.2347 25.2055 28.6535 0.0000 0.0000 0.0000
# 2 25.2055 89.7116 72.2226 0.0000 0.0000 0.0000
# 3 28.6535 72.2226 138.0252 0.0000 0.0000 0.0000
# 4 0.0000 0.0000 0.0000 36.8460 0.0000 0.0000
# 5 0.0000 0.0000 0.0000 0.0000 26.6893 0.0000
# 6 0.0000 0.0000 0.0000 0.0000 0.0000 25.4054
#
#
#
# Elastic Compliance Matrix: (Units=1/GPa)
#
#
# Indices 1 2 3 4 5 6 
#
# 1 0.014030 -0.002760 -0.001469 0.000000 0.000000 0.000000
# 2 -0.002760 0.019803 -0.009789 0.000000 0.000000 0.000000
# 3 -0.001469 -0.009789 0.012672 0.000000 0.000000 0.000000
# 4 0.000000 0.000000 0.000000 0.027140 0.000000 0.000000
# 5 0.000000 0.000000 0.000000 0.000000 0.037468 0.000000
# 6 0.000000 0.000000 0.000000 0.000000 0.000000 0.039362
#
#
# Mechanical properties :
#
#
# Convention : Reuss Voigt Hill
#
# Bulk Modulus (GPa) = 54.14102 62.12605 58.13354
# Shear Modulus (GPa) = 27.07594 29.84747 28.46171
#
# Velocity S-wave (km/s) = 3.71743 3.90305 3.81137
# Velocity P-wave (km/s) = 6.78665 7.21251 7.00282
#
# Compressibility (1/GPa) = 0.01847028
#
# Stress axis : x y z
#
# Youngs Moduli (GPa) = 71.27764 50.49759 78.91321
#
# Poissons Ratio (x) = 0.13935 0.11589
# Poissons Ratio (y) = 0.19669 0.77249
# Poissons Ratio (z) = 0.10468 0.49433
#
# Static dielectric constant tensor:
#      x y z
#    x 3.617800 0.000000 0.000000 
#    y 0.000000 3.551920 0.000000 
#    z 0.000000 0.000000 3.431130 
# 
# 
# High freq. dielectric constant tensor:
#      x y z
#    x 1.769650 0.000000 0.000000 
#    y 0.000000 1.758920 0.000000 
#    z 0.000000 0.000000 1.763160 
# 
# From -- ./inp_files/1146.got.cif
#   From: 2010.03.12/outbox.cif.g09.slc.cpg/sg44_1_cif.got.tgz:1146.got - 2010.04.14 02:36:11.
