data_PCOD8189742
_publ_section_title
;
Structure prediction by ZEFSAII (Michael W. Deem and Ramdas Pophale) SiO2 
 PCOD8189742
Probable space group: I M M 2
;
_chemical_formula_sum "Si O2"
_cell_formula_units_Z 40
_cell_length_a 9.095622
_cell_length_b 11.633467
_cell_length_c 19.912741
_cell_angle_alpha 90.000000
_cell_angle_beta 90.000000
_cell_angle_gamma 90.000000
_cell_volume 2107.039177
_symmetry_space_group_name_H-M "I M M 2"
_symmetry_group_IT_number 44
_symmetry_cell_setting 'orthorhombic'
loop_
_space_group_symop_operation_xyz
x,y,z
-x,-y,z
-x,y,z
x,-y,z
1/2+x,1/2+y,1/2+z
1/2-x,1/2-y,1/2+z
1/2-x,1/2+y,1/2+z
1/2+x,1/2-y,1/2+z
loop_
_atom_site_type_symbol
_atom_site_label
_atom_site_fract_x
_atom_site_fract_y
_atom_site_fract_z
Si Si1 0.667612 0.500000 0.113950
Si Si2 0.671600 0.768558 0.624689
Si Si3 0.328427 0.794692 0.384745
Si Si4 0.170313 0.132745 0.257944
Si Si5 0.167782 0.000000 0.455472
Si Si6 0.327918 0.627032 0.498807
O O1 0.500000 0.500000 0.138933
O O2 0.745457 0.613718 0.142338
O O3 0.679814 0.500000 0.034549
O O4 0.500000 0.797904 0.617118
O O5 0.702044 0.677860 0.683637
O O6 0.736694 0.710955 0.556592
O O7 0.500000 0.823267 0.380515
O O8 0.262286 0.789837 0.310100
O O9 0.298760 0.675469 0.423988
O O10 0.248720 0.889855 0.428106
O O11 0.000000 0.145023 0.276442
O O12 0.220835 0.000000 0.262742
O O13 0.000000 0.000000 0.430078
O O14 0.500000 0.617014 0.513277
O O15 0.255790 0.500000 0.503183
#
# Coordination Sequence:
#
# PCOD8189742 Si02
#       6
#     4   8   8   8   4   8
#     4  11  23  37  57  85 117 148 183 238 297 331
#     4  10  20  37  61  84 110 148 195 232 272 341
#     4  11  21  34  58  87 114 145 187 234 281 337
#     4  10  21  37  58  84 115 150 185 230 285 337
#     4  11  21  35  57  83 115 146 183 234 289 339
#     4   9  18  34  57  84 111 143 186 233 277 328
#
# _framework density 18.983986000000002
#
# number of rings (size 3 to 8) (size 9 to 14) (size 15 to 20)
#    0.000    1.800    3.000    1.800    0.000    4.000 
#    1.800    0.000    0.000    6.000    0.000    0.000 
#    0.000    0.000    0.000    0.000    0.000    0.000 
#
# Total GULP energy -248012.579999 kJ/mol
# GULP energy per Si atom -12400.629000 kJ/mol
# Density = 1.894078 g / cm^3
# Si number density = 18.983986 Si / 1000 Ang^3
#
#
#
# Elastic Constant Matrix: (Units=GPa)
#
#
# Indices 1 2 3 4 5 6 
#
# 1 77.9644 42.3317 41.0170 0.0000 0.0000 0.0000
# 2 42.3317 118.4092 36.5443 0.0000 0.0000 0.0000
# 3 41.0170 36.5443 99.7923 0.0000 0.0000 0.0000
# 4 0.0000 0.0000 0.0000 34.3308 0.0000 0.0000
# 5 0.0000 0.0000 0.0000 0.0000 31.1139 0.0000
# 6 0.0000 0.0000 0.0000 0.0000 0.0000 -71.6643
#
#
#
# Elastic Compliance Matrix: (Units=1/GPa)
#
#
# Indices 1 2 3 4 5 6 
#
# 1 0.018517 -0.004815 -0.005848 0.000000 0.000000 0.000000
# 2 -0.004815 0.010774 -0.001966 0.000000 0.000000 0.000000
# 3 -0.005848 -0.001966 0.013144 0.000000 0.000000 0.000000
# 4 0.000000 0.000000 0.000000 0.029128 0.000000 0.000000
# 5 0.000000 0.000000 0.000000 0.000000 0.032140 0.000000
# 6 0.000000 0.000000 0.000000 0.000000 0.000000 -0.013954
#
#
# Mechanical properties :
#
#
# Convention : Reuss Voigt Hill
#
# Bulk Modulus (GPa) = 58.21708 59.55019 58.88363
# Shear Modulus (GPa) = 41.41356 10.50762 25.96059
#
# Velocity S-wave (km/s) = 4.67572 2.35521 3.70198
# Velocity P-wave (km/s) = 7.73840 6.23159 7.02551
#
# Compressibility (1/GPa) = 0.01717709
#
# Stress axis : x y z
#
# Youngs Moduli (GPa) = 54.00353 92.81983 76.07823
#
# Poissons Ratio (x) = 0.44695 0.44488
# Poissons Ratio (y) = 0.26004 0.14958
# Poissons Ratio (z) = 0.31580 0.18250
#
# Static dielectric constant tensor:
#      x y z
#    x 3.409240 0.000000 0.000000 
#    y 0.000000 3.499660 0.000000 
#    z 0.000000 0.000000 3.529890 
# 
# 
# High freq. dielectric constant tensor:
#      x y z
#    x 1.716990 0.000000 0.000000 
#    y 0.000000 1.739270 0.000000 
#    z 0.000000 0.000000 1.741830 
# 
# From -- ./inp_files/22762.got.cif
#   From: 2010.03.12/outbox.cif.g09.slc.cpg/sg44_12_cif.got.tgz:22762.got - 2010.04.14 02:36:11.
