data_PCOD8189214
_publ_section_title
;
Structure prediction by ZEFSAII (Michael W. Deem and Ramdas Pophale) SiO2 
 PCOD8189214
Probable space group: I M M 2
;
_chemical_formula_sum "Si O2"
_cell_formula_units_Z 48
_cell_length_a 31.272461
_cell_length_b 9.214777
_cell_length_c 8.753482
_cell_angle_alpha 90.000000
_cell_angle_beta 90.000000
_cell_angle_gamma 90.000000
_cell_volume 2522.480004
_symmetry_space_group_name_H-M "I M M 2"
_symmetry_group_IT_number 44
_symmetry_cell_setting 'orthorhombic'
loop_
_space_group_symop_operation_xyz
x,y,z
-x,-y,z
-x,y,z
x,-y,z
1/2+x,1/2+y,1/2+z
1/2-x,1/2-y,1/2+z
1/2-x,1/2+y,1/2+z
1/2+x,1/2-y,1/2+z
loop_
_atom_site_type_symbol
_atom_site_label
_atom_site_fract_x
_atom_site_fract_y
_atom_site_fract_z
Si Si1 0.710397 0.834238 0.079140
Si Si2 0.627547 0.663081 0.080100
Si Si3 0.547202 0.836983 0.079704
Si Si4 0.627546 0.336919 0.715893
Si Si5 0.710396 0.834239 0.716845
Si Si6 0.452798 0.163016 0.716287
O O1 0.667193 0.758439 0.139414
O O2 0.750002 0.750007 0.147991
O O3 0.710697 0.000000 0.136841
O O4 0.713140 0.826375 0.897993
O O5 0.632170 0.500000 0.143910
O O6 0.583613 0.731126 0.146401
O O7 0.626529 0.662637 0.897997
O O8 0.500000 0.783977 0.133311
O O9 0.555731 0.000000 0.139691
O O10 0.549314 0.836965 0.897995
O O11 0.632172 0.500000 0.652085
O O12 0.667190 0.241551 0.656578
O O13 0.583612 0.268880 0.649592
O O14 0.710700 0.000000 0.659140
O O15 0.500000 0.216017 0.662678
O O16 0.444266 0.000000 0.656300
#
# Coordination Sequence:
#
# PCOD8189214 Si02
#       6
#     8   8   8   8   8   8
#     4  10  20  33  49  68  91 120 153 189 229 272
#     4   9  16  25  38  57  82 112 145 181 221 265
#     4   8  13  21  33  50  75 108 143 177 215 261
#     4   9  16  25  38  57  82 112 145 181 221 265
#     4  10  20  33  49  68  91 120 153 189 229 272
#     4   8  13  21  33  50  75 108 143 177 215 261
#
# _framework density 19.028891999999999
#
# number of rings (size 3 to 8) (size 9 to 14) (size 15 to 20)
#    0.000    3.000    0.000    3.000    0.000    6.667 
#    0.000    3.333    0.000    0.000    0.000    0.000 
#    0.000    1.333    0.000   14.000    0.000   19.333 
#
# Total GULP energy -297495.660109 kJ/mol
# GULP energy per Si atom -12395.652505 kJ/mol
# Density = 1.898558 g / cm^3
# Si number density = 19.028892 Si / 1000 Ang^3
#
#
#
# Elastic Constant Matrix: (Units=GPa)
#
#
# Indices 1 2 3 4 5 6 
#
# 1 206.4361 121.6989 11.2538 0.0000 0.0000 0.0000
# 2 121.6989 188.5502 12.0627 0.0000 0.0000 0.0000
# 3 11.2538 12.0627 3.3110 0.0000 0.0000 0.0000
# 4 0.0000 0.0000 0.0000 12.9860 0.0000 0.0000
# 5 0.0000 0.0000 0.0000 0.0000 17.1342 0.0000
# 6 0.0000 0.0000 0.0000 0.0000 0.0000 46.4099
#
#
#
# Elastic Compliance Matrix: (Units=1/GPa)
#
#
# Indices 1 2 3 4 5 6 
#
# 1 0.008120 -0.004532 -0.011090 0.000000 0.000000 0.000000
# 2 -0.004532 0.009444 -0.019006 0.000000 0.000000 0.000000
# 3 -0.011090 -0.019006 0.408963 0.000000 0.000000 0.000000
# 4 0.000000 0.000000 0.000000 0.077006 0.000000 0.000000
# 5 0.000000 0.000000 0.000000 0.000000 0.058363 0.000000
# 6 0.000000 0.000000 0.000000 0.000000 0.000000 0.021547
#
#
# Mechanical properties :
#
#
# Convention : Reuss Voigt Hill
#
# Bulk Modulus (GPa) = 2.79898 76.48089 39.63993
# Shear Modulus (GPa) = 6.47845 32.19147 19.33496
#
# Velocity S-wave (km/s) = 1.84714 4.11751 3.19107
# Velocity P-wave (km/s) = 2.45425 7.92997 5.86974
#
# Compressibility (1/GPa) = 0.35727285
#
# Stress axis : x y z
#
# Youngs Moduli (GPa) = 123.14963 105.88215 2.44521
#
# Poissons Ratio (x) = 0.47982 0.02712
# Poissons Ratio (y) = 0.55807 0.04647
# Poissons Ratio (z) = 1.36575 2.01236
#
# Static dielectric constant tensor:
#      x y z
#    x 3.903680 0.000000 0.000000 
#    y 0.000000 3.777880 0.000000 
#    z 0.000000 0.000000 2.727960 
# 
# 
# High freq. dielectric constant tensor:
#      x y z
#    x 1.761470 0.000000 0.000000 
#    y 0.000000 1.750120 0.000000 
#    z 0.000000 0.000000 1.654780 
# 
# From -- ./inp_files/4890.got.cif
#   From: 2010.03.12/outbox.cif.g09.slc.cpg/sg44_3_cif.got.tgz:4890.got - 2010.04.14 02:36:11.
