data_PCOD8189586
_publ_section_title
;
Structure prediction by ZEFSAII (Michael W. Deem and Ramdas Pophale) SiO2 
 PCOD8189586
Probable space group: I M M 2
;
_chemical_formula_sum "Si O2"
_cell_formula_units_Z 56
_cell_length_a 9.512943
_cell_length_b 16.906330
_cell_length_c 17.421659
_cell_angle_alpha 90.000000
_cell_angle_beta 90.000000
_cell_angle_gamma 90.000000
_cell_volume 2801.907187
_symmetry_space_group_name_H-M "I M M 2"
_symmetry_group_IT_number 44
_symmetry_cell_setting 'orthorhombic'
loop_
_space_group_symop_operation_xyz
x,y,z
-x,-y,z
-x,y,z
x,-y,z
1/2+x,1/2+y,1/2+z
1/2-x,1/2-y,1/2+z
1/2-x,1/2+y,1/2+z
1/2+x,1/2-y,1/2+z
loop_
_atom_site_type_symbol
_atom_site_label
_atom_site_fract_x
_atom_site_fract_y
_atom_site_fract_z
Si Si1 0.345741 0.147239 0.965310
Si Si2 0.835153 0.171227 0.504213
Si Si3 0.350342 0.589904 0.583386
Si Si4 0.336283 0.832358 0.356264
Si Si5 0.349408 0.909252 0.206547
Si Si6 0.159971 0.689076 0.296438
Si Si7 0.664136 0.906684 0.642738
O O1 0.500000 0.119175 0.991251
O O2 0.317594 0.234820 0.998393
O O3 0.331331 0.137805 0.874170
O O4 0.230942 0.091097 0.003067
O O5 0.752369 0.139164 0.429621
O O6 0.761744 0.135312 0.579395
O O7 0.000000 0.146665 0.501834
O O8 0.500000 0.634223 0.575235
O O9 0.377676 0.500000 0.606347
O O10 0.265140 0.633477 0.652067
O O11 0.500000 0.815433 0.378039
O O12 0.318921 0.904371 0.296926
O O13 0.271609 0.758974 0.308280
O O14 0.500000 0.868206 0.189281
O O15 0.356246 0.000000 0.182206
O O16 0.199819 0.633644 0.224601
O O17 0.000000 0.722533 0.288213
O O18 0.500000 0.894581 0.621835
O O19 0.700225 0.000000 0.647270
#
# Coordination Sequence:
#
# PCOD8189586 Si02
#       7
#     8   8   8   8   8   8   8
#     4   9  19  36  57  80 109 146 187 230 277 334
#     4  10  22  39  58  83 114 147 190 237 284 339
#     4  10  21  34  50  78 112 143 179 224 273 325
#     4  10  20  35  58  85 112 146 189 235 284 336
#     4   9  19  35  53  76 108 145 182 219 266 327
#     4   9  20  38  58  83 112 145 187 235 283 335
#     4  10  22  40  61  86 117 154 196 240 291 351
#
# _framework density 19.986386
#
# number of rings (size 3 to 8) (size 9 to 14) (size 15 to 20)
#    0.000    2.429    0.000    2.143    2.000    6.857 
#    0.000    2.857    0.000    0.000    0.000    0.000 
#    0.000    0.000    0.000    0.000    0.000    0.000 
#
# Total GULP energy -346931.474359 kJ/mol
# GULP energy per Si atom -12390.409799 kJ/mol
# Density = 1.994090 g / cm^3
# Si number density = 19.986386 Si / 1000 Ang^3
#
#
#
# Elastic Constant Matrix: (Units=GPa)
#
#
# Indices 1 2 3 4 5 6 
#
# 1 161.1618 30.6751 94.5322 0.0000 0.0000 0.0000
# 2 30.6751 36.1355 39.5796 0.0000 0.0000 0.0000
# 3 94.5322 39.5796 160.4453 0.0000 0.0000 0.0000
# 4 0.0000 0.0000 0.0000 30.4365 0.0000 0.0000
# 5 0.0000 0.0000 0.0000 0.0000 34.6272 0.0000
# 6 0.0000 0.0000 0.0000 0.0000 0.0000 20.3462
#
#
#
# Elastic Compliance Matrix: (Units=1/GPa)
#
#
# Indices 1 2 3 4 5 6 
#
# 1 0.009670 -0.002697 -0.005032 0.000000 0.000000 0.000000
# 2 -0.002697 0.038672 -0.007951 0.000000 0.000000 0.000000
# 3 -0.005032 -0.007951 0.011159 0.000000 0.000000 0.000000
# 4 0.000000 0.000000 0.000000 0.032855 0.000000 0.000000
# 5 0.000000 0.000000 0.000000 0.000000 0.028879 0.000000
# 6 0.000000 0.000000 0.000000 0.000000 0.000000 0.049149
#
#
# Mechanical properties :
#
#
# Convention : Reuss Voigt Hill
#
# Bulk Modulus (GPa) = 35.53571 76.36849 55.95210
# Shear Modulus (GPa) = 23.68281 29.94571 26.81426
#
# Velocity S-wave (km/s) = 3.44604 3.87499 3.66680
# Velocity P-wave (km/s) = 5.80105 7.63636 6.78108
#
# Compressibility (1/GPa) = 0.02814071
#
# Stress axis : x y z
#
# Youngs Moduli (GPa) = 103.41326 25.85883 89.61535
#
# Poissons Ratio (x) = 0.06974 0.45095
# Poissons Ratio (y) = 0.27891 0.71250
# Poissons Ratio (z) = 0.52038 0.20559
#
# Static dielectric constant tensor:
#      x y z
#    x 4.115790 0.000000 0.000000 
#    y 0.000000 3.309430 0.000000 
#    z 0.000000 0.000000 3.716590 
# 
# 
# High freq. dielectric constant tensor:
#      x y z
#    x 1.794060 0.000000 0.000000 
#    y 0.000000 1.746140 0.000000 
#    z 0.000000 0.000000 1.790840 
# 
# From -- ./inp_files/16504.got.cif
#   From: 2010.03.12/outbox.cif.g09.slc.cpg/sg44_9_cif.got.tgz:16504.got - 2010.04.14 02:36:11.
