data_PCOD8189647
_publ_section_title
;
Structure prediction by ZEFSAII (Michael W. Deem and Ramdas Pophale) SiO2 
 PCOD8189647
Probable space group: I M M 2
;
_chemical_formula_sum "Si O2"
_cell_formula_units_Z 56
_cell_length_a 32.355432
_cell_length_b 12.748415
_cell_length_c 6.908303
_cell_angle_alpha 90.000000
_cell_angle_beta 90.000000
_cell_angle_gamma 90.000000
_cell_volume 2849.540100
_symmetry_space_group_name_H-M "I M M 2"
_symmetry_group_IT_number 44
_symmetry_cell_setting 'orthorhombic'
loop_
_space_group_symop_operation_xyz
x,y,z
-x,-y,z
-x,y,z
x,-y,z
1/2+x,1/2+y,1/2+z
1/2-x,1/2-y,1/2+z
1/2-x,1/2+y,1/2+z
1/2+x,1/2-y,1/2+z
loop_
_atom_site_type_symbol
_atom_site_label
_atom_site_fract_x
_atom_site_fract_y
_atom_site_fract_z
Si Si1 0.236967 0.379101 0.299580
Si Si2 0.547379 0.116686 0.437652
Si Si3 0.452346 0.293549 0.732717
Si Si4 0.192100 0.253914 0.966446
Si Si5 0.666968 0.119235 0.109589
Si Si6 0.591681 0.748520 0.121585
Si Si7 0.615593 0.618570 0.473039
O O1 0.241740 0.500000 0.231914
O O2 0.218437 0.307676 0.132164
O O3 0.281647 0.333329 0.351817
O O4 0.208096 0.369943 0.485302
O O5 0.500000 0.116389 0.374567
O O6 0.553906 0.179433 0.636939
O O7 0.571653 0.164917 0.259292
O O8 0.564106 0.000000 0.476975
O O9 0.500000 0.330599 0.719383
O O10 0.424040 0.374689 0.614222
O O11 0.439490 0.289529 0.956622
O O12 0.177152 0.347060 0.827788
O O13 0.151973 0.194282 0.052157
O O14 0.631757 0.196725 0.024543
O O15 0.650771 0.000000 0.109322
O O16 0.603834 0.648487 0.252266
O O17 0.631667 0.500000 0.473564
#
# Coordination Sequence:
#
# PCOD8189647 Si02
#       7
#     8   8   8   8   8   8   8
#     4  11  22  37  60  88 118 156 198 244 298 353
#     4   9  18  32  52  82 117 152 190 232 286 349
#     4  10  21  38  59  85 119 156 198 248 297 352
#     4  11  21  40  61  85 122 155 198 248 294 353
#     4  10  21  36  56  85 118 154 196 241 296 354
#     4  10  20  36  58  82 115 151 195 245 296 353
#     4  10  23  41  60  84 115 155 199 247 304 358
#
# _framework density 19.652293
#
# number of rings (size 3 to 8) (size 9 to 14) (size 15 to 20)
#    0.000    1.857    1.429    2.571    0.000    2.571 
#    0.000    5.000    0.000    0.000    0.000    0.000 
#    0.000    0.000    0.000    0.000    0.000    0.000 
#
# Total GULP energy -347253.319198 kJ/mol
# GULP energy per Si atom -12401.904257 kJ/mol
# Density = 1.960756 g / cm^3
# Si number density = 19.652293 Si / 1000 Ang^3
#
#
#
# Elastic Constant Matrix: (Units=GPa)
#
#
# Indices 1 2 3 4 5 6 
#
# 1 96.2768 27.2155 31.6010 0.0001 0.0000 0.0000
# 2 27.2155 102.0646 29.4460 0.0001 0.0001 0.0001
# 3 31.6010 29.4460 72.5245 0.0000 0.0002 0.0001
# 4 0.0001 0.0001 0.0000 18.0651 0.0000 0.0001
# 5 0.0000 0.0001 0.0002 0.0000 34.3017 0.0001
# 6 0.0000 0.0001 0.0001 0.0001 0.0001 24.9176
#
#
#
# Elastic Compliance Matrix: (Units=1/GPa)
#
#
# Indices 1 2 3 4 5 6 
#
# 1 0.012467 -0.001990 -0.004624 0.000000 0.000000 0.000000
# 2 -0.001990 0.011415 -0.003768 0.000000 0.000000 0.000000
# 3 -0.004624 -0.003768 0.017333 0.000000 0.000000 0.000000
# 4 0.000000 0.000000 0.000000 0.055355 0.000000 0.000000
# 5 0.000000 0.000000 0.000000 0.000000 0.029153 0.000000
# 6 0.000000 0.000000 0.000000 0.000000 0.000000 0.040132
#
#
# Mechanical properties :
#
#
# Convention : Reuss Voigt Hill
#
# Bulk Modulus (GPa) = 48.89634 49.71009 49.30322
# Shear Modulus (GPa) = 25.84814 27.63044 26.73929
#
# Velocity S-wave (km/s) = 3.63060 3.75369 3.69266
# Velocity P-wave (km/s) = 6.51995 6.64354 6.58204
#
# Compressibility (1/GPa) = 0.02045143
#
# Stress axis : x y z
#
# Youngs Moduli (GPa) = 80.21092 87.60108 57.69326
#
# Poissons Ratio (x) = 0.17435 0.26679
# Poissons Ratio (y) = 0.15964 0.21736
# Poissons Ratio (z) = 0.37091 0.33005
#
# Static dielectric constant tensor:
#      x y z
#    x 3.740470 0.000000 0.000000 
#    y 0.000000 3.545020 0.000000 
#    z 0.000000 0.000000 3.420130 
# 
# 
# High freq. dielectric constant tensor:
#      x y z
#    x 1.779410 0.000000 0.000000 
#    y 0.000000 1.763480 0.000000 
#    z 0.000000 0.000000 1.755380 
# 
# From -- ./inp_files/3313.got.cif
#   From: 2010.03.12/outbox.cif.g09.slc.cpg/sg44_2_cif.got.tgz:3313.got - 2010.04.14 02:36:11.
