data_PCOD8189255
_publ_section_title
;
Structure prediction by ZEFSAII (Michael W. Deem and Ramdas Pophale) SiO2 
 PCOD8189255
Probable space group: I M M 2
;
_chemical_formula_sum "Si O2"
_cell_formula_units_Z 64
_cell_length_a 29.970094
_cell_length_b 8.637682
_cell_length_c 14.345406
_cell_angle_alpha 90.000000
_cell_angle_beta 90.000000
_cell_angle_gamma 90.000000
_cell_volume 3713.625972
_symmetry_space_group_name_H-M "I M M 2"
_symmetry_group_IT_number 44
_symmetry_cell_setting 'orthorhombic'
loop_
_space_group_symop_operation_xyz
x,y,z
-x,-y,z
-x,y,z
x,-y,z
1/2+x,1/2+y,1/2+z
1/2-x,1/2-y,1/2+z
1/2-x,1/2+y,1/2+z
1/2+x,1/2-y,1/2+z
loop_
_atom_site_type_symbol
_atom_site_label
_atom_site_fract_x
_atom_site_fract_y
_atom_site_fract_z
Si Si1 0.774878 0.679156 0.485940
Si Si2 0.864913 0.178483 0.151297
Si Si3 0.785165 0.180584 0.286535
Si Si4 0.050197 0.681352 0.102269
Si Si5 0.129525 0.322544 0.798974
Si Si6 0.949217 0.821438 0.901845
Si Si7 0.317208 0.825567 0.487006
Si Si8 0.201764 0.181520 0.674728
O O1 0.786400 0.500000 0.498983
O O2 0.789834 0.734366 0.384514
O O3 0.722202 0.702932 0.497935
O O4 0.799897 0.775972 0.565713
O O5 0.832059 0.215236 0.236349
O O6 0.916207 0.227290 0.172327
O O7 0.853652 0.286564 0.063839
O O8 0.861721 0.000000 0.123020
O O9 0.743927 0.239013 0.224931
O O10 0.777180 0.000000 0.304404
O O11 0.057324 0.500000 0.114605
O O12 0.000000 0.731175 0.129617
O O13 0.059909 0.724705 0.995085
O O14 0.120296 0.500000 0.772539
O O15 0.082489 0.239968 0.819371
O O16 0.154483 0.238117 0.714537
O O17 0.162089 0.307222 0.886197
O O18 0.000000 0.799537 0.867521
O O19 0.938456 0.000000 0.923415
O O20 0.299109 0.000000 0.502039
O O21 0.206836 0.000000 0.689291
#
# Coordination Sequence:
#
# PCOD8189255 Si02
#       8
#     8   8   8   8   8   8   8   8
#     4  12  24  38  55  76 105 141 181 224 266 313
#     4  11  22  34  53  77 106 141 179 221 264 315
#     4  11  23  38  54  77 107 139 180 223 264 315
#     4  10  20  33  50  74 106 141 177 218 264 316
#     4  11  22  35  53  77 107 143 181 221 262 315
#     4  10  20  33  51  76 106 139 177 219 264 317
#     4  11  21  32  51  75 106 143 180 220 261 308
#     4  12  24  37  56  78 105 142 180 221 267 315
#
# _framework density 17.233830999999999
#
# number of rings (size 3 to 8) (size 9 to 14) (size 15 to 20)
#    0.000    1.000    3.750    4.500    0.000    4.000 
#    0.000    0.000    0.000    0.000    0.000    0.875 
#    0.000    3.000    0.000    0.000    0.000    0.000 
#
# Total GULP energy -396890.422731 kJ/mol
# GULP energy per Si atom -12402.825710 kJ/mol
# Density = 1.719461 g / cm^3
# Si number density = 17.233831 Si / 1000 Ang^3
#
#
#
# Elastic Constant Matrix: (Units=GPa)
#
#
# Indices 1 2 3 4 5 6 
#
# 1 107.4996 34.9565 30.0406 0.0000 0.0000 0.0000
# 2 34.9565 72.7596 21.9716 0.0000 0.0000 0.0000
# 3 30.0406 21.9716 61.7456 0.0000 0.0000 0.0000
# 4 0.0000 0.0000 0.0000 25.3794 0.0000 0.0000
# 5 0.0000 0.0000 0.0000 0.0000 17.6238 0.0000
# 6 0.0000 0.0000 0.0000 0.0000 0.0000 30.5966
#
#
#
# Elastic Compliance Matrix: (Units=1/GPa)
#
#
# Indices 1 2 3 4 5 6 
#
# 1 0.011931 -0.004458 -0.004218 0.000000 0.000000 0.000000
# 2 -0.004458 0.017064 -0.003903 0.000000 0.000000 0.000000
# 3 -0.004218 -0.003903 0.019637 0.000000 0.000000 0.000000
# 4 0.000000 0.000000 0.000000 0.039402 0.000000 0.000000
# 5 0.000000 0.000000 0.000000 0.000000 0.056742 0.000000
# 6 0.000000 0.000000 0.000000 0.000000 0.000000 0.032683
#
#
# Mechanical properties :
#
#
# Convention : Reuss Voigt Hill
#
# Bulk Modulus (GPa) = 42.60268 46.21579 44.40923
# Shear Modulus (GPa) = 23.75946 25.05569 24.40758
#
# Velocity S-wave (km/s) = 3.71705 3.81710 3.76740
# Velocity P-wave (km/s) = 6.57237 6.80456 6.68947
#
# Compressibility (1/GPa) = 0.02347270
#
# Stress axis : x y z
#
# Youngs Moduli (GPa) = 83.81631 58.60124 50.92517
#
# Poissons Ratio (x) = 0.26126 0.21481
# Poissons Ratio (y) = 0.37367 0.19877
# Poissons Ratio (z) = 0.35355 0.22873
#
# Static dielectric constant tensor:
#      x y z
#    x 3.346980 0.000000 0.000000 
#    y 0.000000 3.352760 0.000000 
#    z 0.000000 0.000000 3.072140 
# 
# 
# High freq. dielectric constant tensor:
#      x y z
#    x 1.661790 0.000000 0.000000 
#    y 0.000000 1.685830 0.000000 
#    z 0.000000 0.000000 1.634480 
# 
# From -- ./inp_files/15076.got.cif
#   From: 2010.03.12/outbox.cif.g09.slc.cpg/sg44_8_cif.got.tgz:15076.got - 2010.04.14 02:36:11.
