data_PCOD8189992
_publ_section_title
;
Structure prediction by ZEFSAII (Michael W. Deem and Ramdas Pophale) SiO2 
 PCOD8189992
Probable space group: I M M 2
;
_chemical_formula_sum "Si O2"
_cell_formula_units_Z 48
_cell_length_a 27.595681
_cell_length_b 9.202268
_cell_length_c 9.660006
_cell_angle_alpha 90.000000
_cell_angle_beta 90.000000
_cell_angle_gamma 90.000000
_cell_volume 2453.089476
_symmetry_space_group_name_H-M "I M M 2"
_symmetry_group_IT_number 44
_symmetry_cell_setting 'orthorhombic'
loop_
_space_group_symop_operation_xyz
x,y,z
-x,-y,z
-x,y,z
x,-y,z
1/2+x,1/2+y,1/2+z
1/2-x,1/2-y,1/2+z
1/2-x,1/2+y,1/2+z
1/2+x,1/2-y,1/2+z
loop_
_atom_site_type_symbol
_atom_site_label
_atom_site_fract_x
_atom_site_fract_y
_atom_site_fract_z
Si Si1 0.614825 0.328383 0.085610
Si Si2 0.446550 0.333367 0.344444
Si Si3 0.556077 0.833660 0.860958
Si Si4 0.292436 0.828753 0.473507
Si Si5 0.288884 0.172219 0.148714
Si Si6 0.101938 0.333963 0.070224
O O1 0.623421 0.500000 0.068046
O O2 0.593118 0.285654 0.233591
O O3 0.665011 0.243257 0.073112
O O4 0.575705 0.276514 0.974583
O O5 0.500000 0.299841 0.285013
O O6 0.440620 0.500000 0.382473
O O7 0.439155 0.247883 0.485448
O O8 0.500000 0.797317 0.827033
O O9 0.590675 0.807440 0.730087
O O10 0.560792 0.000000 0.912404
O O11 0.286302 0.787466 0.311621
O O12 0.256734 0.736299 0.568524
O O13 0.344855 0.778433 0.528378
O O14 0.283402 0.000000 0.496961
O O15 0.291274 0.000000 0.127943
O O16 0.097191 0.500000 0.027925
#
# Coordination Sequence:
#
# PCOD8189992 Si02
#       6
#     8   8   8   8   8   8
#     4  11  23  40  62  88 123 161 203 250 302 359
#     4  10  21  37  59  88 120 156 198 244 298 359
#     4  10  22  39  60  90 125 164 209 251 299 358
#     4  10  23  42  63  92 125 158 200 248 303 364
#     4  11  24  42  65  92 122 157 202 249 305 366
#     4  10  21  40  63  88 121 157 200 250 299 357
#
# _framework density 19.567160000000001
#
# number of rings (size 3 to 8) (size 9 to 14) (size 15 to 20)
#    0.000    1.667    1.667    2.000    2.333    5.333 
#    0.000    0.000    0.000    0.000    0.000    0.000 
#    0.000    0.000    0.000    0.000    0.000    0.000 
#
# Total GULP energy -297647.582910 kJ/mol
# GULP energy per Si atom -12401.982621 kJ/mol
# Density = 1.952262 g / cm^3
# Si number density = 19.567160 Si / 1000 Ang^3
#
#
#
# Elastic Constant Matrix: (Units=GPa)
#
#
# Indices 1 2 3 4 5 6 
#
# 1 112.1286 51.0521 53.2901 0.0000 0.0000 0.0000
# 2 51.0521 72.8231 51.3067 0.0000 0.0000 0.0000
# 3 53.2901 51.3067 84.8082 0.0000 0.0000 0.0000
# 4 0.0000 0.0000 0.0000 37.0887 0.0000 0.0000
# 5 0.0000 0.0000 0.0000 0.0000 24.0977 0.0000
# 6 0.0000 0.0000 0.0000 0.0000 0.0000 34.6341
#
#
#
# Elastic Compliance Matrix: (Units=1/GPa)
#
#
# Indices 1 2 3 4 5 6 
#
# 1 0.014251 -0.006416 -0.005073 0.000000 0.000000 0.000000
# 2 -0.006416 0.026822 -0.012195 0.000000 0.000000 0.000000
# 3 -0.005073 -0.012195 0.022356 0.000000 0.000000 0.000000
# 4 0.000000 0.000000 0.000000 0.026962 0.000000 0.000000
# 5 0.000000 0.000000 0.000000 0.000000 0.041498 0.000000
# 6 0.000000 0.000000 0.000000 0.000000 0.000000 0.028873
#
#
# Mechanical properties :
#
#
# Convention : Reuss Voigt Hill
#
# Bulk Modulus (GPa) = 62.26252 64.56197 63.41224
# Shear Modulus (GPa) = 23.42108 26.77148 25.09628
#
# Velocity S-wave (km/s) = 3.46346 3.70291 3.58519
# Velocity P-wave (km/s) = 6.91976 7.16580 7.04386
#
# Compressibility (1/GPa) = 0.01606103
#
# Stress axis : x y z
#
# Youngs Moduli (GPa) = 70.17271 37.28348 44.73009
#
# Poissons Ratio (x) = 0.23922 0.22691
# Poissons Ratio (y) = 0.45024 0.54547
# Poissons Ratio (z) = 0.35597 0.45466
#
# Static dielectric constant tensor:
#      x y z
#    x 3.969370 0.000000 0.000000 
#    y 0.000000 3.520070 0.000000 
#    z 0.000000 0.000000 3.569470 
# 
# 
# High freq. dielectric constant tensor:
#      x y z
#    x 1.776810 0.000000 0.000000 
#    y 0.000000 1.761720 0.000000 
#    z 0.000000 0.000000 1.764540 
# 
# From -- ./inp_files/4870.got.cif
#   From: 2010.03.12/outbox.cif.g09.slc.cpg/sg44_3_cif.got.tgz:4870.got - 2010.04.14 02:36:11.
