data_PCOD8189981
_publ_section_title
;
Structure prediction by ZEFSAII (Michael W. Deem and Ramdas Pophale) SiO2 
 PCOD8189981
Probable space group: I M M 2
;
_chemical_formula_sum "Si O2"
_cell_formula_units_Z 64
_cell_length_a 23.934096
_cell_length_b 8.858986
_cell_length_c 15.419426
_cell_angle_alpha 90.000000
_cell_angle_beta 90.000000
_cell_angle_gamma 90.000000
_cell_volume 3269.408980
_symmetry_space_group_name_H-M "I M M 2"
_symmetry_group_IT_number 44
_symmetry_cell_setting 'orthorhombic'
loop_
_space_group_symop_operation_xyz
x,y,z
-x,-y,z
-x,y,z
x,-y,z
1/2+x,1/2+y,1/2+z
1/2-x,1/2-y,1/2+z
1/2-x,1/2+y,1/2+z
1/2+x,1/2-y,1/2+z
loop_
_atom_site_type_symbol
_atom_site_label
_atom_site_fract_x
_atom_site_fract_y
_atom_site_fract_z
Si Si1 0.563411 0.677765 0.196720
Si Si2 0.365502 0.826933 0.343143
Si Si3 0.437578 0.820415 0.691461
Si Si4 0.628993 0.172557 0.043280
Si Si5 0.865991 0.320819 0.350926
Si Si6 0.246955 0.177988 0.788212
Si Si7 0.857623 0.326098 0.038535
Si Si8 0.748013 0.672594 0.605952
O O1 0.500000 0.735919 0.188622
O O2 0.566326 0.500000 0.204582
O O3 0.589704 0.744137 0.283719
O O4 0.597249 0.725178 0.111886
O O5 0.304038 0.760118 0.334008
O O6 0.384186 0.809261 0.443000
O O7 0.363501 0.000000 0.313220
O O8 0.500000 0.752917 0.685973
O O9 0.408280 0.756083 0.778503
O O10 0.403058 0.766443 0.607508
O O11 0.439868 0.000000 0.694496
O O12 0.695418 0.188006 0.051611
O O13 0.610066 0.000000 0.057774
O O14 0.613490 0.229538 0.946392
O O15 0.864306 0.500000 0.345066
O O16 0.803612 0.261141 0.332317
O O17 0.248874 0.217058 0.687275
O O18 0.239111 0.000000 0.798970
O O19 0.841711 0.500000 0.057742
O O20 0.802326 0.224608 0.044312
O O21 0.738836 0.500000 0.635956
#
# Coordination Sequence:
#
# PCOD8189981 Si02
#       8
#     8   8   8   8   8   8   8   8
#     4  11  25  43  61  82 112 155 201 244 296 354
#     4  11  23  38  59  88 118 150 194 244 294 350
#     4   9  17  32  55  82 111 145 191 239 278 329
#     4  10  21  37  59  87 116 147 189 241 290 343
#     4   9  18  33  56  87 117 149 187 232 290 346
#     4  11  20  35  60  86 118 154 189 236 293 351
#     4  10  21  37  58  86 118 154 194 237 291 349
#     4  11  21  34  56  87 121 154 191 236 286 347
#
# _framework density 19.575403999999999
#
# number of rings (size 3 to 8) (size 9 to 14) (size 15 to 20)
#    0.000    1.750    2.500    2.250    0.000    4.500 
#    0.000    3.750    0.000    0.375    0.000    0.000 
#    0.000    0.000    0.000    0.000    0.000    0.000 
#
# Total GULP energy -396869.109708 kJ/mol
# GULP energy per Si atom -12402.159678 kJ/mol
# Density = 1.953085 g / cm^3
# Si number density = 19.575404 Si / 1000 Ang^3
#
#
#
# Elastic Constant Matrix: (Units=GPa)
#
#
# Indices 1 2 3 4 5 6 
#
# 1 142.2210 43.4761 60.6615 0.0000 0.0000 0.0000
# 2 43.4761 48.0025 30.9222 0.0000 0.0000 0.0000
# 3 60.6615 30.9222 143.2816 0.0000 0.0000 0.0000
# 4 0.0000 0.0000 0.0000 16.5277 0.0000 0.0000
# 5 0.0000 0.0000 0.0000 0.0000 12.0716 0.0000
# 6 0.0000 0.0000 0.0000 0.0000 0.0000 2.7596
#
#
#
# Elastic Compliance Matrix: (Units=1/GPa)
#
#
# Indices 1 2 3 4 5 6 
#
# 1 0.010616 -0.007804 -0.002810 0.000000 0.000000 0.000000
# 2 -0.007804 0.029934 -0.003156 0.000000 0.000000 0.000000
# 3 -0.002810 -0.003156 0.008850 0.000000 0.000000 0.000000
# 4 0.000000 0.000000 0.000000 0.060505 0.000000 0.000000
# 5 0.000000 0.000000 0.000000 0.000000 0.082839 0.000000
# 6 0.000000 0.000000 0.000000 0.000000 0.000000 0.362375
#
#
# Mechanical properties :
#
#
# Convention : Reuss Voigt Hill
#
# Bulk Modulus (GPa) = 45.74867 67.06940 56.40903
# Shear Modulus (GPa) = 8.47536 19.50146 13.98841
#
# Velocity S-wave (km/s) = 2.08303 3.15972 2.67608
# Velocity P-wave (km/s) = 5.40431 6.90277 6.19898
#
# Compressibility (1/GPa) = 0.02185856
#
# Stress axis : x y z
#
# Youngs Moduli (GPa) = 94.20044 33.40711 112.99354
#
# Poissons Ratio (x) = 0.26072 0.31752
# Poissons Ratio (y) = 0.73518 0.35660
# Poissons Ratio (z) = 0.26471 0.10543
#
# Static dielectric constant tensor:
#      x y z
#    x 3.716470 0.000000 0.000000 
#    y 0.000000 3.395970 0.000000 
#    z 0.000000 0.000000 3.720320 
# 
# 
# High freq. dielectric constant tensor:
#      x y z
#    x 1.760900 0.000000 0.000000 
#    y 0.000000 1.738350 0.000000 
#    z 0.000000 0.000000 1.777360 
# 
# From -- ./inp_files/16758.got.cif
#   From: 2010.03.12/outbox.cif.g09.slc.cpg/sg44_9_cif.got.tgz:16758.got - 2010.04.14 02:36:11.
