data_PCOD8189086
_publ_section_title
;
Structure prediction by ZEFSAII (Michael W. Deem and Ramdas Pophale) SiO2 
 PCOD8189086
Probable space group: I M M 2
;
_chemical_formula_sum "Si O2"
_cell_formula_units_Z 64
_cell_length_a 23.805693
_cell_length_b 8.559406
_cell_length_c 15.347234
_cell_angle_alpha 90.000000
_cell_angle_beta 90.000000
_cell_angle_gamma 90.000000
_cell_volume 3127.192172
_symmetry_space_group_name_H-M "I M M 2"
_symmetry_group_IT_number 44
_symmetry_cell_setting 'orthorhombic'
loop_
_space_group_symop_operation_xyz
x,y,z
-x,-y,z
-x,y,z
x,-y,z
1/2+x,1/2+y,1/2+z
1/2-x,1/2-y,1/2+z
1/2-x,1/2+y,1/2+z
1/2+x,1/2-y,1/2+z
loop_
_atom_site_type_symbol
_atom_site_label
_atom_site_fract_x
_atom_site_fract_y
_atom_site_fract_z
Si Si1 0.935291 0.680168 0.980680
Si Si2 0.368205 0.680933 0.325201
Si Si3 0.362417 0.181461 0.816304
Si Si4 0.753338 0.321913 0.869725
Si Si5 0.130858 0.180298 0.136737
Si Si6 0.435061 0.684487 0.969045
Si Si7 0.635570 0.684269 0.131353
Si Si8 0.755109 0.319919 0.074453
O O1 0.925852 0.500000 0.004742
O O2 0.902919 0.713622 0.891340
O O3 0.000000 0.722287 0.966336
O O4 0.911666 0.783138 0.058786
O O5 0.380951 0.500000 0.344130
O O6 0.301894 0.709728 0.334281
O O7 0.386993 0.728607 0.227263
O O8 0.304890 0.276681 0.825117
O O9 0.386990 0.218743 0.720731
O O10 0.408249 0.231351 0.886604
O O11 0.349355 0.000000 0.826566
O O12 0.768056 0.500000 0.845638
O O13 0.746972 0.300326 0.972170
O O14 0.193978 0.215676 0.107186
O O15 0.125513 0.000000 0.161229
O O16 0.500000 0.729991 0.973612
O O17 0.425966 0.500000 0.958967
O O18 0.406351 0.749753 0.057585
O O19 0.639448 0.500000 0.120294
O O20 0.698755 0.748662 0.118568
O O21 0.766993 0.500000 0.099791
#
# Coordination Sequence:
#
# PCOD8189086 Si02
#       8
#     8   8   8   8   8   8   8   8
#     4  11  25  45  65  86 120 166 211 258 313 369
#     4  11  22  37  63  96 128 162 204 254 310 372
#     4  12  25  41  63  91 128 165 205 253 310 375
#     4  11  21  37  64  93 127 166 205 250 308 369
#     4  12  25  41  65  94 124 157 205 257 311 375
#     4  10  21  41  66  89 118 160 211 260 308 365
#     4   9  19  37  61  91 123 160 202 247 301 359
#     4  10  19  36  63  91 127 164 198 246 308 369
#
# _framework density 20.465643
#
# number of rings (size 3 to 8) (size 9 to 14) (size 15 to 20)
#    0.000    1.250    2.500    4.125    0.000    3.750 
#    0.000    3.125    0.000    0.000    0.000    0.000 
#    0.000    0.000    0.000    0.000    0.000    0.000 
#
# Total GULP energy -396963.620586 kJ/mol
# GULP energy per Si atom -12405.113143 kJ/mol
# Density = 2.041906 g / cm^3
# Si number density = 20.465643 Si / 1000 Ang^3
#
#
#
# Elastic Constant Matrix: (Units=GPa)
#
#
# Indices 1 2 3 4 5 6 
#
# 1 104.6377 19.7807 44.1003 0.0000 0.0000 0.0000
# 2 19.7807 57.2896 21.3397 0.0000 0.0000 0.0000
# 3 44.1003 21.3397 115.2612 0.0000 0.0000 0.0000
# 4 0.0000 0.0000 0.0000 25.4848 0.0000 0.0000
# 5 0.0000 0.0000 0.0000 0.0000 4.5450 0.0000
# 6 0.0000 0.0000 0.0000 0.0000 0.0000 -30.7791
#
#
#
# Elastic Compliance Matrix: (Units=1/GPa)
#
#
# Indices 1 2 3 4 5 6 
#
# 1 0.011732 -0.002555 -0.004016 0.000000 0.000000 0.000000
# 2 -0.002555 0.019305 -0.002597 0.000000 0.000000 0.000000
# 3 -0.004016 -0.002597 0.010693 0.000000 0.000000 0.000000
# 4 0.000000 0.000000 0.000000 0.039239 0.000000 0.000000
# 5 0.000000 0.000000 0.000000 0.000000 0.220023 0.000000
# 6 0.000000 0.000000 0.000000 0.000000 0.000000 -0.032490
#
#
# Mechanical properties :
#
#
# Convention : Reuss Voigt Hill
#
# Bulk Modulus (GPa) = 42.74375 49.73665 46.24020
# Shear Modulus (GPa) = 16.97011 12.64799 14.80905
#
# Velocity S-wave (km/s) = 2.88271 2.48868 2.69291
# Velocity P-wave (km/s) = 5.65782 5.71081 5.68438
#
# Compressibility (1/GPa) = 0.02339523
#
# Stress axis : x y z
#
# Youngs Moduli (GPa) = 85.23468 51.80138 93.51737
#
# Poissons Ratio (x) = 0.13235 0.37556
# Poissons Ratio (y) = 0.21777 0.24282
# Poissons Ratio (z) = 0.34229 0.13450
#
# Static dielectric constant tensor:
#      x y z
#    x 3.695970 0.000000 0.000000 
#    y 0.000000 3.639510 0.000000 
#    z 0.000000 0.000000 3.979000 
# 
# 
# High freq. dielectric constant tensor:
#      x y z
#    x 1.796180 0.000000 0.000000 
#    y 0.000000 1.788250 0.000000 
#    z 0.000000 0.000000 1.817720 
# 
# From -- ./inp_files/19450.got.cif
#   From: 2010.03.12/outbox.cif.g09.slc.cpg/sg44_10_cif.got.tgz:19450.got - 2010.04.14 02:36:11.
