data_PCOD8189952
_publ_section_title
;
Structure prediction by ZEFSAII (Michael W. Deem and Ramdas Pophale) SiO2 
 PCOD8189952
Probable space group: I M M 2
;
_chemical_formula_sum "Si O2"
_cell_formula_units_Z 40
_cell_length_a 9.789502
_cell_length_b 7.647631
_cell_length_c 28.616336
_cell_angle_alpha 90.000000
_cell_angle_beta 90.000000
_cell_angle_gamma 90.000000
_cell_volume 2142.404890
_symmetry_space_group_name_H-M "I M M 2"
_symmetry_group_IT_number 44
_symmetry_cell_setting 'orthorhombic'
loop_
_space_group_symop_operation_xyz
x,y,z
-x,-y,z
-x,y,z
x,-y,z
1/2+x,1/2+y,1/2+z
1/2-x,1/2-y,1/2+z
1/2-x,1/2+y,1/2+z
1/2+x,1/2-y,1/2+z
loop_
_atom_site_type_symbol
_atom_site_label
_atom_site_fract_x
_atom_site_fract_y
_atom_site_fract_z
Si Si1 0.657784 0.500000 0.064570
Si Si2 0.345597 0.305929 0.405339
Si Si3 0.657487 0.200994 0.137080
Si Si4 0.348973 0.292565 0.719794
Si Si5 0.158092 0.203297 0.323652
Si Si6 0.160595 0.500000 0.973443
O O1 0.500000 0.500000 0.048624
O O2 0.691256 0.324478 0.093467
O O3 0.755498 0.500000 0.020657
O O4 0.500000 0.257269 0.390138
O O5 0.339164 0.500000 0.427345
O O6 0.251359 0.306109 0.359820
O O7 0.294536 0.170606 0.444361
O O8 0.500000 0.216455 0.151426
O O9 0.742140 0.273203 0.181297
O O10 0.695977 0.000000 0.124314
O O11 0.500000 0.222380 0.706475
O O12 0.351852 0.500000 0.721677
O O13 0.308072 0.225647 0.771514
O O14 0.000000 0.238461 0.335499
O O15 0.193427 0.000000 0.327924
O O16 0.000000 0.500000 0.985253
#
# Coordination Sequence:
#
# PCOD8189952 Si02
#       6
#     4   8   8   8   8   4
#     4  10  22  38  56  80 106 134 176 226 269 318
#     4  10  21  37  56  79 107 140 180 224 269 322
#     4   9  18  34  54  76 105 139 174 215 262 313
#     4   8  15  29  50  77 108 142 178 215 257 308
#     4   9  17  31  53  80 111 146 182 220 264 316
#     4  10  22  40  58  78 106 138 176 226 277 324
#
# _framework density 18.670605999999999
#
# number of rings (size 3 to 8) (size 9 to 14) (size 15 to 20)
#    0.000    2.800    1.000    1.200    0.000    3.600 
#    1.800    2.000    0.000    0.000    0.000    0.000 
#    0.000    0.000    0.000    0.000    0.000    0.000 
#
# Total GULP energy -247958.272059 kJ/mol
# GULP energy per Si atom -12397.913603 kJ/mol
# Density = 1.862811 g / cm^3
# Si number density = 18.670606 Si / 1000 Ang^3
#
#
#
# Elastic Constant Matrix: (Units=GPa)
#
#
# Indices 1 2 3 4 5 6 
#
# 1 84.8777 40.0333 83.4152 0.0000 0.0000 0.0000
# 2 40.0333 92.5987 55.7793 0.0000 0.0000 0.0000
# 3 83.4152 55.7793 146.2102 0.0000 0.0000 0.0000
# 4 0.0000 0.0000 0.0000 4.5294 0.0000 0.0000
# 5 0.0000 0.0000 0.0000 0.0000 42.4968 0.0000
# 6 0.0000 0.0000 0.0000 0.0000 0.0000 15.0788
#
#
#
# Elastic Compliance Matrix: (Units=1/GPa)
#
#
# Indices 1 2 3 4 5 6 
#
# 1 0.027516 -0.003168 -0.014490 0.000000 0.000000 0.000000
# 2 -0.003168 0.014386 -0.003681 0.000000 0.000000 0.000000
# 3 -0.014490 -0.003681 0.016510 0.000000 0.000000 0.000000
# 4 0.000000 0.000000 0.000000 0.220778 0.000000 0.000000
# 5 0.000000 0.000000 0.000000 0.000000 0.023531 0.000000
# 6 0.000000 0.000000 0.000000 0.000000 0.000000 0.066318
#
#
# Mechanical properties :
#
#
# Convention : Reuss Voigt Hill
#
# Bulk Modulus (GPa) = 63.55112 75.79358 69.67235
# Shear Modulus (GPa) = 11.99150 22.05160 17.02155
#
# Velocity S-wave (km/s) = 2.53705 3.44042 3.02267
# Velocity P-wave (km/s) = 6.53407 7.51434 7.04128
#
# Compressibility (1/GPa) = 0.01573536
#
# Stress axis : x y z
#
# Youngs Moduli (GPa) = 36.34283 69.51111 60.56776
#
# Poissons Ratio (x) = 0.22019 0.87761
# Poissons Ratio (y) = 0.11512 0.22296
# Poissons Ratio (z) = 0.52660 0.25588
#
# Static dielectric constant tensor:
#      x y z
#    x 3.498210 0.000000 0.000000 
#    y 0.000000 3.504550 0.000000 
#    z 0.000000 0.000000 3.322720 
# 
# 
# High freq. dielectric constant tensor:
#      x y z
#    x 1.721980 0.000000 0.000000 
#    y 0.000000 1.725740 0.000000 
#    z 0.000000 0.000000 1.710680 
# 
# From -- ./inp_files/25934.got.cif
#   From: 2010.03.12/outbox.cif.g09.slc.cpg/sg44_13_cif.got.tgz:25934.got - 2010.04.14 02:36:11.
