data_PCOD8189079
_publ_section_title
;
Structure prediction by ZEFSAII (Michael W. Deem and Ramdas Pophale) SiO2 
 PCOD8189079
Probable space group: I M M 2
;
_chemical_formula_sum "Si O2"
_cell_formula_units_Z 40
_cell_length_a 8.405811
_cell_length_b 25.776070
_cell_length_c 8.914598
_cell_angle_alpha 90.000000
_cell_angle_beta 90.000000
_cell_angle_gamma 90.000000
_cell_volume 1931.515008
_symmetry_space_group_name_H-M "I M M 2"
_symmetry_group_IT_number 44
_symmetry_cell_setting 'orthorhombic'
loop_
_space_group_symop_operation_xyz
x,y,z
-x,-y,z
-x,y,z
x,-y,z
1/2+x,1/2+y,1/2+z
1/2-x,1/2-y,1/2+z
1/2-x,1/2+y,1/2+z
1/2+x,1/2-y,1/2+z
loop_
_atom_site_type_symbol
_atom_site_label
_atom_site_fract_x
_atom_site_fract_y
_atom_site_fract_z
Si Si1 0.816607 0.305601 0.063170
Si Si2 0.814188 0.000000 0.216286
Si Si3 0.681951 0.000000 0.541507
Si Si4 0.689057 0.601749 0.555063
Si Si5 0.813004 0.798719 0.236609
Si Si6 0.184673 0.095710 0.715528
O O1 0.770480 0.252970 0.146891
O O2 0.706494 0.351036 0.126380
O O3 0.000000 0.320191 0.089216
O O4 0.785149 0.297681 0.888705
O O5 0.739664 0.948625 0.139960
O O6 0.788126 0.000000 0.393241
O O7 0.000000 0.000000 0.183856
O O8 0.715891 0.050631 0.638433
O O9 0.500000 0.000000 0.490583
O O10 0.500000 0.601300 0.557683
O O11 0.750719 0.653056 0.638621
O O12 0.750159 0.602286 0.384266
O O13 0.000000 0.803524 0.270872
O O14 0.000000 0.080007 0.713952
#
# Coordination Sequence:
#
# PCOD8189079 Si02
#       6
#     8   4   4   8   8   8
#     4  11  23  38  58  88 121 154 198 248 294 346
#     4  10  19  36  62  88 114 152 201 244 288 346
#     4  12  25  40  58  88 124 154 193 242 290 346
#     4   9  19  36  60  87 113 149 200 245 282 343
#     4  10  21  38  59  84 118 159 199 241 293 351
#     4  11  22  40  64  87 115 155 197 239 295 354
#
# _framework density 20.709133000000001
#
# number of rings (size 3 to 8) (size 9 to 14) (size 15 to 20)
#    0.000    1.600    0.000    5.100    0.000    6.400 
#    0.000    5.000    0.000    0.000    0.000    0.000 
#    0.000    0.000    0.000    0.000    0.000    0.000 
#
# Total GULP energy -248116.417938 kJ/mol
# GULP energy per Si atom -12405.820897 kJ/mol
# Density = 2.066200 g / cm^3
# Si number density = 20.709133 Si / 1000 Ang^3
#
#
#
# Elastic Constant Matrix: (Units=GPa)
#
#
# Indices 1 2 3 4 5 6 
#
# 1 30.4726 15.4170 6.6967 -0.0014 -0.0017 0.0025
# 2 15.4170 163.6289 64.4120 0.0010 0.0006 0.0001
# 3 6.6967 64.4120 158.6131 -0.0092 0.0150 0.0233
# 4 -0.0014 0.0010 -0.0092 47.3963 0.0020 0.0086
# 5 -0.0017 0.0006 0.0150 0.0020 23.4292 0.0053
# 6 0.0025 0.0001 0.0233 0.0086 0.0053 -9.6035
#
#
#
# Elastic Compliance Matrix: (Units=1/GPa)
#
#
# Indices 1 2 3 4 5 6 
#
# 1 0.034462 -0.003183 -0.000162 0.000001 0.000003 0.000009
# 2 -0.003183 0.007568 -0.002939 -0.000001 0.000001 -0.000008
# 3 -0.000162 -0.002939 0.007505 0.000002 -0.000005 0.000018
# 4 0.000001 -0.000001 0.000002 0.021099 -0.000002 0.000019
# 5 0.000003 0.000001 -0.000005 -0.000002 0.042682 0.000023
# 6 0.000009 -0.000008 0.000018 0.000019 0.000023 -0.104129
#
#
# Mechanical properties :
#
#
# Convention : Reuss Voigt Hill
#
# Bulk Modulus (GPa) = 27.05138 58.41844 42.73491
# Shear Modulus (GPa) = 146.71957 29.99034 88.35495
#
# Velocity S-wave (km/s) = 8.42624 3.80961 6.53891
# Velocity P-wave (km/s) = 10.38073 6.90081 8.81421
#
# Compressibility (1/GPa) = 0.03696669
#
# Stress axis : x y z
#
# Youngs Moduli (GPa) = 29.01709 132.13112 133.24404
#
# Poissons Ratio (x) = 0.42059 0.02164
# Poissons Ratio (y) = 0.09236 0.39161
# Poissons Ratio (z) = 0.00471 0.38834
#
# Static dielectric constant tensor:
#      x y z
#    x 3.403620 0.000000 0.000000 
#    y 0.000000 4.011020 0.000000 
#    z 0.000000 0.000000 3.841180 
# 
# 
# High freq. dielectric constant tensor:
#      x y z
#    x 1.784250 0.000000 0.000000 
#    y 0.000000 1.829750 0.000000 
#    z 0.000000 0.000000 1.826560 
# 
# From -- ./inp_files/4671.got.cif
#   From: 2010.03.12/outbox.cif.g09.slc.cpg/sg44_3_cif.got.tgz:4671.got - 2010.04.14 02:36:11.
