data_PCOD8189410
_publ_section_title
;
Structure prediction by ZEFSAII (Michael W. Deem and Ramdas Pophale) SiO2 
 PCOD8189410
Probable space group: I M M 2
;
_chemical_formula_sum "Si O2"
_cell_formula_units_Z 64
_cell_length_a 20.372324
_cell_length_b 8.787122
_cell_length_c 19.391298
_cell_angle_alpha 90.000000
_cell_angle_beta 90.000000
_cell_angle_gamma 90.000000
_cell_volume 3471.315690
_symmetry_space_group_name_H-M "I M M 2"
_symmetry_group_IT_number 44
_symmetry_cell_setting 'orthorhombic'
loop_
_space_group_symop_operation_xyz
x,y,z
-x,-y,z
-x,y,z
x,-y,z
1/2+x,1/2+y,1/2+z
1/2-x,1/2-y,1/2+z
1/2-x,1/2+y,1/2+z
1/2+x,1/2-y,1/2+z
loop_
_atom_site_type_symbol
_atom_site_label
_atom_site_fract_x
_atom_site_fract_y
_atom_site_fract_z
Si Si1 0.620179 0.322618 0.037440
Si Si2 0.425411 0.825175 0.324833
Si Si3 0.692413 0.673901 0.398014
Si Si4 0.879606 0.174081 0.692562
Si Si5 0.574260 0.173964 0.905838
Si Si6 0.226207 0.323432 0.183555
Si Si7 0.758646 0.174710 0.045274
Si Si8 0.812674 0.821444 0.320629
O O1 0.614136 0.500000 0.019654
O O2 0.596109 0.289225 0.115210
O O3 0.695616 0.276315 0.028619
O O4 0.575653 0.226762 0.985380
O O5 0.500000 0.795614 0.348110
O O6 0.378905 0.723726 0.372431
O O7 0.418173 0.782298 0.244492
O O8 0.405641 0.000000 0.334096
O O9 0.704901 0.500000 0.375515
O O10 0.692418 0.691553 0.480645
O O11 0.749090 0.773390 0.363657
O O12 0.802390 0.206666 0.699593
O O13 0.895019 0.000000 0.711662
O O14 0.500000 0.189993 0.878435
O O15 0.621288 0.279234 0.860826
O O16 0.598717 0.000000 0.901209
O O17 0.210985 0.500000 0.172714
O O18 0.205222 0.235975 0.113746
O O19 0.183902 0.260122 0.246688
O O20 0.737106 0.000000 0.056083
O O21 0.810027 0.000000 0.308591
#
# Coordination Sequence:
#
# PCOD8189410 Si02
#       8
#     8   8   8   8   8   8   8   8
#     4  10  20  34  54  80 112 151 192 233 280 336
#     4  11  24  38  54  80 113 150 193 237 282 334
#     4  11  22  37  59  85 114 148 188 234 283 337
#     4   9  19  34  53  78 110 150 190 229 276 334
#     4  11  24  40  57  80 114 154 193 236 287 341
#     4  10  20  35  57  85 117 147 185 232 282 338
#     4  10  20  34  56  85 116 146 185 235 286 336
#     4  12  23  36  60  87 114 148 189 237 285 335
#
# _framework density 18.436814999999999
#
# number of rings (size 3 to 8) (size 9 to 14) (size 15 to 20)
#    0.000    1.500    2.500    4.125    0.000    6.500 
#    0.000    2.500    0.000    0.750    0.000    3.500 
#    0.000    0.000    0.000    0.000    0.000    0.000 
#
# Total GULP energy -396925.659993 kJ/mol
# GULP energy per Si atom -12403.926875 kJ/mol
# Density = 1.839485 g / cm^3
# Si number density = 18.436815 Si / 1000 Ang^3
#
#
#
# Elastic Constant Matrix: (Units=GPa)
#
#
# Indices 1 2 3 4 5 6 
#
# 1 65.8459 22.7540 32.0079 0.0000 0.0000 0.0000
# 2 22.7540 72.9375 29.7101 0.0000 0.0000 0.0000
# 3 32.0079 29.7101 99.2481 0.0000 0.0000 0.0000
# 4 0.0000 0.0000 0.0000 35.3594 0.0000 0.0000
# 5 0.0000 0.0000 0.0000 0.0000 21.0930 0.0000
# 6 0.0000 0.0000 0.0000 0.0000 0.0000 26.0253
#
#
#
# Elastic Compliance Matrix: (Units=1/GPa)
#
#
# Indices 1 2 3 4 5 6 
#
# 1 0.018934 -0.003894 -0.004941 0.000000 0.000000 0.000000
# 2 -0.003894 0.016415 -0.003658 0.000000 0.000000 0.000000
# 3 -0.004941 -0.003658 0.012764 0.000000 0.000000 0.000000
# 4 0.000000 0.000000 0.000000 0.028281 0.000000 0.000000
# 5 0.000000 0.000000 0.000000 0.000000 0.047409 0.000000
# 6 0.000000 0.000000 0.000000 0.000000 0.000000 0.038424
#
#
# Mechanical properties :
#
#
# Convention : Reuss Voigt Hill
#
# Bulk Modulus (GPa) = 43.23794 45.21952 44.22873
# Shear Modulus (GPa) = 25.65110 26.73284 26.19197
#
# Velocity S-wave (km/s) = 3.73406 3.81198 3.77322
# Velocity P-wave (km/s) = 6.48797 6.62985 6.55929
#
# Compressibility (1/GPa) = 0.02312784
#
# Stress axis : x y z
#
# Youngs Moduli (GPa) = 52.81397 60.91865 78.34431
#
# Poissons Ratio (x) = 0.23724 0.38707
# Poissons Ratio (y) = 0.20568 0.28658
# Poissons Ratio (z) = 0.26093 0.22284
#
# Static dielectric constant tensor:
#      x y z
#    x 3.098070 0.000000 0.000000 
#    y 0.000000 3.529770 0.000000 
#    z 0.000000 0.000000 3.605190 
# 
# 
# High freq. dielectric constant tensor:
#      x y z
#    x 1.682070 0.000000 0.000000 
#    y 0.000000 1.731380 0.000000 
#    z 0.000000 0.000000 1.720430 
# 
# From -- ./inp_files/22282.got.cif
#   From: 2010.03.12/outbox.cif.g09.slc.cpg/sg44_12_cif.got.tgz:22282.got - 2010.04.14 02:36:11.
