data_PCOD8189185
_publ_section_title
;
Structure prediction by ZEFSAII (Michael W. Deem and Ramdas Pophale) SiO2 
 PCOD8189185
Probable space group: I M M 2
;
_chemical_formula_sum "Si O2"
_cell_formula_units_Z 40
_cell_length_a 13.534897
_cell_length_b 8.970022
_cell_length_c 18.622448
_cell_angle_alpha 90.000000
_cell_angle_beta 90.000000
_cell_angle_gamma 90.000000
_cell_volume 2260.920198
_symmetry_space_group_name_H-M "I M M 2"
_symmetry_group_IT_number 44
_symmetry_cell_setting 'orthorhombic'
loop_
_space_group_symop_operation_xyz
x,y,z
-x,-y,z
-x,y,z
x,-y,z
1/2+x,1/2+y,1/2+z
1/2-x,1/2-y,1/2+z
1/2-x,1/2+y,1/2+z
1/2+x,1/2-y,1/2+z
loop_
_atom_site_type_symbol
_atom_site_label
_atom_site_fract_x
_atom_site_fract_y
_atom_site_fract_z
Si Si1 0.195498 0.323436 0.040660
Si Si2 0.607793 0.675938 0.970145
Si Si3 0.387248 0.328096 0.403289
Si Si4 0.885401 0.174095 0.180938
Si Si5 0.216479 0.175502 0.328454
O O1 0.183758 0.500000 0.035967
O O2 0.162333 0.267677 0.117610
O O3 0.309763 0.273712 0.027943
O O4 0.127216 0.253655 0.979205
O O5 0.500000 0.747307 0.987836
O O6 0.597885 0.500000 0.971131
O O7 0.641315 0.727067 0.890834
O O8 0.500000 0.308762 0.378730
O O9 0.358874 0.500000 0.413833
O O10 0.320737 0.257653 0.340223
O O11 0.829863 0.223557 0.253059
O O12 0.000000 0.214789 0.189077
O O13 0.871202 0.000000 0.164998
O O14 0.235979 0.000000 0.332436
#
# Coordination Sequence:
#
# PCOD8189185 Si02
#       5
#     8   8   8   8   8
#     4  10  20  32  50  76 102 131 169 208 244 288
#     4   8  14  28  50  72  93 121 160 203 244 288
#     4  10  20  34  52  73  99 132 167 204 248 296
#     4  10  20  34  52  74 102 134 164 199 248 300
#     4   9  18  32  52  76  98 124 163 207 248 295
#
# _framework density 17.691911000000001
#
# number of rings (size 3 to 8) (size 9 to 14) (size 15 to 20)
#    0.000    2.600    0.000    3.600    0.000    7.600 
#    0.000    1.000    0.000   23.400    0.000    0.000 
#    0.000    0.000    0.000    0.000    0.000    0.000 
#
# Total GULP energy -247964.150098 kJ/mol
# GULP energy per Si atom -12398.207505 kJ/mol
# Density = 1.765164 g / cm^3
# Si number density = 17.691911 Si / 1000 Ang^3
#
#
#
# Elastic Constant Matrix: (Units=GPa)
#
#
# Indices 1 2 3 4 5 6 
#
# 1 145.3810 55.2441 70.5579 0.0000 0.0000 0.0000
# 2 55.2441 65.4068 53.7757 0.0000 0.0000 0.0000
# 3 70.5579 53.7757 123.9070 0.0000 0.0000 0.0000
# 4 0.0000 0.0000 0.0000 27.8747 0.0000 0.0000
# 5 0.0000 0.0000 0.0000 0.0000 22.0839 0.0000
# 6 0.0000 0.0000 0.0000 0.0000 0.0000 24.2408
#
#
#
# Elastic Compliance Matrix: (Units=1/GPa)
#
#
# Indices 1 2 3 4 5 6 
#
# 1 0.011014 -0.006447 -0.003474 0.000000 0.000000 0.000000
# 2 -0.006447 0.027544 -0.008283 0.000000 0.000000 0.000000
# 3 -0.003474 -0.008283 0.013644 0.000000 0.000000 0.000000
# 4 0.000000 0.000000 0.000000 0.035875 0.000000 0.000000
# 5 0.000000 0.000000 0.000000 0.000000 0.045282 0.000000
# 6 0.000000 0.000000 0.000000 0.000000 0.000000 0.041253
#
#
# Mechanical properties :
#
#
# Convention : Reuss Voigt Hill
#
# Bulk Modulus (GPa) = 63.31399 77.09448 70.20424
# Shear Modulus (GPa) = 23.11773 25.18102 24.14938
#
# Velocity S-wave (km/s) = 3.61873 3.77677 3.69859
# Velocity P-wave (km/s) = 7.30239 7.91766 7.61624
#
# Compressibility (1/GPa) = 0.01579430
#
# Stress axis : x y z
#
# Youngs Moduli (GPa) = 90.79142 36.30552 73.29318
#
# Poissons Ratio (x) = 0.23404 0.25463
# Poissons Ratio (y) = 0.58529 0.60710
# Poissons Ratio (z) = 0.31543 0.30073
#
# Static dielectric constant tensor:
#      x y z
#    x 3.608350 0.000000 0.000000 
#    y 0.000000 3.135500 0.000000 
#    z 0.000000 0.000000 3.200250 
# 
# 
# High freq. dielectric constant tensor:
#      x y z
#    x 1.695310 0.000000 0.000000 
#    y 0.000000 1.669710 0.000000 
#    z 0.000000 0.000000 1.672600 
# 
# From -- ./inp_files/15800.got.cif
#   From: 2010.03.12/outbox.cif.g09.slc.cpg/sg44_8_cif.got.tgz:15800.got - 2010.04.14 02:36:11.
