data_PCOD8189752
_publ_section_title
;
Structure prediction by ZEFSAII (Michael W. Deem and Ramdas Pophale) SiO2 
 PCOD8189752
Probable space group: I M M 2
;
_chemical_formula_sum "Si O2"
_cell_formula_units_Z 64
_cell_length_a 13.444548
_cell_length_b 23.254194
_cell_length_c 9.582911
_cell_angle_alpha 90.000000
_cell_angle_beta 90.000000
_cell_angle_gamma 90.000000
_cell_volume 2996.021682
_symmetry_space_group_name_H-M "I M M 2"
_symmetry_group_IT_number 44
_symmetry_cell_setting 'orthorhombic'
loop_
_space_group_symop_operation_xyz
x,y,z
-x,-y,z
-x,y,z
x,-y,z
1/2+x,1/2+y,1/2+z
1/2-x,1/2-y,1/2+z
1/2-x,1/2+y,1/2+z
1/2+x,1/2-y,1/2+z
loop_
_atom_site_type_symbol
_atom_site_label
_atom_site_fract_x
_atom_site_fract_y
_atom_site_fract_z
Si Si1 0.778783 0.433641 0.580060
Si Si2 0.388535 0.326587 0.241087
Si Si3 0.113075 0.065013 0.560096
Si Si4 0.256465 0.242992 0.074341
Si Si5 0.116186 0.659249 0.398284
Si Si6 0.113209 0.851178 0.064686
Si Si7 0.387303 0.161933 0.573438
Si Si8 0.303812 0.064780 0.395622
O O1 0.782827 0.500000 0.537723
O O2 0.845804 0.398559 0.471995
O O3 0.662958 0.413891 0.577721
O O4 0.822749 0.422230 0.733689
O O5 0.500000 0.312644 0.192923
O O6 0.356245 0.388448 0.177190
O O7 0.321664 0.273401 0.192851
O O8 0.380481 0.330845 0.405700
O O9 0.186680 0.074665 0.429517
O O10 0.000000 0.074596 0.507418
O O11 0.125056 0.000000 0.621489
O O12 0.183577 0.194920 0.146191
O O13 0.185021 0.290883 0.003782
O O14 0.327531 0.214992 0.958202
O O15 0.141784 0.653535 0.235415
O O16 0.000000 0.666697 0.426065
O O17 0.000000 0.852199 0.121251
O O18 0.500000 0.184046 0.559719
O O19 0.375523 0.102874 0.490603
O O20 0.334663 0.000000 0.431282
#
# Coordination Sequence:
#
# PCOD8189752 Si02
#       8
#     8   8   8   8   8   8   8   8
#     4  10  23  41  64  94 127 164 201 247 309 371
#     4  10  20  37  61  90 122 158 201 252 310 366
#     4   9  18  34  59  90 121 155 200 250 301 362
#     4  11  20  37  60  87 121 159 198 252 305 362
#     4  10  24  44  66  92 123 159 206 257 307 364
#     4  10  23  40  60  89 125 162 204 253 305 365
#     4  11  24  43  65  91 122 163 210 258 305 359
#     4  10  22  40  62  91 127 164 204 250 307 369
#
# _framework density 21.361663
#
# number of rings (size 3 to 8) (size 9 to 14) (size 15 to 20)
#    0.000    1.875    1.250    2.250    0.000    6.750 
#    0.000    5.000    0.000    0.000    0.000    0.000 
#    0.000    0.000    0.000    0.000    0.000    0.000 
#
# Total GULP energy -396742.409091 kJ/mol
# GULP energy per Si atom -12398.200284 kJ/mol
# Density = 2.131304 g / cm^3
# Si number density = 21.361663 Si / 1000 Ang^3
#
#
#
# Elastic Constant Matrix: (Units=GPa)
#
#
# Indices 1 2 3 4 5 6 
#
# 1 122.4777 69.9305 44.0143 0.0010 -0.0005 0.0000
# 2 69.9305 140.7311 58.0373 0.0034 -0.0002 0.0006
# 3 44.0143 58.0373 64.1695 0.0116 -0.0012 0.0019
# 4 0.0010 0.0034 0.0116 28.2241 -0.0001 0.0005
# 5 -0.0005 -0.0002 -0.0012 -0.0001 28.1242 -0.0002
# 6 0.0000 0.0006 0.0019 0.0005 -0.0002 31.3517
#
#
#
# Elastic Compliance Matrix: (Units=1/GPa)
#
#
# Indices 1 2 3 4 5 6 
#
# 1 0.012194 -0.004163 -0.004599 0.000002 0.000000 0.000000
# 2 -0.004163 0.012754 -0.008680 0.000002 0.000000 0.000000
# 3 -0.004599 -0.008680 0.026589 -0.000010 0.000001 -0.000001
# 4 0.000002 0.000002 -0.000010 0.035431 0.000000 -0.000001
# 5 0.000000 0.000000 0.000001 0.000000 0.035557 0.000000
# 6 0.000000 0.000000 -0.000001 -0.000001 0.000000 0.031896
#
#
# Mechanical properties :
#
#
# Convention : Reuss Voigt Hill
#
# Bulk Modulus (GPa) = 60.04806 74.59360 67.32083
# Shear Modulus (GPa) = 25.66017 27.89977 26.77997
#
# Velocity S-wave (km/s) = 3.46963 3.61788 3.54453
# Velocity P-wave (km/s) = 6.64999 7.24205 6.95232
#
# Compressibility (1/GPa) = 0.01665333
#
# Stress axis : x y z
#
# Youngs Moduli (GPa) = 82.00527 78.40834 37.61013
#
# Poissons Ratio (x) = 0.32639 0.17298
# Poissons Ratio (y) = 0.34137 0.32644
# Poissons Ratio (z) = 0.37716 0.68056
#
# Static dielectric constant tensor:
#      x y z
#    x 4.170790 0.000000 0.000000 
#    y 0.000000 4.021540 0.000000 
#    z 0.000000 0.000000 3.612010 
# 
# 
# High freq. dielectric constant tensor:
#      x y z
#    x 1.852140 0.000000 0.000000 
#    y 0.000000 1.845140 0.000000 
#    z 0.000000 0.000000 1.817180 
# 
# From -- ./inp_files/7582.got.cif
#   From: 2010.03.12/outbox.cif.g09.slc.cpg/sg44_4_cif.got.tgz:7582.got - 2010.04.14 02:36:11.
