data_PCOD8189987
_publ_section_title
;
Structure prediction by ZEFSAII (Michael W. Deem and Ramdas Pophale) SiO2 
 PCOD8189987
Probable space group: I M M 2
;
_chemical_formula_sum "Si O2"
_cell_formula_units_Z 48
_cell_length_a 8.403088
_cell_length_b 14.472615
_cell_length_c 20.278369
_cell_angle_alpha 90.000000
_cell_angle_beta 90.000000
_cell_angle_gamma 90.000000
_cell_volume 2466.146899
_symmetry_space_group_name_H-M "I M M 2"
_symmetry_group_IT_number 44
_symmetry_cell_setting 'orthorhombic'
loop_
_space_group_symop_operation_xyz
x,y,z
-x,-y,z
-x,y,z
x,-y,z
1/2+x,1/2+y,1/2+z
1/2-x,1/2-y,1/2+z
1/2-x,1/2+y,1/2+z
1/2+x,1/2-y,1/2+z
loop_
_atom_site_type_symbol
_atom_site_label
_atom_site_fract_x
_atom_site_fract_y
_atom_site_fract_z
Si Si1 0.189475 0.500000 0.925750
Si Si2 0.185168 0.814623 0.843326
Si Si3 0.686981 0.304459 0.578920
Si Si4 0.315403 0.500000 0.532250
Si Si5 0.688258 0.807582 0.219603
Si Si6 0.682091 0.000000 0.889283
Si Si7 0.811328 0.500000 0.776423
Si Si8 0.185193 0.806057 0.460454
O O1 0.253793 0.500000 0.850858
O O2 0.258135 0.588713 0.962687
O O3 0.000000 0.500000 0.929286
O O4 0.238281 0.762511 0.777151
O O5 0.282635 0.909574 0.846101
O O6 0.216988 0.750227 0.906020
O O7 0.000000 0.838779 0.842052
O O8 0.500000 0.298197 0.563776
O O9 0.756820 0.407600 0.565150
O O10 0.722984 0.275681 0.653723
O O11 0.780634 0.234427 0.532361
O O12 0.500000 0.500000 0.547109
O O13 0.289307 0.500000 0.454210
O O14 0.500000 0.807871 0.208455
O O15 0.751335 0.909493 0.238844
O O16 0.500000 0.000000 0.911828
O O17 0.000000 0.500000 0.779869
O O18 0.000000 0.798564 0.443577
#
# Coordination Sequence:
#
# PCOD8189987 Si02
#       8
#     4   8   8   4   8   4   4   8
#     4  11  21  40  65  91 122 161 203 247 303 363
#     4  11  22  40  64  88 121 164 204 247 303 366
#     4  11  23  39  60  88 124 166 204 249 306 365
#     4  10  21  37  59  86 123 163 200 244 304 369
#     4  10  21  38  61  89 122 161 201 248 304 363
#     4  12  24  37  60  93 123 155 201 261 306 352
#     4   9  17  34  60  90 122 157 194 238 299 366
#     4  12  24  39  61  92 124 158 204 256 301 354
#
# _framework density 19.463560999999999
#
# number of rings (size 3 to 8) (size 9 to 14) (size 15 to 20)
#    0.000    1.167    3.333    4.000    0.000    2.000 
#    0.000    0.833    0.000    3.000    0.000    0.000 
#    0.000    0.000    0.000    0.000    0.000    0.000 
#
# Total GULP energy -297739.249605 kJ/mol
# GULP energy per Si atom -12405.802067 kJ/mol
# Density = 1.941926 g / cm^3
# Si number density = 19.463561 Si / 1000 Ang^3
#
#
#
# Elastic Constant Matrix: (Units=GPa)
#
#
# Indices 1 2 3 4 5 6 
#
# 1 41.0179 15.1127 12.7467 0.0000 0.0000 0.0000
# 2 15.1127 136.9108 54.6197 0.0000 0.0000 0.0000
# 3 12.7467 54.6197 128.4861 0.0000 0.0000 0.0000
# 4 0.0000 0.0000 0.0000 14.9000 0.0000 0.0000
# 5 0.0000 0.0000 0.0000 0.0000 28.1798 0.0000
# 6 0.0000 0.0000 0.0000 0.0000 0.0000 17.6420
#
#
#
# Elastic Compliance Matrix: (Units=1/GPa)
#
#
# Indices 1 2 3 4 5 6 
#
# 1 0.025689 -0.002190 -0.001617 0.000000 0.000000 0.000000
# 2 -0.002190 0.008982 -0.003601 0.000000 0.000000 0.000000
# 3 -0.001617 -0.003601 0.009474 0.000000 0.000000 0.000000
# 4 0.000000 0.000000 0.000000 0.067114 0.000000 0.000000
# 5 0.000000 0.000000 0.000000 0.000000 0.035486 0.000000
# 6 0.000000 0.000000 0.000000 0.000000 0.000000 0.056683
#
#
# Mechanical properties :
#
#
# Convention : Reuss Voigt Hill
#
# Bulk Modulus (GPa) = 34.09708 52.37477 43.23592
# Shear Modulus (GPa) = 21.92756 27.07340 24.50048
#
# Velocity S-wave (km/s) = 3.36012 3.73363 3.55179
# Velocity P-wave (km/s) = 5.71055 6.74939 6.25158
#
# Compressibility (1/GPa) = 0.02932803
#
# Stress axis : x y z
#
# Youngs Moduli (GPa) = 38.92681 111.32798 105.54918
#
# Poissons Ratio (x) = 0.24386 0.17071
# Poissons Ratio (y) = 0.08527 0.38010
# Poissons Ratio (z) = 0.06296 0.40091
#
# Static dielectric constant tensor:
#      x y z
#    x 3.395740 0.000000 0.000000 
#    y 0.000000 3.840450 0.000000 
#    z 0.000000 0.000000 3.468110 
# 
# 
# High freq. dielectric constant tensor:
#      x y z
#    x 1.753060 0.000000 0.000000 
#    y 0.000000 1.763260 0.000000 
#    z 0.000000 0.000000 1.754080 
# 
# From -- ./inp_files/20375.got.cif
#   From: 2010.03.12/outbox.cif.g09.slc.cpg/sg44_11_cif.got.tgz:20375.got - 2010.04.14 02:36:11.
