data_PCOD8189218
_publ_section_title
;
Structure prediction by ZEFSAII (Michael W. Deem and Ramdas Pophale) SiO2 
 PCOD8189218
Probable space group: I M M 2
;
_chemical_formula_sum "Si O2"
_cell_formula_units_Z 64
_cell_length_a 8.996866
_cell_length_b 20.227604
_cell_length_c 19.858974
_cell_angle_alpha 90.000000
_cell_angle_beta 90.000000
_cell_angle_gamma 90.000000
_cell_volume 3614.036231
_symmetry_space_group_name_H-M "I M M 2"
_symmetry_group_IT_number 44
_symmetry_cell_setting 'orthorhombic'
loop_
_space_group_symop_operation_xyz
x,y,z
-x,-y,z
-x,y,z
x,-y,z
1/2+x,1/2+y,1/2+z
1/2-x,1/2-y,1/2+z
1/2-x,1/2+y,1/2+z
1/2+x,1/2-y,1/2+z
loop_
_atom_site_type_symbol
_atom_site_label
_atom_site_fract_x
_atom_site_fract_y
_atom_site_fract_z
Si Si1 0.323231 0.073185 0.686540
Si Si2 0.326398 0.817809 0.285057
Si Si3 0.173693 0.076909 0.038492
Si Si4 0.673425 0.075572 0.176715
Si Si5 0.676617 0.926757 0.536049
Si Si6 0.824760 0.322106 0.439891
Si Si7 0.674770 0.816096 0.785328
Si Si8 0.324552 0.186430 0.438770
O O1 0.500000 0.073631 0.689721
O O2 0.269928 0.091875 0.611292
O O3 0.257371 0.125685 0.739248
O O4 0.264663 0.000000 0.705791
O O5 0.500000 0.805014 0.277914
O O6 0.275498 0.879572 0.239543
O O7 0.244712 0.752173 0.259742
O O8 0.282574 0.832300 0.362274
O O9 0.235956 0.098201 0.111171
O O10 0.000000 0.092759 0.036666
O O11 0.207317 0.000000 0.024973
O O12 0.255207 0.117680 0.980714
O O13 0.500000 0.084678 0.160604
O O14 0.710297 0.000000 0.196148
O O15 0.500000 0.926987 0.532873
O O16 0.739703 0.873052 0.484072
O O17 0.735640 0.000000 0.516510
O O18 0.782419 0.332847 0.361916
O O19 0.755951 0.252758 0.463934
O O20 0.000000 0.320712 0.451834
O O21 0.500000 0.809512 0.776164
O O22 0.500000 0.196653 0.447883
#
# Coordination Sequence:
#
# PCOD8189218 Si02
#       8
#     8   8   8   8   8   8   8   8
#     4   8  14  26  44  67  93 117 147 190 232 269
#     4   9  18  31  47  69  98 129 159 196 238 277
#     4  10  21  36  53  73  96 123 158 202 251 301
#     4   9  18  33  51  71  97 129 164 201 243 292
#     4   8  14  25  44  71  98 122 153 195 237 275
#     4  10  20  33  49  70  97 128 162 200 241 288
#     4   9  18  31  48  70  95 126 162 197 234 280
#     4   9  17  30  48  71 100 131 163 199 238 282
#
# _framework density 17.708732999999999
#
# number of rings (size 3 to 8) (size 9 to 14) (size 15 to 20)
#    0.000    3.000    0.000    1.500    0.000    3.750 
#    0.000    5.000    0.000    0.750    0.000    5.250 
#    0.000    0.000    0.000    0.000    0.000    0.000 
#
# Total GULP energy -396757.294508 kJ/mol
# GULP energy per Si atom -12398.665453 kJ/mol
# Density = 1.766843 g / cm^3
# Si number density = 17.708733 Si / 1000 Ang^3
#
#
#
# Elastic Constant Matrix: (Units=GPa)
#
#
# Indices 1 2 3 4 5 6 
#
# 1 39.5436 37.8821 32.9188 0.0000 0.0000 0.0000
# 2 37.8821 143.5712 94.9368 0.0000 0.0000 0.0000
# 3 32.9188 94.9368 108.0787 0.0000 0.0000 0.0000
# 4 0.0000 0.0000 0.0000 42.1572 0.0000 0.0000
# 5 0.0000 0.0000 0.0000 0.0000 19.3100 0.0000
# 6 0.0000 0.0000 0.0000 0.0000 0.0000 25.3676
#
#
#
# Elastic Compliance Matrix: (Units=1/GPa)
#
#
# Indices 1 2 3 4 5 6 
#
# 1 0.035485 -0.005287 -0.006164 0.000000 0.000000 0.000000
# 2 -0.005287 0.017405 -0.013678 0.000000 0.000000 0.000000
# 3 -0.006164 -0.013678 0.023145 0.000000 0.000000 0.000000
# 4 0.000000 0.000000 0.000000 0.023721 0.000000 0.000000
# 5 0.000000 0.000000 0.000000 0.000000 0.051787 0.000000
# 6 0.000000 0.000000 0.000000 0.000000 0.000000 0.039420
#
#
# Mechanical properties :
#
#
# Convention : Reuss Voigt Hill
#
# Bulk Modulus (GPa) = 38.79534 69.18543 53.99039
# Shear Modulus (GPa) = 20.01500 25.73068 22.87284
#
# Velocity S-wave (km/s) = 3.36554 3.81595 3.59780
# Velocity P-wave (km/s) = 6.08749 7.65302 6.91470
#
# Compressibility (1/GPa) = 0.02577629
#
# Stress axis : x y z
#
# Youngs Moduli (GPa) = 28.18130 57.45481 43.20582
#
# Poissons Ratio (x) = 0.30376 0.26632
# Poissons Ratio (y) = 0.14899 0.59098
# Poissons Ratio (z) = 0.17371 0.78589
#
# Static dielectric constant tensor:
#      x y z
#    x 3.014820 0.000000 0.000000 
#    y 0.000000 3.517280 0.000000 
#    z 0.000000 0.000000 3.427340 
# 
# 
# High freq. dielectric constant tensor:
#      x y z
#    x 1.657120 0.000000 0.000000 
#    y 0.000000 1.691520 0.000000 
#    z 0.000000 0.000000 1.686190 
# 
# From -- ./inp_files/20755.got.cif
#   From: 2010.03.12/outbox.cif.g09.slc.cpg/sg44_11_cif.got.tgz:20755.got - 2010.04.14 02:36:11.
