data_PCOD8189037
_publ_section_title
;
Structure prediction by ZEFSAII (Michael W. Deem and Ramdas Pophale) SiO2 
 PCOD8189037
Probable space group: I M M 2
;
_chemical_formula_sum "Si O2"
_cell_formula_units_Z 48
_cell_length_a 10.007341
_cell_length_b 8.688942
_cell_length_c 28.288509
_cell_angle_alpha 90.000000
_cell_angle_beta 90.000000
_cell_angle_gamma 90.000000
_cell_volume 2459.776537
_symmetry_space_group_name_H-M "I M M 2"
_symmetry_group_IT_number 44
_symmetry_cell_setting 'orthorhombic'
loop_
_space_group_symop_operation_xyz
x,y,z
-x,-y,z
-x,y,z
x,-y,z
1/2+x,1/2+y,1/2+z
1/2-x,1/2-y,1/2+z
1/2-x,1/2+y,1/2+z
1/2+x,1/2-y,1/2+z
loop_
_atom_site_type_symbol
_atom_site_label
_atom_site_fract_x
_atom_site_fract_y
_atom_site_fract_z
Si Si1 0.000000 0.817772 0.854890
Si Si2 0.844122 0.682470 0.507229
Si Si3 0.500000 0.317422 0.855919
Si Si4 0.847422 0.182373 0.092055
Si Si5 0.249820 0.317407 0.693759
Si Si6 0.500000 0.682763 0.752119
Si Si7 0.754784 0.682549 0.911517
Si Si8 0.000000 0.818756 0.746509
O O1 0.875911 0.758550 0.884483
O O2 0.000000 0.752818 0.800669
O O3 0.000000 0.000000 0.854132
O O4 0.840360 0.500000 0.501371
O O5 0.757205 0.737296 0.552215
O O6 0.763851 0.760142 0.464660
O O7 0.000000 0.737979 0.511123
O O8 0.500000 0.500000 0.853107
O O9 0.500000 0.243899 0.804060
O O10 0.372695 0.256765 0.883426
O O11 0.781755 0.240320 0.140880
O O12 0.000000 0.247596 0.085007
O O13 0.858182 0.000000 0.092871
O O14 0.229319 0.500000 0.695276
O O15 0.370837 0.257895 0.725409
O O16 0.123324 0.237066 0.715951
O O17 0.500000 0.500000 0.753930
O O18 0.772033 0.500000 0.911290
O O19 0.000000 0.000000 0.749683
#
# Coordination Sequence:
#
# PCOD8189037 Si02
#       8
#     4   8   4   8   8   4   8   4
#     4  11  25  43  60  83 118 160 203 245 296 361
#     4  10  21  36  57  86 121 158 197 239 291 354
#     4   9  18  32  54  83 116 146 177 229 294 349
#     4   9  18  34  58  90 119 148 194 247 291 338
#     4  10  19  35  62  89 116 150 196 247 291 343
#     4   9  16  30  56  89 112 136 181 237 292 341
#     4  11  22  39  61  87 119 152 194 248 300 353
#     4  11  25  41  56  83 124 162 197 239 296 359
#
# _framework density 19.513967000000001
#
# number of rings (size 3 to 8) (size 9 to 14) (size 15 to 20)
#    0.000    2.000    1.667    2.000    2.333    2.667 
#    0.000    1.250    0.000    4.000    0.000    0.000 
#    0.000    0.000    0.000    0.000    0.000    0.000 
#
# Total GULP energy -297498.031914 kJ/mol
# GULP energy per Si atom -12395.751330 kJ/mol
# Density = 1.946955 g / cm^3
# Si number density = 19.513967 Si / 1000 Ang^3
#
#
#
# Elastic Constant Matrix: (Units=GPa)
#
#
# Indices 1 2 3 4 5 6 
#
# 1 182.7172 31.7587 95.9861 0.0000 0.0000 0.0000
# 2 31.7587 36.3016 30.4404 0.0000 0.0000 0.0000
# 3 95.9861 30.4404 192.0333 0.0000 0.0000 0.0000
# 4 0.0000 0.0000 0.0000 24.6477 0.0000 0.0000
# 5 0.0000 0.0000 0.0000 0.0000 45.0998 0.0000
# 6 0.0000 0.0000 0.0000 0.0000 0.0000 30.3867
#
#
#
# Elastic Compliance Matrix: (Units=1/GPa)
#
#
# Indices 1 2 3 4 5 6 
#
# 1 0.007934 -0.004170 -0.003305 0.000000 0.000000 0.000000
# 2 -0.004170 0.033961 -0.003299 0.000000 0.000000 0.000000
# 3 -0.003305 -0.003299 0.007382 0.000000 0.000000 0.000000
# 4 0.000000 0.000000 0.000000 0.040572 0.000000 0.000000
# 5 0.000000 0.000000 0.000000 0.000000 0.022173 0.000000
# 6 0.000000 0.000000 0.000000 0.000000 0.000000 0.032909
#
#
# Mechanical properties :
#
#
# Convention : Reuss Voigt Hill
#
# Bulk Modulus (GPa) = 36.06188 80.82474 58.44331
# Shear Modulus (GPa) = 28.45404 36.88462 32.66933
#
# Velocity S-wave (km/s) = 3.82270 4.35232 4.09608
# Velocity P-wave (km/s) = 6.16475 8.17103 7.23775
#
# Compressibility (1/GPa) = 0.02773011
#
# Stress axis : x y z
#
# Youngs Moduli (GPa) = 126.04451 29.44514 135.46116
#
# Poissons Ratio (x) = 0.12278 0.44765
# Poissons Ratio (y) = 0.52558 0.44691
# Poissons Ratio (z) = 0.41653 0.09715
#
# Static dielectric constant tensor:
#      x y z
#    x 3.829660 0.000000 0.000000 
#    y 0.000000 3.169740 0.000000 
#    z 0.000000 0.000000 3.922420 
# 
# 
# High freq. dielectric constant tensor:
#      x y z
#    x 1.778910 0.000000 0.000000 
#    y 0.000000 1.720970 0.000000 
#    z 0.000000 0.000000 1.780590 
# 
# From -- ./inp_files/27007.got.cif
#   From: 2010.03.12/outbox.cif.g09.slc.cpg/sg44_14_cif.got.tgz:27007.got - 2010.04.14 02:36:11.
