data_PCOD8189417
_publ_section_title
;
Structure prediction by ZEFSAII (Michael W. Deem and Ramdas Pophale) SiO2 
 PCOD8189417
Probable space group: I M M 2
;
_chemical_formula_sum "Si O2"
_cell_formula_units_Z 56
_cell_length_a 8.729622
_cell_length_b 13.986996
_cell_length_c 23.055987
_cell_angle_alpha 90.000000
_cell_angle_beta 90.000000
_cell_angle_gamma 90.000000
_cell_volume 2815.163403
_symmetry_space_group_name_H-M "I M M 2"
_symmetry_group_IT_number 44
_symmetry_cell_setting 'orthorhombic'
loop_
_space_group_symop_operation_xyz
x,y,z
-x,-y,z
-x,y,z
x,-y,z
1/2+x,1/2+y,1/2+z
1/2-x,1/2-y,1/2+z
1/2-x,1/2+y,1/2+z
1/2+x,1/2-y,1/2+z
loop_
_atom_site_type_symbol
_atom_site_label
_atom_site_fract_x
_atom_site_fract_y
_atom_site_fract_z
Si Si1 0.819212 0.223184 0.390010
Si Si2 0.680945 0.393125 0.780021
Si Si3 0.176692 0.203882 0.604293
Si Si4 0.174042 0.387154 0.212962
Si Si5 0.678560 0.609371 0.333858
Si Si6 0.822409 0.392725 0.661624
Si Si7 0.821421 0.389210 0.994979
O O1 0.755333 0.166850 0.333958
O O2 0.737668 0.326829 0.387884
O O3 0.775411 0.166013 0.447210
O O4 0.000000 0.237310 0.389341
O O5 0.500000 0.392935 0.781513
O O6 0.747070 0.500000 0.786667
O O7 0.735712 0.351804 0.718336
O O8 0.213062 0.157912 0.666147
O O9 0.208079 0.318550 0.609000
O O10 0.286767 0.158051 0.556772
O O11 0.000000 0.183582 0.588266
O O12 0.183280 0.500000 0.205407
O O13 0.229840 0.357077 0.276765
O O14 0.000000 0.350151 0.204771
O O15 0.500000 0.624643 0.322593
O O16 0.715741 0.500000 0.349681
O O17 0.765111 0.500000 0.644354
O O18 0.000000 0.394831 0.677545
O O19 0.771369 0.500000 0.995983
O O20 0.000000 0.378669 0.981451
#
# Coordination Sequence:
#
# PCOD8189417 Si02
#       7
#     8   8   8   8   8   8   8
#     4  11  22  37  59  84 112 148 188 232 281 334
#     4   9  18  32  52  81 114 145 178 219 270 326
#     4  11  22  36  57  82 109 146 189 234 284 335
#     4  10  20  34  54  82 116 151 186 228 281 339
#     4  10  21  37  57  83 116 151 188 232 280 333
#     4   9  19  35  54  79 111 144 179 220 268 324
#     4  11  25  43  61  82 110 145 185 230 280 337
#
# _framework density 19.892272999999999
#
# number of rings (size 3 to 8) (size 9 to 14) (size 15 to 20)
#    0.000    1.857    0.000    3.857    0.000    9.714 
#    0.000    2.143    0.000    2.571    0.000    0.000 
#    0.000    0.000    0.000    0.000    0.000    0.000 
#
# Total GULP energy -347265.236657 kJ/mol
# GULP energy per Si atom -12402.329881 kJ/mol
# Density = 1.984700 g / cm^3
# Si number density = 19.892273 Si / 1000 Ang^3
#
#
#
# Elastic Constant Matrix: (Units=GPa)
#
#
# Indices 1 2 3 4 5 6 
#
# 1 53.5986 29.1303 16.8996 0.0000 0.0000 0.0000
# 2 29.1303 92.0944 58.9654 0.0000 0.0000 0.0000
# 3 16.8996 58.9654 71.9684 0.0000 0.0000 0.0000
# 4 0.0000 0.0000 0.0000 32.7763 0.0000 0.0000
# 5 0.0000 0.0000 0.0000 0.0000 34.2766 0.0000
# 6 0.0000 0.0000 0.0000 0.0000 0.0000 30.0258
#
#
#
# Elastic Compliance Matrix: (Units=1/GPa)
#
#
# Indices 1 2 3 4 5 6 
#
# 1 0.022576 -0.007881 0.001156 0.000000 0.000000 0.000000
# 2 -0.007881 0.025591 -0.019117 0.000000 0.000000 0.000000
# 3 0.001156 -0.019117 0.029287 0.000000 0.000000 0.000000
# 4 0.000000 0.000000 0.000000 0.030510 0.000000 0.000000
# 5 0.000000 0.000000 0.000000 0.000000 0.029174 0.000000
# 6 0.000000 0.000000 0.000000 0.000000 0.000000 0.033305
#
#
# Mechanical properties :
#
#
# Convention : Reuss Voigt Hill
#
# Bulk Modulus (GPa) = 38.80544 47.51690 43.16117
# Shear Modulus (GPa) = 21.67157 26.92681 24.29919
#
# Velocity S-wave (km/s) = 3.30426 3.68316 3.49884
# Velocity P-wave (km/s) = 5.84017 6.48279 6.16985
#
# Compressibility (1/GPa) = 0.02576958
#
# Stress axis : x y z
#
# Youngs Moduli (GPa) = 44.29472 39.07574 34.14539
#
# Poissons Ratio (x) = 0.30796 -0.03947
# Poissons Ratio (y) = 0.34909 0.65276
# Poissons Ratio (z) = -0.05120 0.74701
#
# Static dielectric constant tensor:
#      x y z
#    x 3.546070 0.000000 0.000000 
#    y 0.000000 3.989860 0.000000 
#    z 0.000000 0.000000 3.405940 
# 
# 
# High freq. dielectric constant tensor:
#      x y z
#    x 1.778960 0.000000 0.000000 
#    y 0.000000 1.793520 0.000000 
#    z 0.000000 0.000000 1.752990 
# 
# From -- ./inp_files/23030.got.cif
#   From: 2010.03.12/outbox.cif.g09.slc.cpg/sg44_12_cif.got.tgz:23030.got - 2010.04.14 02:36:11.
