data_PCOD8189201
_publ_section_title
;
Structure prediction by ZEFSAII (Michael W. Deem and Ramdas Pophale) SiO2 
 PCOD8189201
Probable space group: I M M 2
;
_chemical_formula_sum "Si O2"
_cell_formula_units_Z 48
_cell_length_a 7.713624
_cell_length_b 9.350882
_cell_length_c 34.784819
_cell_angle_alpha 90.000000
_cell_angle_beta 90.000000
_cell_angle_gamma 90.000000
_cell_volume 2509.000743
_symmetry_space_group_name_H-M "I M M 2"
_symmetry_group_IT_number 44
_symmetry_cell_setting 'orthorhombic'
loop_
_space_group_symop_operation_xyz
x,y,z
-x,-y,z
-x,y,z
x,-y,z
1/2+x,1/2+y,1/2+z
1/2-x,1/2-y,1/2+z
1/2-x,1/2+y,1/2+z
1/2+x,1/2-y,1/2+z
loop_
_atom_site_type_symbol
_atom_site_label
_atom_site_fract_x
_atom_site_fract_y
_atom_site_fract_z
Si Si1 0.204116 0.657787 0.375000
Si Si2 0.000000 0.334734 0.658780
Si Si3 0.698638 0.334589 0.600394
Si Si4 0.000000 0.170000 0.737521
Si Si5 0.305823 0.170877 0.791898
Si Si6 0.700493 0.339995 0.455799
Si Si7 0.294167 0.159904 0.525938
O O1 0.289218 0.500000 0.375917
O O2 0.253457 0.731888 0.334097
O O3 0.271108 0.735692 0.413865
O O4 0.000000 0.646931 0.376569
O O5 0.174264 0.297207 0.635422
O O6 0.000000 0.500000 0.671091
O O7 0.000000 0.236839 0.695874
O O8 0.500000 0.298048 0.612325
O O9 0.715679 0.500000 0.588558
O O10 0.762233 0.242477 0.564292
O O11 0.829057 0.224700 0.759998
O O12 0.000000 0.000000 0.733690
O O13 0.500000 0.224884 0.781084
O O14 0.306254 0.000000 0.794872
O O15 0.500000 0.352998 0.465186
O O16 0.784517 0.500000 0.456588
O O17 0.785702 0.241735 0.488895
O O18 0.500000 0.153835 0.523106
O O19 0.216463 0.000000 0.527177
#
# Coordination Sequence:
#
# PCOD8189201 Si02
#       7
#     8   4   8   4   8   8   8
#     4   8  14  25  41  64  94 125 160 203 245 282
#     4  10  22  38  54  78 106 128 160 206 252 302
#     4   9  18  35  57  75  95 128 166 204 246 291
#     4  10  20  32  52  78 102 130 164 204 250 302
#     4   8  15  28  46  71 102 131 162 205 251 290
#     4   9  16  25  42  68  94 123 163 207 243 283
#     4   9  17  30  48  70  98 131 164 199 245 297
#
# _framework density 19.131121
#
# number of rings (size 3 to 8) (size 9 to 14) (size 15 to 20)
#    0.000    3.167    0.000    1.500    1.167    3.333 
#    1.500    0.000    0.000    1.000    0.000    2.333 
#    0.000    0.000    0.000    0.000    0.000    0.000 
#
# Total GULP energy -297379.938793 kJ/mol
# GULP energy per Si atom -12390.830783 kJ/mol
# Density = 1.908758 g / cm^3
# Si number density = 19.131121 Si / 1000 Ang^3
#
#
#
# Elastic Constant Matrix: (Units=GPa)
#
#
# Indices 1 2 3 4 5 6 
#
# 1 75.4806 25.6631 64.2688 0.0000 0.0000 0.0000
# 2 25.6631 63.1418 65.0404 0.0000 0.0000 0.0000
# 3 64.2688 65.0404 182.5910 0.0000 0.0000 0.0000
# 4 0.0000 0.0000 0.0000 24.1758 0.0000 0.0000
# 5 0.0000 0.0000 0.0000 0.0000 12.7113 0.0000
# 6 0.0000 0.0000 0.0000 0.0000 0.0000 7.9285
#
#
#
# Elastic Compliance Matrix: (Units=1/GPa)
#
#
# Indices 1 2 3 4 5 6 
#
# 1 0.018987 -0.001316 -0.006214 0.000000 0.000000 0.000000
# 2 -0.001316 0.025108 -0.008480 0.000000 0.000000 0.000000
# 3 -0.006214 -0.008480 0.010685 0.000000 0.000000 0.000000
# 4 0.000000 0.000000 0.000000 0.041364 0.000000 0.000000
# 5 0.000000 0.000000 0.000000 0.000000 0.078670 0.000000
# 6 0.000000 0.000000 0.000000 0.000000 0.000000 0.126128
#
#
# Mechanical properties :
#
#
# Convention : Reuss Voigt Hill
#
# Bulk Modulus (GPa) = 43.93987 70.12868 57.03428
# Shear Modulus (GPa) = 14.68219 20.04585 17.36402
#
# Velocity S-wave (km/s) = 2.77330 3.24051 3.01596
# Velocity P-wave (km/s) = 5.76823 7.12303 6.48113
#
# Compressibility (1/GPa) = 0.02275837
#
# Stress axis : x y z
#
# Youngs Moduli (GPa) = 52.66714 39.82870 93.59009
#
# Poissons Ratio (x) = 0.05240 0.58161
# Poissons Ratio (y) = 0.06930 0.79368
# Poissons Ratio (z) = 0.32730 0.33776
#
# Static dielectric constant tensor:
#      x y z
#    x 3.464930 0.000000 0.000000 
#    y 0.000000 3.270870 0.000000 
#    z 0.000000 0.000000 3.649660 
# 
# 
# High freq. dielectric constant tensor:
#      x y z
#    x 1.736810 0.000000 0.000000 
#    y 0.000000 1.689430 0.000000 
#    z 0.000000 0.000000 1.751800 
# 
# From -- ./inp_files/26920.got.cif
#   From: 2010.03.12/outbox.cif.g09.slc.cpg/sg44_14_cif.got.tgz:26920.got - 2010.04.14 02:36:11.
