data_PCOD8189019
_publ_section_title
;
Structure prediction by ZEFSAII (Michael W. Deem and Ramdas Pophale) SiO2 
 PCOD8189019
Probable space group: I M M 2
;
_chemical_formula_sum "Si O2"
_cell_formula_units_Z 48
_cell_length_a 14.492442
_cell_length_b 8.768036
_cell_length_c 20.196345
_cell_angle_alpha 90.000000
_cell_angle_beta 90.000000
_cell_angle_gamma 90.000000
_cell_volume 2566.354673
_symmetry_space_group_name_H-M "I M M 2"
_symmetry_group_IT_number 44
_symmetry_cell_setting 'orthorhombic'
loop_
_space_group_symop_operation_xyz
x,y,z
-x,-y,z
-x,y,z
x,-y,z
1/2+x,1/2+y,1/2+z
1/2-x,1/2-y,1/2+z
1/2-x,1/2+y,1/2+z
1/2+x,1/2-y,1/2+z
loop_
_atom_site_type_symbol
_atom_site_label
_atom_site_fract_x
_atom_site_fract_y
_atom_site_fract_z
Si Si1 0.811832 0.820154 0.205950
Si Si2 0.307421 0.823037 0.332329
Si Si3 0.500000 0.322991 0.529579
Si Si4 0.695705 0.677401 0.470119
Si Si5 0.000000 0.320125 0.172355
Si Si6 0.697769 0.319581 0.086767
Si Si7 0.500000 0.679013 0.128257
Si Si8 0.500000 0.824864 0.268856
O O1 0.758082 0.773644 0.272163
O O2 0.911999 0.746060 0.210266
O O3 0.758861 0.759896 0.142217
O O4 0.821354 0.000000 0.198328
O O5 0.281424 0.721194 0.395037
O O6 0.412054 0.786141 0.313046
O O7 0.294479 0.000000 0.350249
O O8 0.500000 0.500000 0.550297
O O9 0.410254 0.280630 0.486654
O O10 0.500000 0.223938 0.595533
O O11 0.714990 0.500000 0.481548
O O12 0.764839 0.773896 0.515260
O O13 0.000000 0.500000 0.178237
O O14 0.704516 0.500000 0.096705
O O15 0.592435 0.258587 0.092805
O O16 0.500000 0.500000 0.122615
O O17 0.500000 0.720933 0.204811
O O18 0.500000 0.000000 0.245037
#
# Coordination Sequence:
#
# PCOD8189019 Si02
#       8
#     8   8   4   8   4   8   4   4
#     4  11  22  39  62  87 119 157 197 244 297 352
#     4  10  22  38  59  87 121 158 195 241 295 352
#     4  10  21  37  57  85 123 157 192 240 299 357
#     4  11  23  38  59  86 120 160 197 243 298 353
#     4  12  24  37  60  91 119 154 198 249 294 347
#     4  11  22  38  60  87 119 156 199 244 293 352
#     4  10  22  37  58  89 121 153 193 244 293 343
#     4  10  19  35  59  89 121 154 191 235 290 353
#
# _framework density 18.703572000000001
#
# number of rings (size 3 to 8) (size 9 to 14) (size 15 to 20)
#    0.000    1.333    3.333    2.750    0.000    3.333 
#    0.000    0.833    0.000    2.000    0.000    0.000 
#    0.000    0.000    0.000    0.000    0.000    0.000 
#
# Total GULP energy -297719.115415 kJ/mol
# GULP energy per Si atom -12404.963142 kJ/mol
# Density = 1.866100 g / cm^3
# Si number density = 18.703572 Si / 1000 Ang^3
#
#
#
# Elastic Constant Matrix: (Units=GPa)
#
#
# Indices 1 2 3 4 5 6 
#
# 1 133.6311 31.5463 50.0077 0.0000 0.0000 0.0000
# 2 31.5463 48.6133 21.0750 0.0000 0.0000 0.0000
# 3 50.0077 21.0750 105.2677 0.0000 0.0000 0.0000
# 4 0.0000 0.0000 0.0000 36.1075 0.0000 0.0000
# 5 0.0000 0.0000 0.0000 0.0000 42.7406 0.0000
# 6 0.0000 0.0000 0.0000 0.0000 0.0000 25.5673
#
#
#
# Elastic Compliance Matrix: (Units=1/GPa)
#
#
# Indices 1 2 3 4 5 6 
#
# 1 0.010057 -0.004879 -0.003801 0.000000 0.000000 0.000000
# 2 -0.004879 0.024892 -0.002666 0.000000 0.000000 0.000000
# 3 -0.003801 -0.002666 0.011839 0.000000 0.000000 0.000000
# 4 0.000000 0.000000 0.000000 0.027695 0.000000 0.000000
# 5 0.000000 0.000000 0.000000 0.000000 0.023397 0.000000
# 6 0.000000 0.000000 0.000000 0.000000 0.000000 0.039112
#
#
# Mechanical properties :
#
#
# Convention : Reuss Voigt Hill
#
# Bulk Modulus (GPa) = 41.49835 54.75223 48.12529
# Shear Modulus (GPa) = 29.81216 33.20862 31.51039
#
# Velocity S-wave (km/s) = 3.99674 4.21827 4.10899
# Velocity P-wave (km/s) = 6.59804 7.28438 6.94969
#
# Compressibility (1/GPa) = 0.02409734
#
# Stress axis : x y z
#
# Youngs Moduli (GPa) = 99.42882 40.17335 84.46643
#
# Poissons Ratio (x) = 0.19599 0.32106
# Poissons Ratio (y) = 0.48508 0.22518
# Poissons Ratio (z) = 0.37794 0.10710
#
# Static dielectric constant tensor:
#      x y z
#    x 3.827700 0.000000 0.000000 
#    y 0.000000 3.424890 0.000000 
#    z 0.000000 0.000000 3.314100 
# 
# 
# High freq. dielectric constant tensor:
#      x y z
#    x 1.735740 0.000000 0.000000 
#    y 0.000000 1.730420 0.000000 
#    z 0.000000 0.000000 1.721740 
# 
# From -- ./inp_files/20378.got.cif
#   From: 2010.03.12/outbox.cif.g09.slc.cpg/sg44_11_cif.got.tgz:20378.got - 2010.04.14 02:36:11.
