data_PCOD8189665
_publ_section_title
;
Structure prediction by ZEFSAII (Michael W. Deem and Ramdas Pophale) SiO2 
 PCOD8189665
Probable space group: I M M 2
;
_chemical_formula_sum "Si O2"
_cell_formula_units_Z 48
_cell_length_a 8.578019
_cell_length_b 18.742370
_cell_length_c 15.113313
_cell_angle_alpha 90.000000
_cell_angle_beta 90.000000
_cell_angle_gamma 90.000000
_cell_volume 2429.803693
_symmetry_space_group_name_H-M "I M M 2"
_symmetry_group_IT_number 44
_symmetry_cell_setting 'orthorhombic'
loop_
_space_group_symop_operation_xyz
x,y,z
-x,-y,z
-x,y,z
x,-y,z
1/2+x,1/2+y,1/2+z
1/2-x,1/2-y,1/2+z
1/2-x,1/2+y,1/2+z
1/2+x,1/2-y,1/2+z
loop_
_atom_site_type_symbol
_atom_site_label
_atom_site_fract_x
_atom_site_fract_y
_atom_site_fract_z
Si Si1 0.180393 0.582333 0.260900
Si Si2 0.182495 0.188220 0.107448
Si Si3 0.681215 0.166920 0.414434
Si Si4 0.818650 0.918382 0.260475
Si Si5 0.317220 0.182152 0.919869
Si Si6 0.318581 0.660727 0.100715
O O1 0.209500 0.500000 0.282969
O O2 0.238911 0.627424 0.344898
O O3 0.279840 0.603245 0.175442
O O4 0.000000 0.598802 0.240979
O O5 0.233504 0.127187 0.175609
O O6 0.271995 0.260432 0.133762
O O7 0.000000 0.204218 0.111976
O O8 0.227062 0.162191 0.009495
O O9 0.500000 0.185674 0.411691
O O10 0.720683 0.104900 0.345654
O O11 0.777190 0.237829 0.388815
O O12 0.725563 0.139928 0.512164
O O13 0.000000 0.907398 0.281774
O O14 0.778951 0.000000 0.238848
O O15 0.500000 0.175775 0.937886
O O16 0.500000 0.658861 0.078482
#
# Coordination Sequence:
#
# PCOD8189665 Si02
#       6
#     8   8   8   8   8   8
#     4  10  22  39  57  80 113 150 184 222 273 329
#     4  10  20  36  59  84 111 145 184 227 273 322
#     4  11  22  37  59  84 110 143 184 230 276 324
#     4  10  22  39  57  80 113 150 184 222 273 329
#     4  10  20  36  59  84 111 145 184 227 273 322
#     4  11  22  37  59  84 110 143 184 230 276 324
#
# _framework density 19.754681999999999
#
# number of rings (size 3 to 8) (size 9 to 14) (size 15 to 20)
#    0.000    1.667    0.000    7.000    0.000    8.667 
#    0.000    0.000    0.000    0.000    0.000    0.000 
#    0.000    0.000    0.000    0.000    0.000    0.000 
#
# Total GULP energy -297745.419664 kJ/mol
# GULP energy per Si atom -12406.059153 kJ/mol
# Density = 1.970972 g / cm^3
# Si number density = 19.754682 Si / 1000 Ang^3
#
#
#
# Elastic Constant Matrix: (Units=GPa)
#
#
# Indices 1 2 3 4 5 6 
#
# 1 53.0171 11.8513 16.9062 0.0000 0.0000 0.0000
# 2 11.8513 70.4180 45.0027 0.0000 0.0000 0.0000
# 3 16.9062 45.0027 92.1438 0.0000 0.0000 0.0000
# 4 0.0000 0.0000 0.0000 18.7277 0.0000 0.0000
# 5 0.0000 0.0000 0.0000 0.0000 34.5903 0.0000
# 6 0.0000 0.0000 0.0000 0.0000 0.0000 24.7190
#
#
#
# Elastic Compliance Matrix: (Units=1/GPa)
#
#
# Indices 1 2 3 4 5 6 
#
# 1 0.020142 -0.001495 -0.002966 0.000000 0.000000 0.000000
# 2 -0.001495 0.020755 -0.009863 0.000000 0.000000 0.000000
# 3 -0.002966 -0.009863 0.016214 0.000000 0.000000 0.000000
# 4 0.000000 0.000000 0.000000 0.053397 0.000000 0.000000
# 5 0.000000 0.000000 0.000000 0.000000 0.028910 0.000000
# 6 0.000000 0.000000 0.000000 0.000000 0.000000 0.040455
#
#
# Mechanical properties :
#
#
# Convention : Reuss Voigt Hill
#
# Bulk Modulus (GPa) = 35.13082 40.34436 37.73759
# Shear Modulus (GPa) = 22.93516 25.06199 23.99857
#
# Velocity S-wave (km/s) = 3.41104 3.56569 3.48922
# Velocity P-wave (km/s) = 5.77371 6.11712 5.94790
#
# Compressibility (1/GPa) = 0.02846504
#
# Stress axis : x y z
#
# Youngs Moduli (GPa) = 49.64853 48.18005 61.67658
#
# Poissons Ratio (x) = 0.07201 0.18291
# Poissons Ratio (y) = 0.07420 0.60830
# Poissons Ratio (z) = 0.14724 0.47518
#
# Static dielectric constant tensor:
#      x y z
#    x 3.614270 0.000000 0.000000 
#    y 0.000000 3.519530 0.000000 
#    z 0.000000 0.000000 3.663420 
# 
# 
# High freq. dielectric constant tensor:
#      x y z
#    x 1.773300 0.000000 0.000000 
#    y 0.000000 1.762700 0.000000 
#    z 0.000000 0.000000 1.779530 
# 
# From -- ./inp_files/16099.got.cif
#   From: 2010.03.12/outbox.cif.g09.slc.cpg/sg44_9_cif.got.tgz:16099.got - 2010.04.14 02:36:11.
