data_PCOD8189559
_publ_section_title
;
Structure prediction by ZEFSAII (Michael W. Deem and Ramdas Pophale) SiO2 
 PCOD8189559
Probable space group: I M M 2
;
_chemical_formula_sum "Si O2"
_cell_formula_units_Z 48
_cell_length_a 23.143201
_cell_length_b 9.026618
_cell_length_c 11.877413
_cell_angle_alpha 90.000000
_cell_angle_beta 90.000000
_cell_angle_gamma 90.000000
_cell_volume 2481.249000
_symmetry_space_group_name_H-M "I M M 2"
_symmetry_group_IT_number 44
_symmetry_cell_setting 'orthorhombic'
loop_
_space_group_symop_operation_xyz
x,y,z
-x,-y,z
-x,y,z
x,-y,z
1/2+x,1/2+y,1/2+z
1/2-x,1/2-y,1/2+z
1/2-x,1/2+y,1/2+z
1/2+x,1/2-y,1/2+z
loop_
_atom_site_type_symbol
_atom_site_label
_atom_site_fract_x
_atom_site_fract_y
_atom_site_fract_z
Si Si1 0.348135 0.672779 0.787370
Si Si2 0.223235 0.325826 0.721184
Si Si3 0.622114 0.175770 0.379099
Si Si4 0.356557 0.824638 0.023179
Si Si5 0.566158 0.662819 0.182898
Si Si6 0.067003 0.826931 0.089068
O O1 0.344668 0.500000 0.819841
O O2 0.289400 0.726573 0.725655
O O3 0.404151 0.704343 0.710521
O O4 0.349751 0.771277 0.897259
O O5 0.219513 0.500000 0.720348
O O6 0.185013 0.272799 0.829780
O O7 0.196133 0.268604 0.603453
O O8 0.574740 0.238013 0.293417
O O9 0.607653 0.242825 0.500566
O O10 0.616957 0.000000 0.387099
O O11 0.413540 0.749814 0.072531
O O12 0.363150 0.000000 0.024984
O O13 0.500000 0.635528 0.164441
O O14 0.596215 0.500000 0.194843
O O15 0.000000 0.771580 0.089698
O O16 0.069213 0.000000 0.059694
#
# Coordination Sequence:
#
# PCOD8189559 Si02
#       6
#     8   8   8   8   8   8
#     4  10  21  38  58  78 110 154 193 235 283 338
#     4   8  18  36  56  80 111 144 183 232 289 345
#     4  10  20  35  57  85 116 146 184 239 292 337
#     4  10  21  37  56  83 115 143 183 236 288 341
#     4  10  20  35  57  83 111 147 190 230 275 336
#     4  10  22  38  56  81 114 154 198 236 278 342
#
# _framework density 19.345095000000001
#
# number of rings (size 3 to 8) (size 9 to 14) (size 15 to 20)
#    0.000    2.333    0.000    3.000    2.333    5.000 
#    0.000    5.833    0.000    0.000    0.000    0.000 
#    0.000    0.000    0.000    0.000    0.000    0.000 
#
# Total GULP energy -297462.046367 kJ/mol
# GULP energy per Si atom -12394.251932 kJ/mol
# Density = 1.930107 g / cm^3
# Si number density = 19.345095 Si / 1000 Ang^3
#
#
#
# Elastic Constant Matrix: (Units=GPa)
#
#
# Indices 1 2 3 4 5 6 
#
# 1 93.8967 28.2009 34.9637 0.0000 0.0000 0.0000
# 2 28.2009 69.1442 34.2664 0.0000 0.0000 0.0000
# 3 34.9637 34.2664 96.6978 0.0000 0.0000 0.0000
# 4 0.0000 0.0000 0.0000 38.0650 0.0000 0.0000
# 5 0.0000 0.0000 0.0000 0.0000 19.5528 0.0000
# 6 0.0000 0.0000 0.0000 0.0000 0.0000 22.5749
#
#
#
# Elastic Compliance Matrix: (Units=1/GPa)
#
#
# Indices 1 2 3 4 5 6 
#
# 1 0.013009 -0.003608 -0.003425 0.000000 0.000000 0.000000
# 2 -0.003608 0.018544 -0.005267 0.000000 0.000000 0.000000
# 3 -0.003425 -0.005267 0.013446 0.000000 0.000000 0.000000
# 4 0.000000 0.000000 0.000000 0.026271 0.000000 0.000000
# 5 0.000000 0.000000 0.000000 0.000000 0.051144 0.000000
# 6 0.000000 0.000000 0.000000 0.000000 0.000000 0.044297
#
#
# Mechanical properties :
#
#
# Convention : Reuss Voigt Hill
#
# Bulk Modulus (GPa) = 49.02160 50.51121 49.76641
# Shear Modulus (GPa) = 25.23830 26.85905 26.04868
#
# Velocity S-wave (km/s) = 3.61589 3.73019 3.67349
# Velocity P-wave (km/s) = 6.54435 6.68728 6.61620
#
# Compressibility (1/GPa) = 0.02039917
#
# Stress axis : x y z
#
# Youngs Moduli (GPa) = 76.86893 53.92476 74.36992
#
# Poissons Ratio (x) = 0.19459 0.25472
# Poissons Ratio (y) = 0.27738 0.39169
# Poissons Ratio (z) = 0.26328 0.28401
#
# Static dielectric constant tensor:
#      x y z
#    x 3.814830 0.000000 0.000000 
#    y 0.000000 3.573970 0.000000 
#    z 0.000000 0.000000 3.528030 
# 
# 
# High freq. dielectric constant tensor:
#      x y z
#    x 1.752640 0.000000 0.000000 
#    y 0.000000 1.745840 0.000000 
#    z 0.000000 0.000000 1.751600 
# 
# From -- ./inp_files/11145.got.cif
#   From: 2010.03.12/outbox.cif.g09.slc.cpg/sg44_6_cif.got.tgz:11145.got - 2010.04.14 02:36:11.
