data_PCOD8189139
_publ_section_title
;
Structure prediction by ZEFSAII (Michael W. Deem and Ramdas Pophale) SiO2 
 PCOD8189139
Probable space group: I M M 2
;
_chemical_formula_sum "Si O2"
_cell_formula_units_Z 48
_cell_length_a 8.743957
_cell_length_b 9.208750
_cell_length_c 31.250921
_cell_angle_alpha 90.000000
_cell_angle_beta 90.000000
_cell_angle_gamma 90.000000
_cell_volume 2516.352723
_symmetry_space_group_name_H-M "I M M 2"
_symmetry_group_IT_number 44
_symmetry_cell_setting 'orthorhombic'
loop_
_space_group_symop_operation_xyz
x,y,z
-x,-y,z
-x,y,z
x,-y,z
1/2+x,1/2+y,1/2+z
1/2-x,1/2-y,1/2+z
1/2-x,1/2+y,1/2+z
1/2+x,1/2-y,1/2+z
loop_
_atom_site_type_symbol
_atom_site_label
_atom_site_fract_x
_atom_site_fract_y
_atom_site_fract_z
Si Si1 0.319848 0.332071 0.237730
Si Si2 0.818293 0.836510 0.159190
Si Si3 0.681840 0.837031 0.578487
Si Si4 0.317348 0.663381 0.403451
Si Si5 0.182033 0.664004 0.821390
Si Si6 0.181856 0.663112 0.984033
O O1 0.500000 0.312070 0.232436
O O2 0.273786 0.500000 0.241555
O O3 0.238379 0.263750 0.197187
O O4 0.258983 0.250390 0.279919
O O5 0.753698 0.771591 0.114534
O O6 0.000000 0.836166 0.159094
O O7 0.754597 0.000000 0.164402
O O8 0.500000 0.838118 0.579691
O O9 0.737156 0.785313 0.531252
O O10 0.742553 0.000000 0.587689
O O11 0.500000 0.664722 0.403447
O O12 0.254934 0.500000 0.399343
O O13 0.254089 0.756524 0.363629
O O14 0.251832 0.731200 0.447508
O O15 0.246231 0.500000 0.819967
O O16 0.000000 0.663219 0.822355
O O17 0.240759 0.500000 0.975077
O O18 0.000000 0.664827 0.982247
#
# Coordination Sequence:
#
# PCOD8189139 Si02
#       6
#     8   8   8   8   8   8
#     4  10  20  33  49  68  90 118 153 191 230 272
#     4  10  20  32  47  68  93 121 153 188 227 272
#     4   8  14  25  40  57  80 112 147 182 221 264
#     4   9  15  21  31  50  77 108 141 176 214 259
#     4   9  16  26  40  57  80 111 144 179 221 267
#     4   8  13  21  33  50  74 106 142 176 213 259
#
# _framework density 19.075227999999999
#
# number of rings (size 3 to 8) (size 9 to 14) (size 15 to 20)
#    0.000    3.000    0.000    3.000    0.000    6.667 
#    0.000    3.333    0.000    0.000    0.000    0.000 
#    0.000    1.333    0.000   11.667    0.000   16.500 
#
# Total GULP energy -297497.626984 kJ/mol
# GULP energy per Si atom -12395.734458 kJ/mol
# Density = 1.903181 g / cm^3
# Si number density = 19.075228 Si / 1000 Ang^3
#
#
#
# Elastic Constant Matrix: (Units=GPa)
#
#
# Indices 1 2 3 4 5 6 
#
# 1 4.0182 11.1957 10.7143 0.0000 0.0000 0.0000
# 2 11.1957 163.1244 101.2789 0.0000 0.0000 0.0000
# 3 10.7143 101.2789 188.0292 0.0000 0.0000 0.0000
# 4 0.0000 0.0000 0.0000 46.0341 0.0000 0.0000
# 5 0.0000 0.0000 0.0000 0.0000 16.2236 0.0000
# 6 0.0000 0.0000 0.0000 0.0000 0.0000 12.3191
#
#
#
# Elastic Compliance Matrix: (Units=1/GPa)
#
#
# Indices 1 2 3 4 5 6 
#
# 1 0.318809 -0.015929 -0.009587 0.000000 0.000000 0.000000
# 2 -0.015929 0.010006 -0.004482 0.000000 0.000000 0.000000
# 3 -0.009587 -0.004482 0.008279 0.000000 0.000000 0.000000
# 4 0.000000 0.000000 0.000000 0.021723 0.000000 0.000000
# 5 0.000000 0.000000 0.000000 0.000000 0.061639 0.000000
# 6 0.000000 0.000000 0.000000 0.000000 0.000000 0.081175
#
#
# Mechanical properties :
#
#
# Convention : Reuss Voigt Hill
#
# Bulk Modulus (GPa) = 3.60881 66.83884 35.22383
# Shear Modulus (GPa) = 7.64535 30.38088 19.01312
#
# Velocity S-wave (km/s) = 2.00417 3.99518 3.16055
# Velocity P-wave (km/s) = 2.69288 7.50983 5.64133
#
# Compressibility (1/GPa) = 0.27709927
#
# Stress axis : x y z
#
# Youngs Moduli (GPa) = 3.13667 99.93681 120.79059
#
# Poissons Ratio (x) = 1.59188 1.15797
# Poissons Ratio (y) = 0.04996 0.54139
# Poissons Ratio (z) = 0.03007 0.44793
#
# Static dielectric constant tensor:
#      x y z
#    x 2.700750 0.000000 0.000000 
#    y 0.000000 3.768200 0.000000 
#    z 0.000000 0.000000 3.871980 
# 
# 
# High freq. dielectric constant tensor:
#      x y z
#    x 1.656370 0.000000 0.000000 
#    y 0.000000 1.751690 0.000000 
#    z 0.000000 0.000000 1.762980 
# 
# From -- ./inp_files/26029.got.cif
#   From: 2010.03.12/outbox.cif.g09.slc.cpg/sg44_14_cif.got.tgz:26029.got - 2010.04.14 02:36:11.
