data_PCOD8189304
_publ_section_title
;
Structure prediction by ZEFSAII (Michael W. Deem and Ramdas Pophale) SiO2 
 PCOD8189304
Probable space group: I M M 2
;
_chemical_formula_sum "Si O2"
_cell_formula_units_Z 48
_cell_length_a 7.605833
_cell_length_b 8.953870
_cell_length_c 34.644638
_cell_angle_alpha 90.000000
_cell_angle_beta 90.000000
_cell_angle_gamma 90.000000
_cell_volume 2359.356662
_symmetry_space_group_name_H-M "I M M 2"
_symmetry_group_IT_number 44
_symmetry_cell_setting 'orthorhombic'
loop_
_space_group_symop_operation_xyz
x,y,z
-x,-y,z
-x,y,z
x,-y,z
1/2+x,1/2+y,1/2+z
1/2-x,1/2-y,1/2+z
1/2-x,1/2+y,1/2+z
1/2+x,1/2-y,1/2+z
loop_
_atom_site_type_symbol
_atom_site_label
_atom_site_fract_x
_atom_site_fract_y
_atom_site_fract_z
Si Si1 0.500000 0.321720 0.907980
Si Si2 0.201039 0.336348 0.203036
Si Si3 0.300319 0.176301 0.551717
Si Si4 0.295561 0.675627 0.357893
Si Si5 0.790908 0.166804 0.129705
Si Si6 0.706486 0.168857 0.279148
Si Si7 0.000000 0.176768 0.495363
O O1 0.500000 0.500000 0.904694
O O2 0.677600 0.258269 0.889356
O O3 0.500000 0.262724 0.951892
O O4 0.290210 0.500000 0.208823
O O5 0.290907 0.250533 0.167083
O O6 0.208840 0.240044 0.241614
O O7 0.000000 0.360368 0.192040
O O8 0.500000 0.225616 0.541964
O O9 0.230724 0.249078 0.591127
O O10 0.175513 0.233573 0.517165
O O11 0.287474 0.000000 0.557335
O O12 0.500000 0.713376 0.366163
O O13 0.259473 0.500000 0.359350
O O14 0.236528 0.735120 0.316119
O O15 0.000000 0.162265 0.132307
O O16 0.713121 0.000000 0.129040
O O17 0.500000 0.171528 0.273652
O O18 0.776433 0.000000 0.284323
O O19 0.000000 0.000000 0.494623
#
# Coordination Sequence:
#
# PCOD8189304 Si02
#       7
#     4   8   8   8   8   8   4
#     4  11  23  39  63  93 123 155 195 249 303 359
#     4  10  20  33  52  79 110 147 190 234 280 337
#     4   9  17  33  57  80 107 146 187 230 282 342
#     4  10  22  41  63  86 117 158 200 243 294 358
#     4   9  17  31  51  76 107 143 186 233 280 333
#     4  10  21  37  56  80 111 146 188 237 288 343
#     4   9  20  37  57  87 117 143 187 237 287 351
#
# _framework density 20.344529000000001
#
# number of rings (size 3 to 8) (size 9 to 14) (size 15 to 20)
#    0.000    2.333    0.000    2.250    1.167    5.667 
#    1.500    3.750    0.000    2.000    0.000    0.000 
#    0.000    0.000    0.000    0.000    0.000    0.000 
#
# Total GULP energy -297588.522268 kJ/mol
# GULP energy per Si atom -12399.521761 kJ/mol
# Density = 2.029822 g / cm^3
# Si number density = 20.344529 Si / 1000 Ang^3
#
#
#
# Elastic Constant Matrix: (Units=GPa)
#
#
# Indices 1 2 3 4 5 6 
#
# 1 74.3585 38.0538 62.8298 0.0000 0.0000 0.0000
# 2 38.0538 119.1941 66.2187 0.0000 0.0000 0.0000
# 3 62.8298 66.2187 189.2796 0.0000 0.0000 0.0000
# 4 0.0000 0.0000 0.0000 30.2438 0.0000 0.0000
# 5 0.0000 0.0000 0.0000 0.0000 -4.8653 0.0000
# 6 0.0000 0.0000 0.0000 0.0000 0.0000 18.0248
#
#
#
# Elastic Compliance Matrix: (Units=1/GPa)
#
#
# Indices 1 2 3 4 5 6 
#
# 1 0.019680 -0.003294 -0.005380 0.000000 0.000000 0.000000
# 2 -0.003294 0.010965 -0.002743 0.000000 0.000000 0.000000
# 3 -0.005380 -0.002743 0.008029 0.000000 0.000000 0.000000
# 4 0.000000 0.000000 0.000000 0.033065 0.000000 0.000000
# 5 0.000000 0.000000 0.000000 0.000000 -0.205539 0.000000
# 6 0.000000 0.000000 0.000000 0.000000 0.000000 0.055479
#
#
# Mechanical properties :
#
#
# Convention : Reuss Voigt Hill
#
# Bulk Modulus (GPa) = 63.13156 79.67075 71.40116
# Shear Modulus (GPa) = -99.58758 23.06266 -38.26246
#
# Velocity S-wave (km/s) = -7.00406 3.37056 -4.34144
# Velocity P-wave (km/s) = 5.85752 7.37518 3.16882
#
# Compressibility (1/GPa) = 0.01583994
#
# Stress axis : x y z
#
# Youngs Moduli (GPa) = 50.81236 91.19913 124.55432
#
# Poissons Ratio (x) = 0.30042 0.67014
# Poissons Ratio (y) = 0.16738 0.34161
# Poissons Ratio (z) = 0.27338 0.25012
#
# Static dielectric constant tensor:
#      x y z
#    x 3.602660 0.000000 0.000000 
#    y 0.000000 3.848180 0.000000 
#    z 0.000000 0.000000 3.787170 
# 
# 
# High freq. dielectric constant tensor:
#      x y z
#    x 1.785500 0.000000 0.000000 
#    y 0.000000 1.797140 0.000000 
#    z 0.000000 0.000000 1.794570 
# 
# From -- ./inp_files/26945.got.cif
#   From: 2010.03.12/outbox.cif.g09.slc.cpg/sg44_14_cif.got.tgz:26945.got - 2010.04.14 02:36:11.
