data_PCOD8189168
_publ_section_title
;
Structure prediction by ZEFSAII (Michael W. Deem and Ramdas Pophale) SiO2 
 PCOD8189168
Probable space group: I M M 2
;
_chemical_formula_sum "Si O2"
_cell_formula_units_Z 56
_cell_length_a 16.874852
_cell_length_b 8.716765
_cell_length_c 20.153549
_cell_angle_alpha 90.000000
_cell_angle_beta 90.000000
_cell_angle_gamma 90.000000
_cell_volume 2964.468541
_symmetry_space_group_name_H-M "I M M 2"
_symmetry_group_IT_number 44
_symmetry_cell_setting 'orthorhombic'
loop_
_space_group_symop_operation_xyz
x,y,z
-x,-y,z
-x,y,z
x,-y,z
1/2+x,1/2+y,1/2+z
1/2-x,1/2-y,1/2+z
1/2-x,1/2+y,1/2+z
1/2+x,1/2-y,1/2+z
loop_
_atom_site_type_symbol
_atom_site_label
_atom_site_fract_x
_atom_site_fract_y
_atom_site_fract_z
Si Si1 0.255596 0.320563 0.695170
Si Si2 0.222112 0.321177 0.426527
Si Si3 0.913052 0.172515 0.347949
Si Si4 0.000000 0.681733 0.761734
Si Si5 0.338844 0.320707 0.312963
Si Si6 0.831753 0.318881 0.567528
Si Si7 0.000000 0.682371 0.608815
Si Si8 0.412566 0.823386 0.710854
O O1 0.241287 0.500000 0.705086
O O2 0.228368 0.235589 0.761944
O O3 0.207100 0.251210 0.633836
O O4 0.347031 0.285034 0.677538
O O5 0.200748 0.500000 0.417884
O O6 0.150910 0.217439 0.401542
O O7 0.304239 0.285042 0.387289
O O8 0.222819 0.273677 0.504311
O O9 0.909816 0.294299 0.289067
O O10 0.000000 0.178537 0.381423
O O11 0.895381 0.000000 0.321096
O O12 0.077811 0.737154 0.801316
O O13 0.000000 0.742914 0.685618
O O14 0.000000 0.500000 0.762665
O O15 0.353131 0.500000 0.303338
O O16 0.833376 0.500000 0.573454
O O17 0.922814 0.257696 0.568221
O O18 0.000000 0.500000 0.612442
O O19 0.500000 0.781985 0.682572
O O20 0.392076 0.000000 0.697242
#
# Coordination Sequence:
#
# PCOD8189168 Si02
#       8
#     8   8   8   4   8   8   4   8
#     4  11  20  34  58  83 111 145 187 236 282 337
#     4  10  21  36  56  80 110 150 191 227 274 338
#     4  10  20  32  48  75 111 144 177 217 262 315
#     4  11  21  37  63  89 111 144 193 246 296 344
#     4  11  22  36  56  86 118 148 187 236 290 344
#     4   9  19  34  54  82 113 149 190 231 279 343
#     4   9  16  31  55  85 115 142 187 238 282 338
#     4  10  20  34  53  78 107 140 181 227 278 332
#
# _framework density 18.890402000000002
#
# number of rings (size 3 to 8) (size 9 to 14) (size 15 to 20)
#    0.000    1.857    2.857    1.929    1.000    2.286 
#    0.000    1.429    1.571    0.000    0.000    0.000 
#    0.000    0.000    0.000    0.000    0.000    0.000 
#
# Total GULP energy -347001.708075 kJ/mol
# GULP energy per Si atom -12392.918146 kJ/mol
# Density = 1.884741 g / cm^3
# Si number density = 18.890402 Si / 1000 Ang^3
#
#
#
# Elastic Constant Matrix: (Units=GPa)
#
#
# Indices 1 2 3 4 5 6 
#
# 1 125.8404 27.1833 50.4532 0.0000 0.0000 0.0000
# 2 27.1833 46.9405 17.6528 0.0000 0.0000 0.0000
# 3 50.4532 17.6528 100.1202 0.0000 0.0000 0.0000
# 4 0.0000 0.0000 0.0000 18.0234 0.0000 0.0000
# 5 0.0000 0.0000 0.0000 0.0000 31.5666 0.0000
# 6 0.0000 0.0000 0.0000 0.0000 0.0000 31.8773
#
#
#
# Elastic Compliance Matrix: (Units=1/GPa)
#
#
# Indices 1 2 3 4 5 6 
#
# 1 0.010778 -0.004497 -0.004638 0.000000 0.000000 0.000000
# 2 -0.004497 0.024693 -0.002088 0.000000 0.000000 0.000000
# 3 -0.004638 -0.002088 0.012693 0.000000 0.000000 0.000000
# 4 0.000000 0.000000 0.000000 0.055483 0.000000 0.000000
# 5 0.000000 0.000000 0.000000 0.000000 0.031679 0.000000
# 6 0.000000 0.000000 0.000000 0.000000 0.000000 0.031370
#
#
# Mechanical properties :
#
#
# Convention : Reuss Voigt Hill
#
# Bulk Modulus (GPa) = 38.88295 51.49773 45.19034
# Shear Modulus (GPa) = 25.28894 28.13425 26.71160
#
# Velocity S-wave (km/s) = 3.66282 3.86339 3.76444
# Velocity P-wave (km/s) = 6.20616 6.87179 6.54744
#
# Compressibility (1/GPa) = 0.02571821
#
# Stress axis : x y z
#
# Youngs Moduli (GPa) = 92.78505 40.49751 78.78117
#
# Poissons Ratio (x) = 0.18212 0.36540
# Poissons Ratio (y) = 0.41726 0.16446
# Poissons Ratio (z) = 0.43036 0.08454
#
# Static dielectric constant tensor:
#      x y z
#    x 3.750220 0.000000 0.000000 
#    y 0.000000 3.284210 0.000000 
#    z 0.000000 0.000000 3.429290 
# 
# 
# High freq. dielectric constant tensor:
#      x y z
#    x 1.743140 0.000000 0.000000 
#    y 0.000000 1.720820 0.000000 
#    z 0.000000 0.000000 1.707410 
# 
# From -- ./inp_files/24154.got.cif
#   From: 2010.03.12/outbox.cif.g09.slc.cpg/sg44_13_cif.got.tgz:24154.got - 2010.04.14 02:36:11.
