data_PCOD8189187
_publ_section_title
;
Structure prediction by ZEFSAII (Michael W. Deem and Ramdas Pophale) SiO2 
 PCOD8189187
Probable space group: I M M 2
;
_chemical_formula_sum "Si O2"
_cell_formula_units_Z 64
_cell_length_a 18.132092
_cell_length_b 9.394858
_cell_length_c 21.624999
_cell_angle_alpha 90.000000
_cell_angle_beta 90.000000
_cell_angle_gamma 90.000000
_cell_volume 3683.784619
_symmetry_space_group_name_H-M "I M M 2"
_symmetry_group_IT_number 44
_symmetry_cell_setting 'orthorhombic'
loop_
_space_group_symop_operation_xyz
x,y,z
-x,-y,z
-x,y,z
x,-y,z
1/2+x,1/2+y,1/2+z
1/2-x,1/2-y,1/2+z
1/2-x,1/2+y,1/2+z
1/2+x,1/2-y,1/2+z
loop_
_atom_site_type_symbol
_atom_site_label
_atom_site_fract_x
_atom_site_fract_y
_atom_site_fract_z
Si Si1 0.211324 0.334423 0.692690
Si Si2 0.081774 0.346295 0.196834
Si Si3 0.667716 0.663827 0.785551
Si Si4 0.916461 0.835756 0.641132
Si Si5 0.580654 0.161549 0.551515
Si Si6 0.416276 0.832977 0.886417
Si Si7 0.784573 0.839195 0.066680
Si Si8 0.875346 0.662839 0.523130
O O1 0.192001 0.500000 0.680571
O O2 0.248348 0.313311 0.760500
O O3 0.136350 0.243199 0.690498
O O4 0.264647 0.282107 0.636068
O O5 0.120013 0.500000 0.212726
O O6 0.119938 0.211405 0.227169
O O7 0.078654 0.324042 0.124557
O O8 0.000000 0.352035 0.224546
O O9 0.652310 0.500000 0.800819
O O10 0.645654 0.755201 0.845162
O O11 0.911607 0.763563 0.574057
O O12 0.000000 0.823012 0.665732
O O13 0.892255 0.000000 0.635271
O O14 0.500000 0.213336 0.525930
O O15 0.650497 0.254718 0.530683
O O16 0.593959 0.000000 0.529929
O O17 0.500000 0.791553 0.866911
O O18 0.402729 0.000000 0.878605
O O19 0.404326 0.785543 0.956896
O O20 0.713007 0.824136 0.023638
O O21 0.812401 0.000000 0.071780
O O22 0.899616 0.500000 0.536313
#
# Coordination Sequence:
#
# PCOD8189187 Si02
#       8
#     8   8   8   8   8   8   8   8
#     4   9  19  33  47  67  96 130 163 193 238 301
#     4   9  17  28  41  59  87 125 163 192 224 276
#     4  11  21  32  46  67  96 127 163 206 243 277
#     4  10  20  32  50  78 104 124 154 201 251 293
#     4   9  17  27  40  62  92 124 156 189 230 283
#     4  10  21  36  52  70  95 133 175 205 237 288
#     4   9  16  29  47  68  92 120 159 202 241 285
#     4   9  19  35  53  71  96 131 169 204 242 293
#
# _framework density 17.373436000000002
#
# number of rings (size 3 to 8) (size 9 to 14) (size 15 to 20)
#    0.000    2.500    1.250    3.000    0.000    7.250 
#    0.000    1.250    0.000    0.000    0.000    0.875 
#    0.000    1.000    0.000    0.000    0.000    0.000 
#
# Total GULP energy -396550.458706 kJ/mol
# GULP energy per Si atom -12392.201835 kJ/mol
# Density = 1.733389 g / cm^3
# Si number density = 17.373436 Si / 1000 Ang^3
#
#
#
# Elastic Constant Matrix: (Units=GPa)
#
#
# Indices 1 2 3 4 5 6 
#
# 1 92.8772 49.6401 21.6449 0.0000 0.0000 0.0000
# 2 49.6401 80.2599 27.1355 0.0000 0.0000 0.0000
# 3 21.6449 27.1355 56.5454 0.0000 0.0000 0.0000
# 4 0.0000 0.0000 0.0000 21.6740 0.0000 0.0000
# 5 0.0000 0.0000 0.0000 0.0000 18.5583 0.0000
# 6 0.0000 0.0000 0.0000 0.0000 0.0000 29.8977
#
#
#
# Elastic Compliance Matrix: (Units=1/GPa)
#
#
# Indices 1 2 3 4 5 6 
#
# 1 0.016214 -0.009465 -0.001664 0.000000 0.000000 0.000000
# 2 -0.009465 0.020398 -0.006166 0.000000 0.000000 0.000000
# 3 -0.001664 -0.006166 0.021281 0.000000 0.000000 0.000000
# 4 0.000000 0.000000 0.000000 0.046138 0.000000 0.000000
# 5 0.000000 0.000000 0.000000 0.000000 0.053884 0.000000
# 6 0.000000 0.000000 0.000000 0.000000 0.000000 0.033447
#
#
# Mechanical properties :
#
#
# Convention : Reuss Voigt Hill
#
# Bulk Modulus (GPa) = 42.91394 47.39151 45.15272
# Shear Modulus (GPa) = 21.39306 22.77680 22.08493
#
# Velocity S-wave (km/s) = 3.51289 3.62472 3.56924
# Velocity P-wave (km/s) = 6.41937 6.69742 6.55987
#
# Compressibility (1/GPa) = 0.02330245
#
# Stress axis : x y z
#
# Youngs Moduli (GPa) = 61.67619 49.02340 46.99082
#
# Poissons Ratio (x) = 0.46403 0.07820
# Poissons Ratio (y) = 0.58379 0.28973
# Poissons Ratio (z) = 0.10263 0.30226
#
# Static dielectric constant tensor:
#      x y z
#    x 3.440400 0.000000 0.000000 
#    y 0.000000 3.284680 0.000000 
#    z 0.000000 0.000000 2.891810 
# 
# 
# High freq. dielectric constant tensor:
#      x y z
#    x 1.670550 0.000000 0.000000 
#    y 0.000000 1.672480 0.000000 
#    z 0.000000 0.000000 1.624770 
# 
# From -- ./inp_files/25210.got.cif
#   From: 2010.03.12/outbox.cif.g09.slc.cpg/sg44_13_cif.got.tgz:25210.got - 2010.04.14 02:36:11.
