data_PCOD8189794
_publ_section_title
;
Structure prediction by ZEFSAII (Michael W. Deem and Ramdas Pophale) SiO2 
 PCOD8189794
Probable space group: I M M 2
;
_chemical_formula_sum "Si O2"
_cell_formula_units_Z 48
_cell_length_a 17.323895
_cell_length_b 14.244113
_cell_length_c 9.289032
_cell_angle_alpha 90.000000
_cell_angle_beta 90.000000
_cell_angle_gamma 90.000000
_cell_volume 2292.194215
_symmetry_space_group_name_H-M "I M M 2"
_symmetry_group_IT_number 44
_symmetry_cell_setting 'orthorhombic'
loop_
_space_group_symop_operation_xyz
x,y,z
-x,-y,z
-x,y,z
x,-y,z
1/2+x,1/2+y,1/2+z
1/2-x,1/2-y,1/2+z
1/2-x,1/2+y,1/2+z
1/2+x,1/2-y,1/2+z
loop_
_atom_site_type_symbol
_atom_site_label
_atom_site_fract_x
_atom_site_fract_y
_atom_site_fract_z
Si Si1 0.410074 0.804415 0.154860
Si Si2 0.826306 0.191350 0.875374
Si Si3 0.180941 0.700068 0.165313
Si Si4 0.908258 0.500000 0.749321
Si Si5 0.852832 0.000000 0.501246
Si Si6 0.591727 0.500000 0.323793
Si Si7 0.827299 0.500000 0.052985
Si Si8 0.408960 0.309941 0.889045
O O1 0.500000 0.804520 0.130513
O O2 0.392555 0.755865 0.306532
O O3 0.379378 0.910989 0.157654
O O4 0.372994 0.750247 0.020631
O O5 0.755823 0.189746 0.764115
O O6 0.864483 0.088833 0.894845
O O7 0.798426 0.239948 0.022739
O O8 0.148163 0.595430 0.135050
O O9 0.113762 0.758901 0.242119
O O10 0.000000 0.500000 0.775231
O O11 0.867798 0.500000 0.901260
O O12 0.901536 0.000000 0.649782
O O13 0.871389 0.088142 0.400810
O O14 0.763978 0.000000 0.538854
O O15 0.500000 0.500000 0.361852
O O16 0.500000 0.321098 0.895902
#
# Coordination Sequence:
#
# PCOD8189794 Si02
#       8
#     8   8   8   4   4   4   4   8
#     4  10  20  38  64  94 128 169 219 269 325 396
#     4  12  23  43  66  98 134 172 229 276 337 406
#     4  12  26  43  68  96 137 179 223 284 338 404
#     4  10  22  37  63 101 133 176 225 272 330 403
#     4  12  22  45  69  99 137 179 233 276 346 416
#     4  12  24  41  73 105 136 181 228 284 343 409
#     4  12  22  43  67  97 138 178 234 276 343 412
#     4  11  25  43  68 101 136 178 224 283 343 403
#
# _framework density 20.940633999999999
#
# number of rings (size 3 to 8) (size 9 to 14) (size 15 to 20)
#    0.000    0.667    5.000    3.250    0.000    3.333 
#    0.000    4.167    0.000    0.000    0.000    0.000 
#    0.000    0.000    0.000    0.000    0.000    0.000 
#
# Total GULP energy -297602.409573 kJ/mol
# GULP energy per Si atom -12400.100399 kJ/mol
# Density = 2.089297 g / cm^3
# Si number density = 20.940634 Si / 1000 Ang^3
#
#
#
# Elastic Constant Matrix: (Units=GPa)
#
#
# Indices 1 2 3 4 5 6 
#
# 1 200.5909 -226.5151 -158.5662 0.0000 0.0000 0.0000
# 2 -226.5151 588.7783 334.6957 0.0000 0.0000 0.0000
# 3 -158.5662 334.6957 296.3394 0.0000 0.0000 0.0000
# 4 0.0000 0.0000 0.0000 52.9518 0.0000 0.0000
# 5 0.0000 0.0000 0.0000 0.0000 34.0978 0.0000
# 6 0.0000 0.0000 0.0000 0.0000 0.0000 19.2260
#
#
#
# Elastic Compliance Matrix: (Units=1/GPa)
#
#
# Indices 1 2 3 4 5 6 
#
# 1 0.009517 0.002142 0.002674 0.000000 0.000000 0.000000
# 2 0.002142 0.005227 -0.004757 0.000000 0.000000 0.000000
# 3 0.002674 -0.004757 0.010178 0.000000 0.000000 0.000000
# 4 0.000000 0.000000 0.000000 0.018885 0.000000 0.000000
# 5 0.000000 0.000000 0.000000 0.000000 0.029327 0.000000
# 6 0.000000 0.000000 0.000000 0.000000 0.000000 0.052013
#
#
# Mechanical properties :
#
#
# Convention : Reuss Voigt Hill
#
# Bulk Modulus (GPa) = 39.93919 109.43749 74.68834
# Shear Modulus (GPa) = 37.48768 96.99473 67.24121
#
# Velocity S-wave (km/s) = 4.23565 6.81318 5.67275
# Velocity P-wave (km/s) = 6.56011 10.68957 8.86854
#
# Compressibility (1/GPa) = 0.02503806
#
# Stress axis : x y z
#
# Youngs Moduli (GPa) = 105.07337 191.32985 98.25009
#
# Poissons Ratio (x) = -0.40974 -0.26270
# Poissons Ratio (y) = -0.22502 0.46739
# Poissons Ratio (z) = -0.28094 0.91019
#
# Static dielectric constant tensor:
#      x y z
#    x 3.734270 0.000000 0.000000 
#    y 0.000000 4.432260 0.000000 
#    z 0.000000 0.000000 3.593210 
# 
# 
# High freq. dielectric constant tensor:
#      x y z
#    x 1.819890 0.000000 0.000000 
#    y 0.000000 1.844150 0.000000 
#    z 0.000000 0.000000 1.808570 
# 
# From -- ./inp_files/8159.got.cif
#   From: 2010.03.12/outbox.cif.g09.slc.cpg/sg44_5_cif.got.tgz:8159.got - 2010.04.14 02:36:11.
