data_PCOD8189883
_publ_section_title
;
Structure prediction by ZEFSAII (Michael W. Deem and Ramdas Pophale) SiO2 
 PCOD8189883
Probable space group: I M M 2
;
_chemical_formula_sum "Si O2"
_cell_formula_units_Z 56
_cell_length_a 9.448657
_cell_length_b 23.538267
_cell_length_c 13.634893
_cell_angle_alpha 90.000000
_cell_angle_beta 90.000000
_cell_angle_gamma 90.000000
_cell_volume 3032.468531
_symmetry_space_group_name_H-M "I M M 2"
_symmetry_group_IT_number 44
_symmetry_cell_setting 'orthorhombic'
loop_
_space_group_symop_operation_xyz
x,y,z
-x,-y,z
-x,y,z
x,-y,z
1/2+x,1/2+y,1/2+z
1/2-x,1/2-y,1/2+z
1/2-x,1/2+y,1/2+z
1/2+x,1/2-y,1/2+z
loop_
_atom_site_type_symbol
_atom_site_label
_atom_site_fract_x
_atom_site_fract_y
_atom_site_fract_z
Si Si1 0.336553 0.339246 0.626620
Si Si2 0.163420 0.630646 0.912790
Si Si3 0.837124 0.174034 0.906118
Si Si4 0.164062 0.564955 0.106022
Si Si5 0.663383 0.064261 0.218261
Si Si6 0.337288 0.436336 0.294298
Si Si7 0.333468 0.272022 0.818867
O O1 0.500000 0.356723 0.632419
O O2 0.298311 0.314738 0.519715
O O3 0.249189 0.396416 0.643986
O O4 0.300148 0.291280 0.707353
O O5 0.187951 0.583323 0.829979
O O6 0.263020 0.684489 0.895094
O O7 0.000000 0.650714 0.914316
O O8 0.210373 0.603822 0.015393
O O9 0.810005 0.107506 0.882834
O O10 0.736360 0.210858 0.836114
O O11 0.000000 0.190561 0.885056
O O12 0.199027 0.500000 0.078859
O O13 0.249764 0.584905 0.200731
O O14 0.000000 0.573006 0.130177
O O15 0.500000 0.069074 0.189067
O O16 0.718504 0.000000 0.207880
O O17 0.500000 0.436327 0.262352
O O18 0.290260 0.500000 0.327481
O O19 0.500000 0.268845 0.839212
#
# Coordination Sequence:
#
# PCOD8189883 Si02
#       7
#     8   8   8   8   8   8   8
#     4   9  20  37  54  74 101 133 170 210 250 299
#     4   9  17  31  51  74 104 141 175 206 247 302
#     4  10  21  38  58  76  98 134 172 202 246 307
#     4   9  17  30  50  76 105 138 174 210 250 297
#     4   9  17  30  50  77 107 137 170 209 252 298
#     4   9  19  35  53  75 103 133 168 210 251 295
#     4  10  21  36  53  76 104 130 165 214 258 295
#
# _framework density 18.466804
#
# number of rings (size 3 to 8) (size 9 to 14) (size 15 to 20)
#    0.000    2.714    0.000    0.857    0.000    6.000 
#    0.000    5.714    0.000    4.286    0.000    0.000 
#    0.000    0.000    0.000    0.000    0.000    0.000 
#
# Total GULP energy -347232.743233 kJ/mol
# GULP energy per Si atom -12401.169401 kJ/mol
# Density = 1.842477 g / cm^3
# Si number density = 18.466804 Si / 1000 Ang^3
#
#
#
# Elastic Constant Matrix: (Units=GPa)
#
#
# Indices 1 2 3 4 5 6 
#
# 1 66.7950 50.3800 44.6968 0.0000 0.0000 0.0000
# 2 50.3800 109.7095 51.8563 0.0000 0.0000 0.0000
# 3 44.6968 51.8563 103.1106 0.0001 0.0000 0.0000
# 4 0.0000 0.0000 0.0001 24.2055 0.0000 0.0000
# 5 0.0000 0.0000 0.0000 0.0000 28.1754 0.0000
# 6 0.0000 0.0000 0.0000 0.0000 0.0000 31.5661
#
#
#
# Elastic Compliance Matrix: (Units=1/GPa)
#
#
# Indices 1 2 3 4 5 6 
#
# 1 0.026239 -0.008754 -0.006972 0.000000 0.000000 0.000000
# 2 -0.008754 0.014878 -0.003688 0.000000 0.000000 0.000000
# 3 -0.006972 -0.003688 0.014575 0.000000 0.000000 0.000000
# 4 0.000000 0.000000 0.000000 0.041313 0.000000 0.000000
# 5 0.000000 0.000000 0.000000 0.000000 0.035492 0.000000
# 6 0.000000 0.000000 0.000000 0.000000 0.000000 0.031680
#
#
# Mechanical properties :
#
#
# Convention : Reuss Voigt Hill
#
# Bulk Modulus (GPa) = 59.29317 63.72015 61.50666
# Shear Modulus (GPa) = 23.96645 25.63487 24.80066
#
# Velocity S-wave (km/s) = 3.60642 3.72984 3.66865
# Velocity P-wave (km/s) = 7.03700 7.28897 7.16410
#
# Compressibility (1/GPa) = 0.01686535
#
# Stress axis : x y z
#
# Youngs Moduli (GPa) = 38.11116 67.21330 68.61052
#
# Poissons Ratio (x) = 0.58839 0.47833
# Poissons Ratio (y) = 0.33363 0.25302
# Poissons Ratio (z) = 0.26570 0.24786
#
# Static dielectric constant tensor:
#      x y z
#    x 3.378460 0.000000 0.000000 
#    y 0.000000 3.396560 0.000000 
#    z 0.000000 0.000000 3.368000 
# 
# 
# High freq. dielectric constant tensor:
#      x y z
#    x 1.711990 0.000000 0.000000 
#    y 0.000000 1.715530 0.000000 
#    z 0.000000 0.000000 1.709990 
# 
# From -- ./inp_files/16477.got.cif
#   From: 2010.03.12/outbox.cif.g09.slc.cpg/sg44_9_cif.got.tgz:16477.got - 2010.04.14 02:36:11.
