data_PCOD8189711
_publ_section_title
;
Structure prediction by ZEFSAII (Michael W. Deem and Ramdas Pophale) SiO2 
 PCOD8189711
Probable space group: I M M 2
;
_chemical_formula_sum "Si O2"
_cell_formula_units_Z 36
_cell_length_a 10.949823
_cell_length_b 22.863110
_cell_length_c 7.580682
_cell_angle_alpha 90.000000
_cell_angle_beta 90.000000
_cell_angle_gamma 90.000000
_cell_volume 1897.801055
_symmetry_space_group_name_H-M "I M M 2"
_symmetry_group_IT_number 44
_symmetry_cell_setting 'orthorhombic'
loop_
_space_group_symop_operation_xyz
x,y,z
-x,-y,z
-x,y,z
x,-y,z
1/2+x,1/2+y,1/2+z
1/2-x,1/2-y,1/2+z
1/2-x,1/2+y,1/2+z
1/2+x,1/2-y,1/2+z
loop_
_atom_site_type_symbol
_atom_site_label
_atom_site_fract_x
_atom_site_fract_y
_atom_site_fract_z
Si Si1 0.500000 0.000000 0.306510
Si Si2 0.258999 0.826301 0.472303
Si Si3 0.142334 0.792033 0.833661
Si Si4 0.000000 0.500000 0.306070
Si Si5 0.000000 0.393885 0.052087
Si Si6 0.278972 0.000000 0.060329
Si Si7 0.643657 0.383290 0.636941
O O1 0.500000 0.063086 0.390246
O O2 0.630555 0.000000 0.221148
O O3 0.170869 0.817519 0.639945
O O4 0.280519 0.766172 0.368167
O O5 0.383182 0.852193 0.551083
O O6 0.199174 0.869467 0.329255
O O7 0.000000 0.776917 0.841505
O O8 0.179882 0.836296 0.988781
O O9 0.000000 0.562626 0.215252
O O10 0.869257 0.500000 0.396353
O O11 0.192395 0.944164 0.062854
O O12 0.500000 0.387606 0.661529
#
# Coordination Sequence:
#
# PCOD8189711 Si02
#       7
#     2   8   8   2   4   4   8
#     4  10  20  36  64  84 124 152 204 260 302 368
#     4  12  22  40  65  93 129 169 210 260 316 381
#     4  11  24  41  61  93 129 164 212 261 315 379
#     4  10  24  40  66  98 126 164 214 274 324 372
#     4  11  22  40  62  96 126 165 210 261 318 374
#     4  11  21  42  63  91 122 165 211 260 318 383
#     4  11  24  42  64  93 128 169 212 260 320 384
#
# _framework density 18.969321000000001
#
# number of rings (size 3 to 8) (size 9 to 14) (size 15 to 20)
#    0.000    0.889    5.556    2.333    0.000    0.000 
#    2.000    0.000    0.000    2.667    0.000    0.000 
#    0.000    0.000    0.000    0.000    0.000    0.000 
#
# Total GULP energy -223106.904067 kJ/mol
# GULP energy per Si atom -12394.828004 kJ/mol
# Density = 1.892615 g / cm^3
# Si number density = 18.969321 Si / 1000 Ang^3
#
#
#
# Elastic Constant Matrix: (Units=GPa)
#
#
# Indices 1 2 3 4 5 6 
#
# 1 83.2064 45.6211 35.3061 -0.0030 0.0006 0.0012
# 2 45.6211 110.4076 34.0189 -0.0025 0.0005 0.0006
# 3 35.3061 34.0189 118.5712 -0.0064 0.0029 0.0039
# 4 -0.0030 -0.0025 -0.0064 29.1080 0.0011 0.0000
# 5 0.0006 0.0005 0.0029 0.0011 37.0775 -0.0006
# 6 0.0012 0.0006 0.0039 0.0000 -0.0006 35.2035
#
#
#
# Elastic Compliance Matrix: (Units=1/GPa)
#
#
# Indices 1 2 3 4 5 6 
#
# 1 0.016617 -0.005860 -0.003267 0.000001 0.000000 0.000000
# 2 -0.005860 0.012002 -0.001699 0.000000 0.000000 0.000000
# 3 -0.003267 -0.001699 0.009894 0.000002 -0.000001 -0.000001
# 4 0.000001 0.000000 0.000002 0.034355 -0.000001 0.000000
# 5 0.000000 0.000000 -0.000001 -0.000001 0.026971 0.000000
# 6 0.000000 0.000000 -0.000001 0.000000 0.000000 0.028406
#
#
# Mechanical properties :
#
#
# Convention : Reuss Voigt Hill
#
# Bulk Modulus (GPa) = 59.30245 60.23083 59.76664
# Shear Modulus (GPa) = 32.15098 33.42708 32.78903
#
# Velocity S-wave (km/s) = 4.12138 4.20237 4.16207
# Velocity P-wave (km/s) = 7.34696 7.44091 7.39409
#
# Compressibility (1/GPa) = 0.01686271
#
# Stress axis : x y z
#
# Youngs Moduli (GPa) = 60.17806 83.31907 101.07302
#
# Poissons Ratio (x) = 0.48823 0.33019
# Poissons Ratio (y) = 0.35263 0.17169
# Poissons Ratio (z) = 0.19659 0.14153
#
# Static dielectric constant tensor:
#      x y z
#    x 3.455010 0.000000 0.000000 
#    y 0.000000 3.601830 -0.000010 
#    z 0.000000 -0.000010 3.539540 
# 
# 
# High freq. dielectric constant tensor:
#      x y z
#    x 1.748050 0.000000 0.000000 
#    y 0.000000 1.751420 0.000000 
#    z 0.000000 0.000000 1.744810 
# 
# From -- ./inp_files/5803.got.cif
#   From: 2010.03.12/outbox.cif.g09.slc.cpg/sg44_3_cif.got.tgz:5803.got - 2010.04.14 02:36:11.
