data_PCOD8189404
_publ_section_title
;
Structure prediction by ZEFSAII (Michael W. Deem and Ramdas Pophale) SiO2 
 PCOD8189404
Probable space group: I M M 2
;
_chemical_formula_sum "Si O2"
_cell_formula_units_Z 48
_cell_length_a 9.083705
_cell_length_b 8.956872
_cell_length_c 30.936006
_cell_angle_alpha 90.000000
_cell_angle_beta 90.000000
_cell_angle_gamma 90.000000
_cell_volume 2517.002419
_symmetry_space_group_name_H-M "I M M 2"
_symmetry_group_IT_number 44
_symmetry_cell_setting 'orthorhombic'
loop_
_space_group_symop_operation_xyz
x,y,z
-x,-y,z
-x,y,z
x,-y,z
1/2+x,1/2+y,1/2+z
1/2-x,1/2-y,1/2+z
1/2-x,1/2+y,1/2+z
1/2+x,1/2-y,1/2+z
loop_
_atom_site_type_symbol
_atom_site_label
_atom_site_fract_x
_atom_site_fract_y
_atom_site_fract_z
Si Si1 0.165821 0.822293 0.980520
Si Si2 0.830651 0.675496 0.815580
Si Si3 0.329195 0.671647 0.649063
Si Si4 0.168971 0.324329 0.237538
Si Si5 0.327561 0.826492 0.894546
Si Si6 0.334091 0.177905 0.064071
O O1 0.251272 0.766739 0.938080
O O2 0.000000 0.759738 0.979066
O O3 0.166482 0.000000 0.982169
O O4 0.245952 0.757166 0.022961
O O5 0.809993 0.500000 0.811608
O O6 0.776002 0.748122 0.771467
O O7 0.733464 0.733633 0.854811
O O8 0.000000 0.720282 0.823316
O O9 0.500000 0.688724 0.637661
O O10 0.288671 0.500000 0.658917
O O11 0.283852 0.769327 0.690208
O O12 0.239860 0.735128 0.608200
O O13 0.190229 0.500000 0.240282
O O14 0.000000 0.278549 0.247304
O O15 0.500000 0.798214 0.899095
O O16 0.292144 0.000000 0.886416
O O17 0.500000 0.238636 0.061917
O O18 0.330065 0.000000 0.062841
#
# Coordination Sequence:
#
# PCOD8189404 Si02
#       6
#     8   8   8   8   8   8
#     4   9  16  27  46  73 105 139 173 211 257 307
#     4  11  24  39  55  77 105 137 174 215 260 312
#     4   9  17  30  49  73 102 136 172 211 258 310
#     4  10  21  37  57  80 105 135 173 216 263 315
#     4  10  20  34  54  80 108 138 174 216 262 311
#     4   9  16  26  43  70 103 136 172 215 258 301
#
# _framework density 19.070304
#
# number of rings (size 3 to 8) (size 9 to 14) (size 15 to 20)
#    0.000    2.333    0.000    3.000    0.000   10.000 
#    0.000    1.667    0.000    1.000    0.000    2.333 
#    0.000    0.000    0.000    0.000    0.000    0.000 
#
# Total GULP energy -297663.926769 kJ/mol
# GULP energy per Si atom -12402.663615 kJ/mol
# Density = 1.902690 g / cm^3
# Si number density = 19.070304 Si / 1000 Ang^3
#
#
#
# Elastic Constant Matrix: (Units=GPa)
#
#
# Indices 1 2 3 4 5 6 
#
# 1 117.4498 34.0856 78.2094 0.0000 0.0000 0.0000
# 2 34.0856 40.7518 34.3324 0.0000 0.0000 0.0000
# 3 78.2094 34.3324 152.5297 0.0000 0.0000 0.0000
# 4 0.0000 0.0000 0.0000 24.5753 0.0000 0.0000
# 5 0.0000 0.0000 0.0000 0.0000 44.5437 0.0000
# 6 0.0000 0.0000 0.0000 0.0000 0.0000 18.5133
#
#
#
# Elastic Compliance Matrix: (Units=1/GPa)
#
#
# Indices 1 2 3 4 5 6 
#
# 1 0.014467 -0.007220 -0.005793 0.000000 0.000000 0.000000
# 2 -0.007220 0.033884 -0.003925 0.000000 0.000000 0.000000
# 3 -0.005793 -0.003925 0.010410 0.000000 0.000000 0.000000
# 4 0.000000 0.000000 0.000000 0.040691 0.000000 0.000000
# 5 0.000000 0.000000 0.000000 0.000000 0.022450 0.000000
# 6 0.000000 0.000000 0.000000 0.000000 0.000000 0.054015
#
#
# Mechanical properties :
#
#
# Convention : Reuss Voigt Hill
#
# Bulk Modulus (GPa) = 40.18372 67.10956 53.64664
# Shear Modulus (GPa) = 22.92645 28.46671 25.69658
#
# Velocity S-wave (km/s) = 3.47105 3.86777 3.67477
# Velocity P-wave (km/s) = 6.09765 7.43056 6.79686
#
# Compressibility (1/GPa) = 0.02488570
#
# Stress axis : x y z
#
# Youngs Moduli (GPa) = 69.12229 29.51202 96.06360
#
# Poissons Ratio (x) = 0.21308 0.55648
# Poissons Ratio (y) = 0.49908 0.37703
# Poissons Ratio (z) = 0.40041 0.11583
#
# Static dielectric constant tensor:
#      x y z
#    x 3.645400 0.000000 0.000000 
#    y 0.000000 3.109000 0.000000 
#    z 0.000000 0.000000 3.674980 
# 
# 
# High freq. dielectric constant tensor:
#      x y z
#    x 1.750810 0.000000 0.000000 
#    y 0.000000 1.699310 0.000000 
#    z 0.000000 0.000000 1.759280 
# 
# From -- ./inp_files/26854.got.cif
#   From: 2010.03.12/outbox.cif.g09.slc.cpg/sg44_14_cif.got.tgz:26854.got - 2010.04.14 02:36:11.
