data_PCOD8189805
_publ_section_title
;
Structure prediction by ZEFSAII (Michael W. Deem and Ramdas Pophale) SiO2 
 PCOD8189805
Probable space group: I M M 2
;
_chemical_formula_sum "Si O2"
_cell_formula_units_Z 48
_cell_length_a 18.391252
_cell_length_b 8.581220
_cell_length_c 15.032067
_cell_angle_alpha 90.000000
_cell_angle_beta 90.000000
_cell_angle_gamma 90.000000
_cell_volume 2372.351486
_symmetry_space_group_name_H-M "I M M 2"
_symmetry_group_IT_number 44
_symmetry_cell_setting 'orthorhombic'
loop_
_space_group_symop_operation_xyz
x,y,z
-x,-y,z
-x,y,z
x,-y,z
1/2+x,1/2+y,1/2+z
1/2-x,1/2-y,1/2+z
1/2-x,1/2+y,1/2+z
1/2+x,1/2-y,1/2+z
loop_
_atom_site_type_symbol
_atom_site_label
_atom_site_fract_x
_atom_site_fract_y
_atom_site_fract_z
Si Si1 0.000000 0.824981 0.783641
Si Si2 0.766383 0.681124 0.996008
Si Si3 0.617366 0.818759 0.958551
Si Si4 0.844726 0.815658 0.836166
Si Si5 0.079586 0.820948 0.280650
Si Si6 0.000000 0.176105 0.574232
Si Si7 0.278674 0.815092 0.698713
O O1 0.924968 0.743065 0.816151
O O2 0.000000 0.826323 0.678576
O O3 0.000000 0.000000 0.821647
O O4 0.784366 0.500000 0.990732
O O5 0.689873 0.718003 0.951248
O O6 0.826569 0.770569 0.937627
O O7 0.762437 0.738692 0.097957
O O8 0.573141 0.781391 0.869821
O O9 0.636971 0.000000 0.964929
O O10 0.571521 0.767601 0.043912
O O11 0.784283 0.751051 0.765491
O O12 0.847408 0.000000 0.824561
O O13 0.142813 0.756561 0.218441
O O14 0.000000 0.805385 0.233549
O O15 0.095800 0.000000 0.304771
O O16 0.000000 0.000000 0.535493
O O17 0.283803 0.000000 0.707474
#
# Coordination Sequence:
#
# PCOD8189805 Si02
#       7
#     4   8   8   8   8   4   8
#     4   9  20  39  63  88 121 164 203 247 306 364
#     4  11  23  40  62  90 121 162 207 255 307 363
#     4  12  23  36  58  89 124 161 198 247 307 369
#     4  10  20  39  64  89 119 161 208 254 303 365
#     4  11  23  39  61  89 122 159 201 251 306 364
#     4  11  21  37  61  90 121 158 201 253 310 372
#     4  10  22  40  63  89 121 161 208 254 308 369
#
# _framework density 20.233090000000001
#
# number of rings (size 3 to 8) (size 9 to 14) (size 15 to 20)
#    0.000    1.333    2.500    3.750    0.000    5.000 
#    1.500    3.750    0.000    0.000    0.000    0.000 
#    0.000    0.000    0.000    0.000    0.000    0.000 
#
# Total GULP energy -297575.266658 kJ/mol
# GULP energy per Si atom -12398.969444 kJ/mol
# Density = 2.018704 g / cm^3
# Si number density = 20.233090 Si / 1000 Ang^3
#
#
#
# Elastic Constant Matrix: (Units=GPa)
#
#
# Indices 1 2 3 4 5 6 
#
# 1 159.9046 24.2443 50.3925 0.0000 0.0000 0.0000
# 2 24.2443 34.2219 26.2015 0.0000 0.0000 0.0000
# 3 50.3925 26.2015 93.8052 0.0000 0.0000 0.0000
# 4 0.0000 0.0000 0.0000 31.0509 0.0000 0.0000
# 5 0.0000 0.0000 0.0000 0.0000 -42.9549 0.0000
# 6 0.0000 0.0000 0.0000 0.0000 0.0000 25.5798
#
#
#
# Elastic Compliance Matrix: (Units=1/GPa)
#
#
# Indices 1 2 3 4 5 6 
#
# 1 0.007753 -0.002930 -0.003346 0.000000 0.000000 0.000000
# 2 -0.002930 0.038278 -0.009117 0.000000 0.000000 0.000000
# 3 -0.003346 -0.009117 0.015005 0.000000 0.000000 0.000000
# 4 0.000000 0.000000 0.000000 0.032205 0.000000 0.000000
# 5 0.000000 0.000000 0.000000 0.000000 -0.023280 0.000000
# 6 0.000000 0.000000 0.000000 0.000000 0.000000 0.039093
#
#
# Mechanical properties :
#
#
# Convention : Reuss Voigt Hill
#
# Bulk Modulus (GPa) = 33.06120 54.40092 43.73106
# Shear Modulus (GPa) = 33.35035 15.20805 24.27920
#
# Velocity S-wave (km/s) = 4.06434 2.74458 3.46782
# Velocity P-wave (km/s) = 6.19684 6.08187 6.13962
#
# Compressibility (1/GPa) = 0.03024693
#
# Stress axis : x y z
#
# Youngs Moduli (GPa) = 128.99004 26.12490 66.64596
#
# Poissons Ratio (x) = 0.07655 0.22301
# Poissons Ratio (y) = 0.37798 0.60764
# Poissons Ratio (z) = 0.43163 0.23819
#
# Static dielectric constant tensor:
#      x y z
#    x 4.051330 0.000000 0.000000 
#    y 0.000000 3.539080 0.000000 
#    z 0.000000 0.000000 3.611740 
# 
# 
# High freq. dielectric constant tensor:
#      x y z
#    x 1.804020 0.000000 0.000000 
#    y 0.000000 1.775310 0.000000 
#    z 0.000000 0.000000 1.781250 
# 
# From -- ./inp_files/16128.got.cif
#   From: 2010.03.12/outbox.cif.g09.slc.cpg/sg44_9_cif.got.tgz:16128.got - 2010.04.14 02:36:11.
