data_PCOD8189434
_publ_section_title
;
Structure prediction by ZEFSAII (Michael W. Deem and Ramdas Pophale) SiO2 
 PCOD8189434
Probable space group: I M M 2
;
_chemical_formula_sum "Si O2"
_cell_formula_units_Z 48
_cell_length_a 9.035925
_cell_length_b 9.195271
_cell_length_c 30.759592
_cell_angle_alpha 90.000000
_cell_angle_beta 90.000000
_cell_angle_gamma 90.000000
_cell_volume 2555.746186
_symmetry_space_group_name_H-M "I M M 2"
_symmetry_group_IT_number 44
_symmetry_cell_setting 'orthorhombic'
loop_
_space_group_symop_operation_xyz
x,y,z
-x,-y,z
-x,y,z
x,-y,z
1/2+x,1/2+y,1/2+z
1/2-x,1/2-y,1/2+z
1/2-x,1/2+y,1/2+z
1/2+x,1/2-y,1/2+z
loop_
_atom_site_type_symbol
_atom_site_label
_atom_site_fract_x
_atom_site_fract_y
_atom_site_fract_z
Si Si1 0.330048 0.328211 0.581060
Si Si2 0.329811 0.170434 0.900153
Si Si3 0.670485 0.168650 0.324466
Si Si4 0.325638 0.332228 0.736805
Si Si5 0.163731 0.327611 0.496740
Si Si6 0.827418 0.829938 0.658712
O O1 0.500000 0.284067 0.587875
O O2 0.307042 0.500000 0.587008
O O3 0.280106 0.275660 0.533067
O O4 0.229329 0.246720 0.615449
O O5 0.500000 0.209801 0.889860
O O6 0.221673 0.248409 0.867087
O O7 0.287835 0.225958 0.948757
O O8 0.302887 0.000000 0.895748
O O9 0.500000 0.203698 0.315255
O O10 0.763007 0.222161 0.282866
O O11 0.698964 0.000000 0.332965
O O12 0.500000 0.310579 0.736834
O O13 0.281858 0.500000 0.728175
O O14 0.257166 0.233040 0.699856
O O15 0.155534 0.500000 0.495444
O O16 0.000000 0.266510 0.508183
O O17 0.000000 0.796928 0.664097
O O18 0.793863 0.000000 0.655281
#
# Coordination Sequence:
#
# PCOD8189434 Si02
#       6
#     8   8   8   8   8   8
#     4  10  20  34  55  82 108 137 176 218 261 311
#     4   9  18  33  54  80 108 139 177 219 263 311
#     4  10  21  36  54  78 108 141 177 216 259 309
#     4  10  21  38  60  82 103 133 175 218 261 312
#     4   8  15  30  52  77 105 138 177 219 260 305
#     4  11  24  39  55  78 108 140 174 213 260 313
#
# _framework density 18.781207999999999
#
# number of rings (size 3 to 8) (size 9 to 14) (size 15 to 20)
#    0.000    2.333    0.000    3.500    0.000    8.000 
#    0.000    2.500    0.000    1.000    0.000    0.000 
#    0.000    0.000    0.000    0.000    0.000    0.000 
#
# Total GULP energy -297619.699633 kJ/mol
# GULP energy per Si atom -12400.820818 kJ/mol
# Density = 1.873846 g / cm^3
# Si number density = 18.781208 Si / 1000 Ang^3
#
#
#
# Elastic Constant Matrix: (Units=GPa)
#
#
# Indices 1 2 3 4 5 6 
#
# 1 87.5370 38.5574 54.1675 0.0000 0.0000 0.0000
# 2 38.5574 44.1344 42.3296 0.0000 0.0000 0.0000
# 3 54.1675 42.3296 135.9699 0.0000 0.0000 0.0000
# 4 0.0000 0.0000 0.0000 27.9953 0.0000 0.0000
# 5 0.0000 0.0000 0.0000 0.0000 42.1937 0.0000
# 6 0.0000 0.0000 0.0000 0.0000 0.0000 28.2097
#
#
#
# Elastic Compliance Matrix: (Units=1/GPa)
#
#
# Indices 1 2 3 4 5 6 
#
# 1 0.019703 -0.013808 -0.003551 0.000000 0.000000 0.000000
# 2 -0.013808 0.041980 -0.007568 0.000000 0.000000 0.000000
# 3 -0.003551 -0.007568 0.011125 0.000000 0.000000 0.000000
# 4 0.000000 0.000000 0.000000 0.035720 0.000000 0.000000
# 5 0.000000 0.000000 0.000000 0.000000 0.023700 0.000000
# 6 0.000000 0.000000 0.000000 0.000000 0.000000 0.035449
#
#
# Mechanical properties :
#
#
# Convention : Reuss Voigt Hill
#
# Bulk Modulus (GPa) = 43.56428 59.75004 51.65716
# Shear Modulus (GPa) = 22.20432 28.51886 25.36159
#
# Velocity S-wave (km/s) = 3.44213 3.90099 3.67873
# Velocity P-wave (km/s) = 6.24850 7.22310 6.75340
#
# Compressibility (1/GPa) = 0.02295459
#
# Stress axis : x y z
#
# Youngs Moduli (GPa) = 50.75450 23.82103 89.88607
#
# Poissons Ratio (x) = 0.32891 0.31915
# Poissons Ratio (y) = 0.70080 0.68029
# Poissons Ratio (z) = 0.18021 0.18028
#
# Static dielectric constant tensor:
#      x y z
#    x 3.535780 0.000000 0.000000 
#    y 0.000000 3.218180 0.000000 
#    z 0.000000 0.000000 3.772710 
# 
# 
# High freq. dielectric constant tensor:
#      x y z
#    x 1.737540 0.000000 0.000000 
#    y 0.000000 1.702930 0.000000 
#    z 0.000000 0.000000 1.746210 
# 
# From -- ./inp_files/26851.got.cif
#   From: 2010.03.12/outbox.cif.g09.slc.cpg/sg44_14_cif.got.tgz:26851.got - 2010.04.14 02:36:11.
