data_PCOD8189428
_publ_section_title
;
Structure prediction by ZEFSAII (Michael W. Deem and Ramdas Pophale) SiO2 
 PCOD8189428
Probable space group: I M M 2
;
_chemical_formula_sum "Si O2"
_cell_formula_units_Z 40
_cell_length_a 13.512972
_cell_length_b 8.552684
_cell_length_c 18.469117
_cell_angle_alpha 90.000000
_cell_angle_beta 90.000000
_cell_angle_gamma 90.000000
_cell_volume 2134.516104
_symmetry_space_group_name_H-M "I M M 2"
_symmetry_group_IT_number 44
_symmetry_cell_setting 'orthorhombic'
loop_
_space_group_symop_operation_xyz
x,y,z
-x,-y,z
-x,y,z
x,-y,z
1/2+x,1/2+y,1/2+z
1/2-x,1/2-y,1/2+z
1/2-x,1/2+y,1/2+z
1/2+x,1/2-y,1/2+z
loop_
_atom_site_type_symbol
_atom_site_label
_atom_site_fract_x
_atom_site_fract_y
_atom_site_fract_z
Si Si1 0.700757 0.681049 0.115410
Si Si2 0.888097 0.182843 0.178364
Si Si3 0.384710 0.818100 0.973005
Si Si4 0.887918 0.317331 0.755496
Si Si5 0.700677 0.182433 0.819273
O O1 0.685675 0.500000 0.133094
O O2 0.816344 0.724498 0.123843
O O3 0.635544 0.779620 0.171897
O O4 0.665767 0.716454 0.034896
O O5 0.863682 0.222503 0.261437
O O6 0.000000 0.233437 0.160698
O O7 0.872085 0.000000 0.166147
O O8 0.500000 0.778064 0.968388
O O9 0.333475 0.766105 0.898558
O O10 0.366758 0.000000 0.989250
O O11 0.870807 0.500000 0.768112
O O12 0.816678 0.221501 0.809289
O O13 0.000000 0.268151 0.773217
O O14 0.681673 0.000000 0.806349
#
# Coordination Sequence:
#
# PCOD8189428 Si02
#       5
#     8   8   8   8   8
#     4  11  22  34  53  80 107 136 174 219 261 305
#     4  10  20  35  56  79 105 139 175 212 257 309
#     4  10  21  37  55  76 106 141 173 210 260 313
#     4  10  20  35  55  77 105 141 176 213 259 309
#     4  10  20  34  55  81 107 136 173 216 259 307
#
# _framework density 18.739609999999999
#
# number of rings (size 3 to 8) (size 9 to 14) (size 15 to 20)
#    0.000    1.800    0.000    7.200    0.000    8.400 
#    0.000    1.000    0.000    1.200    0.000    0.000 
#    0.000    0.000    0.000    0.000    0.000    0.000 
#
# Total GULP energy -248076.348022 kJ/mol
# GULP energy per Si atom -12403.817401 kJ/mol
# Density = 1.869696 g / cm^3
# Si number density = 18.739610 Si / 1000 Ang^3
#
#
#
# Elastic Constant Matrix: (Units=GPa)
#
#
# Indices 1 2 3 4 5 6 
#
# 1 127.0733 26.6929 52.9188 0.0000 0.0000 0.0000
# 2 26.6929 41.8243 13.9729 0.0000 0.0000 0.0000
# 3 52.9188 13.9729 103.0624 0.0000 0.0000 0.0000
# 4 0.0000 0.0000 0.0000 31.0954 0.0000 0.0000
# 5 0.0000 0.0000 0.0000 0.0000 20.9422 0.0000
# 6 0.0000 0.0000 0.0000 0.0000 0.0000 27.0276
#
#
#
# Elastic Compliance Matrix: (Units=1/GPa)
#
#
# Indices 1 2 3 4 5 6 
#
# 1 0.011067 -0.005410 -0.004949 0.000000 0.000000 0.000000
# 2 -0.005410 0.027688 -0.000976 0.000000 0.000000 0.000000
# 3 -0.004949 -0.000976 0.012376 0.000000 0.000000 0.000000
# 4 0.000000 0.000000 0.000000 0.032159 0.000000 0.000000
# 5 0.000000 0.000000 0.000000 0.000000 0.047750 0.000000
# 6 0.000000 0.000000 0.000000 0.000000 0.000000 0.036999
#
#
# Mechanical properties :
#
#
# Convention : Reuss Voigt Hill
#
# Bulk Modulus (GPa) = 35.13500 51.01437 43.07468
# Shear Modulus (GPa) = 24.97541 27.70473 26.34007
#
# Velocity S-wave (km/s) = 3.65466 3.84917 3.75318
# Velocity P-wave (km/s) = 6.04967 6.85833 6.46665
#
# Compressibility (1/GPa) = 0.02846165
#
# Stress axis : x y z
#
# Youngs Moduli (GPa) = 90.36054 36.11647 80.79937
#
# Poissons Ratio (x) = 0.19538 0.39987
# Poissons Ratio (y) = 0.48881 0.07888
# Poissons Ratio (z) = 0.44719 0.03526
#
# Static dielectric constant tensor:
#      x y z
#    x 3.635790 0.000000 0.000000 
#    y 0.000000 3.452520 0.000000 
#    z 0.000000 0.000000 3.277980 
# 
# 
# High freq. dielectric constant tensor:
#      x y z
#    x 1.737560 0.000000 0.000000 
#    y 0.000000 1.736020 0.000000 
#    z 0.000000 0.000000 1.711780 
# 
# From -- ./inp_files/20172.got.cif
#   From: 2010.03.12/outbox.cif.g09.slc.cpg/sg44_11_cif.got.tgz:20172.got - 2010.04.14 02:36:11.
