data_PCOD8189570
_publ_section_title
;
Structure prediction by ZEFSAII (Michael W. Deem and Ramdas Pophale) SiO2 
 PCOD8189570
Probable space group: I M M 2
;
_chemical_formula_sum "Si O2"
_cell_formula_units_Z 64
_cell_length_a 8.895815
_cell_length_b 28.622630
_cell_length_c 12.778819
_cell_angle_alpha 90.000000
_cell_angle_beta 90.000000
_cell_angle_gamma 90.000000
_cell_volume 3253.763612
_symmetry_space_group_name_H-M "I M M 2"
_symmetry_group_IT_number 44
_symmetry_cell_setting 'orthorhombic'
loop_
_space_group_symop_operation_xyz
x,y,z
-x,-y,z
-x,y,z
x,-y,z
1/2+x,1/2+y,1/2+z
1/2-x,1/2-y,1/2+z
1/2-x,1/2+y,1/2+z
1/2+x,1/2-y,1/2+z
loop_
_atom_site_type_symbol
_atom_site_label
_atom_site_fract_x
_atom_site_fract_y
_atom_site_fract_z
Si Si1 0.176561 0.606981 0.857530
Si Si2 0.334904 0.177626 0.672584
Si Si3 0.321931 0.446131 0.664256
Si Si4 0.168451 0.051843 0.536299
Si Si5 0.334895 0.072200 0.735301
Si Si6 0.820645 0.701415 0.390960
Si Si7 0.177996 0.399463 0.462719
Si Si8 0.177956 0.702719 0.951573
O O1 0.263172 0.584173 0.761218
O O2 0.217053 0.662420 0.866261
O O3 0.000000 0.599747 0.840432
O O4 0.221099 0.583180 0.967064
O O5 0.500000 0.200409 0.663499
O O6 0.351213 0.123425 0.690831
O O7 0.251528 0.199663 0.773191
O O8 0.252414 0.186547 0.563082
O O9 0.500000 0.443213 0.664254
O O10 0.267889 0.500000 0.674285
O O11 0.261990 0.424298 0.557219
O O12 0.221195 0.046398 0.657226
O O13 0.000000 0.072973 0.533619
O O14 0.167650 0.000000 0.487276
O O15 0.500000 0.048148 0.732652
O O16 0.276022 0.073679 0.855338
O O17 0.771697 0.655171 0.455989
O O18 0.758032 0.748348 0.437894
O O19 0.000000 0.702035 0.385763
O O20 0.000000 0.402866 0.480609
O O21 0.000000 0.709829 0.952959
#
# Coordination Sequence:
#
# PCOD8189570 Si02
#       8
#     8   8   8   8   8   8   8   8
#     4  11  23  40  62  85 113 152 202 254 299 356
#     4   8  15  33  55  74 105 145 181 227 284 335
#     4  11  25  43  62  86 121 163 205 254 312 372
#     4  11  23  36  53  83 120 150 182 233 296 357
#     4   9  17  35  60  82 107 146 192 236 285 342
#     4   9  19  35  57  85 116 152 194 242 295 350
#     4   9  20  39  63  88 118 155 201 251 295 351
#     4  10  20  35  57  84 114 149 194 245 297 353
#
# _framework density 19.669530000000002
#
# number of rings (size 3 to 8) (size 9 to 14) (size 15 to 20)
#    0.000    2.250    1.250    3.000    0.000    7.000 
#    0.000    7.500    0.000    0.000    0.000    0.000 
#    0.000    0.000    0.000    0.000    0.000    0.000 
#
# Total GULP energy -396510.320200 kJ/mol
# GULP energy per Si atom -12390.947506 kJ/mol
# Density = 1.962476 g / cm^3
# Si number density = 19.669530 Si / 1000 Ang^3
#
#
#
# Elastic Constant Matrix: (Units=GPa)
#
#
# Indices 1 2 3 4 5 6 
#
# 1 52.8905 29.4948 35.2400 -0.0010 -0.0001 0.0000
# 2 29.4948 90.2813 50.9551 -0.0021 0.0001 0.0001
# 3 35.2400 50.9551 131.3817 -0.0052 0.0004 0.0002
# 4 -0.0010 -0.0021 -0.0052 24.0928 0.0002 0.0001
# 5 -0.0001 0.0001 0.0004 0.0002 19.5007 -0.0003
# 6 0.0000 0.0001 0.0002 0.0001 -0.0003 28.2962
#
#
#
# Elastic Compliance Matrix: (Units=1/GPa)
#
#
# Indices 1 2 3 4 5 6 
#
# 1 0.025072 -0.005627 -0.004542 0.000000 0.000000 0.000000
# 2 -0.005627 0.015444 -0.004480 0.000000 0.000000 0.000000
# 3 -0.004542 -0.004480 0.010567 0.000002 0.000000 0.000000
# 4 0.000000 0.000000 0.000002 0.041506 0.000000 0.000000
# 5 0.000000 0.000000 0.000000 0.000000 0.051280 0.000001
# 6 0.000000 0.000000 0.000000 0.000000 0.000001 0.035340
#
#
# Mechanical properties :
#
#
# Convention : Reuss Voigt Hill
#
# Bulk Modulus (GPa) = 45.90754 56.21482 51.06118
# Shear Modulus (GPa) = 23.17283 24.96884 24.07084
#
# Velocity S-wave (km/s) = 3.43608 3.56675 3.50203
# Velocity P-wave (km/s) = 6.25558 6.75307 6.50908
#
# Compressibility (1/GPa) = 0.02178291
#
# Stress axis : x y z
#
# Youngs Moduli (GPa) = 39.88588 64.75194 94.63021
#
# Poissons Ratio (x) = 0.36436 0.42985
# Poissons Ratio (y) = 0.22444 0.42397
# Poissons Ratio (z) = 0.18118 0.29011
#
# Static dielectric constant tensor:
#      x y z
#    x 3.479550 0.000000 0.000000 
#    y 0.000000 3.658310 0.000000 
#    z 0.000000 0.000000 4.058880 
# 
# 
# High freq. dielectric constant tensor:
#      x y z
#    x 1.745480 0.000000 0.000000 
#    y 0.000000 1.768290 0.000000 
#    z 0.000000 0.000000 1.775330 
# 
# From -- ./inp_files/11543.got.cif
#   From: 2010.03.12/outbox.cif.g09.slc.cpg/sg44_6_cif.got.tgz:11543.got - 2010.04.14 02:36:11.
