data_PCOD8189433
_publ_section_title
;
Structure prediction by ZEFSAII (Michael W. Deem and Ramdas Pophale) SiO2 
 PCOD8189433
Probable space group: I M M 2
;
_chemical_formula_sum "Si O2"
_cell_formula_units_Z 64
_cell_length_a 8.804077
_cell_length_b 19.756996
_cell_length_c 20.729992
_cell_angle_alpha 90.000000
_cell_angle_beta 90.000000
_cell_angle_gamma 90.000000
_cell_volume 3605.818633
_symmetry_space_group_name_H-M "I M M 2"
_symmetry_group_IT_number 44
_symmetry_cell_setting 'orthorhombic'
loop_
_space_group_symop_operation_xyz
x,y,z
-x,-y,z
-x,y,z
x,-y,z
1/2+x,1/2+y,1/2+z
1/2-x,1/2-y,1/2+z
1/2-x,1/2+y,1/2+z
1/2+x,1/2-y,1/2+z
loop_
_atom_site_type_symbol
_atom_site_label
_atom_site_fract_x
_atom_site_fract_y
_atom_site_fract_z
Si Si1 0.678914 0.793221 0.224510
Si Si2 0.325316 0.212313 0.463709
Si Si3 0.823061 0.076648 0.268503
Si Si4 0.327201 0.074936 0.402530
Si Si5 0.320793 0.212974 0.608951
Si Si6 0.680111 0.926841 0.805483
Si Si7 0.320990 0.783675 0.845690
Si Si8 0.819747 0.573087 0.160020
O O1 0.500000 0.787726 0.227780
O O2 0.729225 0.871707 0.224185
O O3 0.736156 0.762095 0.157771
O O4 0.745612 0.756173 0.286959
O O5 0.500000 0.229823 0.448796
O O6 0.297564 0.131414 0.456929
O O7 0.281099 0.234463 0.535963
O O8 0.221312 0.253015 0.414433
O O9 0.784146 0.089247 0.343227
O O10 0.000000 0.090898 0.258790
O O11 0.779903 0.000000 0.248275
O O12 0.500000 0.080095 0.376565
O O13 0.297145 0.000000 0.432142
O O14 0.500000 0.217332 0.622491
O O15 0.260229 0.135984 0.617997
O O16 0.500000 0.928422 0.804958
O O17 0.736128 0.862098 0.846502
O O18 0.740409 0.917059 0.732781
O O19 0.739707 0.000000 0.832841
O O20 0.500000 0.778927 0.834994
O O21 0.761149 0.500000 0.133087
O O22 0.000000 0.572874 0.159723
#
# Coordination Sequence:
#
# PCOD8189433 Si02
#       8
#     8   8   8   8   8   8   8   8
#     4  12  23  35  54  79 108 140 178 223 268 315
#     4  10  21  34  50  76 110 144 178 221 265 311
#     4  10  20  34  55  82 107 134 173 220 270 322
#     4   9  17  30  48  74 110 147 179 213 257 309
#     4  10  20  35  53  75 106 144 184 221 264 316
#     4   8  14  26  48  78 103 124 163 218 264 304
#     4  11  20  33  56  79 103 138 178 219 265 320
#     4   8  13  24  46  75 103 131 170 215 255 301
#
# _framework density 17.749089999999999
#
# number of rings (size 3 to 8) (size 9 to 14) (size 15 to 20)
#    0.000    2.250    2.500    2.625    0.000    1.750 
#    0.000    2.500    0.000    3.375    0.000    5.250 
#    0.000    0.000    0.000    0.000    0.000    0.000 
#
# Total GULP energy -396612.123493 kJ/mol
# GULP energy per Si atom -12394.128859 kJ/mol
# Density = 1.770869 g / cm^3
# Si number density = 17.749090 Si / 1000 Ang^3
#
#
#
# Elastic Constant Matrix: (Units=GPa)
#
#
# Indices 1 2 3 4 5 6 
#
# 1 66.1329 45.9272 40.4746 0.0000 0.0000 0.0000
# 2 45.9272 133.4156 62.1153 0.0000 0.0000 0.0000
# 3 40.4746 62.1153 94.8100 0.0000 0.0000 0.0000
# 4 0.0000 0.0000 0.0000 25.4306 0.0000 0.0000
# 5 0.0000 0.0000 0.0000 0.0000 22.8980 0.0000
# 6 0.0000 0.0000 0.0000 0.0000 0.0000 18.6352
#
#
#
# Elastic Compliance Matrix: (Units=1/GPa)
#
#
# Indices 1 2 3 4 5 6 
#
# 1 0.022326 -0.004674 -0.006469 0.000000 0.000000 0.000000
# 2 -0.004674 0.011764 -0.005712 0.000000 0.000000 0.000000
# 3 -0.006469 -0.005712 0.017051 0.000000 0.000000 0.000000
# 4 0.000000 0.000000 0.000000 0.039323 0.000000 0.000000
# 5 0.000000 0.000000 0.000000 0.000000 0.043672 0.000000
# 6 0.000000 0.000000 0.000000 0.000000 0.000000 0.053662
#
#
# Mechanical properties :
#
#
# Convention : Reuss Voigt Hill
#
# Bulk Modulus (GPa) = 57.36664 65.71031 61.53847
# Shear Modulus (GPa) = 21.99579 23.11554 22.55566
#
# Velocity S-wave (km/s) = 3.52414 3.61272 3.56870
# Velocity P-wave (km/s) = 6.99646 7.38272 7.19218
#
# Compressibility (1/GPa) = 0.01743174
#
# Stress axis : x y z
#
# Youngs Moduli (GPa) = 44.79090 85.00864 58.64725
#
# Poissons Ratio (x) = 0.39731 0.37939
# Poissons Ratio (y) = 0.20934 0.33498
# Poissons Ratio (z) = 0.28975 0.48555
#
# Static dielectric constant tensor:
#      x y z
#    x 3.062380 0.000000 0.000000 
#    y 0.000000 3.847730 0.000000 
#    z 0.000000 0.000000 3.033010 
# 
# 
# High freq. dielectric constant tensor:
#      x y z
#    x 1.663040 0.000000 0.000000 
#    y 0.000000 1.701920 0.000000 
#    z 0.000000 0.000000 1.653990 
# 
# From -- ./inp_files/22298.got.cif
#   From: 2010.03.12/outbox.cif.g09.slc.cpg/sg44_12_cif.got.tgz:22298.got - 2010.04.14 02:36:11.
