data_PCOD8189064
_publ_section_title
;
Structure prediction by ZEFSAII (Michael W. Deem and Ramdas Pophale) SiO2 
 PCOD8189064
Probable space group: I M M 2
;
_chemical_formula_sum "Si O2"
_cell_formula_units_Z 40
_cell_length_a 25.093702
_cell_length_b 8.824887
_cell_length_c 9.577096
_cell_angle_alpha 90.000000
_cell_angle_beta 90.000000
_cell_angle_gamma 90.000000
_cell_volume 2120.839142
_symmetry_space_group_name_H-M "I M M 2"
_symmetry_group_IT_number 44
_symmetry_cell_setting 'orthorhombic'
loop_
_space_group_symop_operation_xyz
x,y,z
-x,-y,z
-x,y,z
x,-y,z
1/2+x,1/2+y,1/2+z
1/2-x,1/2-y,1/2+z
1/2-x,1/2+y,1/2+z
1/2+x,1/2-y,1/2+z
loop_
_atom_site_type_symbol
_atom_site_label
_atom_site_fract_x
_atom_site_fract_y
_atom_site_fract_z
Si Si1 0.088625 0.676622 0.937080
Si Si2 0.210798 0.328048 0.928587
Si Si3 0.000000 0.819983 0.749857
Si Si4 0.593523 0.321260 0.734717
Si Si5 0.000000 0.179148 0.434602
Si Si6 0.296965 0.173927 0.748273
O O1 0.074422 0.500000 0.939385
O O2 0.149460 0.704964 0.891719
O O3 0.052758 0.761180 0.824995
O O4 0.077748 0.740614 0.090856
O O5 0.225929 0.500000 0.888760
O O6 0.247275 0.212528 0.844964
O O7 0.221211 0.296349 0.090674
O O8 0.000000 0.755496 0.591718
O O9 0.000000 0.000000 0.753568
O O10 0.590261 0.500000 0.710406
O O11 0.552485 0.265004 0.852844
O O12 0.652285 0.276191 0.787084
O O13 0.000000 0.000000 0.442558
O O14 0.313765 0.000000 0.769073
#
# Coordination Sequence:
#
# PCOD8189064 Si02
#       6
#     8   8   4   8   4   8
#     4  10  21  38  57  81 111 142 182 229 272 321
#     4   9  20  37  55  78 109 143 179 221 270 323
#     4  11  22  37  56  80 110 145 182 221 274 330
#     4  10  19  36  60  82 107 143 184 223 269 327
#     4   9  21  37  54  80 110 139 178 225 268 320
#     4  10  21  36  55  82 112 142 181 226 271 321
#
# _framework density 18.860457
#
# number of rings (size 3 to 8) (size 9 to 14) (size 15 to 20)
#    0.000    2.200    0.000    3.900    0.000    7.200 
#    0.000   11.500    0.000    0.000    0.000    0.000 
#    0.000    0.000    0.000    0.000    0.000    0.000 
#
# Total GULP energy -248061.973961 kJ/mol
# GULP energy per Si atom -12403.098698 kJ/mol
# Density = 1.881753 g / cm^3
# Si number density = 18.860457 Si / 1000 Ang^3
#
#
#
# Elastic Constant Matrix: (Units=GPa)
#
#
# Indices 1 2 3 4 5 6 
#
# 1 114.2565 43.2512 82.0436 0.0000 0.0000 0.0000
# 2 43.2512 81.1381 48.2524 0.0000 0.0000 0.0000
# 3 82.0436 48.2524 123.5079 0.0000 0.0000 0.0000
# 4 0.0000 0.0000 0.0000 26.3224 0.0000 0.0000
# 5 0.0000 0.0000 0.0000 0.0000 33.9021 0.0000
# 6 0.0000 0.0000 0.0000 0.0000 0.0000 33.1113
#
#
#
# Elastic Compliance Matrix: (Units=1/GPa)
#
#
# Indices 1 2 3 4 5 6 
#
# 1 0.017318 -0.003114 -0.010288 0.000000 0.000000 0.000000
# 2 -0.003114 0.016615 -0.004423 0.000000 0.000000 0.000000
# 3 -0.010288 -0.004423 0.016658 0.000000 0.000000 0.000000
# 4 0.000000 0.000000 0.000000 0.037990 0.000000 0.000000
# 5 0.000000 0.000000 0.000000 0.000000 0.029497 0.000000
# 6 0.000000 0.000000 0.000000 0.000000 0.000000 0.030201
#
#
# Mechanical properties :
#
#
# Convention : Reuss Voigt Hill
#
# Bulk Modulus (GPa) = 66.92017 73.99967 70.45992
# Shear Modulus (GPa) = 26.46792 28.35752 27.41272
#
# Velocity S-wave (km/s) = 3.75020 3.88176 3.81655
# Velocity P-wave (km/s) = 7.36958 7.70787 7.54063
#
# Compressibility (1/GPa) = 0.01494318
#
# Stress axis : x y z
#
# Youngs Moduli (GPa) = 57.74343 60.18819 60.02988
#
# Poissons Ratio (x) = 0.18740 0.61756
# Poissons Ratio (y) = 0.17978 0.26550
# Poissons Ratio (z) = 0.59404 0.26620
#
# Static dielectric constant tensor:
#      x y z
#    x 3.536330 0.000000 0.000000 
#    y 0.000000 3.422440 0.000000 
#    z 0.000000 0.000000 3.515660 
# 
# 
# High freq. dielectric constant tensor:
#      x y z
#    x 1.742190 0.000000 0.000000 
#    y 0.000000 1.735240 0.000000 
#    z 0.000000 0.000000 1.730020 
# 
# From -- ./inp_files/4638.got.cif
#   From: 2010.03.12/outbox.cif.g09.slc.cpg/sg44_3_cif.got.tgz:4638.got - 2010.04.14 02:36:11.
