data_PCOD8189584
_publ_section_title
;
Structure prediction by ZEFSAII (Michael W. Deem and Ramdas Pophale) SiO2 
 PCOD8189584
Probable space group: I M M 2
;
_chemical_formula_sum "Si O2"
_cell_formula_units_Z 48
_cell_length_a 9.379952
_cell_length_b 7.829200
_cell_length_c 33.946294
_cell_angle_alpha 90.000000
_cell_angle_beta 90.000000
_cell_angle_gamma 90.000000
_cell_volume 2492.931651
_symmetry_space_group_name_H-M "I M M 2"
_symmetry_group_IT_number 44
_symmetry_cell_setting 'orthorhombic'
loop_
_space_group_symop_operation_xyz
x,y,z
-x,-y,z
-x,y,z
x,-y,z
1/2+x,1/2+y,1/2+z
1/2-x,1/2-y,1/2+z
1/2-x,1/2+y,1/2+z
1/2+x,1/2-y,1/2+z
loop_
_atom_site_type_symbol
_atom_site_label
_atom_site_fract_x
_atom_site_fract_y
_atom_site_fract_z
Si Si1 0.330787 0.000000 0.215070
Si Si2 0.332004 0.695060 0.270215
Si Si3 0.661121 0.306088 0.502255
Si Si4 0.836040 0.190465 0.573741
Si Si5 0.161048 0.699705 0.346671
Si Si6 0.330743 0.000000 0.127158
Si Si7 0.661448 0.694773 0.931521
O O1 0.278769 0.173382 0.236700
O O2 0.265237 0.000000 0.171096
O O3 0.500000 0.000000 0.213176
O O4 0.500000 0.707452 0.276251
O O5 0.287001 0.500000 0.258966
O O6 0.261019 0.755831 0.310813
O O7 0.500000 0.235881 0.498930
O O8 0.661982 0.500000 0.517223
O O9 0.747117 0.194148 0.533586
O O10 0.734566 0.300267 0.459609
O O11 0.777186 0.329119 0.604905
O O12 0.000000 0.231504 0.563074
O O13 0.821450 0.000000 0.592053
O O14 0.171288 0.500000 0.354313
O O15 0.214729 0.790773 0.386475
O O16 0.000000 0.756328 0.336405
O O17 0.500000 0.000000 0.129759
O O18 0.500000 0.767528 0.934727
O O19 0.666661 0.500000 0.945291
#
# Coordination Sequence:
#
# PCOD8189584 Si02
#       7
#     4   8   8   8   8   4   8
#     4   9  18  32  53  81 111 141 177 221 273 321
#     4   9  18  32  51  76 106 141 179 219 264 318
#     4  11  23  37  54  77 107 144 183 222 271 327
#     4  10  20  35  58  84 108 141 182 223 272 325
#     4   9  18  33  52  74 102 137 176 219 268 316
#     4   9  18  34  55  83 113 139 177 229 273 321
#     4  10  21  35  52  77 106 138 180 227 272 320
#
# _framework density 19.254439999999999
#
# number of rings (size 3 to 8) (size 9 to 14) (size 15 to 20)
#    0.000    2.333    0.833    1.500    1.167    5.667 
#    0.000    5.000    0.000    2.000    0.000    2.333 
#    0.000    0.000    0.000    0.000    0.000    0.000 
#
# Total GULP energy -297602.543909 kJ/mol
# GULP energy per Si atom -12400.105996 kJ/mol
# Density = 1.921062 g / cm^3
# Si number density = 19.254440 Si / 1000 Ang^3
#
#
#
# Elastic Constant Matrix: (Units=GPa)
#
#
# Indices 1 2 3 4 5 6 
#
# 1 62.7652 30.1730 51.5552 0.0000 0.0000 0.0000
# 2 30.1730 102.0577 59.3187 0.0000 0.0000 0.0000
# 3 51.5552 59.3187 144.3059 0.0000 0.0000 0.0000
# 4 0.0000 0.0000 0.0000 29.3040 0.0000 0.0000
# 5 0.0000 0.0000 0.0000 0.0000 21.7426 0.0000
# 6 0.0000 0.0000 0.0000 0.0000 0.0000 16.0100
#
#
#
# Elastic Compliance Matrix: (Units=1/GPa)
#
#
# Indices 1 2 3 4 5 6 
#
# 1 0.023090 -0.002670 -0.007152 0.000000 0.000000 0.000000
# 2 -0.002670 0.013183 -0.004465 0.000000 0.000000 0.000000
# 3 -0.007152 -0.004465 0.011320 0.000000 0.000000 0.000000
# 4 0.000000 0.000000 0.000000 0.034125 0.000000 0.000000
# 5 0.000000 0.000000 0.000000 0.000000 0.045993 0.000000
# 6 0.000000 0.000000 0.000000 0.000000 0.000000 0.062461
#
#
# Mechanical properties :
#
#
# Convention : Reuss Voigt Hill
#
# Bulk Modulus (GPa) = 52.57633 65.69141 59.13387
# Shear Modulus (GPa) = 22.21370 24.61676 23.41523
#
# Velocity S-wave (km/s) = 3.40029 3.57949 3.49104
# Velocity P-wave (km/s) = 6.54074 7.16067 6.85772
#
# Compressibility (1/GPa) = 0.01901997
#
# Stress axis : x y z
#
# Youngs Moduli (GPa) = 43.30805 75.85531 88.33650
#
# Poissons Ratio (x) = 0.20251 0.63178
# Poissons Ratio (y) = 0.11562 0.39444
# Poissons Ratio (z) = 0.30974 0.33871
#
# Static dielectric constant tensor:
#      x y z
#    x 3.331010 0.000000 0.000000 
#    y 0.000000 3.602620 0.000000 
#    z 0.000000 0.000000 3.527740 
# 
# 
# High freq. dielectric constant tensor:
#      x y z
#    x 1.719490 0.000000 0.000000 
#    y 0.000000 1.759000 0.000000 
#    z 0.000000 0.000000 1.741780 
# 
# From -- ./inp_files/26877.got.cif
#   From: 2010.03.12/outbox.cif.g09.slc.cpg/sg44_14_cif.got.tgz:26877.got - 2010.04.14 02:36:11.
