data_PCOD8189547
_publ_section_title
;
Structure prediction by ZEFSAII (Michael W. Deem and Ramdas Pophale) SiO2 
 PCOD8189547
Probable space group: I M M 2
;
_chemical_formula_sum "Si O2"
_cell_formula_units_Z 40
_cell_length_a 10.315263
_cell_length_b 8.969141
_cell_length_c 22.937534
_cell_angle_alpha 90.000000
_cell_angle_beta 90.000000
_cell_angle_gamma 90.000000
_cell_volume 2122.158816
_symmetry_space_group_name_H-M "I M M 2"
_symmetry_group_IT_number 44
_symmetry_cell_setting 'orthorhombic'
loop_
_space_group_symop_operation_xyz
x,y,z
-x,-y,z
-x,y,z
x,-y,z
1/2+x,1/2+y,1/2+z
1/2-x,1/2-y,1/2+z
1/2-x,1/2+y,1/2+z
1/2+x,1/2-y,1/2+z
loop_
_atom_site_type_symbol
_atom_site_label
_atom_site_fract_x
_atom_site_fract_y
_atom_site_fract_z
Si Si1 0.000000 0.676682 0.136811
Si Si2 0.739326 0.174218 0.430150
Si Si3 0.500000 0.673200 0.997008
Si Si4 0.852711 0.175616 0.817572
Si Si5 0.769961 0.823709 0.689417
Si Si6 0.500000 0.823561 0.119718
Si Si7 0.000000 0.322599 0.006048
O O1 0.872845 0.731420 0.171106
O O2 0.000000 0.500000 0.133379
O O3 0.000000 0.743858 0.071403
O O4 0.733786 0.252089 0.367655
O O5 0.626710 0.236675 0.472396
O O6 0.875993 0.212974 0.458486
O O7 0.720594 0.000000 0.420008
O O8 0.500000 0.500000 0.016436
O O9 0.500000 0.778101 0.052600
O O10 0.791362 0.223268 0.756111
O O11 0.000000 0.235607 0.820995
O O12 0.849395 0.000000 0.825396
O O13 0.872263 0.741411 0.649116
O O14 0.788901 0.000000 0.680452
O O15 0.500000 0.000000 0.125779
O O16 0.000000 0.500000 0.009200
#
# Coordination Sequence:
#
# PCOD8189547 Si02
#       7
#     4   8   4   8   8   4   4
#     4   9  18  33  59  87 109 140 186 239 284 331
#     4  10  20  35  57  82 109 145 186 231 279 334
#     4  10  22  39  58  82 115 151 189 236 289 342
#     4  10  20  35  56  83 113 148 187 231 282 335
#     4  10  20  38  61  85 114 151 196 238 283 345
#     4  12  24  37  58  87 117 154 195 238 291 340
#     4   9  16  29  51  80 105 131 176 223 268 321
#
# _framework density 18.848728999999999
#
# number of rings (size 3 to 8) (size 9 to 14) (size 15 to 20)
#    0.000    2.000    2.000    2.100    0.000    5.600 
#    0.000    1.500    0.000    0.000    0.000    0.000 
#    0.000    0.000    0.000    0.000    0.000    0.000 
#
# Total GULP energy -248064.524794 kJ/mol
# GULP energy per Si atom -12403.226240 kJ/mol
# Density = 1.880583 g / cm^3
# Si number density = 18.848729 Si / 1000 Ang^3
#
#
#
# Elastic Constant Matrix: (Units=GPa)
#
#
# Indices 1 2 3 4 5 6 
#
# 1 170.7573 33.5502 81.7409 0.0000 0.0000 0.0000
# 2 33.5502 35.5588 38.6956 0.0000 0.0000 0.0000
# 3 81.7409 38.6956 164.1512 0.0000 0.0000 0.0000
# 4 0.0000 0.0000 0.0000 31.6155 0.0000 0.0000
# 5 0.0000 0.0000 0.0000 0.0000 33.3291 0.0000
# 6 0.0000 0.0000 0.0000 0.0000 0.0000 12.1732
#
#
#
# Elastic Compliance Matrix: (Units=1/GPa)
#
#
# Indices 1 2 3 4 5 6 
#
# 1 0.008174 -0.004416 -0.003029 0.000000 0.000000 0.000000
# 2 -0.004416 0.040211 -0.007280 0.000000 0.000000 0.000000
# 3 -0.003029 -0.007280 0.009317 0.000000 0.000000 0.000000
# 4 0.000000 0.000000 0.000000 0.031630 0.000000 0.000000
# 5 0.000000 0.000000 0.000000 0.000000 0.030004 0.000000
# 6 0.000000 0.000000 0.000000 0.000000 0.000000 0.082148
#
#
# Mechanical properties :
#
#
# Convention : Reuss Voigt Hill
#
# Bulk Modulus (GPa) = 35.39674 75.38228 55.38951
# Shear Modulus (GPa) = 20.80293 29.85560 25.32927
#
# Velocity S-wave (km/s) = 3.32577 3.98421 3.66979
# Velocity P-wave (km/s) = 5.79377 7.82594 6.88525
#
# Compressibility (1/GPa) = 0.02825119
#
# Stress axis : x y z
#
# Youngs Moduli (GPa) = 122.33872 24.86881 107.33457
#
# Poissons Ratio (x) = 0.10981 0.32516
# Poissons Ratio (y) = 0.54020 0.78142
# Poissons Ratio (z) = 0.37062 0.18105
#
# Static dielectric constant tensor:
#      x y z
#    x 3.704280 0.000000 0.000000 
#    y 0.000000 3.110350 0.000000 
#    z 0.000000 0.000000 3.592340 
# 
# 
# High freq. dielectric constant tensor:
#      x y z
#    x 1.743830 0.000000 0.000000 
#    y 0.000000 1.697010 0.000000 
#    z 0.000000 0.000000 1.747590 
# 
# From -- ./inp_files/23635.got.cif
#   From: 2010.03.12/outbox.cif.g09.slc.cpg/sg44_12_cif.got.tgz:23635.got - 2010.04.14 02:36:11.
