data_PCOD8189032
_publ_section_title
;
Structure prediction by ZEFSAII (Michael W. Deem and Ramdas Pophale) SiO2 
 PCOD8189032
Probable space group: I M M 2
;
_chemical_formula_sum "Si O2"
_cell_formula_units_Z 64
_cell_length_a 23.569270
_cell_length_b 8.934987
_cell_length_c 15.303073
_cell_angle_alpha 90.000000
_cell_angle_beta 90.000000
_cell_angle_gamma 90.000000
_cell_volume 3222.691299
_symmetry_space_group_name_H-M "I M M 2"
_symmetry_group_IT_number 44
_symmetry_cell_setting 'orthorhombic'
loop_
_space_group_symop_operation_xyz
x,y,z
-x,-y,z
-x,y,z
x,-y,z
1/2+x,1/2+y,1/2+z
1/2-x,1/2-y,1/2+z
1/2-x,1/2+y,1/2+z
1/2+x,1/2-y,1/2+z
loop_
_atom_site_type_symbol
_atom_site_label
_atom_site_fract_x
_atom_site_fract_y
_atom_site_fract_z
Si Si1 0.066109 0.673613 0.510620
Si Si2 0.859734 0.176974 0.658953
Si Si3 0.244815 0.830315 0.416478
Si Si4 0.136773 0.673018 0.835188
Si Si5 0.879416 0.172281 0.350777
Si Si6 0.747935 0.323917 0.596584
Si Si7 0.564938 0.173386 0.498596
Si Si8 0.875117 0.175937 0.153834
O O1 0.081215 0.500000 0.522139
O O2 0.100685 0.767605 0.580940
O O3 0.083650 0.724106 0.413768
O O4 0.000000 0.704556 0.524797
O O5 0.883976 0.233707 0.751438
O O6 0.796504 0.238883 0.649135
O O7 0.858827 0.000000 0.656353
O O8 0.296275 0.803204 0.349799
O O9 0.187479 0.802820 0.363550
O O10 0.248029 0.712584 0.494431
O O11 0.247298 0.000000 0.454207
O O12 0.121500 0.500000 0.818585
O O13 0.103081 0.735690 0.919255
O O14 0.893460 0.220167 0.251757
O O15 0.895829 0.000000 0.368346
O O16 0.756216 0.500000 0.611119
O O17 0.688015 0.264783 0.633003
O O18 0.500000 0.204172 0.474396
O O19 0.579450 0.254624 0.588514
O O20 0.578049 0.000000 0.512894
O O21 0.875778 0.000000 0.140634
#
# Coordination Sequence:
#
# PCOD8189032 Si02
#       8
#     8   8   8   8   8   8   8   8
#     4  11  25  44  64  87 117 156 203 254 306 358
#     4  12  25  40  62  92 124 158 200 246 302 364
#     4  10  19  35  61  90 121 158 196 243 301 360
#     4  10  21  39  62  88 124 163 201 246 299 358
#     4  10  21  38  61  89 121 156 197 245 298 359
#     4  11  21  36  61  91 124 159 198 244 300 360
#     4  10  22  40  62  88 119 159 205 251 299 351
#     4  10  22  39  61  90 123 161 201 243 296 355
#
# _framework density 19.859178
#
# number of rings (size 3 to 8) (size 9 to 14) (size 15 to 20)
#    0.000    1.500    2.500    2.625    0.000    6.250 
#    0.000    5.000    0.000    0.000    0.000    0.000 
#    0.000    0.000    0.000    0.000    0.000    0.000 
#
# Total GULP energy -396969.274640 kJ/mol
# GULP energy per Si atom -12405.289833 kJ/mol
# Density = 1.981398 g / cm^3
# Si number density = 19.859178 Si / 1000 Ang^3
#
#
#
# Elastic Constant Matrix: (Units=GPa)
#
#
# Indices 1 2 3 4 5 6 
#
# 1 57.2548 25.1389 21.1573 0.0000 0.0000 0.0000
# 2 25.1389 75.4543 42.8797 0.0000 0.0000 0.0000
# 3 21.1573 42.8797 125.4703 0.0000 0.0000 0.0000
# 4 0.0000 0.0000 0.0000 38.0854 0.0000 0.0000
# 5 0.0000 0.0000 0.0000 0.0000 12.1663 0.0000
# 6 0.0000 0.0000 0.0000 0.0000 0.0000 26.6339
#
#
#
# Elastic Compliance Matrix: (Units=1/GPa)
#
#
# Indices 1 2 3 4 5 6 
#
# 1 0.020656 -0.006084 -0.001404 0.000000 0.000000 0.000000
# 2 -0.006084 0.018239 -0.005207 0.000000 0.000000 0.000000
# 3 -0.001404 -0.005207 0.009986 0.000000 0.000000 0.000000
# 4 0.000000 0.000000 0.000000 0.026257 0.000000 0.000000
# 5 0.000000 0.000000 0.000000 0.000000 0.082194 0.000000
# 6 0.000000 0.000000 0.000000 0.000000 0.000000 0.037546
#
#
# Mechanical properties :
#
#
# Convention : Reuss Voigt Hill
#
# Bulk Modulus (GPa) = 42.56955 48.50347 45.53651
# Shear Modulus (GPa) = 21.92026 26.64403 24.28215
#
# Velocity S-wave (km/s) = 3.32593 3.66683 3.50053
# Velocity P-wave (km/s) = 6.01925 6.51185 6.27039
#
# Compressibility (1/GPa) = 0.02349097
#
# Stress axis : x y z
#
# Youngs Moduli (GPa) = 48.41242 54.82647 100.13638
#
# Poissons Ratio (x) = 0.33357 0.14057
# Poissons Ratio (y) = 0.29454 0.52145
# Poissons Ratio (z) = 0.06796 0.28550
#
# Static dielectric constant tensor:
#      x y z
#    x 3.625250 0.000000 0.000000 
#    y 0.000000 3.565870 0.000000 
#    z 0.000000 0.000000 3.692050 
# 
# 
# High freq. dielectric constant tensor:
#      x y z
#    x 1.774660 0.000000 0.000000 
#    y 0.000000 1.766560 0.000000 
#    z 0.000000 0.000000 1.784890 
# 
# From -- ./inp_files/16827.got.cif
#   From: 2010.03.12/outbox.cif.g09.slc.cpg/sg44_9_cif.got.tgz:16827.got - 2010.04.14 02:36:11.
