data_PCOD8189476
_publ_section_title
;
Structure prediction by ZEFSAII (Michael W. Deem and Ramdas Pophale) SiO2 
 PCOD8189476
Probable space group: I M M 2
;
_chemical_formula_sum "Si O2"
_cell_formula_units_Z 40
_cell_length_a 23.798602
_cell_length_b 8.842945
_cell_length_c 10.129692
_cell_angle_alpha 90.000000
_cell_angle_beta 90.000000
_cell_angle_gamma 90.000000
_cell_volume 2131.790932
_symmetry_space_group_name_H-M "I M M 2"
_symmetry_group_IT_number 44
_symmetry_cell_setting 'orthorhombic'
loop_
_space_group_symop_operation_xyz
x,y,z
-x,-y,z
-x,y,z
x,-y,z
1/2+x,1/2+y,1/2+z
1/2-x,1/2-y,1/2+z
1/2-x,1/2+y,1/2+z
1/2+x,1/2-y,1/2+z
loop_
_atom_site_type_symbol
_atom_site_label
_atom_site_fract_x
_atom_site_fract_y
_atom_site_fract_z
Si Si1 0.353607 0.177608 0.826390
Si Si2 0.735110 0.178910 0.265052
Si Si3 0.134441 0.171706 0.873523
Si Si4 0.563831 0.176753 0.593373
Si Si5 0.346882 0.671909 0.087957
O O1 0.297583 0.267462 0.792306
O O2 0.401076 0.223864 0.721938
O O3 0.341806 0.000000 0.826346
O O4 0.375000 0.232144 0.970195
O O5 0.693148 0.234428 0.383318
O O6 0.713504 0.253864 0.127510
O O7 0.733178 0.000000 0.253326
O O8 0.113684 0.177471 0.719418
O O9 0.146724 0.000000 0.917340
O O10 0.086446 0.240324 0.964124
O O11 0.500000 0.228150 0.617770
O O12 0.568257 0.000000 0.566155
O O13 0.336499 0.500000 0.040842
#
# Coordination Sequence:
#
# PCOD8189476 Si02
#       5
#     8   8   8   8   8
#     4  11  22  36  58  87 122 159 201 249 303 362
#     4  10  20  34  57  86 121 156 192 241 306 362
#     4   9  20  37  59  85 117 152 197 248 297 357
#     4  10  23  42  62  86 119 162 209 252 299 359
#     4   9  20  37  56  85 119 150 194 241 296 360
#
# _framework density 18.763566999999998
#
# number of rings (size 3 to 8) (size 9 to 14) (size 15 to 20)
#    1.200    1.000    0.000    3.000    2.800    2.000 
#    0.000    1.000    0.000    3.600    0.000    0.000 
#    0.000    0.000    0.000    0.000    0.000    0.000 
#
# Total GULP energy -247862.381307 kJ/mol
# GULP energy per Si atom -12393.119065 kJ/mol
# Density = 1.872086 g / cm^3
# Si number density = 18.763567 Si / 1000 Ang^3
#
#
#
# Elastic Constant Matrix: (Units=GPa)
#
#
# Indices 1 2 3 4 5 6 
#
# 1 106.4217 49.4759 53.9041 0.0000 0.0000 0.0000
# 2 49.4759 99.2587 44.3679 0.0000 0.0000 0.0000
# 3 53.9041 44.3679 115.5786 0.0000 0.0000 0.0000
# 4 0.0000 0.0000 0.0000 33.9969 0.0000 0.0000
# 5 0.0000 0.0000 0.0000 0.0000 26.6079 0.0000
# 6 0.0000 0.0000 0.0000 0.0000 0.0000 24.3359
#
#
#
# Elastic Compliance Matrix: (Units=1/GPa)
#
#
# Indices 1 2 3 4 5 6 
#
# 1 0.014044 -0.004916 -0.004663 0.000000 0.000000 0.000000
# 2 -0.004916 0.013882 -0.003036 0.000000 0.000000 0.000000
# 3 -0.004663 -0.003036 0.011992 0.000000 0.000000 0.000000
# 4 0.000000 0.000000 0.000000 0.029414 0.000000 0.000000
# 5 0.000000 0.000000 0.000000 0.000000 0.037583 0.000000
# 6 0.000000 0.000000 0.000000 0.000000 0.000000 0.041091
#
#
# Mechanical properties :
#
#
# Convention : Reuss Voigt Hill
#
# Bulk Modulus (GPa) = 68.08112 68.52831 68.30472
# Shear Modulus (GPa) = 28.06890 28.55557 28.31223
#
# Velocity S-wave (km/s) = 3.87192 3.90534 3.88866
# Velocity P-wave (km/s) = 7.50676 7.54565 7.52623
#
# Compressibility (1/GPa) = 0.01468836
#
# Stress axis : x y z
#
# Youngs Moduli (GPa) = 71.20608 72.03416 83.38684
#
# Poissons Ratio (x) = 0.35412 0.38880
# Poissons Ratio (y) = 0.35005 0.25319
# Poissons Ratio (z) = 0.33201 0.21872
#
# Static dielectric constant tensor:
#      x y z
#    x 3.146110 0.000000 0.000000 
#    y 0.000000 3.509930 0.000000 
#    z 0.000000 0.000000 3.545240 
# 
# 
# High freq. dielectric constant tensor:
#      x y z
#    x 1.691700 0.000000 0.000000 
#    y 0.000000 1.743230 0.000000 
#    z 0.000000 0.000000 1.731510 
# 
# From -- ./inp_files/4445.got.cif
#   From: 2010.03.12/outbox.cif.g09.slc.cpg/sg44_3_cif.got.tgz:4445.got - 2010.04.14 02:36:11.
