data_PCOD8189937
_publ_section_title
;
Structure prediction by ZEFSAII (Michael W. Deem and Ramdas Pophale) SiO2 
 PCOD8189937
Probable space group: I M M 2
;
_chemical_formula_sum "Si O2"
_cell_formula_units_Z 64
_cell_length_a 19.835470
_cell_length_b 8.966166
_cell_length_c 20.019959
_cell_angle_alpha 90.000000
_cell_angle_beta 90.000000
_cell_angle_gamma 90.000000
_cell_volume 3560.512005
_symmetry_space_group_name_H-M "I M M 2"
_symmetry_group_IT_number 44
_symmetry_cell_setting 'orthorhombic'
loop_
_space_group_symop_operation_xyz
x,y,z
-x,-y,z
-x,y,z
x,-y,z
1/2+x,1/2+y,1/2+z
1/2-x,1/2-y,1/2+z
1/2-x,1/2+y,1/2+z
1/2+x,1/2-y,1/2+z
loop_
_atom_site_type_symbol
_atom_site_label
_atom_site_fract_x
_atom_site_fract_y
_atom_site_fract_z
Si Si1 0.679869 0.324468 0.167110
Si Si2 0.578914 0.171367 0.070583
Si Si3 0.921306 0.672363 0.071444
Si Si4 0.425527 0.175949 0.420599
Si Si5 0.174817 0.673074 0.309292
Si Si6 0.328573 0.330111 0.318345
Si Si7 0.319566 0.676371 0.669590
Si Si8 0.925573 0.677179 0.421011
O O1 0.693370 0.500000 0.163215
O O2 0.619087 0.278236 0.119775
O O3 0.659344 0.278088 0.242244
O O4 0.748528 0.243581 0.145028
O O5 0.500000 0.189996 0.085332
O O6 0.600939 0.000000 0.081529
O O7 0.595966 0.225804 0.995504
O O8 0.901348 0.500000 0.082740
O O9 0.878165 0.776836 0.119281
O O10 0.000000 0.696143 0.087375
O O11 0.905147 0.723221 0.995622
O O12 0.500000 0.240076 0.403383
O O13 0.371746 0.231254 0.367708
O O14 0.428125 0.000000 0.416802
O O15 0.159558 0.500000 0.293509
O O16 0.250376 0.692449 0.336234
O O17 0.161039 0.765440 0.242750
O O18 0.126612 0.739702 0.366738
O O19 0.351116 0.500000 0.328161
O O20 0.313338 0.500000 0.671077
O O21 0.927173 0.500000 0.419156
O O22 0.000000 0.740031 0.404086
#
# Coordination Sequence:
#
# PCOD8189937 Si02
#       8
#     8   8   8   8   8   8   8   8
#     4  10  21  37  54  74 103 139 179 215 253 308
#     4   9  18  33  53  79 109 138 172 215 259 302
#     4   9  19  37  57  76 103 139 174 207 250 308
#     4   9  19  35  54  76 101 130 167 210 253 302
#     4   9  18  34  53  74 103 137 173 209 249 303
#     4   9  19  33  49  72 102 134 168 211 256 300
#     4  11  22  35  53  78 106 134 170 217 264 305
#     4   8  15  30  53  78 103 134 171 207 246 299
#
# _framework density 17.974944000000001
#
# number of rings (size 3 to 8) (size 9 to 14) (size 15 to 20)
#    0.000    2.750    0.000    3.750    0.000    5.750 
#    0.000    6.875    0.000    0.750    0.000    0.000 
#    0.000    0.000    0.000    0.000    0.000    0.000 
#
# Total GULP energy -396778.346398 kJ/mol
# GULP energy per Si atom -12399.323325 kJ/mol
# Density = 1.793403 g / cm^3
# Si number density = 17.974944 Si / 1000 Ang^3
#
#
#
# Elastic Constant Matrix: (Units=GPa)
#
#
# Indices 1 2 3 4 5 6 
#
# 1 94.4034 39.4706 77.5179 0.0000 0.0000 0.0000
# 2 39.4706 67.1123 42.9453 0.0000 0.0000 0.0000
# 3 77.5179 42.9453 112.6041 0.0000 0.0000 0.0000
# 4 0.0000 0.0000 0.0000 28.1578 0.0000 0.0000
# 5 0.0000 0.0000 0.0000 0.0000 34.9265 0.0000
# 6 0.0000 0.0000 0.0000 0.0000 0.0000 30.1214
#
#
#
# Elastic Compliance Matrix: (Units=1/GPa)
#
#
# Indices 1 2 3 4 5 6 
#
# 1 0.025572 -0.004993 -0.015700 0.000000 0.000000 0.000000
# 2 -0.004993 0.020686 -0.004452 0.000000 0.000000 0.000000
# 3 -0.015700 -0.004452 0.021386 0.000000 0.000000 0.000000
# 4 0.000000 0.000000 0.000000 0.035514 0.000000 0.000000
# 5 0.000000 0.000000 0.000000 0.000000 0.028632 0.000000
# 6 0.000000 0.000000 0.000000 0.000000 0.000000 0.033199
#
#
# Mechanical properties :
#
#
# Convention : Reuss Voigt Hill
#
# Bulk Modulus (GPa) = 57.62154 65.99859 61.81007
# Shear Modulus (GPa) = 22.61789 26.25355 24.43572
#
# Velocity S-wave (km/s) = 3.55110 3.82588 3.69105
# Velocity P-wave (km/s) = 6.99571 7.50421 7.25442
#
# Compressibility (1/GPa) = 0.01735462
#
# Stress axis : x y z
#
# Youngs Moduli (GPa) = 39.10482 48.34227 46.75861
#
# Poissons Ratio (x) = 0.24139 0.73410
# Poissons Ratio (y) = 0.19527 0.20816
# Poissons Ratio (z) = 0.61394 0.21521
#
# Static dielectric constant tensor:
#      x y z
#    x 3.437860 0.000000 0.000000 
#    y 0.000000 3.091140 0.000000 
#    z 0.000000 0.000000 3.423200 
# 
# 
# High freq. dielectric constant tensor:
#      x y z
#    x 1.699100 0.000000 0.000000 
#    y 0.000000 1.677760 0.000000 
#    z 0.000000 0.000000 1.700580 
# 
# From -- ./inp_files/24344.got.cif
#   From: 2010.03.12/outbox.cif.g09.slc.cpg/sg44_13_cif.got.tgz:24344.got - 2010.04.14 02:36:11.
