data_PCOD8189342
_publ_section_title
;
Structure prediction by ZEFSAII (Michael W. Deem and Ramdas Pophale) SiO2 
 PCOD8189342
Probable space group: I M M 2
;
_chemical_formula_sum "Si O2"
_cell_formula_units_Z 48
_cell_length_a 8.843889
_cell_length_b 23.541354
_cell_length_c 13.639612
_cell_angle_alpha 90.000000
_cell_angle_beta 90.000000
_cell_angle_gamma 90.000000
_cell_volume 2839.727959
_symmetry_space_group_name_H-M "I M M 2"
_symmetry_group_IT_number 44
_symmetry_cell_setting 'orthorhombic'
loop_
_space_group_symop_operation_xyz
x,y,z
-x,-y,z
-x,y,z
x,-y,z
1/2+x,1/2+y,1/2+z
1/2-x,1/2-y,1/2+z
1/2-x,1/2+y,1/2+z
1/2+x,1/2-y,1/2+z
loop_
_atom_site_type_symbol
_atom_site_label
_atom_site_fract_x
_atom_site_fract_y
_atom_site_fract_z
Si Si1 0.178554 0.333573 0.588550
Si Si2 0.675963 0.232099 0.474205
Si Si3 0.824867 0.065770 0.985992
Si Si4 0.820902 0.778887 0.270056
Si Si5 0.678325 0.562431 0.264796
Si Si6 0.327367 0.164683 0.666627
O O1 0.253157 0.290907 0.510583
O O2 0.221573 0.397403 0.558394
O O3 0.242010 0.323421 0.697430
O O4 0.000000 0.324864 0.587567
O O5 0.500000 0.242837 0.451996
O O6 0.761304 0.209658 0.378574
O O7 0.698636 0.183127 0.554728
O O8 0.769703 0.078011 0.874893
O O9 0.000000 0.082726 0.999208
O O10 0.800150 0.000000 0.012706
O O11 0.774172 0.715307 0.238126
O O12 0.000000 0.787631 0.263275
O O13 0.500000 0.560343 0.262533
O O14 0.742132 0.500000 0.235974
O O15 0.733017 0.608337 0.186662
O O16 0.500000 0.149837 0.687641
#
# Coordination Sequence:
#
# PCOD8189342 Si02
#       6
#     8   8   8   8   8   8
#     4  11  21  32  49  74 102 132 164 198 242 294
#     4  10  20  34  50  71 100 130 163 203 245 290
#     4   9  18  33  51  71  98 131 164 202 248 291
#     4  10  20  34  51  73  99 127 163 203 245 293
#     4   9  18  31  48  71  97 126 160 196 236 284
#     4   9  19  32  47  70  98 126 156 194 238 284
#
# _framework density 16.903027000000002
#
# number of rings (size 3 to 8) (size 9 to 14) (size 15 to 20)
#    0.000    2.333    0.000    5.500    0.000    8.000 
#    0.000    1.667    0.000    1.000    0.000    4.667 
#    0.000    0.000    0.000    0.000    0.000    0.000 
#
# Total GULP energy -297638.699043 kJ/mol
# GULP energy per Si atom -12401.612460 kJ/mol
# Density = 1.686455 g / cm^3
# Si number density = 16.903027 Si / 1000 Ang^3
#
#
#
# Elastic Constant Matrix: (Units=GPa)
#
#
# Indices 1 2 3 4 5 6 
#
# 1 56.4910 30.4481 18.2117 0.0000 0.0000 0.0000
# 2 30.4481 90.9957 39.1986 0.0000 0.0000 0.0000
# 3 18.2117 39.1986 81.5750 -0.0002 0.0000 0.0000
# 4 0.0000 0.0000 -0.0002 22.0175 0.0000 0.0000
# 5 0.0000 0.0000 0.0000 0.0000 31.2285 0.0000
# 6 0.0000 0.0000 0.0000 0.0000 0.0000 29.6385
#
#
#
# Elastic Compliance Matrix: (Units=1/GPa)
#
#
# Indices 1 2 3 4 5 6 
#
# 1 0.021786 -0.006551 -0.001716 0.000000 0.000000 0.000000
# 2 -0.006551 0.015828 -0.006143 0.000000 0.000000 0.000000
# 3 -0.001716 -0.006143 0.015594 0.000000 0.000000 0.000000
# 4 0.000000 0.000000 0.000000 0.045418 0.000000 0.000000
# 5 0.000000 0.000000 0.000000 0.000000 0.032022 0.000000
# 6 0.000000 0.000000 0.000000 0.000000 0.000000 0.033740
#
#
# Mechanical properties :
#
#
# Convention : Reuss Voigt Hill
#
# Bulk Modulus (GPa) = 41.00412 44.97536 42.98974
# Shear Modulus (GPa) = 24.83409 25.99047 25.41228
#
# Velocity S-wave (km/s) = 3.83719 3.92551 3.88160
# Velocity P-wave (km/s) = 6.62896 6.87108 6.75111
#
# Compressibility (1/GPa) = 0.02438779
#
# Stress axis : x y z
#
# Youngs Moduli (GPa) = 45.90144 63.18025 64.12851
#
# Poissons Ratio (x) = 0.41387 0.11005
# Poissons Ratio (y) = 0.30068 0.39395
# Poissons Ratio (z) = 0.07877 0.38813
#
# Static dielectric constant tensor:
#      x y z
#    x 3.124640 0.000000 0.000000 
#    y 0.000000 3.106970 0.000000 
#    z 0.000000 0.000000 3.138600 
# 
# 
# High freq. dielectric constant tensor:
#      x y z
#    x 1.656950 0.000000 0.000000 
#    y 0.000000 1.640940 0.000000 
#    z 0.000000 0.000000 1.643080 
# 
# From -- ./inp_files/11132.got.cif
#   From: 2010.03.12/outbox.cif.g09.slc.cpg/sg44_6_cif.got.tgz:11132.got - 2010.04.14 02:36:11.
