data_PCOD8189623
_publ_section_title
;
Structure prediction by ZEFSAII (Michael W. Deem and Ramdas Pophale) SiO2 
 PCOD8189623
Probable space group: I M M 2
;
_chemical_formula_sum "Si O2"
_cell_formula_units_Z 64
_cell_length_a 8.603154
_cell_length_b 19.713698
_cell_length_c 20.037998
_cell_angle_alpha 90.000000
_cell_angle_beta 90.000000
_cell_angle_gamma 90.000000
_cell_volume 3398.444056
_symmetry_space_group_name_H-M "I M M 2"
_symmetry_group_IT_number 44
_symmetry_cell_setting 'orthorhombic'
loop_
_space_group_symop_operation_xyz
x,y,z
-x,-y,z
-x,y,z
x,-y,z
1/2+x,1/2+y,1/2+z
1/2-x,1/2-y,1/2+z
1/2-x,1/2+y,1/2+z
1/2+x,1/2-y,1/2+z
loop_
_atom_site_type_symbol
_atom_site_label
_atom_site_fract_x
_atom_site_fract_y
_atom_site_fract_z
Si Si1 0.320032 0.921306 0.263940
Si Si2 0.318310 0.674972 0.014864
Si Si3 0.320907 0.078845 0.769484
Si Si4 0.819263 0.822268 0.873319
Si Si5 0.680451 0.828798 0.016063
Si Si6 0.320353 0.577355 0.625352
Si Si7 0.317043 0.680795 0.866520
Si Si8 0.818661 0.922121 0.628409
O O1 0.500000 0.906929 0.277103
O O2 0.278302 0.897933 0.189105
O O3 0.219124 0.879643 0.316362
O O4 0.276843 0.000000 0.273507
O O5 0.500000 0.661701 0.013212
O O6 0.279955 0.751720 0.036723
O O7 0.246276 0.623148 0.068593
O O8 0.253493 0.660895 0.940352
O O9 0.500000 0.097940 0.781355
O O10 0.212169 0.120546 0.818811
O O11 0.275772 0.097673 0.694175
O O12 0.288703 0.000000 0.783228
O O13 0.766930 0.749801 0.843302
O O14 0.000000 0.820579 0.891188
O O15 0.722751 0.840951 0.939220
O O16 0.500000 0.845581 0.026308
O O17 0.781514 0.877731 0.061655
O O18 0.500000 0.585301 0.643927
O O19 0.278300 0.500000 0.607213
O O20 0.500000 0.695232 0.868639
O O21 0.000000 0.906745 0.641280
O O22 0.792047 0.000000 0.608352
#
# Coordination Sequence:
#
# PCOD8189623 Si02
#       8
#     8   8   8   8   8   8   8   8
#     4  10  21  37  56  80 111 146 184 226 273 324
#     4   8  17  33  53  78 106 137 174 216 259 309
#     4  10  21  37  55  77 107 141 178 221 269 320
#     4  11  22  37  57  80 108 141 180 224 271 325
#     4  10  20  36  56  78 108 142 177 220 270 323
#     4  10  21  37  56  79 107 140 181 227 272 321
#     4  10  20  36  57  81 110 143 182 225 271 323
#     4   9  17  32  54  78 105 138 176 216 259 310
#
# _framework density 18.832146999999999
#
# number of rings (size 3 to 8) (size 9 to 14) (size 15 to 20)
#    0.000    2.250    0.000    3.750    0.000    4.250 
#    0.000    8.750    0.000    1.500    0.000    0.000 
#    0.000    0.000    0.000    0.000    0.000    0.000 
#
# Total GULP energy -396893.239212 kJ/mol
# GULP energy per Si atom -12402.913725 kJ/mol
# Density = 1.878928 g / cm^3
# Si number density = 18.832147 Si / 1000 Ang^3
#
#
#
# Elastic Constant Matrix: (Units=GPa)
#
#
# Indices 1 2 3 4 5 6 
#
# 1 54.3963 25.8392 19.2283 0.0000 0.0000 0.0000
# 2 25.8392 85.4552 63.8646 0.0000 0.0000 0.0000
# 3 19.2283 63.8646 92.6098 0.0000 0.0000 0.0000
# 4 0.0000 0.0000 0.0000 39.2877 0.0000 0.0000
# 5 0.0000 0.0000 0.0000 0.0000 31.5361 0.0000
# 6 0.0000 0.0000 0.0000 0.0000 0.0000 28.5260
#
#
#
# Elastic Compliance Matrix: (Units=1/GPa)
#
#
# Indices 1 2 3 4 5 6 
#
# 1 0.021467 -0.006521 0.000039 0.000000 0.000000 0.000000
# 2 -0.006521 0.026127 -0.016664 0.000000 0.000000 0.000000
# 3 0.000039 -0.016664 0.022281 0.000000 0.000000 0.000000
# 4 0.000000 0.000000 0.000000 0.025453 0.000000 0.000000
# 5 0.000000 0.000000 0.000000 0.000000 0.031710 0.000000
# 6 0.000000 0.000000 0.000000 0.000000 0.000000 0.035056
#
#
# Mechanical properties :
#
#
# Convention : Reuss Voigt Hill
#
# Bulk Modulus (GPa) = 42.39811 50.03616 46.21713
# Shear Modulus (GPa) = 23.12183 28.10525 25.61354
#
# Velocity S-wave (km/s) = 3.50778 3.86736 3.69195
# Velocity P-wave (km/s) = 6.24248 6.82416 6.53979
#
# Compressibility (1/GPa) = 0.02358595
#
# Stress axis : x y z
#
# Youngs Moduli (GPa) = 46.58310 38.27418 44.88066
#
# Poissons Ratio (x) = 0.24957 -0.00177
# Poissons Ratio (y) = 0.30375 0.74788
# Poissons Ratio (z) = -0.00184 0.63779
#
# Static dielectric constant tensor:
#      x y z
#    x 3.360920 0.000000 0.000000 
#    y 0.000000 3.480540 0.000000 
#    z 0.000000 0.000000 3.508380 
# 
# 
# High freq. dielectric constant tensor:
#      x y z
#    x 1.729470 0.000000 0.000000 
#    y 0.000000 1.730370 0.000000 
#    z 0.000000 0.000000 1.734440 
# 
# From -- ./inp_files/22287.got.cif
#   From: 2010.03.12/outbox.cif.g09.slc.cpg/sg44_12_cif.got.tgz:22287.got - 2010.04.14 02:36:11.
