data_PCOD8189680
_publ_section_title
;
Structure prediction by ZEFSAII (Michael W. Deem and Ramdas Pophale) SiO2 
 PCOD8189680
Probable space group: I M M 2
;
_chemical_formula_sum "Si O2"
_cell_formula_units_Z 40
_cell_length_a 9.056868
_cell_length_b 7.907562
_cell_length_c 28.820847
_cell_angle_alpha 90.000000
_cell_angle_beta 90.000000
_cell_angle_gamma 90.000000
_cell_volume 2064.084078
_symmetry_space_group_name_H-M "I M M 2"
_symmetry_group_IT_number 44
_symmetry_cell_setting 'orthorhombic'
loop_
_space_group_symop_operation_xyz
x,y,z
-x,-y,z
-x,y,z
x,-y,z
1/2+x,1/2+y,1/2+z
1/2-x,1/2-y,1/2+z
1/2-x,1/2+y,1/2+z
1/2+x,1/2-y,1/2+z
loop_
_atom_site_type_symbol
_atom_site_label
_atom_site_fract_x
_atom_site_fract_y
_atom_site_fract_z
Si Si1 0.328195 0.000000 0.971441
Si Si2 0.171616 0.194704 0.403739
Si Si3 0.324450 0.500000 0.568502
Si Si4 0.834888 0.313453 0.642276
Si Si5 0.335424 0.808547 0.726907
Si Si6 0.161354 0.305833 0.813751
O O1 0.289279 0.827031 0.944263
O O2 0.500000 0.000000 0.986108
O O3 0.223154 0.000000 0.015588
O O4 0.252312 0.267784 0.358001
O O5 0.000000 0.201041 0.391853
O O6 0.216784 0.000000 0.417208
O O7 0.500000 0.500000 0.572967
O O8 0.256325 0.667746 0.593871
O O9 0.846370 0.500000 0.665507
O O10 0.748915 0.194783 0.677874
O O11 0.000000 0.241500 0.632490
O O12 0.500000 0.732077 0.720731
O O13 0.250327 0.707726 0.766228
O O14 0.344290 0.000000 0.743806
O O15 0.138545 0.500000 0.824613
O O16 0.000000 0.217565 0.808912
#
# Coordination Sequence:
#
# PCOD8189680 Si02
#       6
#     4   8   4   8   8   8
#     4  10  20  36  60  86 114 150 194 244 293 352
#     4   9  19  36  57  82 114 151 192 240 292 344
#     4  10  20  36  60  86 110 144 188 232 287 348
#     4   9  19  36  58  80 105 139 183 232 278 334
#     4  11  23  35  51  79 114 150 190 234 284 342
#     4  10  21  36  54  78 110 149 191 235 285 343
#
# _framework density 19.379055000000001
#
# number of rings (size 3 to 8) (size 9 to 14) (size 15 to 20)
#    0.600    1.600    0.000    3.000    1.400    6.000 
#    0.000    1.000    0.000    3.600    0.000    0.000 
#    0.000    0.000    0.000    0.000    0.000    0.000 
#
# Total GULP energy -247859.744750 kJ/mol
# GULP energy per Si atom -12392.987237 kJ/mol
# Density = 1.933495 g / cm^3
# Si number density = 19.379055 Si / 1000 Ang^3
#
#
#
# Elastic Constant Matrix: (Units=GPa)
#
#
# Indices 1 2 3 4 5 6 
#
# 1 162.3133 23.6475 81.3506 0.0000 0.0000 0.0000
# 2 23.6475 55.9551 29.0106 0.0000 0.0000 0.0000
# 3 81.3506 29.0106 138.2536 0.0000 0.0000 0.0000
# 4 0.0000 0.0000 0.0000 19.9057 0.0000 0.0000
# 5 0.0000 0.0000 0.0000 0.0000 40.4670 0.0000
# 6 0.0000 0.0000 0.0000 0.0000 0.0000 15.7933
#
#
#
# Elastic Compliance Matrix: (Units=1/GPa)
#
#
# Indices 1 2 3 4 5 6 
#
# 1 0.008805 -0.001161 -0.004937 0.000000 0.000000 0.000000
# 2 -0.001161 0.020206 -0.003557 0.000000 0.000000 0.000000
# 3 -0.004937 -0.003557 0.010884 0.000000 0.000000 0.000000
# 4 0.000000 0.000000 0.000000 0.050237 0.000000 0.000000
# 5 0.000000 0.000000 0.000000 0.000000 0.024711 0.000000
# 6 0.000000 0.000000 0.000000 0.000000 0.000000 0.063318
#
#
# Mechanical properties :
#
#
# Convention : Reuss Voigt Hill
#
# Bulk Modulus (GPa) = 48.57858 69.39327 58.98592
# Shear Modulus (GPa) = 24.46984 30.06743 27.26864
#
# Velocity S-wave (km/s) = 3.55730 3.94324 3.75523
# Velocity P-wave (km/s) = 6.48031 7.52451 7.02185
#
# Compressibility (1/GPa) = 0.02058521
#
# Stress axis : x y z
#
# Youngs Moduli (GPa) = 113.57779 49.48966 91.87418
#
# Poissons Ratio (x) = 0.05747 0.45359
# Poissons Ratio (y) = 0.13189 0.32677
# Poissons Ratio (z) = 0.56074 0.17602
#
# Static dielectric constant tensor:
#      x y z
#    x 3.838670 0.000000 0.000000 
#    y 0.000000 3.386790 0.000000 
#    z 0.000000 0.000000 3.281440 
# 
# 
# High freq. dielectric constant tensor:
#      x y z
#    x 1.766860 0.000000 0.000000 
#    y 0.000000 1.731920 0.000000 
#    z 0.000000 0.000000 1.742560 
# 
# From -- ./inp_files/25948.got.cif
#   From: 2010.03.12/outbox.cif.g09.slc.cpg/sg44_13_cif.got.tgz:25948.got - 2010.04.14 02:36:11.
