data_PCOD8189745
_publ_section_title
;
Structure prediction by ZEFSAII (Michael W. Deem and Ramdas Pophale) SiO2 
 PCOD8189745
Probable space group: I M M 2
;
_chemical_formula_sum "Si O2"
_cell_formula_units_Z 64
_cell_length_a 28.431159
_cell_length_b 8.848351
_cell_length_c 12.589504
_cell_angle_alpha 90.000000
_cell_angle_beta 90.000000
_cell_angle_gamma 90.000000
_cell_volume 3167.127348
_symmetry_space_group_name_H-M "I M M 2"
_symmetry_group_IT_number 44
_symmetry_cell_setting 'orthorhombic'
loop_
_space_group_symop_operation_xyz
x,y,z
-x,-y,z
-x,y,z
x,-y,z
1/2+x,1/2+y,1/2+z
1/2-x,1/2-y,1/2+z
1/2-x,1/2+y,1/2+z
1/2+x,1/2-y,1/2+z
loop_
_atom_site_type_symbol
_atom_site_label
_atom_site_fract_x
_atom_site_fract_y
_atom_site_fract_z
Si Si1 0.678559 0.665793 0.050030
Si Si2 0.551828 0.830023 0.924692
Si Si3 0.301724 0.175873 0.839298
Si Si4 0.944907 0.821982 0.040735
Si Si5 0.611742 0.322523 0.748798
Si Si6 0.699597 0.677491 0.278518
Si Si7 0.573464 0.331524 0.129783
Si Si8 0.397621 0.820880 0.337218
O O1 0.693871 0.500000 0.006382
O O2 0.708330 0.713148 0.153642
O O3 0.626420 0.657211 0.092930
O O4 0.682179 0.789759 0.958963
O O5 0.500000 0.829941 0.872843
O O6 0.585659 0.725345 0.856273
O O7 0.572580 0.000000 0.927622
O O8 0.545699 0.766282 0.043524
O O9 0.335609 0.254412 0.752172
O O10 0.248001 0.232229 0.831931
O O11 0.304990 0.000000 0.816250
O O12 0.917814 0.767787 0.147091
O O13 0.000000 0.780812 0.051630
O O14 0.938121 0.000000 0.021659
O O15 0.921155 0.730265 0.946406
O O16 0.616665 0.500000 0.749667
O O17 0.689293 0.500000 0.295865
O O18 0.656602 0.767785 0.331280
O O19 0.551587 0.500000 0.139867
O O20 0.570796 0.250149 0.243620
O O21 0.399026 0.000000 0.328109
#
# Coordination Sequence:
#
# PCOD8189745 Si02
#       8
#     8   8   8   8   8   8   8   8
#     4   9  18  35  57  80 112 152 194 243 297 360
#     4  11  23  37  57  88 122 153 192 246 302 357
#     4  11  22  36  59  89 122 159 203 257 313 369
#     4  10  23  44  67  89 120 167 217 261 310 378
#     4  11  23  40  62  88 120 161 207 254 307 373
#     4   9  21  40  59  84 120 164 209 253 307 372
#     4  10  20  37  61  85 115 156 196 240 297 362
#     4  11  23  39  63  92 123 158 202 259 317 369
#
# _framework density 20.207587
#
# number of rings (size 3 to 8) (size 9 to 14) (size 15 to 20)
#    0.000    1.750    1.250    3.750    0.000    7.250 
#    0.000    2.500    0.000    0.000    0.000    0.000 
#    0.000    0.000    0.000    0.000    0.000    0.000 
#
# Total GULP energy -396779.952473 kJ/mol
# GULP energy per Si atom -12399.373515 kJ/mol
# Density = 2.016159 g / cm^3
# Si number density = 20.207587 Si / 1000 Ang^3
#
#
#
# Elastic Constant Matrix: (Units=GPa)
#
#
# Indices 1 2 3 4 5 6 
#
# 1 83.5097 37.0781 40.3547 0.0000 0.0000 0.0000
# 2 37.0781 92.8318 42.5382 0.0000 0.0000 0.0000
# 3 40.3547 42.5382 113.5966 0.0000 0.0000 0.0000
# 4 0.0000 0.0000 0.0000 25.7786 0.0000 0.0000
# 5 0.0000 0.0000 0.0000 0.0000 22.9625 0.0000
# 6 0.0000 0.0000 0.0000 0.0000 0.0000 25.7417
#
#
#
# Elastic Compliance Matrix: (Units=1/GPa)
#
#
# Indices 1 2 3 4 5 6 
#
# 1 0.015898 -0.004541 -0.003947 0.000000 0.000000 0.000000
# 2 -0.004541 0.014301 -0.003742 0.000000 0.000000 0.000000
# 3 -0.003947 -0.003742 0.011607 0.000000 0.000000 0.000000
# 4 0.000000 0.000000 0.000000 0.038792 0.000000 0.000000
# 5 0.000000 0.000000 0.000000 0.000000 0.043549 0.000000
# 6 0.000000 0.000000 0.000000 0.000000 0.000000 0.038848
#
#
# Mechanical properties :
#
#
# Convention : Reuss Voigt Hill
#
# Bulk Modulus (GPa) = 57.65421 58.87556 58.26489
# Shear Modulus (GPa) = 25.87502 26.22770 26.05136
#
# Velocity S-wave (km/s) = 3.58223 3.60657 3.59442
# Velocity P-wave (km/s) = 6.76038 6.82215 6.79134
#
# Compressibility (1/GPa) = 0.01734479
#
# Stress axis : x y z
#
# Youngs Moduli (GPa) = 62.89929 69.92707 86.15832
#
# Poissons Ratio (x) = 0.31756 0.34009
# Poissons Ratio (y) = 0.28564 0.32239
# Poissons Ratio (z) = 0.24828 0.26166
#
# Static dielectric constant tensor:
#      x y z
#    x 3.853490 0.000000 0.000000 
#    y 0.000000 3.694850 0.000000 
#    z 0.000000 0.000000 3.858120 
# 
# 
# High freq. dielectric constant tensor:
#      x y z
#    x 1.792530 0.000000 0.000000 
#    y 0.000000 1.789420 0.000000 
#    z 0.000000 0.000000 1.787360 
# 
# From -- ./inp_files/15093.got.cif
#   From: 2010.03.12/outbox.cif.g09.slc.cpg/sg44_8_cif.got.tgz:15093.got - 2010.04.14 02:36:11.
