data_PCOD8189806
_publ_section_title
;
Structure prediction by ZEFSAII (Michael W. Deem and Ramdas Pophale) SiO2 
 PCOD8189806
Probable space group: I M M 2
;
_chemical_formula_sum "Si O2"
_cell_formula_units_Z 48
_cell_length_a 8.575939
_cell_length_b 28.183629
_cell_length_c 9.826579
_cell_angle_alpha 90.000000
_cell_angle_beta 90.000000
_cell_angle_gamma 90.000000
_cell_volume 2375.094787
_symmetry_space_group_name_H-M "I M M 2"
_symmetry_group_IT_number 44
_symmetry_cell_setting 'orthorhombic'
loop_
_space_group_symop_operation_xyz
x,y,z
-x,-y,z
-x,y,z
x,-y,z
1/2+x,1/2+y,1/2+z
1/2-x,1/2-y,1/2+z
1/2-x,1/2+y,1/2+z
1/2+x,1/2-y,1/2+z
loop_
_atom_site_type_symbol
_atom_site_label
_atom_site_fract_x
_atom_site_fract_y
_atom_site_fract_z
Si Si1 0.183460 0.791206 0.013360
Si Si2 0.182996 0.112138 0.433431
Si Si3 0.317285 0.394245 0.424512
Si Si4 0.315914 0.551466 0.687772
Si Si5 0.816467 0.707547 0.818802
Si Si6 0.181683 0.554874 0.173831
O O1 0.252319 0.789309 0.165494
O O2 0.000000 0.787903 0.035009
O O3 0.226658 0.838886 0.930146
O O4 0.248243 0.749688 0.915731
O O5 0.243816 0.072538 0.329122
O O6 0.271372 0.160320 0.399476
O O7 0.222116 0.090872 0.579780
O O8 0.000000 0.122454 0.421221
O O9 0.500000 0.402492 0.392830
O O10 0.265122 0.413196 0.570609
O O11 0.212862 0.424636 0.322661
O O12 0.500000 0.546253 0.690911
O O13 0.237796 0.500000 0.666895
O O14 0.000000 0.711473 0.806605
O O15 0.239712 0.500000 0.162860
O O16 0.000000 0.557777 0.138921
#
# Coordination Sequence:
#
# PCOD8189806 Si02
#       6
#     8   8   8   8   8   8
#     4  10  23  43  64  92 124 159 206 257 308 372
#     4  11  22  40  64  89 123 163 208 256 305 367
#     4  10  20  39  64  89 120 158 205 257 304 367
#     4   9  17  32  59  90 114 144 194 251 299 351
#     4  11  24  41  64  95 128 161 203 256 317 372
#     4  11  25  42  59  89 131 168 206 256 314 371
#
# _framework density 20.209720000000001
#
# number of rings (size 3 to 8) (size 9 to 14) (size 15 to 20)
#    0.000    1.667    1.667    2.500    2.333    4.667 
#    0.000    0.000    0.000    3.000    0.000    0.000 
#    0.000    0.000    0.000    0.000    0.000    0.000 
#
# Total GULP energy -297550.257239 kJ/mol
# GULP energy per Si atom -12397.927385 kJ/mol
# Density = 2.016372 g / cm^3
# Si number density = 20.209720 Si / 1000 Ang^3
#
#
#
# Elastic Constant Matrix: (Units=GPa)
#
#
# Indices 1 2 3 4 5 6 
#
# 1 32.8399 21.7821 17.5933 -0.0021 0.0002 -0.0003
# 2 21.7821 140.6041 36.3840 -0.0157 -0.0024 -0.0019
# 3 17.5933 36.3840 86.6938 -0.0309 -0.0076 -0.0040
# 4 -0.0021 -0.0157 -0.0309 35.8655 -0.0021 -0.0021
# 5 0.0002 -0.0024 -0.0076 -0.0021 32.2305 -0.0014
# 6 -0.0003 -0.0019 -0.0040 -0.0021 -0.0014 27.9309
#
#
#
# Elastic Compliance Matrix: (Units=1/GPa)
#
#
# Indices 1 2 3 4 5 6 
#
# 1 0.036212 -0.004160 -0.005603 -0.000004 -0.000002 -0.000001
# 2 -0.004160 0.008457 -0.002705 0.000001 0.000000 0.000000
# 3 -0.005603 -0.002705 0.013807 0.000010 0.000003 0.000002
# 4 -0.000004 0.000001 0.000010 0.027882 0.000002 0.000002
# 5 -0.000002 0.000000 0.000003 0.000002 0.031027 0.000002
# 6 -0.000001 0.000000 0.000002 0.000002 0.000002 0.035803
#
#
# Mechanical properties :
#
#
# Convention : Reuss Voigt Hill
#
# Bulk Modulus (GPa) = 29.81521 45.73963 37.77742
# Shear Modulus (GPa) = 26.41287 31.49725 28.95506
#
# Velocity S-wave (km/s) = 3.61908 3.95209 3.78925
# Velocity P-wave (km/s) = 5.67879 6.59598 6.15450
#
# Compressibility (1/GPa) = 0.03353992
#
# Stress axis : x y z
#
# Youngs Moduli (GPa) = 27.61549 118.25138 72.42676
#
# Poissons Ratio (x) = 0.49193 0.40579
# Poissons Ratio (y) = 0.11488 0.19591
# Poissons Ratio (z) = 0.15472 0.31985
#
# Static dielectric constant tensor:
#      x y z
#    x 3.421160 0.000010 0.000000 
#    y 0.000010 4.023710 0.000000 
#    z 0.000000 0.000000 3.721200 
# 
# 
# High freq. dielectric constant tensor:
#      x y z
#    x 1.767680 0.000000 0.000000 
#    y 0.000000 1.808810 0.000000 
#    z 0.000000 0.000000 1.800900 
# 
# From -- ./inp_files/4902.got.cif
#   From: 2010.03.12/outbox.cif.g09.slc.cpg/sg44_3_cif.got.tgz:4902.got - 2010.04.14 02:36:11.
