data_PCOD8189540
_publ_section_title
;
Structure prediction by ZEFSAII (Michael W. Deem and Ramdas Pophale) SiO2 
 PCOD8189540
Probable space group: I M M 2
;
_chemical_formula_sum "Si O2"
_cell_formula_units_Z 64
_cell_length_a 8.870642
_cell_length_b 19.511051
_cell_length_c 20.059492
_cell_angle_alpha 90.000000
_cell_angle_beta 90.000000
_cell_angle_gamma 90.000000
_cell_volume 3471.807580
_symmetry_space_group_name_H-M "I M M 2"
_symmetry_group_IT_number 44
_symmetry_cell_setting 'orthorhombic'
loop_
_space_group_symop_operation_xyz
x,y,z
-x,-y,z
-x,y,z
x,-y,z
1/2+x,1/2+y,1/2+z
1/2-x,1/2-y,1/2+z
1/2-x,1/2+y,1/2+z
1/2+x,1/2-y,1/2+z
loop_
_atom_site_type_symbol
_atom_site_label
_atom_site_fract_x
_atom_site_fract_y
_atom_site_fract_z
Si Si1 0.325209 0.824521 0.764920
Si Si2 0.671281 0.172712 0.919299
Si Si3 0.174576 0.079625 0.659658
Si Si4 0.676622 0.671139 0.911226
Si Si5 0.676517 0.422474 0.522677
Si Si6 0.677014 0.077514 0.157724
Si Si7 0.174368 0.419593 0.022281
Si Si8 0.321730 0.180389 0.272533
O O1 0.500000 0.825093 0.744668
O O2 0.302988 0.843828 0.841905
O O3 0.234816 0.880120 0.723123
O O4 0.259171 0.749848 0.750264
O O5 0.500000 0.157271 0.940315
O O6 0.712549 0.251570 0.934459
O O7 0.780616 0.124447 0.960607
O O8 0.266882 0.102893 0.594678
O O9 0.000000 0.096694 0.647415
O O10 0.200457 0.000000 0.674701
O O11 0.500000 0.662685 0.896344
O O12 0.767090 0.653878 0.844179
O O13 0.727899 0.619155 0.967664
O O14 0.500000 0.420299 0.532228
O O15 0.733520 0.500000 0.509084
O O16 0.749694 0.393204 0.590227
O O17 0.500000 0.080808 0.147671
O O18 0.728296 0.123133 0.219777
O O19 0.732434 0.000000 0.171418
O O20 0.199405 0.500000 0.011025
O O21 0.000000 0.398925 0.015792
O O22 0.500000 0.192256 0.273996
#
# Coordination Sequence:
#
# PCOD8189540 Si02
#       8
#     8   8   8   8   8   8   8   8
#     4  10  21  37  56  79 108 142 181 222 266 320
#     4   9  20  37  55  76 104 140 178 215 258 313
#     4  10  21  37  57  81 109 141 178 222 272 324
#     4  10  21  37  56  80 110 142 179 221 267 321
#     4  10  21  35  53  79 107 135 172 218 264 311
#     4   9  19  36  56  77 104 139 176 214 259 313
#     4  10  21  37  57  81 109 142 181 223 267 319
#     4  10  20  35  56  81 109 141 179 223 269 317
#
# _framework density 18.434200000000001
#
# number of rings (size 3 to 8) (size 9 to 14) (size 15 to 20)
#    0.000    2.250    0.000    3.000    0.000    8.250 
#    0.000    5.000    0.000    0.000    0.000    0.000 
#    0.000    0.000    0.000    0.000    0.000    0.000 
#
# Total GULP energy -396926.726989 kJ/mol
# GULP energy per Si atom -12403.960218 kJ/mol
# Density = 1.839224 g / cm^3
# Si number density = 18.434200 Si / 1000 Ang^3
#
#
#
# Elastic Constant Matrix: (Units=GPa)
#
#
# Indices 1 2 3 4 5 6 
#
# 1 39.4078 30.1300 25.1918 0.0000 0.0000 0.0000
# 2 30.1300 73.6873 59.1397 0.0000 0.0000 0.0000
# 3 25.1918 59.1397 95.5046 0.0000 0.0000 0.0000
# 4 0.0000 0.0000 0.0000 55.9846 0.0000 0.0000
# 5 0.0000 0.0000 0.0000 0.0000 36.3426 0.0000
# 6 0.0000 0.0000 0.0000 0.0000 0.0000 30.7347
#
#
#
# Elastic Compliance Matrix: (Units=1/GPa)
#
#
# Indices 1 2 3 4 5 6 
#
# 1 0.036946 -0.014483 -0.000777 0.000000 0.000000 0.000000
# 2 -0.014483 0.032657 -0.016402 0.000000 0.000000 0.000000
# 3 -0.000777 -0.016402 0.020832 0.000000 0.000000 0.000000
# 4 0.000000 0.000000 0.000000 0.017862 0.000000 0.000000
# 5 0.000000 0.000000 0.000000 0.000000 0.027516 0.000000
# 6 0.000000 0.000000 0.000000 0.000000 0.000000 0.032536
#
#
# Mechanical properties :
#
#
# Convention : Reuss Voigt Hill
#
# Bulk Modulus (GPa) = 36.88575 48.61363 42.74969
# Shear Modulus (GPa) = 20.77194 30.88827 25.83010
#
# Velocity S-wave (km/s) = 3.36045 4.09784 3.74733
# Velocity P-wave (km/s) = 5.92534 6.98702 6.47797
#
# Compressibility (1/GPa) = 0.02711074
#
# Stress axis : x y z
#
# Youngs Moduli (GPa) = 27.06675 30.62174 48.00277
#
# Poissons Ratio (x) = 0.44350 0.03729
# Poissons Ratio (y) = 0.39201 0.78733
# Poissons Ratio (z) = 0.02103 0.50225
#
# Static dielectric constant tensor:
#      x y z
#    x 3.457420 0.000000 0.000000 
#    y 0.000000 3.407220 0.000000 
#    z 0.000000 0.000000 3.403300 
# 
# 
# High freq. dielectric constant tensor:
#      x y z
#    x 1.726880 0.000000 0.000000 
#    y 0.000000 1.712510 0.000000 
#    z 0.000000 0.000000 1.719680 
# 
# From -- ./inp_files/20751.got.cif
#   From: 2010.03.12/outbox.cif.g09.slc.cpg/sg44_11_cif.got.tgz:20751.got - 2010.04.14 02:36:11.
