data_PCOD8189857
_publ_section_title
;
Structure prediction by ZEFSAII (Michael W. Deem and Ramdas Pophale) SiO2 
 PCOD8189857
Probable space group: I M M 2
;
_chemical_formula_sum "Si O2"
_cell_formula_units_Z 48
_cell_length_a 8.963354
_cell_length_b 14.955143
_cell_length_c 18.872114
_cell_angle_alpha 90.000000
_cell_angle_beta 90.000000
_cell_angle_gamma 90.000000
_cell_volume 2529.773682
_symmetry_space_group_name_H-M "I M M 2"
_symmetry_group_IT_number 44
_symmetry_cell_setting 'orthorhombic'
loop_
_space_group_symop_operation_xyz
x,y,z
-x,-y,z
-x,y,z
x,-y,z
1/2+x,1/2+y,1/2+z
1/2-x,1/2-y,1/2+z
1/2-x,1/2+y,1/2+z
1/2+x,1/2-y,1/2+z
loop_
_atom_site_type_symbol
_atom_site_label
_atom_site_fract_x
_atom_site_fract_y
_atom_site_fract_z
Si Si1 0.326237 0.260645 0.601960
Si Si2 0.823222 0.901805 0.366713
Si Si3 0.174906 0.603172 0.498988
Si Si4 0.674181 0.603231 0.353453
Si Si5 0.825283 0.747229 0.265352
Si Si6 0.672849 0.396709 0.027040
O O1 0.500000 0.271659 0.585566
O O2 0.237755 0.339069 0.563157
O O3 0.290792 0.270589 0.684609
O O4 0.273466 0.162858 0.578078
O O5 0.760077 0.828755 0.312347
O O6 0.777242 0.876067 0.446584
O O7 0.000000 0.906422 0.361571
O O8 0.757891 0.000000 0.347315
O O9 0.214319 0.500000 0.514281
O O10 0.248044 0.635711 0.425765
O O11 0.000000 0.619577 0.492326
O O12 0.500000 0.621381 0.361082
O O13 0.710067 0.500000 0.338472
O O14 0.739504 0.657447 0.287238
O O15 0.000000 0.732171 0.278761
O O16 0.500000 0.371718 0.038029
O O17 0.701142 0.500000 0.046128
#
# Coordination Sequence:
#
# PCOD8189857 Si02
#       6
#     8   8   8   8   8   8
#     4  11  23  35  51  80 115 148 182 223 270 322
#     4   8  15  31  55  78  97 124 169 219 262 308
#     4  10  21  38  60  82 106 142 186 230 277 331
#     4  10  21  37  58  83 109 139 179 229 280 327
#     4  10  21  35  53  79 110 145 180 216 265 323
#     4   9  18  34  57  80 101 134 182 229 272 323
#
# _framework density 18.974029000000002
#
# number of rings (size 3 to 8) (size 9 to 14) (size 15 to 20)
#    0.000    2.333    0.000    3.500    0.000    6.333 
#    0.000    5.000    0.000    1.500    0.000    0.000 
#    0.000    0.000    0.000    0.000    0.000    0.000 
#
# Total GULP energy -297664.725928 kJ/mol
# GULP energy per Si atom -12402.696914 kJ/mol
# Density = 1.893084 g / cm^3
# Si number density = 18.974029 Si / 1000 Ang^3
#
#
#
# Elastic Constant Matrix: (Units=GPa)
#
#
# Indices 1 2 3 4 5 6 
#
# 1 67.1500 34.4783 35.6354 0.0000 0.0000 0.0000
# 2 34.4783 80.3430 29.7493 0.0000 0.0000 0.0000
# 3 35.6354 29.7493 58.5536 0.0000 0.0000 0.0000
# 4 0.0000 0.0000 0.0000 21.2586 0.0000 0.0000
# 5 0.0000 0.0000 0.0000 0.0000 31.0417 0.0000
# 6 0.0000 0.0000 0.0000 0.0000 0.0000 29.8865
#
#
#
# Elastic Compliance Matrix: (Units=1/GPa)
#
#
# Indices 1 2 3 4 5 6 
#
# 1 0.024182 -0.006070 -0.011633 0.000000 0.000000 0.000000
# 2 -0.006070 0.016854 -0.004869 0.000000 0.000000 0.000000
# 3 -0.011633 -0.004869 0.026632 0.000000 0.000000 0.000000
# 4 0.000000 0.000000 0.000000 0.047040 0.000000 0.000000
# 5 0.000000 0.000000 0.000000 0.000000 0.032215 0.000000
# 6 0.000000 0.000000 0.000000 0.000000 0.000000 0.033460
#
#
# Mechanical properties :
#
#
# Convention : Reuss Voigt Hill
#
# Bulk Modulus (GPa) = 44.39660 45.08584 44.74122
# Shear Modulus (GPa) = 21.45595 23.51627 22.48611
#
# Velocity S-wave (km/s) = 3.36639 3.52432 3.44626
# Velocity P-wave (km/s) = 6.20963 6.35410 6.28228
#
# Compressibility (1/GPa) = 0.02252425
#
# Stress axis : x y z
#
# Youngs Moduli (GPa) = 41.35273 59.33161 37.54876
#
# Poissons Ratio (x) = 0.36014 0.43681
# Poissons Ratio (y) = 0.25101 0.18283
# Poissons Ratio (z) = 0.48106 0.28889
#
# Static dielectric constant tensor:
#      x y z
#    x 3.309040 0.000000 0.000000 
#    y 0.000000 3.721040 0.000000 
#    z 0.000000 0.000000 3.446560 
# 
# 
# High freq. dielectric constant tensor:
#      x y z
#    x 1.723000 0.000000 0.000000 
#    y 0.000000 1.749860 0.000000 
#    z 0.000000 0.000000 1.733990 
# 
# From -- ./inp_files/20302.got.cif
#   From: 2010.03.12/outbox.cif.g09.slc.cpg/sg44_11_cif.got.tgz:20302.got - 2010.04.14 02:36:11.
