data_PCOD8189520
_publ_section_title
;
Structure prediction by ZEFSAII (Michael W. Deem and Ramdas Pophale) SiO2 
 PCOD8189520
Probable space group: I M M 2
;
_chemical_formula_sum "Si O2"
_cell_formula_units_Z 64
_cell_length_a 28.091823
_cell_length_b 8.808570
_cell_length_c 14.148483
_cell_angle_alpha 90.000000
_cell_angle_beta 90.000000
_cell_angle_gamma 90.000000
_cell_volume 3501.024989
_symmetry_space_group_name_H-M "I M M 2"
_symmetry_group_IT_number 44
_symmetry_cell_setting 'orthorhombic'
loop_
_space_group_symop_operation_xyz
x,y,z
-x,-y,z
-x,y,z
x,-y,z
1/2+x,1/2+y,1/2+z
1/2-x,1/2-y,1/2+z
1/2-x,1/2+y,1/2+z
1/2+x,1/2-y,1/2+z
loop_
_atom_site_type_symbol
_atom_site_label
_atom_site_fract_x
_atom_site_fract_y
_atom_site_fract_z
Si Si1 0.125690 0.821774 0.333200
Si Si2 0.944293 0.676595 0.971853
Si Si3 0.123042 0.175333 0.825737
Si Si4 0.871339 0.678670 0.624970
Si Si5 0.446002 0.321037 0.991163
Si Si6 0.199093 0.178269 0.485205
Si Si7 0.201487 0.827912 0.980196
Si Si8 0.619767 0.678729 0.622572
O O1 0.078371 0.777062 0.391517
O O2 0.171866 0.762626 0.390883
O O3 0.123368 0.751797 0.228272
O O4 0.129904 0.000000 0.320203
O O5 0.932516 0.500000 0.958472
O O6 0.922460 0.769012 0.884529
O O7 0.000000 0.709057 0.973960
O O8 0.922676 0.733839 0.070616
O O9 0.128856 0.276074 0.733667
O O10 0.170649 0.197746 0.886595
O O11 0.115271 0.000000 0.798707
O O12 0.870770 0.500000 0.615258
O O13 0.919210 0.741450 0.577287
O O14 0.823782 0.743693 0.576780
O O15 0.500000 0.262437 0.988391
O O16 0.442933 0.500000 0.008278
O O17 0.254401 0.214723 0.477236
O O18 0.191384 0.000000 0.497143
O O19 0.220437 0.000000 0.985537
O O20 0.169962 0.789069 0.071833
O O21 0.607831 0.500000 0.619845
#
# Coordination Sequence:
#
# PCOD8189520 Si02
#       8
#     8   8   8   8   8   8   8   8
#     4   8  16  32  53  77 102 132 175 218 255 302
#     4  10  21  36  53  77 109 140 173 215 261 312
#     4  10  21  38  58  79 105 137 176 220 265 317
#     4  11  22  36  55  78 107 141 177 219 264 312
#     4   9  18  34  55  78 105 137 175 220 267 317
#     4  10  20  35  55  78 106 141 179 217 260 311
#     4   9  19  34  52  78 108 135 168 214 265 313
#     4   9  18  34  55  77 104 138 175 217 263 313
#
# _framework density 18.280360000000002
#
# number of rings (size 3 to 8) (size 9 to 14) (size 15 to 20)
#    0.000    2.500    0.000    3.750    0.000    5.750 
#    0.000    5.625    0.000    0.000    0.000    0.000 
#    0.000    0.000    0.000    0.000    0.000    0.000 
#
# Total GULP energy -396837.977227 kJ/mol
# GULP energy per Si atom -12401.186788 kJ/mol
# Density = 1.823875 g / cm^3
# Si number density = 18.280360 Si / 1000 Ang^3
#
#
#
# Elastic Constant Matrix: (Units=GPa)
#
#
# Indices 1 2 3 4 5 6 
#
# 1 126.6308 44.8618 49.0749 0.0000 0.0000 0.0000
# 2 44.8618 61.1571 27.5654 0.0000 0.0000 0.0000
# 3 49.0749 27.5654 130.6762 0.0000 0.0000 0.0000
# 4 0.0000 0.0000 0.0000 18.1673 0.0000 0.0000
# 5 0.0000 0.0000 0.0000 0.0000 11.9535 0.0000
# 6 0.0000 0.0000 0.0000 0.0000 0.0000 32.6756
#
#
#
# Elastic Compliance Matrix: (Units=1/GPa)
#
#
# Indices 1 2 3 4 5 6 
#
# 1 0.011536 -0.007194 -0.002815 0.000000 0.000000 0.000000
# 2 -0.007194 0.022555 -0.002056 0.000000 0.000000 0.000000
# 3 -0.002815 -0.002056 0.009143 0.000000 0.000000 0.000000
# 4 0.000000 0.000000 0.000000 0.055044 0.000000 0.000000
# 5 0.000000 0.000000 0.000000 0.000000 0.083658 0.000000
# 6 0.000000 0.000000 0.000000 0.000000 0.000000 0.030604
#
#
# Mechanical properties :
#
#
# Convention : Reuss Voigt Hill
#
# Bulk Modulus (GPa) = 52.34245 62.38537 57.36391
# Shear Modulus (GPa) = 20.57282 25.69008 23.13145
#
# Velocity S-wave (km/s) = 3.35835 3.75285 3.56107
# Velocity P-wave (km/s) = 6.61312 7.27871 6.95388
#
# Compressibility (1/GPa) = 0.01910495
#
# Stress axis : x y z
#
# Youngs Moduli (GPa) = 86.68176 44.33575 109.36827
#
# Poissons Ratio (x) = 0.31894 0.30787
# Poissons Ratio (y) = 0.62357 0.22489
# Poissons Ratio (z) = 0.24401 0.09117
#
# Static dielectric constant tensor:
#      x y z
#    x 3.372790 0.000000 0.000000 
#    y 0.000000 3.266370 0.000000 
#    z 0.000000 0.000000 3.551020 
# 
# 
# High freq. dielectric constant tensor:
#      x y z
#    x 1.708640 0.000000 0.000000 
#    y 0.000000 1.700520 0.000000 
#    z 0.000000 0.000000 1.714030 
# 
# From -- ./inp_files/19701.got.cif
#   From: 2010.03.12/outbox.cif.g09.slc.cpg/sg44_10_cif.got.tgz:19701.got - 2010.04.14 02:36:11.
