data_PCOD8189728
_publ_section_title
;
Structure prediction by ZEFSAII (Michael W. Deem and Ramdas Pophale) SiO2 
 PCOD8189728
Probable space group: I M M 2
;
_chemical_formula_sum "Si O2"
_cell_formula_units_Z 56
_cell_length_a 15.757133
_cell_length_b 19.433140
_cell_length_c 9.414280
_cell_angle_alpha 90.000000
_cell_angle_beta 90.000000
_cell_angle_gamma 90.000000
_cell_volume 2882.752060
_symmetry_space_group_name_H-M "I M M 2"
_symmetry_group_IT_number 44
_symmetry_cell_setting 'orthorhombic'
loop_
_space_group_symop_operation_xyz
x,y,z
-x,-y,z
-x,y,z
x,-y,z
1/2+x,1/2+y,1/2+z
1/2-x,1/2-y,1/2+z
1/2-x,1/2+y,1/2+z
1/2+x,1/2-y,1/2+z
loop_
_atom_site_type_symbol
_atom_site_label
_atom_site_fract_x
_atom_site_fract_y
_atom_site_fract_z
Si Si1 0.800690 0.423029 0.762040
Si Si2 0.093587 0.220166 0.415247
Si Si3 0.728985 0.075006 0.737580
Si Si4 0.904082 0.769375 0.083371
Si Si5 0.348669 0.577606 0.985389
Si Si6 0.094736 0.612000 0.015997
Si Si7 0.270350 0.826899 0.998971
O O1 0.800577 0.500000 0.699482
O O2 0.722178 0.411043 0.866240
O O3 0.799431 0.370898 0.632454
O O4 0.884583 0.410232 0.855087
O O5 0.113408 0.227045 0.249812
O O6 0.086044 0.139692 0.459798
O O7 0.169432 0.259153 0.498768
O O8 0.000000 0.252212 0.448285
O O9 0.812907 0.088067 0.644120
O O10 0.650621 0.072241 0.630098
O O11 0.735583 0.000000 0.811561
O O12 0.714214 0.132911 0.853718
O O13 0.892274 0.693052 0.027770
O O14 0.830461 0.812562 0.005688
O O15 0.000000 0.796891 0.047946
O O16 0.388198 0.500000 0.970651
O O17 0.000000 0.589520 0.050475
#
# Coordination Sequence:
#
# PCOD8189728 Si02
#       7
#     8   8   8   8   8   8   8
#     4  10  21  36  57  86 116 156 205 244 289 349
#     4  11  23  38  60  91 122 155 198 245 294 355
#     4  10  21  36  58  85 115 156 200 238 294 360
#     4  10  22  39  61  88 116 152 202 248 294 357
#     4   9  19  38  60  83 113 153 198 240 289 352
#     4  10  20  37  58  83 116 156 203 248 289 348
#     4  12  22  37  63  87 123 158 191 246 310 341
#
# _framework density 19.425881
#
# number of rings (size 3 to 8) (size 9 to 14) (size 15 to 20)
#    0.000    1.714    2.857    3.429    0.000    2.000 
#    0.000    2.143    0.000    5.143    0.000    0.000 
#    0.000    0.000    0.000    0.000    0.000    0.000 
#
# Total GULP energy -347079.600030 kJ/mol
# GULP energy per Si atom -12395.700001 kJ/mol
# Density = 1.938167 g / cm^3
# Si number density = 19.425881 Si / 1000 Ang^3
#
#
#
# Elastic Constant Matrix: (Units=GPa)
#
#
# Indices 1 2 3 4 5 6 
#
# 1 97.6356 34.5697 25.6992 0.0000 0.0000 0.0000
# 2 34.5697 105.0478 37.2687 0.0000 0.0000 0.0000
# 3 25.6992 37.2687 77.7914 0.0000 0.0000 0.0000
# 4 0.0000 0.0000 0.0000 26.1341 0.0000 0.0000
# 5 0.0000 0.0000 0.0000 0.0000 9.7023 0.0000
# 6 0.0000 0.0000 0.0000 0.0000 0.0000 -3.7716
#
#
#
# Elastic Compliance Matrix: (Units=1/GPa)
#
#
# Indices 1 2 3 4 5 6 
#
# 1 0.011981 -0.003058 -0.002493 0.000000 0.000000 0.000000
# 2 -0.003058 0.012250 -0.004858 0.000000 0.000000 0.000000
# 3 -0.002493 -0.004858 0.016006 0.000000 0.000000 0.000000
# 4 0.000000 0.000000 0.000000 0.038264 0.000000 0.000000
# 5 0.000000 0.000000 0.000000 0.000000 0.103068 0.000000
# 6 0.000000 0.000000 0.000000 0.000000 0.000000 -0.265138
#
#
# Mechanical properties :
#
#
# Convention : Reuss Voigt Hill
#
# Bulk Modulus (GPa) = 51.49939 52.83889 52.16914
# Shear Modulus (GPa) = -88.84550 18.60877 -35.11836
#
# Velocity S-wave (km/s) = -6.77015 3.09841 -4.25645
# Velocity P-wave (km/s) = 5.87750 6.32926 1.66051
#
# Compressibility (1/GPa) = 0.01941771
#
# Stress axis : x y z
#
# Youngs Moduli (GPa) = 83.46394 81.63567 62.47691
#
# Poissons Ratio (x) = 0.24968 0.15575
# Poissons Ratio (y) = 0.25527 0.30352
# Poissons Ratio (z) = 0.20806 0.39660
#
# Static dielectric constant tensor:
#      x y z
#    x 3.657190 0.000000 0.000000 
#    y 0.000000 3.641750 0.000000 
#    z 0.000000 0.000000 3.427880 
# 
# 
# High freq. dielectric constant tensor:
#      x y z
#    x 1.747480 0.000000 0.000000 
#    y 0.000000 1.765800 0.000000 
#    z 0.000000 0.000000 1.745620 
# 
# From -- ./inp_files/7391.got.cif
#   From: 2010.03.12/outbox.cif.g09.slc.cpg/sg44_4_cif.got.tgz:7391.got - 2010.04.14 02:36:11.
