data_PCOD8189179
_publ_section_title
;
Structure prediction by ZEFSAII (Michael W. Deem and Ramdas Pophale) SiO2 
 PCOD8189179
Probable space group: I M M 2
;
_chemical_formula_sum "Si O2"
_cell_formula_units_Z 64
_cell_length_a 15.764472
_cell_length_b 9.518309
_cell_length_c 23.218490
_cell_angle_alpha 90.000000
_cell_angle_beta 90.000000
_cell_angle_gamma 90.000000
_cell_volume 3483.960330
_symmetry_space_group_name_H-M "I M M 2"
_symmetry_group_IT_number 44
_symmetry_cell_setting 'orthorhombic'
loop_
_space_group_symop_operation_xyz
x,y,z
-x,-y,z
-x,y,z
x,-y,z
1/2+x,1/2+y,1/2+z
1/2-x,1/2-y,1/2+z
1/2-x,1/2+y,1/2+z
1/2+x,1/2-y,1/2+z
loop_
_atom_site_type_symbol
_atom_site_label
_atom_site_fract_x
_atom_site_fract_y
_atom_site_fract_z
Si Si1 0.362593 0.340551 0.598800
Si Si2 0.094378 0.167242 0.444232
Si Si3 0.095380 0.659719 0.207021
Si Si4 0.097443 0.149766 0.568740
Si Si5 0.231614 0.163154 0.264799
Si Si6 0.402087 0.664625 0.468839
Si Si7 0.769002 0.664293 0.892231
Si Si8 0.317921 0.844974 0.149429
O O1 0.396345 0.500000 0.608599
O O2 0.404086 0.237450 0.645315
O O3 0.385907 0.288504 0.534779
O O4 0.261844 0.336107 0.606571
O O5 0.122062 0.222195 0.507857
O O6 0.171867 0.215948 0.403668
O O7 0.000000 0.225562 0.425610
O O8 0.088666 0.000000 0.445591
O O9 0.129307 0.500000 0.199370
O O10 0.148812 0.740991 0.255882
O O11 0.000000 0.658302 0.230426
O O12 0.111438 0.244538 0.624215
O O13 0.000000 0.116168 0.564640
O O14 0.146018 0.000000 0.576459
O O15 0.280591 0.192464 0.324236
O O16 0.295951 0.203471 0.213821
O O17 0.203116 0.000000 0.259841
O O18 0.500000 0.697952 0.452724
O O19 0.382270 0.500000 0.461445
O O20 0.339730 0.749641 0.426754
O O21 0.780106 0.500000 0.907666
O O22 0.356524 0.000000 0.150688
#
# Coordination Sequence:
#
# PCOD8189179 Si02
#       8
#     8   8   8   8   8   8   8   8
#     4   9  18  33  53  76 103 135 169 205 252 315
#     4   8  15  29  50  77 105 128 155 198 251 306
#     4  10  20  32  49  77 108 134 164 206 255 305
#     4   9  17  29  46  70  98 124 152 191 243 302
#     4   9  20  36  51  70  97 132 173 211 252 305
#     4  10  21  36  54  77 106 141 177 214 264 321
#     4  10  20  35  56  78 100 133 178 222 260 302
#     4   9  17  30  48  70  95 123 159 203 247 292
#
# _framework density 18.369899
#
# number of rings (size 3 to 8) (size 9 to 14) (size 15 to 20)
#    0.000    2.750    0.000    3.000    0.000    5.500 
#    0.000    1.875    0.000    4.875    0.000    0.000 
#    0.000    0.000    0.000    0.000    0.000    0.000 
#
# Total GULP energy -396545.835106 kJ/mol
# GULP energy per Si atom -12392.057347 kJ/mol
# Density = 1.832809 g / cm^3
# Si number density = 18.369899 Si / 1000 Ang^3
#
#
#
# Elastic Constant Matrix: (Units=GPa)
#
#
# Indices 1 2 3 4 5 6 
#
# 1 55.0626 21.7679 46.4634 0.0000 0.0000 0.0000
# 2 21.7679 59.4229 36.2903 0.0000 0.0000 0.0000
# 3 46.4634 36.2903 105.0229 0.0000 0.0000 0.0000
# 4 0.0000 0.0000 0.0000 26.0203 0.0000 0.0000
# 5 0.0000 0.0000 0.0000 0.0000 17.0498 0.0000
# 6 0.0000 0.0000 0.0000 0.0000 0.0000 26.9434
#
#
#
# Elastic Compliance Matrix: (Units=1/GPa)
#
#
# Indices 1 2 3 4 5 6 
#
# 1 0.029577 -0.003604 -0.011840 0.000000 0.000000 0.000000
# 2 -0.003604 0.021769 -0.005928 0.000000 0.000000 0.000000
# 3 -0.011840 -0.005928 0.016808 0.000000 0.000000 0.000000
# 4 0.000000 0.000000 0.000000 0.038431 0.000000 0.000000
# 5 0.000000 0.000000 0.000000 0.000000 0.058652 0.000000
# 6 0.000000 0.000000 0.000000 0.000000 0.000000 0.037115
#
#
# Mechanical properties :
#
#
# Convention : Reuss Voigt Hill
#
# Bulk Modulus (GPa) = 39.35331 47.61683 43.48507
# Shear Modulus (GPa) = 19.71886 21.66851 20.69368
#
# Velocity S-wave (km/s) = 3.27988 3.43821 3.35998
# Velocity P-wave (km/s) = 5.98437 6.46058 6.22703
#
# Compressibility (1/GPa) = 0.02541082
#
# Stress axis : x y z
#
# Youngs Moduli (GPa) = 33.81051 45.93724 59.49515
#
# Poissons Ratio (x) = 0.16555 0.70441
# Poissons Ratio (y) = 0.12185 0.35267
# Poissons Ratio (z) = 0.40031 0.27230
#
# Static dielectric constant tensor:
#      x y z
#    x 3.272460 0.000000 0.000000 
#    y 0.000000 3.266500 0.000000 
#    z 0.000000 0.000000 3.436460 
# 
# 
# High freq. dielectric constant tensor:
#      x y z
#    x 1.700610 0.000000 0.000000 
#    y 0.000000 1.696480 0.000000 
#    z 0.000000 0.000000 1.707610 
# 
# From -- ./inp_files/23334.got.cif
#   From: 2010.03.12/outbox.cif.g09.slc.cpg/sg44_12_cif.got.tgz:23334.got - 2010.04.14 02:36:11.
