data_PCOD8189663
_publ_section_title
;
Structure prediction by ZEFSAII (Michael W. Deem and Ramdas Pophale) SiO2 
 PCOD8189663
Probable space group: I M M 2
;
_chemical_formula_sum "Si O2"
_cell_formula_units_Z 64
_cell_length_a 18.806170
_cell_length_b 15.314501
_cell_length_c 11.662241
_cell_angle_alpha 90.000000
_cell_angle_beta 90.000000
_cell_angle_gamma 90.000000
_cell_volume 3358.808318
_symmetry_space_group_name_H-M "I M M 2"
_symmetry_group_IT_number 44
_symmetry_cell_setting 'orthorhombic'
loop_
_space_group_symop_operation_xyz
x,y,z
-x,-y,z
-x,y,z
x,-y,z
1/2+x,1/2+y,1/2+z
1/2-x,1/2-y,1/2+z
1/2-x,1/2+y,1/2+z
1/2+x,1/2-y,1/2+z
loop_
_atom_site_type_symbol
_atom_site_label
_atom_site_fract_x
_atom_site_fract_y
_atom_site_fract_z
Si Si1 0.419671 0.681714 0.919940
Si Si2 0.149361 0.747720 0.029341
Si Si3 0.172271 0.772749 0.776592
Si Si4 0.305063 0.203385 0.048771
Si Si5 0.084120 0.101722 0.176451
Si Si6 0.420454 0.407554 0.146504
Si Si7 0.794300 0.597816 0.346486
Si Si8 0.581546 0.901033 0.677782
O O1 0.500000 0.720714 0.908972
O O2 0.393322 0.644038 0.797986
O O3 0.366038 0.753411 0.969855
O O4 0.419793 0.602087 0.009099
O O5 0.135257 0.742034 0.892976
O O6 0.233876 0.737354 0.044600
O O7 0.122546 0.841080 0.078139
O O8 0.108275 0.665934 0.082052
O O9 0.180750 0.692274 0.685497
O O10 0.118517 0.832079 0.709611
O O11 0.244555 0.826916 0.794511
O O12 0.294979 0.110211 0.985312
O O13 0.000000 0.108008 0.158596
O O14 0.108575 0.000000 0.168866
O O15 0.500000 0.406936 0.193772
O O16 0.383774 0.500000 0.175513
O O17 0.766082 0.500000 0.320739
O O18 0.872685 0.611204 0.293143
O O19 0.500000 0.879458 0.708955
O O20 0.589267 0.000000 0.630288
#
# Coordination Sequence:
#
# PCOD8189663 Si02
#       8
#     8   8   8   8   8   8   8   8
#     4   9  18  34  57  82 110 146 188 238 288 331
#     4  11  22  36  56  79 117 153 188 231 284 342
#     4  10  21  36  54  76 114 152 184 220 280 347
#     4  10  21  36  57  81 113 148 189 234 283 343
#     4  10  21  36  57  87 120 151 187 233 290 351
#     4   9  17  30  50  78 109 143 185 225 267 332
#     4  10  20  36  59  84 110 142 188 242 292 334
#     4  10  21  39  63  87 109 144 198 251 292 331
#
# _framework density 19.054376999999999
#
# number of rings (size 3 to 8) (size 9 to 14) (size 15 to 20)
#    0.000    2.125    1.250    1.875    1.750    6.500 
#    0.000    2.500    0.000    0.000    0.000    1.750 
#    0.000    0.000    0.000    0.000    0.000    0.000 
#
# Total GULP energy -396463.293042 kJ/mol
# GULP energy per Si atom -12389.477908 kJ/mol
# Density = 1.901101 g / cm^3
# Si number density = 19.054377 Si / 1000 Ang^3
#
#
#
# Elastic Constant Matrix: (Units=GPa)
#
#
# Indices 1 2 3 4 5 6 
#
# 1 76.3023 30.1282 28.6037 0.0000 0.0000 0.0000
# 2 30.1282 67.6570 42.8041 0.0000 0.0000 0.0000
# 3 28.6037 42.8041 150.1909 0.0000 0.0000 0.0000
# 4 0.0000 0.0000 0.0000 10.5447 0.0000 0.0000
# 5 0.0000 0.0000 0.0000 0.0000 83.1405 0.0000
# 6 0.0000 0.0000 0.0000 0.0000 0.0000 -105.1949
#
#
#
# Elastic Compliance Matrix: (Units=1/GPa)
#
#
# Indices 1 2 3 4 5 6 
#
# 1 0.016091 -0.006376 -0.001247 0.000000 0.000000 0.000000
# 2 -0.006376 0.020558 -0.004645 0.000000 0.000000 0.000000
# 3 -0.001247 -0.004645 0.008219 0.000000 0.000000 0.000000
# 4 0.000000 0.000000 0.000000 0.094834 0.000000 0.000000
# 5 0.000000 0.000000 0.000000 0.000000 0.012028 0.000000
# 6 0.000000 0.000000 0.000000 0.000000 0.000000 -0.009506
#
#
# Mechanical properties :
#
#
# Convention : Reuss Voigt Hill
#
# Bulk Modulus (GPa) = 49.18303 55.24690 52.21496
# Shear Modulus (GPa) = 28.81199 10.53903 19.67551
#
# Velocity S-wave (km/s) = 3.89278 2.35437 3.21689
# Velocity P-wave (km/s) = 6.78771 6.03722 6.42343
#
# Compressibility (1/GPa) = 0.02033222
#
# Stress axis : x y z
#
# Youngs Moduli (GPa) = 62.14631 48.64185 121.66221
#
# Poissons Ratio (x) = 0.31016 0.15175
# Poissons Ratio (y) = 0.39627 0.56509
# Poissons Ratio (z) = 0.07751 0.22593
#
# Static dielectric constant tensor:
#      x y z
#    x 3.475870 0.000000 0.000000 
#    y 0.000000 3.571110 0.000000 
#    z 0.000000 0.000000 3.895830 
# 
# 
# High freq. dielectric constant tensor:
#      x y z
#    x 1.744840 0.000000 0.000000 
#    y 0.000000 1.724770 0.000000 
#    z 0.000000 0.000000 1.743320 
# 
# From -- ./inp_files/14013.got.cif
#   From: 2010.03.12/outbox.cif.g09.slc.cpg/sg44_8_cif.got.tgz:14013.got - 2010.04.14 02:36:11.
