data_PCOD8189860
_publ_section_title
;
Structure prediction by ZEFSAII (Michael W. Deem and Ramdas Pophale) SiO2 
 PCOD8189860
Probable space group: I M M 2
;
_chemical_formula_sum "Si O2"
_cell_formula_units_Z 56
_cell_length_a 9.484007
_cell_length_b 19.843037
_cell_length_c 15.151357
_cell_angle_alpha 90.000000
_cell_angle_beta 90.000000
_cell_angle_gamma 90.000000
_cell_volume 2851.356628
_symmetry_space_group_name_H-M "I M M 2"
_symmetry_group_IT_number 44
_symmetry_cell_setting 'orthorhombic'
loop_
_space_group_symop_operation_xyz
x,y,z
-x,-y,z
-x,y,z
x,-y,z
1/2+x,1/2+y,1/2+z
1/2-x,1/2-y,1/2+z
1/2-x,1/2+y,1/2+z
1/2+x,1/2-y,1/2+z
loop_
_atom_site_type_symbol
_atom_site_label
_atom_site_fract_x
_atom_site_fract_y
_atom_site_fract_z
Si Si1 0.161482 0.239230 0.652600
Si Si2 0.336882 0.120945 0.738624
Si Si3 0.658831 0.579721 0.905562
Si Si4 0.656939 0.183975 0.325348
Si Si5 0.836764 0.784256 0.982859
Si Si6 0.350999 0.925414 0.554358
Si Si7 0.161018 0.924095 0.901251
O O1 0.249632 0.184567 0.706123
O O2 0.160266 0.300096 0.721739
O O3 0.238697 0.257826 0.561681
O O4 0.000000 0.216255 0.632747
O O5 0.500000 0.139606 0.759840
O O6 0.323037 0.069003 0.657851
O O7 0.267899 0.084110 0.820880
O O8 0.500000 0.604567 0.905936
O O9 0.669601 0.500000 0.890051
O O10 0.741458 0.619357 0.830160
O O11 0.724424 0.607403 0.998653
O O12 0.500000 0.161723 0.352916
O O13 0.702233 0.245908 0.390777
O O14 0.806962 0.864619 0.971376
O O15 0.000000 0.772638 0.008366
O O16 0.500000 0.886174 0.537121
O O17 0.365924 0.000000 0.516049
O O18 0.000000 0.915711 0.867192
O O19 0.182497 0.000000 0.941378
#
# Coordination Sequence:
#
# PCOD8189860 Si02
#       7
#     8   8   8   8   8   8   8
#     4  11  23  39  59  86 116 151 198 249 301 360
#     4  11  21  34  55  85 118 152 194 246 301 357
#     4  10  21  35  53  81 113 144 186 240 291 344
#     4  10  21  39  60  81 114 154 192 237 292 355
#     4  10  21  40  61  87 121 159 202 249 302 363
#     4   9  18  32  49  73 109 150 185 219 273 344
#     4  10  21  39  62  86 120 166 208 252 309 369
#
# _framework density 19.639773999999999
#
# number of rings (size 3 to 8) (size 9 to 14) (size 15 to 20)
#    0.000    1.857    1.429    2.571    0.000    8.571 
#    0.000    2.143    0.000    2.571    0.000    0.000 
#    0.000    0.000    0.000    0.000    0.000    0.000 
#
# Total GULP energy -346901.629163 kJ/mol
# GULP energy per Si atom -12389.343899 kJ/mol
# Density = 1.959507 g / cm^3
# Si number density = 19.639774 Si / 1000 Ang^3
#
#
#
# Elastic Constant Matrix: (Units=GPa)
#
#
# Indices 1 2 3 4 5 6 
#
# 1 127.5482 40.9507 33.5829 0.0000 0.0000 0.0000
# 2 40.9507 70.4048 9.2327 0.0000 0.0000 0.0000
# 3 33.5829 9.2327 65.1493 0.0000 0.0000 0.0000
# 4 0.0000 0.0000 0.0000 25.4716 0.0000 0.0000
# 5 0.0000 0.0000 0.0000 0.0000 29.4631 0.0000
# 6 0.0000 0.0000 0.0000 0.0000 0.0000 20.0856
#
#
#
# Elastic Compliance Matrix: (Units=1/GPa)
#
#
# Indices 1 2 3 4 5 6 
#
# 1 0.010955 -0.005738 -0.004834 0.000000 0.000000 0.000000
# 2 -0.005738 0.017478 0.000481 0.000000 0.000000 0.000000
# 3 -0.004834 0.000481 0.017773 0.000000 0.000000 0.000000
# 4 0.000000 0.000000 0.000000 0.039259 0.000000 0.000000
# 5 0.000000 0.000000 0.000000 0.000000 0.033941 0.000000
# 6 0.000000 0.000000 0.000000 0.000000 0.000000 0.049787
#
#
# Mechanical properties :
#
#
# Convention : Reuss Voigt Hill
#
# Bulk Modulus (GPa) = 38.42612 47.84833 43.13722
# Shear Modulus (GPa) = 25.24610 26.95979 26.10294
#
# Velocity S-wave (km/s) = 3.58922 3.70903 3.64962
# Velocity P-wave (km/s) = 6.06503 6.53899 6.30647
#
# Compressibility (1/GPa) = 0.02602397
#
# Stress axis : x y z
#
# Youngs Moduli (GPa) = 91.28053 57.21451 56.26512
#
# Poissons Ratio (x) = 0.32831 0.27198
# Poissons Ratio (y) = 0.52378 -0.02706
# Poissons Ratio (z) = 0.44125 -0.02752
#
# Static dielectric constant tensor:
#      x y z
#    x 3.840840 0.000000 0.000000 
#    y 0.000000 3.656150 0.000000 
#    z 0.000000 0.000000 3.500880 
# 
# 
# High freq. dielectric constant tensor:
#      x y z
#    x 1.776430 0.000000 0.000000 
#    y 0.000000 1.763250 0.000000 
#    z 0.000000 0.000000 1.743850 
# 
# From -- ./inp_files/16450.got.cif
#   From: 2010.03.12/outbox.cif.g09.slc.cpg/sg44_9_cif.got.tgz:16450.got - 2010.04.14 02:36:11.
