data_PCOD8189544
_publ_section_title
;
Structure prediction by ZEFSAII (Michael W. Deem and Ramdas Pophale) SiO2 
 PCOD8189544
Probable space group: I M M 2
;
_chemical_formula_sum "Si O2"
_cell_formula_units_Z 56
_cell_length_a 8.905680
_cell_length_b 22.346315
_cell_length_c 14.305176
_cell_angle_alpha 90.000000
_cell_angle_beta 90.000000
_cell_angle_gamma 90.000000
_cell_volume 2846.860638
_symmetry_space_group_name_H-M "I M M 2"
_symmetry_group_IT_number 44
_symmetry_cell_setting 'orthorhombic'
loop_
_space_group_symop_operation_xyz
x,y,z
-x,-y,z
-x,y,z
x,-y,z
1/2+x,1/2+y,1/2+z
1/2-x,1/2-y,1/2+z
1/2-x,1/2+y,1/2+z
1/2+x,1/2-y,1/2+z
loop_
_atom_site_type_symbol
_atom_site_label
_atom_site_fract_x
_atom_site_fract_y
_atom_site_fract_z
Si Si1 0.172068 0.775726 0.373540
Si Si2 0.324295 0.147555 0.674119
Si Si3 0.676978 0.348777 0.368052
Si Si4 0.170778 0.214592 0.162103
Si Si5 0.323924 0.389201 0.993616
Si Si6 0.677068 0.000000 0.168055
Si Si7 0.323607 0.113870 0.049232
Si Si8 0.322696 0.500000 0.869783
O O1 0.279227 0.719616 0.390797
O O2 0.192040 0.803201 0.270306
O O3 0.218527 0.826475 0.446202
O O4 0.000000 0.754173 0.386624
O O5 0.500000 0.137648 0.687028
O O6 0.245641 0.128917 0.770490
O O7 0.286070 0.216135 0.649237
O O8 0.262055 0.105584 0.591864
O O9 0.500000 0.354582 0.362886
O O10 0.740156 0.390977 0.449979
O O11 0.283089 0.175821 0.100267
O O12 0.000000 0.202189 0.129491
O O13 0.500000 0.394647 0.012908
O O14 0.267719 0.442057 0.926639
O O15 0.731272 0.058473 0.112002
O O16 0.500000 0.000000 0.181340
O O17 0.750361 0.000000 0.268837
O O18 0.500000 0.111889 0.031164
O O19 0.500000 0.500000 0.856169
#
# Coordination Sequence:
#
# PCOD8189544 Si02
#       8
#     8   8   8   8   8   4   8   4
#     4   9  18  33  54  81 114 148 181 221 270 324
#     4  10  21  37  56  80 112 146 180 223 273 325
#     4  11  22  36  56  82 110 141 181 227 274 327
#     4   9  18  33  54  83 114 144 181 222 269 325
#     4  10  20  35  56  82 111 146 186 225 269 319
#     4  10  24  42  59  82 111 144 183 224 266 320
#     4  11  22  37  56  79 110 146 183 225 273 322
#     4  10  22  40  61  84 113 146 181 226 270 312
#
# _framework density 19.670791000000001
#
# number of rings (size 3 to 8) (size 9 to 14) (size 15 to 20)
#    0.000    2.000    0.000    4.714    0.000    8.571 
#    0.000    0.714    0.000    0.000    0.000    0.000 
#    0.000    0.000    0.000    0.000    0.000    0.000 
#
# Total GULP energy -347324.480895 kJ/mol
# GULP energy per Si atom -12404.445746 kJ/mol
# Density = 1.962602 g / cm^3
# Si number density = 19.670791 Si / 1000 Ang^3
#
#
#
# Elastic Constant Matrix: (Units=GPa)
#
#
# Indices 1 2 3 4 5 6 
#
# 1 93.3743 41.8441 69.7443 0.0000 0.0000 0.0000
# 2 41.8441 65.9973 69.7400 -0.0002 0.0000 0.0000
# 3 69.7443 69.7400 174.4505 -0.0002 0.0000 0.0000
# 4 0.0000 -0.0002 -0.0002 32.3093 0.0000 0.0000
# 5 0.0000 0.0000 0.0000 0.0000 39.5977 0.0000
# 6 0.0000 0.0000 0.0000 0.0000 0.0000 21.7567
#
#
#
# Elastic Compliance Matrix: (Units=1/GPa)
#
#
# Indices 1 2 3 4 5 6 
#
# 1 0.016563 -0.006067 -0.004196 0.000000 0.000000 0.000000
# 2 -0.006067 0.028457 -0.008951 0.000000 0.000000 0.000000
# 3 -0.004196 -0.008951 0.010988 0.000000 0.000000 0.000000
# 4 0.000000 0.000000 0.000000 0.030951 0.000000 0.000000
# 5 0.000000 0.000000 0.000000 0.000000 0.025254 0.000000
# 6 0.000000 0.000000 0.000000 0.000000 0.000000 0.045963
#
#
# Mechanical properties :
#
#
# Convention : Reuss Voigt Hill
#
# Bulk Modulus (GPa) = 56.88280 77.38653 67.13467
# Shear Modulus (GPa) = 24.69580 28.89901 26.79740
#
# Velocity S-wave (km/s) = 3.54708 3.83709 3.69493
# Velocity P-wave (km/s) = 6.76431 7.68487 7.23924
#
# Compressibility (1/GPa) = 0.01758001
#
# Stress axis : x y z
#
# Youngs Moduli (GPa) = 60.37650 35.14060 91.00690
#
# Poissons Ratio (x) = 0.21320 0.38189
# Poissons Ratio (y) = 0.36630 0.81458
# Poissons Ratio (z) = 0.25336 0.31453
#
# Static dielectric constant tensor:
#      x y z
#    x 3.439380 0.000000 0.000000 
#    y 0.000000 3.468990 0.000000 
#    z 0.000000 0.000000 3.747060 
# 
# 
# High freq. dielectric constant tensor:
#      x y z
#    x 1.762460 0.000000 0.000000 
#    y 0.000000 1.744610 0.000000 
#    z 0.000000 0.000000 1.784730 
# 
# From -- ./inp_files/16553.got.cif
#   From: 2010.03.12/outbox.cif.g09.slc.cpg/sg44_9_cif.got.tgz:16553.got - 2010.04.14 02:36:11.
