data_PCOD8189879
_publ_section_title
;
Structure prediction by ZEFSAII (Michael W. Deem and Ramdas Pophale) SiO2 
 PCOD8189879
Probable space group: I M M 2
;
_chemical_formula_sum "Si O2"
_cell_formula_units_Z 64
_cell_length_a 8.997550
_cell_length_b 14.483707
_cell_length_c 28.248484
_cell_angle_alpha 90.000000
_cell_angle_beta 90.000000
_cell_angle_gamma 90.000000
_cell_volume 3681.282489
_symmetry_space_group_name_H-M "I M M 2"
_symmetry_group_IT_number 44
_symmetry_cell_setting 'orthorhombic'
loop_
_space_group_symop_operation_xyz
x,y,z
-x,-y,z
-x,y,z
x,-y,z
1/2+x,1/2+y,1/2+z
1/2-x,1/2-y,1/2+z
1/2-x,1/2+y,1/2+z
1/2+x,1/2-y,1/2+z
loop_
_atom_site_type_symbol
_atom_site_label
_atom_site_fract_x
_atom_site_fract_y
_atom_site_fract_z
Si Si1 0.174393 0.893479 0.266120
Si Si2 0.676703 0.602434 0.871959
Si Si3 0.323936 0.722945 0.227606
Si Si4 0.825479 0.397655 0.413649
Si Si5 0.174390 0.605943 0.146926
Si Si6 0.673432 0.394365 0.317120
Si Si7 0.824769 0.216454 0.459295
Si Si8 0.172165 0.106232 0.548976
O O1 0.230558 0.869458 0.319361
O O2 0.263665 0.827590 0.230252
O O3 0.000000 0.874402 0.260537
O O4 0.210574 0.000000 0.253844
O O5 0.500000 0.604541 0.871729
O O6 0.733735 0.500000 0.883941
O O7 0.743747 0.668865 0.912286
O O8 0.500000 0.723298 0.222960
O O9 0.257945 0.673786 0.181974
O O10 0.268994 0.667570 0.273881
O O11 0.767106 0.500000 0.427865
O O12 0.755059 0.362731 0.364758
O O13 0.784725 0.325581 0.455620
O O14 0.000000 0.398741 0.404987
O O15 0.213557 0.500000 0.159810
O O16 0.230284 0.629273 0.094494
O O17 0.000000 0.624379 0.149624
O O18 0.500000 0.380976 0.325675
O O19 0.713176 0.500000 0.304834
O O20 0.761907 0.171148 0.507179
O O21 0.000000 0.199288 0.459358
O O22 0.000000 0.128303 0.560148
O O23 0.190592 0.000000 0.533084
#
# Coordination Sequence:
#
# PCOD8189879 Si02
#       8
#     8   8   8   8   8   8   8   8
#     4   9  18  32  49  70  99 134 168 202 238 276
#     4   8  13  22  39  65  94 122 154 191 229 271
#     4  11  21  32  50  73  97 127 163 202 242 287
#     4   9  17  28  43  65  93 125 160 195 228 267
#     4  10  21  36  53  73  97 123 152 192 244 299
#     4   9  18  31  45  65  96 130 161 195 238 286
#     4   9  15  24  42  67  93 120 152 191 232 275
#     4   9  17  30  49  71  93 118 150 189 235 286
#
# _framework density 17.385245999999999
#
# number of rings (size 3 to 8) (size 9 to 14) (size 15 to 20)
#    0.000    2.750    0.000    3.000    0.000    5.000 
#    0.000    1.875    0.000    1.500    0.000    3.500 
#    0.000    0.000    0.000    0.000    0.000    0.000 
#
# Total GULP energy -396703.253878 kJ/mol
# GULP energy per Si atom -12396.976684 kJ/mol
# Density = 1.734568 g / cm^3
# Si number density = 17.385246 Si / 1000 Ang^3
#
#
#
# Elastic Constant Matrix: (Units=GPa)
#
#
# Indices 1 2 3 4 5 6 
#
# 1 42.0895 36.8091 35.4040 0.0000 0.0000 0.0000
# 2 36.8091 113.9309 77.8342 0.0000 0.0000 0.0000
# 3 35.4040 77.8342 105.0611 0.0000 0.0000 0.0000
# 4 0.0000 0.0000 0.0000 32.7789 0.0000 0.0000
# 5 0.0000 0.0000 0.0000 0.0000 22.2160 0.0000
# 6 0.0000 0.0000 0.0000 0.0000 0.0000 19.7899
#
#
#
# Elastic Compliance Matrix: (Units=1/GPa)
#
#
# Indices 1 2 3 4 5 6 
#
# 1 0.035499 -0.006675 -0.007018 0.000000 0.000000 0.000000
# 2 -0.006675 0.019027 -0.011847 0.000000 0.000000 0.000000
# 3 -0.007018 -0.011847 0.020660 0.000000 0.000000 0.000000
# 4 0.000000 0.000000 0.000000 0.030507 0.000000 0.000000
# 5 0.000000 0.000000 0.000000 0.000000 0.045013 0.000000
# 6 0.000000 0.000000 0.000000 0.000000 0.000000 0.050531
#
#
# Mechanical properties :
#
#
# Convention : Reuss Voigt Hill
#
# Bulk Modulus (GPa) = 41.48089 62.35291 51.91690
# Shear Modulus (GPa) = 19.20472 22.35923 20.78198
#
# Velocity S-wave (km/s) = 3.32724 3.59012 3.46118
# Velocity P-wave (km/s) = 6.21871 7.28893 6.77499
#
# Compressibility (1/GPa) = 0.02410749
#
# Stress axis : x y z
#
# Youngs Moduli (GPa) = 28.16942 52.55589 48.40298
#
# Poissons Ratio (x) = 0.35082 0.33967
# Poissons Ratio (y) = 0.18803 0.57343
# Poissons Ratio (z) = 0.19768 0.62263
#
# Static dielectric constant tensor:
#      x y z
#    x 2.944410 0.000000 0.000000 
#    y 0.000000 3.402550 0.000000 
#    z 0.000000 0.000000 3.185070 
# 
# 
# High freq. dielectric constant tensor:
#      x y z
#    x 1.644840 0.000000 0.000000 
#    y 0.000000 1.675660 0.000000 
#    z 0.000000 0.000000 1.654240 
# 
# From -- ./inp_files/27318.got.cif
#   From: 2010.03.12/outbox.cif.g09.slc.cpg/sg44_14_cif.got.tgz:27318.got - 2010.04.14 02:36:11.
