data_PCOD8189827
_publ_section_title
;
Structure prediction by ZEFSAII (Michael W. Deem and Ramdas Pophale) SiO2 
 PCOD8189827
Probable space group: I M M 2
;
_chemical_formula_sum "Si O2"
_cell_formula_units_Z 64
_cell_length_a 21.954968
_cell_length_b 15.700715
_cell_length_c 9.320440
_cell_angle_alpha 90.000000
_cell_angle_beta 90.000000
_cell_angle_gamma 90.000000
_cell_volume 3212.836713
_symmetry_space_group_name_H-M "I M M 2"
_symmetry_group_IT_number 44
_symmetry_cell_setting 'orthorhombic'
loop_
_space_group_symop_operation_xyz
x,y,z
-x,-y,z
-x,y,z
x,-y,z
1/2+x,1/2+y,1/2+z
1/2-x,1/2-y,1/2+z
1/2-x,1/2+y,1/2+z
1/2+x,1/2-y,1/2+z
loop_
_atom_site_type_symbol
_atom_site_label
_atom_site_fract_x
_atom_site_fract_y
_atom_site_fract_z
Si Si1 0.869799 0.714001 0.542530
Si Si2 0.729005 0.314702 0.908423
Si Si3 0.888624 0.404357 0.304331
Si Si4 0.258932 0.903479 0.140101
Si Si5 0.741976 0.152310 0.722680
Si Si6 0.928333 0.756976 0.829103
Si Si7 0.341189 0.595554 0.405178
Si Si8 0.429820 0.094228 0.494678
O O1 0.840233 0.793029 0.455113
O O2 0.909935 0.657285 0.432931
O O3 0.815796 0.657985 0.611154
O O4 0.914513 0.752917 0.660403
O O5 0.733952 0.396088 0.803869
O O6 0.755385 0.238716 0.810338
O O7 0.767898 0.331269 0.053363
O O8 0.905690 0.500000 0.348267
O O9 0.816048 0.396674 0.284355
O O10 0.922962 0.377963 0.159746
O O11 0.280432 0.000000 0.113200
O O12 0.203801 0.878379 0.034724
O O13 0.802571 0.097362 0.755810
O O14 0.896973 0.838375 0.902522
O O15 0.901360 0.668864 0.896827
O O16 0.000000 0.766056 0.856622
O O17 0.367318 0.500000 0.425969
O O18 0.500000 0.086318 0.455157
O O19 0.399154 0.000000 0.468104
#
# Coordination Sequence:
#
# PCOD8189827 Si02
#       8
#     8   8   8   8   8   8   8   8
#     4  11  22  36  58  85 121 159 198 242 300 369
#     4  11  20  34  54  84 120 160 195 237 300 369
#     4  10  21  34  56  86 120 155 192 239 300 366
#     4  11  23  37  58  92 130 157 192 251 314 372
#     4  11  20  33  56  86 123 156 193 242 307 368
#     4  11  25  44  63  87 120 165 213 254 305 361
#     4  11  22  40  64  89 122 158 203 257 310 366
#     4   9  21  40  61  87 117 154 203 251 293 353
#
# _framework density 19.920089999999998
#
# number of rings (size 3 to 8) (size 9 to 14) (size 15 to 20)
#    0.000    1.375    5.000    0.750    7.000    2.750 
#    0.000    0.000    0.000    0.000    0.000    0.000 
#    0.000    0.000    0.000    0.000    0.000    0.000 
#
# Total GULP energy -396693.309471 kJ/mol
# GULP energy per Si atom -12396.665921 kJ/mol
# Density = 1.987475 g / cm^3
# Si number density = 19.920090 Si / 1000 Ang^3
#
#
#
# Elastic Constant Matrix: (Units=GPa)
#
#
# Indices 1 2 3 4 5 6 
#
# 1 44.9000 25.7052 9.3378 0.0000 0.0000 0.0000
# 2 25.7052 74.7639 27.3893 0.0000 0.0000 0.0000
# 3 9.3378 27.3893 109.4935 0.0000 0.0000 0.0000
# 4 0.0000 0.0000 0.0000 27.1402 0.0000 0.0000
# 5 0.0000 0.0000 0.0000 0.0000 28.5603 0.0000
# 6 0.0000 0.0000 0.0000 0.0000 0.0000 20.7763
#
#
#
# Elastic Compliance Matrix: (Units=1/GPa)
#
#
# Indices 1 2 3 4 5 6 
#
# 1 0.027730 -0.009542 0.000022 0.000000 0.000000 0.000000
# 2 -0.009542 0.018008 -0.003691 0.000000 0.000000 0.000000
# 3 0.000022 -0.003691 0.010054 0.000000 0.000000 0.000000
# 4 0.000000 0.000000 0.000000 0.036846 0.000000 0.000000
# 5 0.000000 0.000000 0.000000 0.000000 0.035014 0.000000
# 6 0.000000 0.000000 0.000000 0.000000 0.000000 0.048132
#
#
# Mechanical properties :
#
#
# Convention : Reuss Voigt Hill
#
# Bulk Modulus (GPa) = 34.04762 39.33579 36.69170
# Shear Modulus (GPa) = 23.58534 26.41037 24.99786
#
# Velocity S-wave (km/s) = 3.44466 3.64513 3.54631
# Velocity P-wave (km/s) = 5.74022 6.12418 5.93531
#
# Compressibility (1/GPa) = 0.02937063
#
# Stress axis : x y z
#
# Youngs Moduli (GPa) = 36.06202 55.52975 99.45941
#
# Poissons Ratio (x) = 0.52987 -0.00219
# Poissons Ratio (y) = 0.34411 0.36710
# Poissons Ratio (z) = -0.00080 0.20496
#
# Static dielectric constant tensor:
#      x y z
#    x 3.264500 0.000000 0.000000 
#    y 0.000000 3.846610 0.000000 
#    z 0.000000 0.000000 3.887030 
# 
# 
# High freq. dielectric constant tensor:
#      x y z
#    x 1.739310 0.000000 0.000000 
#    y 0.000000 1.774450 0.000000 
#    z 0.000000 0.000000 1.787360 
# 
# From -- ./inp_files/9517.got.cif
#   From: 2010.03.12/outbox.cif.g09.slc.cpg/sg44_5_cif.got.tgz:9517.got - 2010.04.14 02:36:11.
