data_PCOD8189757
_publ_section_title
;
Structure prediction by ZEFSAII (Michael W. Deem and Ramdas Pophale) SiO2 
 PCOD8189757
Probable space group: I M M 2
;
_chemical_formula_sum "Si O2"
_cell_formula_units_Z 48
_cell_length_a 17.036958
_cell_length_b 8.759787
_cell_length_c 16.928234
_cell_angle_alpha 90.000000
_cell_angle_beta 90.000000
_cell_angle_gamma 90.000000
_cell_volume 2526.371728
_symmetry_space_group_name_H-M "I M M 2"
_symmetry_group_IT_number 44
_symmetry_cell_setting 'orthorhombic'
loop_
_space_group_symop_operation_xyz
x,y,z
-x,-y,z
-x,y,z
x,-y,z
1/2+x,1/2+y,1/2+z
1/2-x,1/2-y,1/2+z
1/2-x,1/2+y,1/2+z
1/2+x,1/2-y,1/2+z
loop_
_atom_site_type_symbol
_atom_site_label
_atom_site_fract_x
_atom_site_fract_y
_atom_site_fract_z
Si Si1 0.410223 0.822178 0.973750
Si Si2 0.000000 0.181409 0.063794
Si Si3 0.356195 0.821175 0.655806
Si Si4 0.194931 0.322316 0.621566
Si Si5 0.591417 0.677598 0.810746
Si Si6 0.412576 0.327108 0.242727
Si Si7 0.500000 0.320778 0.388928
O O1 0.500000 0.781350 0.994689
O O2 0.381423 0.728662 0.897570
O O3 0.400871 0.000000 0.954712
O O4 0.357004 0.771776 0.047008
O O5 0.076940 0.235097 0.108141
O O6 0.000000 0.255559 0.975290
O O7 0.000000 0.000000 0.062528
O O8 0.273300 0.776673 0.618159
O O9 0.358107 0.770638 0.747144
O O10 0.370106 0.000000 0.649033
O O11 0.216431 0.500000 0.619621
O O12 0.146400 0.288961 0.701208
O O13 0.500000 0.716230 0.797904
O O14 0.608823 0.500000 0.799571
O O15 0.500000 0.318115 0.203861
O O16 0.379776 0.500000 0.234730
O O17 0.422370 0.279797 0.336010
O O18 0.500000 0.500000 0.401962
#
# Coordination Sequence:
#
# PCOD8189757 Si02
#       7
#     8   4   8   8   8   8   4
#     4   9  19  36  59  86 119 155 193 234 285 346
#     4  11  21  41  67  86 109 146 193 245 294 349
#     4  12  25  40  60  84 115 155 194 240 293 349
#     4  11  22  37  57  87 121 157 196 239 287 339
#     4  10  20  37  62  88 113 146 191 241 291 344
#     4   8  16  34  58  85 117 154 191 228 278 344
#     4   7  16  35  61  88 113 150 191 229 284 347
#
# _framework density 18.999579000000001
#
# number of rings (size 3 to 8) (size 9 to 14) (size 15 to 20)
#    0.500    1.667    0.833    3.250    0.000    3.000 
#    3.000    3.333    0.000    0.000    0.000    0.000 
#    0.000    0.000    0.000    0.000    0.000    0.000 
#
# Total GULP energy -297533.893890 kJ/mol
# GULP energy per Si atom -12397.245579 kJ/mol
# Density = 1.895634 g / cm^3
# Si number density = 18.999579 Si / 1000 Ang^3
#
#
#
# Elastic Constant Matrix: (Units=GPa)
#
#
# Indices 1 2 3 4 5 6 
#
# 1 92.8852 30.7558 56.7354 0.0000 0.0000 0.0000
# 2 30.7558 75.3566 42.5613 0.0000 0.0000 0.0000
# 3 56.7354 42.5613 133.7780 0.0000 0.0000 0.0000
# 4 0.0000 0.0000 0.0000 31.6407 0.0000 0.0000
# 5 0.0000 0.0000 0.0000 0.0000 14.3821 0.0000
# 6 0.0000 0.0000 0.0000 0.0000 0.0000 28.8450
#
#
#
# Elastic Compliance Matrix: (Units=1/GPa)
#
#
# Indices 1 2 3 4 5 6 
#
# 1 0.015103 -0.003104 -0.005418 0.000000 0.000000 0.000000
# 2 -0.003104 0.016815 -0.004033 0.000000 0.000000 0.000000
# 3 -0.005418 -0.004033 0.011056 0.000000 0.000000 0.000000
# 4 0.000000 0.000000 0.000000 0.031605 0.000000 0.000000
# 5 0.000000 0.000000 0.000000 0.000000 0.069531 0.000000
# 6 0.000000 0.000000 0.000000 0.000000 0.000000 0.034668
#
#
# Mechanical properties :
#
#
# Convention : Reuss Voigt Hill
#
# Bulk Modulus (GPa) = 55.97881 62.45830 59.21856
# Shear Modulus (GPa) = 23.82742 26.43806 25.13274
#
# Velocity S-wave (km/s) = 3.54517 3.73434 3.64098
# Velocity P-wave (km/s) = 6.80329 7.17904 6.99369
#
# Compressibility (1/GPa) = 0.01786390
#
# Stress axis : x y z
#
# Youngs Moduli (GPa) = 66.21223 59.47020 90.45007
#
# Poissons Ratio (x) = 0.18461 0.49002
# Poissons Ratio (y) = 0.20554 0.36480
# Poissons Ratio (z) = 0.35871 0.23986
#
# Static dielectric constant tensor:
#      x y z
#    x 3.438900 0.000000 0.000000 
#    y 0.000000 3.345620 0.000000 
#    z 0.000000 0.000000 3.695770 
# 
# 
# High freq. dielectric constant tensor:
#      x y z
#    x 1.722140 0.000000 0.000000 
#    y 0.000000 1.733850 0.000000 
#    z 0.000000 0.000000 1.744180 
# 
# From -- ./inp_files/21731.got.cif
#   From: 2010.03.12/outbox.cif.g09.slc.cpg/sg44_11_cif.got.tgz:21731.got - 2010.04.14 02:36:11.
