data_PCOD8189920
_publ_section_title
;
Structure prediction by ZEFSAII (Michael W. Deem and Ramdas Pophale) SiO2 
 PCOD8189920
Probable space group: I M M 2
;
_chemical_formula_sum "Si O2"
_cell_formula_units_Z 64
_cell_length_a 9.563053
_cell_length_b 18.149392
_cell_length_c 18.397637
_cell_angle_alpha 90.000000
_cell_angle_beta 90.000000
_cell_angle_gamma 90.000000
_cell_volume 3193.160065
_symmetry_space_group_name_H-M "I M M 2"
_symmetry_group_IT_number 44
_symmetry_cell_setting 'orthorhombic'
loop_
_space_group_symop_operation_xyz
x,y,z
-x,-y,z
-x,y,z
x,-y,z
1/2+x,1/2+y,1/2+z
1/2-x,1/2-y,1/2+z
1/2-x,1/2+y,1/2+z
1/2+x,1/2-y,1/2+z
loop_
_atom_site_type_symbol
_atom_site_label
_atom_site_fract_x
_atom_site_fract_y
_atom_site_fract_z
Si Si1 0.340729 0.417008 0.590790
Si Si2 0.842297 0.703001 0.653757
Si Si3 0.841920 0.418064 0.188877
Si Si4 0.336848 0.586909 0.914908
Si Si5 0.836834 0.331387 0.330784
Si Si6 0.849068 0.914007 0.930568
Si Si7 0.338776 0.805509 0.324264
Si Si8 0.336954 0.649284 0.072439
O O1 0.500000 0.414533 0.617662
O O2 0.282413 0.500000 0.594645
O O3 0.250287 0.368599 0.644312
O O4 0.325655 0.381294 0.510839
O O5 0.831983 0.715108 0.739648
O O6 0.787804 0.770981 0.603616
O O7 0.000000 0.685562 0.629973
O O8 0.822150 0.500000 0.222414
O O9 0.805915 0.355900 0.248376
O O10 0.742303 0.411677 0.119650
O O11 0.000000 0.406834 0.161840
O O12 0.500000 0.596860 0.894528
O O13 0.302391 0.500000 0.925277
O O14 0.240199 0.619630 0.849881
O O15 0.301228 0.633604 0.988069
O O16 0.783717 0.397611 0.380916
O O17 0.747672 0.261854 0.359155
O O18 0.000000 0.316144 0.343998
O O19 0.000000 0.885214 0.898899
O O20 0.861474 0.000000 0.941670
O O21 0.500000 0.808917 0.350833
O O22 0.500000 0.638327 0.087079
#
# Coordination Sequence:
#
# PCOD8189920 Si02
#       8
#     8   8   8   8   8   8   8   8
#     4   9  20  38  59  85 117 153 195 242 294 354
#     4  10  22  39  60  88 121 155 198 251 303 361
#     4  10  21  36  56  86 122 157 196 243 297 359
#     4  10  23  43  66  93 124 161 206 255 309 367
#     4  11  22  36  56  84 120 159 200 246 296 352
#     4   9  19  36  56  82 118 156 194 236 285 347
#     4  11  24  42  62  87 120 158 202 248 300 359
#     4  10  21  40  63  89 122 157 199 249 304 363
#
# _framework density 20.042840000000002
#
# number of rings (size 3 to 8) (size 9 to 14) (size 15 to 20)
#    0.000    2.000    1.250    2.250    1.750    5.500 
#    0.000    3.750    0.000    0.000    0.000    0.000 
#    0.000    0.000    0.000    0.000    0.000    0.000 
#
# Total GULP energy -396624.668882 kJ/mol
# GULP energy per Si atom -12394.520903 kJ/mol
# Density = 1.999722 g / cm^3
# Si number density = 20.042840 Si / 1000 Ang^3
#
#
#
# Elastic Constant Matrix: (Units=GPa)
#
#
# Indices 1 2 3 4 5 6 
#
# 1 93.5410 49.8278 37.8216 0.0000 0.0000 0.0000
# 2 49.8278 89.9664 31.4538 0.0000 0.0000 0.0000
# 3 37.8216 31.4538 50.4277 0.0000 0.0000 0.0000
# 4 0.0000 0.0000 0.0000 34.6857 0.0000 0.0000
# 5 0.0000 0.0000 0.0000 0.0000 32.0636 0.0000
# 6 0.0000 0.0000 0.0000 0.0000 0.0000 36.3046
#
#
#
# Elastic Compliance Matrix: (Units=1/GPa)
#
#
# Indices 1 2 3 4 5 6 
#
# 1 0.018054 -0.006734 -0.009341 0.000000 0.000000 0.000000
# 2 -0.006734 0.016727 -0.005383 0.000000 0.000000 0.000000
# 3 -0.009341 -0.005383 0.030194 0.000000 0.000000 0.000000
# 4 0.000000 0.000000 0.000000 0.028830 0.000000 0.000000
# 5 0.000000 0.000000 0.000000 0.000000 0.031188 0.000000
# 6 0.000000 0.000000 0.000000 0.000000 0.000000 0.027545
#
#
# Mechanical properties :
#
#
# Convention : Reuss Voigt Hill
#
# Bulk Modulus (GPa) = 45.33110 52.46017 48.89563
# Shear Modulus (GPa) = 24.65420 28.26624 26.46022
#
# Velocity S-wave (km/s) = 3.51105 3.75946 3.63737
# Velocity P-wave (km/s) = 6.25322 6.71383 6.48762
#
# Compressibility (1/GPa) = 0.02205991
#
# Stress axis : x y z
#
# Youngs Moduli (GPa) = 55.38888 59.78529 33.11951
#
# Poissons Ratio (x) = 0.40257 0.30937
# Poissons Ratio (y) = 0.37296 0.17827
# Poissons Ratio (z) = 0.51738 0.32181
#
# Static dielectric constant tensor:
#      x y z
#    x 3.646470 0.000000 0.000000 
#    y 0.000000 3.539610 0.000000 
#    z 0.000000 0.000000 3.476790 
# 
# 
# High freq. dielectric constant tensor:
#      x y z
#    x 1.783670 0.000000 0.000000 
#    y 0.000000 1.781520 0.000000 
#    z 0.000000 0.000000 1.771520 
# 
# From -- ./inp_files/22281.got.cif
#   From: 2010.03.12/outbox.cif.g09.slc.cpg/sg44_12_cif.got.tgz:22281.got - 2010.04.14 02:36:11.
