data_PCOD8189880
_publ_section_title
;
Structure prediction by ZEFSAII (Michael W. Deem and Ramdas Pophale) SiO2 
 PCOD8189880
Probable space group: I M M 2
;
_chemical_formula_sum "Si O2"
_cell_formula_units_Z 64
_cell_length_a 9.635003
_cell_length_b 9.202656
_cell_length_c 41.138677
_cell_angle_alpha 90.000000
_cell_angle_beta 90.000000
_cell_angle_gamma 90.000000
_cell_volume 3647.668504
_symmetry_space_group_name_H-M "I M M 2"
_symmetry_group_IT_number 44
_symmetry_cell_setting 'orthorhombic'
loop_
_space_group_symop_operation_xyz
x,y,z
-x,-y,z
-x,y,z
x,-y,z
1/2+x,1/2+y,1/2+z
1/2-x,1/2-y,1/2+z
1/2-x,1/2+y,1/2+z
1/2+x,1/2-y,1/2+z
loop_
_atom_site_type_symbol
_atom_site_label
_atom_site_fract_x
_atom_site_fract_y
_atom_site_fract_z
Si Si1 0.154563 0.826907 0.030190
Si Si2 0.838504 0.169273 0.852043
Si Si3 0.660766 0.168096 0.971168
Si Si4 0.338164 0.330425 0.905956
Si Si5 0.165347 0.161909 0.101306
Si Si6 0.334654 0.837067 0.662385
Si Si7 0.160029 0.332780 0.786728
Si Si8 0.340087 0.669385 0.725666
O O1 0.256116 0.769718 0.002111
O O2 0.208106 0.774546 0.065787
O O3 0.000000 0.766525 0.023106
O O4 0.151596 0.000000 0.030811
O O5 0.749009 0.252796 0.878355
O O6 0.799033 0.232863 0.816999
O O7 0.000000 0.195768 0.859746
O O8 0.800330 0.000000 0.852641
O O9 0.500000 0.188451 0.979260
O O10 0.697093 0.000000 0.964050
O O11 0.706140 0.261868 0.940248
O O12 0.500000 0.302528 0.899023
O O13 0.302070 0.500000 0.906468
O O14 0.226322 0.262966 0.129817
O O15 0.000000 0.155458 0.102956
O O16 0.225999 0.000000 0.106378
O O17 0.500000 0.833709 0.661251
O O18 0.282048 0.752605 0.694199
O O19 0.276838 0.000000 0.663939
O O20 0.192699 0.500000 0.795737
O O21 0.251988 0.279390 0.756598
O O22 0.000000 0.312624 0.777054
O O23 0.500000 0.708202 0.732652
O O24 0.320096 0.500000 0.718692
#
# Coordination Sequence:
#
# PCOD8189880 Si02
#       8
#     8   8   8   8   8   8   8   8
#     4   8  14  25  43  67  91 116 150 190 229 272
#     4  10  21  36  54  76 100 127 160 197 239 287
#     4   9  17  30  48  69  94 123 154 190 234 282
#     4  10  21  36  53  73  98 129 164 200 239 284
#     4   8  13  23  40  60  83 114 151 188 227 273
#     4   9  16  25  39  62  91 119 148 187 233 274
#     4   9  18  33  51  70  95 126 156 188 230 279
#     4   9  17  29  46  68  92 119 153 190 227 271
#
# _framework density 17.545452999999998
#
# number of rings (size 3 to 8) (size 9 to 14) (size 15 to 20)
#    0.000    3.000    0.000    1.875    0.000    4.500 
#    0.000    3.125    0.000    1.500    0.000    3.500 
#    0.000    0.000    0.000    0.000    0.000    0.000 
#
# Total GULP energy -396750.200387 kJ/mol
# GULP energy per Si atom -12398.443762 kJ/mol
# Density = 1.750552 g / cm^3
# Si number density = 17.545453 Si / 1000 Ang^3
#
#
#
# Elastic Constant Matrix: (Units=GPa)
#
#
# Indices 1 2 3 4 5 6 
#
# 1 50.5540 38.3932 70.9525 0.0000 0.0000 0.0000
# 2 38.3932 94.9352 85.7089 -0.0001 0.0000 0.0000
# 3 70.9525 85.7089 189.5405 0.0000 0.0000 0.0000
# 4 0.0000 -0.0001 0.0000 28.3341 0.0000 0.0000
# 5 0.0000 0.0000 0.0000 0.0000 26.8599 0.0000
# 6 0.0000 0.0000 0.0000 0.0000 0.0000 16.6907
#
#
#
# Elastic Compliance Matrix: (Units=1/GPa)
#
#
# Indices 1 2 3 4 5 6 
#
# 1 0.042946 -0.004823 -0.013895 0.000000 0.000000 0.000000
# 2 -0.004823 0.018342 -0.006489 0.000000 0.000000 0.000000
# 3 -0.013895 -0.006489 0.013412 0.000000 0.000000 0.000000
# 4 0.000000 0.000000 0.000000 0.035293 0.000000 0.000000
# 5 0.000000 0.000000 0.000000 0.000000 0.037230 0.000000
# 6 0.000000 0.000000 0.000000 0.000000 0.000000 0.059914
#
#
# Mechanical properties :
#
#
# Convention : Reuss Voigt Hill
#
# Bulk Modulus (GPa) = 41.17702 80.57101 60.87402
# Shear Modulus (GPa) = 18.82204 23.70861 21.26532
#
# Velocity S-wave (km/s) = 3.27885 3.67995 3.48518
# Velocity P-wave (km/s) = 6.15258 8.00481 7.13902
#
# Compressibility (1/GPa) = 0.02428539
#
# Stress axis : x y z
#
# Youngs Moduli (GPa) = 23.28516 54.51933 74.56179
#
# Poissons Ratio (x) = 0.26294 1.03607
# Poissons Ratio (y) = 0.11230 0.48381
# Poissons Ratio (z) = 0.32356 0.35376
#
# Static dielectric constant tensor:
#      x y z
#    x 3.032430 0.000000 0.000000 
#    y 0.000000 3.235000 0.000000 
#    z 0.000000 0.000000 3.524960 
# 
# 
# High freq. dielectric constant tensor:
#      x y z
#    x 1.644180 0.000000 0.000000 
#    y 0.000000 1.666530 0.000000 
#    z 0.000000 0.000000 1.692340 
# 
# From -- ./inp_files/27450.got.cif
#   From: 2010.03.12/outbox.cif.g09.slc.cpg/sg44_14_cif.got.tgz:27450.got - 2010.04.14 02:36:11.
