data_PCOD8189690
_publ_section_title
;
Structure prediction by ZEFSAII (Michael W. Deem and Ramdas Pophale) SiO2 
 PCOD8189690
Probable space group: I M M 2
;
_chemical_formula_sum "Si O2"
_cell_formula_units_Z 64
_cell_length_a 30.951568
_cell_length_b 8.693132
_cell_length_c 12.010842
_cell_angle_alpha 90.000000
_cell_angle_beta 90.000000
_cell_angle_gamma 90.000000
_cell_volume 3231.710009
_symmetry_space_group_name_H-M "I M M 2"
_symmetry_group_IT_number 44
_symmetry_cell_setting 'orthorhombic'
loop_
_space_group_symop_operation_xyz
x,y,z
-x,-y,z
-x,y,z
x,-y,z
1/2+x,1/2+y,1/2+z
1/2-x,1/2-y,1/2+z
1/2-x,1/2+y,1/2+z
1/2+x,1/2-y,1/2+z
loop_
_atom_site_type_symbol
_atom_site_label
_atom_site_fract_x
_atom_site_fract_y
_atom_site_fract_z
Si Si1 0.300316 0.819678 0.478300
Si Si2 0.952160 0.177038 0.529102
Si Si3 0.125415 0.181189 0.125612
Si Si4 0.578393 0.821785 0.243399
Si Si5 0.831147 0.821675 0.755643
Si Si6 0.951146 0.322140 0.988547
Si Si7 0.125656 0.816827 0.376579
Si Si8 0.294934 0.318489 0.020260
O O1 0.332075 0.744770 0.566993
O O2 0.315737 0.786510 0.354421
O O3 0.252110 0.750447 0.491154
O O4 0.300797 0.000000 0.500415
O O5 0.952332 0.279132 0.640801
O O6 0.917100 0.240956 0.441221
O O7 0.000000 0.192217 0.475754
O O8 0.941845 0.000000 0.559641
O O9 0.123953 0.247944 0.251005
O O10 0.129286 0.000000 0.127105
O O11 0.081851 0.224052 0.061198
O O12 0.619143 0.710396 0.231307
O O13 0.554053 0.785139 0.358218
O O14 0.592253 0.000000 0.237964
O O15 0.804195 0.774158 0.647352
O O16 0.824812 0.000000 0.787343
O O17 0.941172 0.500000 0.011761
O O18 0.000000 0.279090 0.023535
O O19 0.168282 0.749464 0.438432
O O20 0.126629 0.000000 0.375573
O O21 0.295203 0.500000 0.004458
#
# Coordination Sequence:
#
# PCOD8189690 Si02
#       8
#     8   8   8   8   8   8   8   8
#     4  11  23  39  60  87 121 158 193 236 297 354
#     4  10  20  36  61  88 116 153 196 243 293 347
#     4  11  23  38  61  87 115 153 199 248 289 342
#     4  11  21  36  59  88 121 155 190 238 294 350
#     4  11  21  38  64  90 117 152 197 245 288 341
#     4  10  22  40  60  82 116 158 193 235 295 353
#     4   9  19  38  59  83 115 152 196 245 292 338
#     4   9  20  38  61  85 116 155 191 238 294 344
#
# _framework density 19.803754999999999
#
# number of rings (size 3 to 8) (size 9 to 14) (size 15 to 20)
#    0.000    1.750    2.500    1.875    1.750    2.000 
#    0.000    4.375    0.000    0.000    0.000    0.000 
#    0.000    0.000    0.000    0.000    0.000    0.000 
#
# Total GULP energy -396852.822260 kJ/mol
# GULP energy per Si atom -12401.650696 kJ/mol
# Density = 1.975868 g / cm^3
# Si number density = 19.803755 Si / 1000 Ang^3
#
#
#
# Elastic Constant Matrix: (Units=GPa)
#
#
# Indices 1 2 3 4 5 6 
#
# 1 156.9792 26.0880 67.7429 0.0000 0.0000 0.0000
# 2 26.0880 42.6114 31.1757 0.0000 0.0000 0.0000
# 3 67.7429 31.1757 142.4211 0.0000 0.0000 0.0000
# 4 0.0000 0.0000 0.0000 7.3286 0.0000 0.0000
# 5 0.0000 0.0000 0.0000 0.0000 81.7326 0.0000
# 6 0.0000 0.0000 0.0000 0.0000 0.0000 15.5865
#
#
#
# Elastic Compliance Matrix: (Units=1/GPa)
#
#
# Indices 1 2 3 4 5 6 
#
# 1 0.008250 -0.002596 -0.003356 0.000000 0.000000 0.000000
# 2 -0.002596 0.028760 -0.005061 0.000000 0.000000 0.000000
# 3 -0.003356 -0.005061 0.009725 0.000000 0.000000 0.000000
# 4 0.000000 0.000000 0.000000 0.136451 0.000000 0.000000
# 5 0.000000 0.000000 0.000000 0.000000 0.012235 0.000000
# 6 0.000000 0.000000 0.000000 0.000000 0.000000 0.064158
#
#
# Mechanical properties :
#
#
# Convention : Reuss Voigt Hill
#
# Bulk Modulus (GPa) = 40.46886 65.78054 53.12470
# Shear Modulus (GPa) = 17.25087 35.39657 26.32372
#
# Velocity S-wave (km/s) = 2.95463 4.23231 3.64981
# Velocity P-wave (km/s) = 5.66737 7.56119 6.68172
#
# Compressibility (1/GPa) = 0.02471036
#
# Stress axis : x y z
#
# Youngs Moduli (GPa) = 121.21485 34.77101 102.82278
#
# Poissons Ratio (x) = 0.09025 0.34506
# Poissons Ratio (y) = 0.31462 0.52037
# Poissons Ratio (z) = 0.40678 0.17597
#
# Static dielectric constant tensor:
#      x y z
#    x 3.839150 0.000000 0.000000 
#    y 0.000000 3.326960 0.000000 
#    z 0.000000 0.000000 3.723220 
# 
# 
# High freq. dielectric constant tensor:
#      x y z
#    x 1.786580 0.000000 0.000000 
#    y 0.000000 1.747590 0.000000 
#    z 0.000000 0.000000 1.776300 
# 
# From -- ./inp_files/11505.got.cif
#   From: 2010.03.12/outbox.cif.g09.slc.cpg/sg44_6_cif.got.tgz:11505.got - 2010.04.14 02:36:11.
