data_PCOD8189528
_publ_section_title
;
Structure prediction by ZEFSAII (Michael W. Deem and Ramdas Pophale) SiO2 
 PCOD8189528
Probable space group: I M M 2
;
_chemical_formula_sum "Si O2"
_cell_formula_units_Z 64
_cell_length_a 8.968441
_cell_length_b 24.764813
_cell_length_c 15.256198
_cell_angle_alpha 90.000000
_cell_angle_beta 90.000000
_cell_angle_gamma 90.000000
_cell_volume 3388.428492
_symmetry_space_group_name_H-M "I M M 2"
_symmetry_group_IT_number 44
_symmetry_cell_setting 'orthorhombic'
loop_
_space_group_symop_operation_xyz
x,y,z
-x,-y,z
-x,y,z
x,-y,z
1/2+x,1/2+y,1/2+z
1/2-x,1/2-y,1/2+z
1/2-x,1/2+y,1/2+z
1/2+x,1/2-y,1/2+z
loop_
_atom_site_type_symbol
_atom_site_label
_atom_site_fract_x
_atom_site_fract_y
_atom_site_fract_z
Si Si1 0.828571 0.328651 0.004750
Si Si2 0.673666 0.937794 0.839713
Si Si3 0.676360 0.612173 0.508839
Si Si4 0.323658 0.780115 0.974880
Si Si5 0.327161 0.734595 0.294049
Si Si6 0.324242 0.559763 0.688617
Si Si7 0.170999 0.353364 0.194076
Si Si8 0.670967 0.857469 0.314055
O O1 0.807854 0.366578 0.090331
O O2 0.000000 0.310172 0.992143
O O3 0.731436 0.275063 0.018513
O O4 0.779160 0.359756 0.916455
O O5 0.500000 0.930042 0.862000
O O6 0.718607 0.904996 0.751763
O O7 0.713272 0.000000 0.821544
O O8 0.768330 0.916282 0.920651
O O9 0.500000 0.619652 0.502725
O O10 0.752749 0.669753 0.526262
O O11 0.726238 0.576055 0.591112
O O12 0.500000 0.783629 0.981037
O O13 0.272238 0.785178 0.874754
O O14 0.500000 0.723655 0.315144
O O15 0.273798 0.698739 0.212612
O O16 0.300146 0.797729 0.274930
O O17 0.500000 0.560116 0.694270
O O18 0.260392 0.500000 0.707554
O O19 0.268125 0.600164 0.762232
O O20 0.000000 0.337696 0.213244
O O21 0.500000 0.874272 0.303434
#
# Coordination Sequence:
#
# PCOD8189528 Si02
#       8
#     8   8   8   8   8   8   8   8
#     4   9  20  38  57  82 118 154 190 235 285 340
#     4  10  21  37  57  84 117 152 192 237 280 334
#     4  11  22  37  57  82 113 151 190 234 289 345
#     4  11  21  34  54  83 116 151 190 230 284 340
#     4  10  20  35  55  83 117 150 185 230 280 338
#     4  10  23  41  59  81 110 147 194 241 288 342
#     4  10  20  35  57  84 116 154 192 231 281 339
#     4   9  20  38  58  82 113 147 188 238 288 334
#
# _framework density 18.887810999999999
#
# number of rings (size 3 to 8) (size 9 to 14) (size 15 to 20)
#    0.000    2.000    1.250    3.000    1.750    5.000 
#    0.000    0.625    0.000    2.250    0.000    0.000 
#    0.000    0.000    0.000    0.000    0.000    0.000 
#
# Total GULP energy -396813.055081 kJ/mol
# GULP energy per Si atom -12400.407971 kJ/mol
# Density = 1.884482 g / cm^3
# Si number density = 18.887811 Si / 1000 Ang^3
#
#
#
# Elastic Constant Matrix: (Units=GPa)
#
#
# Indices 1 2 3 4 5 6 
#
# 1 69.5107 47.2092 42.5790 0.0000 0.0000 0.0000
# 2 47.2092 121.5064 72.5170 0.0001 0.0000 0.0000
# 3 42.5790 72.5170 129.7480 0.0001 0.0000 0.0000
# 4 0.0000 0.0001 0.0001 26.0178 0.0000 0.0000
# 5 0.0000 0.0000 0.0000 0.0000 28.2009 0.0000
# 6 0.0000 0.0000 0.0000 0.0000 0.0000 27.9858
#
#
#
# Elastic Compliance Matrix: (Units=1/GPa)
#
#
# Indices 1 2 3 4 5 6 
#
# 1 0.020505 -0.005928 -0.003416 0.000000 0.000000 0.000000
# 2 -0.005928 0.014063 -0.005915 0.000000 0.000000 0.000000
# 3 -0.003416 -0.005915 0.012134 0.000000 0.000000 0.000000
# 4 0.000000 0.000000 0.000000 0.038435 0.000000 0.000000
# 5 0.000000 0.000000 0.000000 0.000000 0.035460 0.000000
# 6 0.000000 0.000000 0.000000 0.000000 0.000000 0.035732
#
#
# Mechanical properties :
#
#
# Convention : Reuss Voigt Hill
#
# Bulk Modulus (GPa) = 61.78594 71.70839 66.74716
# Shear Modulus (GPa) = 26.00893 27.00487 26.50690
#
# Velocity S-wave (km/s) = 3.71485 3.78531 3.75024
# Velocity P-wave (km/s) = 7.15425 7.55993 7.35989
#
# Compressibility (1/GPa) = 0.01618491
#
# Stress axis : x y z
#
# Youngs Moduli (GPa) = 48.76901 71.10714 82.41400
#
# Poissons Ratio (x) = 0.42154 0.28150
# Poissons Ratio (y) = 0.28912 0.48745
# Poissons Ratio (z) = 0.16658 0.42057
#
# Static dielectric constant tensor:
#      x y z
#    x 3.405740 0.000000 0.000000 
#    y 0.000000 3.510930 0.000000 
#    z 0.000000 0.000000 3.502120 
# 
# 
# High freq. dielectric constant tensor:
#      x y z
#    x 1.731580 0.000000 0.000000 
#    y 0.000000 1.724000 0.000000 
#    z 0.000000 0.000000 1.736660 
# 
# From -- ./inp_files/16810.got.cif
#   From: 2010.03.12/outbox.cif.g09.slc.cpg/sg44_9_cif.got.tgz:16810.got - 2010.04.14 02:36:11.
