data_PCOD8189281
_publ_section_title
;
Structure prediction by ZEFSAII (Michael W. Deem and Ramdas Pophale) SiO2 
 PCOD8189281
Probable space group: I M M 2
;
_chemical_formula_sum "Si O2"
_cell_formula_units_Z 64
_cell_length_a 9.460369
_cell_length_b 9.015545
_cell_length_c 41.146332
_cell_angle_alpha 90.000000
_cell_angle_beta 90.000000
_cell_angle_gamma 90.000000
_cell_volume 3509.386392
_symmetry_space_group_name_H-M "I M M 2"
_symmetry_group_IT_number 44
_symmetry_cell_setting 'orthorhombic'
loop_
_space_group_symop_operation_xyz
x,y,z
-x,-y,z
-x,y,z
x,-y,z
1/2+x,1/2+y,1/2+z
1/2-x,1/2-y,1/2+z
1/2-x,1/2+y,1/2+z
1/2+x,1/2-y,1/2+z
loop_
_atom_site_type_symbol
_atom_site_label
_atom_site_fract_x
_atom_site_fract_y
_atom_site_fract_z
Si Si1 0.334154 0.670928 0.970030
Si Si2 0.163708 0.326428 0.847515
Si Si3 0.336640 0.672888 0.598065
Si Si4 0.663600 0.672635 0.414067
Si Si5 0.163851 0.670866 0.535774
Si Si6 0.666372 0.828129 0.790798
Si Si7 0.831814 0.166990 0.225867
Si Si8 0.831564 0.332773 0.162544
O O1 0.500000 0.693142 0.964376
O O2 0.289124 0.500000 0.967086
O O3 0.254004 0.767289 0.943666
O O4 0.289547 0.729782 0.005381
O O5 0.195133 0.500000 0.848713
O O6 0.211191 0.257247 0.881660
O O7 0.256397 0.253734 0.819789
O O8 0.000000 0.291921 0.840476
O O9 0.500000 0.710455 0.591892
O O10 0.312811 0.500000 0.604605
O O11 0.251222 0.727818 0.566707
O O12 0.276567 0.758294 0.629425
O O13 0.500000 0.702821 0.421836
O O14 0.695243 0.500000 0.409058
O O15 0.199392 0.500000 0.527690
O O16 0.000000 0.692101 0.544022
O O17 0.500000 0.804033 0.795224
O O18 0.720594 0.758557 0.757046
O O19 0.707516 0.000000 0.790910
O O20 0.770433 0.243679 0.193440
O O21 0.000000 0.166090 0.224526
O O22 0.772334 0.000000 0.228073
O O23 0.774311 0.500000 0.164252
O O24 0.000000 0.328688 0.163355
#
# Coordination Sequence:
#
# PCOD8189281 Si02
#       8
#     8   8   8   8   8   8   8   8
#     4  10  21  36  54  77 104 134 168 206 250 300
#     4  10  21  37  56  77 103 136 171 206 249 301
#     4   9  17  29  46  69  95 123 159 202 245 291
#     4  10  21  37  57  79 102 131 168 208 251 299
#     4   9  18  33  51  70  96 131 166 200 243 295
#     4  10  20  33  51  77 106 135 170 211 253 298
#     4   9  16  27  45  69  98 131 165 204 251 298
#     4   9  16  26  42  66  96 127 159 199 248 298
#
# _framework density 18.236806999999999
#
# number of rings (size 3 to 8) (size 9 to 14) (size 15 to 20)
#    0.000    2.500    0.000    2.250    0.000    7.500 
#    0.000    1.250    0.000    0.750    0.000    1.750 
#    0.000    0.000    0.000    0.000    0.000    0.000 
#
# Total GULP energy -396880.276398 kJ/mol
# GULP energy per Si atom -12402.508637 kJ/mol
# Density = 1.819530 g / cm^3
# Si number density = 18.236807 Si / 1000 Ang^3
#
#
#
# Elastic Constant Matrix: (Units=GPa)
#
#
# Indices 1 2 3 4 5 6 
#
# 1 33.9833 35.1317 52.0860 0.0000 0.0000 0.0000
# 2 35.1317 121.6895 81.4332 0.0000 0.0000 0.0000
# 3 52.0860 81.4332 168.2022 0.0000 0.0000 0.0000
# 4 0.0000 0.0000 0.0000 41.9091 0.0000 0.0000
# 5 0.0000 0.0000 0.0000 0.0000 26.5591 0.0000
# 6 0.0000 0.0000 0.0000 0.0000 0.0000 21.6390
#
#
#
# Elastic Compliance Matrix: (Units=1/GPa)
#
#
# Indices 1 2 3 4 5 6 
#
# 1 0.060027 -0.007235 -0.015086 0.000000 0.000000 0.000000
# 2 -0.007235 0.013028 -0.004067 0.000000 0.000000 0.000000
# 3 -0.015086 -0.004067 0.012586 0.000000 0.000000 0.000000
# 4 0.000000 0.000000 0.000000 0.023861 0.000000 0.000000
# 5 0.000000 0.000000 0.000000 0.000000 0.037652 0.000000
# 6 0.000000 0.000000 0.000000 0.000000 0.000000 0.046213
#
#
# Mechanical properties :
#
#
# Convention : Reuss Voigt Hill
#
# Bulk Modulus (GPa) = 30.42654 73.46409 51.94532
# Shear Modulus (GPa) = 19.44799 28.36973 23.90886
#
# Velocity S-wave (km/s) = 3.26914 3.94843 3.62473
# Velocity P-wave (km/s) = 5.56508 7.82033 6.78704
#
# Compressibility (1/GPa) = 0.03286604
#
# Stress axis : x y z
#
# Youngs Moduli (GPa) = 16.65919 76.75863 79.45568
#
# Poissons Ratio (x) = 0.55532 1.19863
# Poissons Ratio (y) = 0.12052 0.32314
# Poissons Ratio (z) = 0.25131 0.31218
#
# Static dielectric constant tensor:
#      x y z
#    x 3.052670 0.000000 0.000000 
#    y 0.000000 3.530820 0.000000 
#    z 0.000000 0.000000 3.536310 
# 
# 
# High freq. dielectric constant tensor:
#      x y z
#    x 1.669100 0.000000 0.000000 
#    y 0.000000 1.719970 0.000000 
#    z 0.000000 0.000000 1.721740 
# 
# From -- ./inp_files/27448.got.cif
#   From: 2010.03.12/outbox.cif.g09.slc.cpg/sg44_14_cif.got.tgz:27448.got - 2010.04.14 02:36:11.
