data_PCOD8189549
_publ_section_title
;
Structure prediction by ZEFSAII (Michael W. Deem and Ramdas Pophale) SiO2 
 PCOD8189549
Probable space group: I M M 2
;
_chemical_formula_sum "Si O2"
_cell_formula_units_Z 64
_cell_length_a 23.864736
_cell_length_b 8.861994
_cell_length_c 15.383223
_cell_angle_alpha 90.000000
_cell_angle_beta 90.000000
_cell_angle_gamma 90.000000
_cell_volume 3253.384714
_symmetry_space_group_name_H-M "I M M 2"
_symmetry_group_IT_number 44
_symmetry_cell_setting 'orthorhombic'
loop_
_space_group_symop_operation_xyz
x,y,z
-x,-y,z
-x,y,z
x,-y,z
1/2+x,1/2+y,1/2+z
1/2-x,1/2-y,1/2+z
1/2-x,1/2+y,1/2+z
1/2+x,1/2-y,1/2+z
loop_
_atom_site_type_symbol
_atom_site_label
_atom_site_fract_x
_atom_site_fract_y
_atom_site_fract_z
Si Si1 0.363535 0.678517 0.790670
Si Si2 0.437341 0.320948 0.630160
Si Si3 0.937124 0.678516 0.627392
Si Si4 0.746596 0.175712 0.726042
Si Si5 0.638173 0.325943 0.472026
Si Si6 0.129753 0.827518 0.776076
Si Si7 0.750396 0.324324 0.023963
Si Si8 0.362570 0.821346 0.968225
O O1 0.366490 0.500000 0.797888
O O2 0.402342 0.740212 0.712426
O O3 0.299630 0.727233 0.775624
O O4 0.386607 0.750495 0.879549
O O5 0.500000 0.252303 0.632733
O O6 0.440208 0.500000 0.633165
O O7 0.407408 0.267757 0.541453
O O8 0.937264 0.500000 0.625655
O O9 0.911953 0.729225 0.718963
O O10 0.900175 0.741398 0.547572
O O11 0.000000 0.742600 0.618157
O O12 0.806383 0.226620 0.763684
O O13 0.744535 0.215847 0.624905
O O14 0.734701 0.000000 0.743724
O O15 0.654972 0.500000 0.490316
O O16 0.611784 0.308228 0.376322
O O17 0.692701 0.222466 0.476990
O O18 0.124627 0.000000 0.744949
O O19 0.738071 0.500000 0.008748
O O20 0.701072 0.228537 0.981607
O O21 0.365591 0.000000 0.961339
#
# Coordination Sequence:
#
# PCOD8189549 Si02
#       8
#     8   8   8   8   8   8   8   8
#     4  11  22  36  59  87 115 152 197 239 288 344
#     4   9  19  36  56  81 115 153 195 239 281 335
#     4  10  23  42  61  82 112 152 194 237 288 345
#     4  10  20  35  56  85 122 153 185 235 289 342
#     4  10  20  36  60  88 118 154 192 233 286 345
#     4  10  21  37  59  87 116 148 188 236 287 340
#     4  11  21  35  59  88 119 152 190 236 285 341
#     4  11  23  39  60  84 115 152 191 238 294 348
#
# _framework density 19.67182
#
# number of rings (size 3 to 8) (size 9 to 14) (size 15 to 20)
#    0.000    1.750    2.500    1.875    0.000    4.250 
#    0.000    1.250    0.000    3.000    0.000    0.000 
#    0.000    0.000    0.000    0.000    0.000    0.000 
#
# Total GULP energy -396947.149680 kJ/mol
# GULP energy per Si atom -12404.598428 kJ/mol
# Density = 1.962705 g / cm^3
# Si number density = 19.671820 Si / 1000 Ang^3
#
#
#
# Elastic Constant Matrix: (Units=GPa)
#
#
# Indices 1 2 3 4 5 6 
#
# 1 131.8235 21.7700 59.8300 0.0000 0.0000 0.0000
# 2 21.7700 43.9515 33.2665 0.0000 0.0000 0.0000
# 3 59.8300 33.2665 142.5517 0.0000 0.0000 0.0000
# 4 0.0000 0.0000 0.0000 31.3008 0.0000 0.0000
# 5 0.0000 0.0000 0.0000 0.0000 13.2327 0.0000
# 6 0.0000 0.0000 0.0000 0.0000 0.0000 12.7561
#
#
#
# Elastic Compliance Matrix: (Units=1/GPa)
#
#
# Indices 1 2 3 4 5 6 
#
# 1 0.009521 -0.002054 -0.003517 0.000000 0.000000 0.000000
# 2 -0.002054 0.028076 -0.005690 0.000000 0.000000 0.000000
# 3 -0.003517 -0.005690 0.009819 0.000000 0.000000 0.000000
# 4 0.000000 0.000000 0.000000 0.031948 0.000000 0.000000
# 5 0.000000 0.000000 0.000000 0.000000 0.075570 0.000000
# 6 0.000000 0.000000 0.000000 0.000000 0.000000 0.078394
#
#
# Mechanical properties :
#
#
# Convention : Reuss Voigt Hill
#
# Bulk Modulus (GPa) = 40.16903 60.89551 50.53227
# Shear Modulus (GPa) = 18.92876 25.02196 21.97536
#
# Velocity S-wave (km/s) = 3.10534 3.57034 3.34593
# Velocity P-wave (km/s) = 5.77247 6.92960 6.37733
#
# Compressibility (1/GPa) = 0.02489480
#
# Stress axis : x y z
#
# Youngs Moduli (GPa) = 105.02786 35.61701 101.84527
#
# Poissons Ratio (x) = 0.07317 0.35817
# Poissons Ratio (y) = 0.21576 0.57948
# Poissons Ratio (z) = 0.36936 0.20266
#
# Static dielectric constant tensor:
#      x y z
#    x 3.640310 0.000000 0.000000 
#    y 0.000000 3.361520 0.000000 
#    z 0.000000 0.000000 3.811470 
# 
# 
# High freq. dielectric constant tensor:
#      x y z
#    x 1.761130 0.000000 0.000000 
#    y 0.000000 1.747600 0.000000 
#    z 0.000000 0.000000 1.784340 
# 
# From -- ./inp_files/16825.got.cif
#   From: 2010.03.12/outbox.cif.g09.slc.cpg/sg44_9_cif.got.tgz:16825.got - 2010.04.14 02:36:11.
