data_PCOD8189359
_publ_section_title
;
Structure prediction by ZEFSAII (Michael W. Deem and Ramdas Pophale) SiO2 
 PCOD8189359
Probable space group: I M M 2
;
_chemical_formula_sum "Si O2"
_cell_formula_units_Z 48
_cell_length_a 8.938051
_cell_length_b 12.428590
_cell_length_c 22.641142
_cell_angle_alpha 90.000000
_cell_angle_beta 90.000000
_cell_angle_gamma 90.000000
_cell_volume 2515.144948
_symmetry_space_group_name_H-M "I M M 2"
_symmetry_group_IT_number 44
_symmetry_cell_setting 'orthorhombic'
loop_
_space_group_symop_operation_xyz
x,y,z
-x,-y,z
-x,y,z
x,-y,z
1/2+x,1/2+y,1/2+z
1/2-x,1/2-y,1/2+z
1/2-x,1/2+y,1/2+z
1/2+x,1/2-y,1/2+z
loop_
_atom_site_type_symbol
_atom_site_label
_atom_site_fract_x
_atom_site_fract_y
_atom_site_fract_z
Si Si1 0.821628 0.500000 0.137010
Si Si2 0.321891 0.881620 0.996138
Si Si3 0.323410 0.616335 0.815878
Si Si4 0.324133 0.284294 0.092871
Si Si5 0.677497 0.000000 0.772575
Si Si6 0.329815 0.878864 0.195836
Si Si7 0.678029 0.169237 0.867111
O O1 0.763131 0.604294 0.101729
O O2 0.759666 0.500000 0.205144
O O3 0.000000 0.500000 0.135919
O O4 0.500000 0.875768 0.996525
O O5 0.257988 0.871838 0.929446
O O6 0.271712 0.000000 0.020186
O O7 0.263434 0.781616 0.035589
O O8 0.500000 0.611803 0.817321
O O9 0.255780 0.500000 0.834656
O O10 0.277493 0.646562 0.749966
O O11 0.265834 0.707885 0.860290
O O12 0.500000 0.309763 0.087728
O O13 0.286604 0.206115 0.146581
O O14 0.736630 0.102295 0.810339
O O15 0.500000 0.000000 0.768300
O O16 0.500000 0.864154 0.216897
O O17 0.304793 0.000000 0.171399
O O18 0.500000 0.159803 0.868194
#
# Coordination Sequence:
#
# PCOD8189359 Si02
#       7
#     4   8   8   8   4   8   8
#     4  11  23  37  53  75 107 147 178 205 254 316
#     4   9  16  29  51  77 103 130 165 214 269 312
#     4   9  17  28  43  68 101 132 166 208 252 302
#     4  10  20  34  52  77 105 133 171 216 256 303
#     4   9  16  27  47  73 101 129 164 209 256 306
#     4   9  17  30  49  73 102 135 169 207 254 304
#     4   9  15  26  45  72 101 126 159 210 264 306
#
# _framework density 19.084387
#
# number of rings (size 3 to 8) (size 9 to 14) (size 15 to 20)
#    0.000    2.667    0.833    1.750    0.000    4.000 
#    1.500    0.000    0.000    2.500    0.000    0.000 
#    0.000    0.000    0.000    0.000    0.000    0.000 
#
# Total GULP energy -297387.047549 kJ/mol
# GULP energy per Si atom -12391.126981 kJ/mol
# Density = 1.904095 g / cm^3
# Si number density = 19.084387 Si / 1000 Ang^3
#
#
#
# Elastic Constant Matrix: (Units=GPa)
#
#
# Indices 1 2 3 4 5 6 
#
# 1 11.9057 29.7625 10.0790 0.0000 0.0000 0.0000
# 2 29.7625 167.4332 81.0922 0.0000 0.0000 0.0000
# 3 10.0790 81.0922 100.3225 0.0000 0.0000 0.0000
# 4 0.0000 0.0000 0.0000 36.5565 0.0000 0.0000
# 5 0.0000 0.0000 0.0000 0.0000 17.7783 0.0000
# 6 0.0000 0.0000 0.0000 0.0000 0.0000 18.4114
#
#
#
# Elastic Compliance Matrix: (Units=1/GPa)
#
#
# Indices 1 2 3 4 5 6 
#
# 1 0.158548 -0.033637 0.011260 0.000000 0.000000 0.000000
# 2 -0.033637 0.016951 -0.010323 0.000000 0.000000 0.000000
# 3 0.011260 -0.010323 0.017180 0.000000 0.000000 0.000000
# 4 0.000000 0.000000 0.000000 0.027355 0.000000 0.000000
# 5 0.000000 0.000000 0.000000 0.000000 0.056248 0.000000
# 6 0.000000 0.000000 0.000000 0.000000 0.000000 0.054314
#
#
# Mechanical properties :
#
#
# Convention : Reuss Voigt Hill
#
# Bulk Modulus (GPa) = 7.85657 57.94765 32.90211
# Shear Modulus (GPa) = 11.40452 25.13108 18.26780
#
# Velocity S-wave (km/s) = 2.44720 3.63277 3.09724
# Velocity P-wave (km/s) = 3.48005 6.93007 5.48346
#
# Compressibility (1/GPa) = 0.12728195
#
# Stress axis : x y z
#
# Youngs Moduli (GPa) = 6.30723 58.99284 58.20574
#
# Poissons Ratio (x) = 1.98433 -0.65542
# Poissons Ratio (y) = 0.21216 0.60083
# Poissons Ratio (z) = -0.07102 0.60896
#
# Static dielectric constant tensor:
#      x y z
#    x 2.971840 0.000000 0.000000 
#    y 0.000000 3.949230 0.000000 
#    z 0.000000 0.000000 3.617020 
# 
# 
# High freq. dielectric constant tensor:
#      x y z
#    x 1.682460 0.000000 0.000000 
#    y 0.000000 1.762650 0.000000 
#    z 0.000000 0.000000 1.734930 
# 
# From -- ./inp_files/23731.got.cif
#   From: 2010.03.12/outbox.cif.g09.slc.cpg/sg44_12_cif.got.tgz:23731.got - 2010.04.14 02:36:11.
