data_PCOD8189223
_publ_section_title
;
Structure prediction by ZEFSAII (Michael W. Deem and Ramdas Pophale) SiO2 
 PCOD8189223
Probable space group: I M M 2
;
_chemical_formula_sum "Si O2"
_cell_formula_units_Z 64
_cell_length_a 9.061330
_cell_length_b 18.571986
_cell_length_c 20.911579
_cell_angle_alpha 90.000000
_cell_angle_beta 90.000000
_cell_angle_gamma 90.000000
_cell_volume 3519.144676
_symmetry_space_group_name_H-M "I M M 2"
_symmetry_group_IT_number 44
_symmetry_cell_setting 'orthorhombic'
loop_
_space_group_symop_operation_xyz
x,y,z
-x,-y,z
-x,y,z
x,-y,z
1/2+x,1/2+y,1/2+z
1/2-x,1/2-y,1/2+z
1/2-x,1/2+y,1/2+z
1/2+x,1/2-y,1/2+z
loop_
_atom_site_type_symbol
_atom_site_label
_atom_site_fract_x
_atom_site_fract_y
_atom_site_fract_z
Si Si1 0.166264 0.414551 0.560300
Si Si2 0.323657 0.919441 0.696815
Si Si3 0.170654 0.165823 0.313144
Si Si4 0.825923 0.916676 0.932336
Si Si5 0.323902 0.918868 0.423113
Si Si6 0.827583 0.916696 0.186881
Si Si7 0.838677 0.414612 0.060599
Si Si8 0.671926 0.165846 0.818805
O O1 0.167781 0.500000 0.561979
O O2 0.256041 0.387992 0.498443
O O3 0.242795 0.386036 0.624947
O O4 0.000000 0.384267 0.556553
O O5 0.500000 0.918381 0.691894
O O6 0.258500 0.892016 0.627547
O O7 0.267348 0.868285 0.753105
O O8 0.267512 0.000000 0.712197
O O9 0.263197 0.135074 0.371226
O O10 0.225598 0.130144 0.247217
O O11 0.200746 0.250117 0.311876
O O12 0.000000 0.147147 0.324179
O O13 0.763860 0.867047 0.876509
O O14 0.000000 0.906981 0.937116
O O15 0.782859 0.000000 0.919459
O O16 0.500000 0.915349 0.424778
O O17 0.259129 0.894574 0.493291
O O18 0.271719 0.000000 0.406770
O O19 0.000000 0.906778 0.173448
O O20 0.788488 0.000000 0.200638
O O21 0.857646 0.500000 0.062502
O O22 0.000000 0.378023 0.059602
O O23 0.500000 0.147762 0.829802
#
# Coordination Sequence:
#
# PCOD8189223 Si02
#       8
#     8   8   8   8   8   8   8   8
#     4   9  17  30  51  78 102 124 158 206 253 297
#     4   8  13  24  46  72  93 116 150 193 240 287
#     4  10  21  34  47  68 102 139 170 204 246 291
#     4  10  20  34  53  76 101 130 164 204 253 305
#     4   9  17  30  50  74  97 123 160 206 250 294
#     4   9  17  31  50  70  96 132 170 207 250 299
#     4   7  11  22  42  69  95 115 145 196 248 286
#     4  10  20  33  49  71 100 133 169 206 242 287
#
# _framework density 18.186237999999999
#
# number of rings (size 3 to 8) (size 9 to 14) (size 15 to 20)
#    0.000    3.000    0.000    3.000    0.000    4.500 
#    0.000    2.500    0.000    3.750    0.000    1.750 
#    0.000    0.000    0.000    0.000    0.000    0.000 
#
# Total GULP energy -396564.846350 kJ/mol
# GULP energy per Si atom -12392.651448 kJ/mol
# Density = 1.814485 g / cm^3
# Si number density = 18.186238 Si / 1000 Ang^3
#
#
#
# Elastic Constant Matrix: (Units=GPa)
#
#
# Indices 1 2 3 4 5 6 
#
# 1 52.9614 29.3761 54.4881 0.0000 0.0000 0.0000
# 2 29.3761 66.0192 63.6220 0.0000 0.0000 0.0000
# 3 54.4881 63.6220 195.5802 0.0000 0.0000 0.0000
# 4 0.0000 0.0000 0.0000 0.2560 0.0000 0.0000
# 5 0.0000 0.0000 0.0000 0.0000 27.3135 0.0000
# 6 0.0000 0.0000 0.0000 0.0000 0.0000 19.1255
#
#
#
# Elastic Compliance Matrix: (Units=1/GPa)
#
#
# Indices 1 2 3 4 5 6 
#
# 1 0.028747 -0.007390 -0.005605 0.000000 0.000000 0.000000
# 2 -0.007390 0.023964 -0.005736 0.000000 0.000000 0.000000
# 3 -0.005605 -0.005736 0.008541 0.000000 0.000000 0.000000
# 4 0.000000 0.000000 0.000000 3.906976 0.000000 0.000000
# 5 0.000000 0.000000 0.000000 0.000000 0.036612 0.000000
# 6 0.000000 0.000000 0.000000 0.000000 0.000000 0.052286
#
#
# Mechanical properties :
#
#
# Convention : Reuss Voigt Hill
#
# Bulk Modulus (GPa) = 42.03716 67.72592 54.88154
# Shear Modulus (GPa) = 1.21876 20.47729 10.84803
#
# Velocity S-wave (km/s) = 0.81952 3.35920 2.44498
# Velocity P-wave (km/s) = 4.90515 7.23648 6.18171
#
# Compressibility (1/GPa) = 0.02378848
#
# Stress axis : x y z
#
# Youngs Moduli (GPa) = 34.78602 41.72995 117.08813
#
# Poissons Ratio (x) = 0.30839 0.65627
# Poissons Ratio (y) = 0.25707 0.67167
# Poissons Ratio (z) = 0.19497 0.23938
#
# Static dielectric constant tensor:
#      x y z
#    x 3.074390 0.000000 0.000000 
#    y 0.000000 3.068770 0.000000 
#    z 0.000000 0.000000 3.822150 
# 
# 
# High freq. dielectric constant tensor:
#      x y z
#    x 1.671070 0.000000 0.000000 
#    y 0.000000 1.670390 0.000000 
#    z 0.000000 0.000000 1.730630 
# 
# From -- ./inp_files/23318.got.cif
#   From: 2010.03.12/outbox.cif.g09.slc.cpg/sg44_12_cif.got.tgz:23318.got - 2010.04.14 02:36:11.
