data_PCOD8189910
_publ_section_title
;
Structure prediction by ZEFSAII (Michael W. Deem and Ramdas Pophale) SiO2 
 PCOD8189910
Probable space group: I M M 2
;
_chemical_formula_sum "Si O2"
_cell_formula_units_Z 56
_cell_length_a 9.033262
_cell_length_b 20.017665
_cell_length_c 15.510193
_cell_angle_alpha 90.000000
_cell_angle_beta 90.000000
_cell_angle_gamma 90.000000
_cell_volume 2804.627742
_symmetry_space_group_name_H-M "I M M 2"
_symmetry_group_IT_number 44
_symmetry_cell_setting 'orthorhombic'
loop_
_space_group_symop_operation_xyz
x,y,z
-x,-y,z
-x,y,z
x,-y,z
1/2+x,1/2+y,1/2+z
1/2-x,1/2-y,1/2+z
1/2-x,1/2+y,1/2+z
1/2+x,1/2-y,1/2+z
loop_
_atom_site_type_symbol
_atom_site_label
_atom_site_fract_x
_atom_site_fract_y
_atom_site_fract_z
Si Si1 0.331965 0.697292 0.868170
Si Si2 0.342827 0.572964 0.648546
Si Si3 0.669500 0.615014 0.471011
Si Si4 0.167635 0.262244 0.546728
Si Si5 0.333178 0.921469 0.302903
Si Si6 0.324685 0.704392 0.232775
Si Si7 0.174764 0.423051 0.298552
O O1 0.500000 0.701413 0.834906
O O2 0.271791 0.621694 0.863923
O O3 0.239607 0.750489 0.810807
O O4 0.322744 0.708959 0.970164
O O5 0.500000 0.612425 0.661026
O O6 0.362915 0.500000 0.689266
O O7 0.310333 0.561912 0.547592
O O8 0.209345 0.603454 0.705098
O O9 0.500000 0.619642 0.436659
O O10 0.715313 0.681922 0.520885
O O11 0.779058 0.594235 0.395881
O O12 0.217661 0.231971 0.638503
O O13 0.000000 0.290534 0.553428
O O14 0.500000 0.898542 0.317660
O O15 0.314387 0.000000 0.321847
O O16 0.500000 0.700144 0.245655
O O17 0.258088 0.629154 0.236556
O O18 0.218540 0.500000 0.276346
O O19 0.000000 0.412518 0.290188
#
# Coordination Sequence:
#
# PCOD8189910 Si02
#       7
#     8   8   8   8   8   8   8
#     4  11  22  39  62  87 119 158 198 246 304 368
#     4   9  18  32  50  77 113 150 189 232 286 355
#     4  11  21  34  57  88 118 153 199 250 305 365
#     4  10  23  40  59  86 121 156 197 250 310 371
#     4  10  21  36  55  82 116 154 197 247 302 358
#     4  11  23  41  65  93 123 161 208 259 314 373
#     4  11  24  41  61  87 124 169 212 260 320 379
#
# _framework density 19.966999999999999
#
# number of rings (size 3 to 8) (size 9 to 14) (size 15 to 20)
#    0.000    1.571    1.429    3.429    0.000    7.714 
#    0.000    2.143    0.000    4.286    0.000    0.000 
#    0.000    0.000    0.000    0.000    0.000    0.000 
#
# Total GULP energy -346897.281725 kJ/mol
# GULP energy per Si atom -12389.188633 kJ/mol
# Density = 1.992155 g / cm^3
# Si number density = 19.967000 Si / 1000 Ang^3
#
#
#
# Elastic Constant Matrix: (Units=GPa)
#
#
# Indices 1 2 3 4 5 6 
#
# 1 106.0699 53.8499 32.5092 0.0000 0.0000 0.0000
# 2 53.8499 98.2101 27.9860 0.0000 0.0000 0.0000
# 3 32.5092 27.9860 85.2859 0.0000 0.0000 0.0000
# 4 0.0000 0.0000 0.0000 28.3437 0.0000 0.0000
# 5 0.0000 0.0000 0.0000 0.0000 25.6943 0.0000
# 6 0.0000 0.0000 0.0000 0.0000 0.0000 33.5038
#
#
#
# Elastic Compliance Matrix: (Units=1/GPa)
#
#
# Indices 1 2 3 4 5 6 
#
# 1 0.013749 -0.006669 -0.003052 0.000000 0.000000 0.000000
# 2 -0.006669 0.014467 -0.002205 0.000000 0.000000 0.000000
# 3 -0.003052 -0.002205 0.013612 0.000000 0.000000 0.000000
# 4 0.000000 0.000000 0.000000 0.035281 0.000000 0.000000
# 5 0.000000 0.000000 0.000000 0.000000 0.038919 0.000000
# 6 0.000000 0.000000 0.000000 0.000000 0.000000 0.029847
#
#
# Mechanical properties :
#
#
# Convention : Reuss Voigt Hill
#
# Bulk Modulus (GPa) = 55.63159 57.58402 56.60781
# Shear Modulus (GPa) = 28.45410 29.18976 28.82193
#
# Velocity S-wave (km/s) = 3.77909 3.82763 3.80344
# Velocity P-wave (km/s) = 6.85305 6.95964 6.90655
#
# Compressibility (1/GPa) = 0.01797540
#
# Stress axis : x y z
#
# Youngs Moduli (GPa) = 72.73253 69.12119 73.46212
#
# Poissons Ratio (x) = 0.46096 0.22424
# Poissons Ratio (y) = 0.48505 0.16201
# Poissons Ratio (z) = 0.22201 0.15243
#
# Static dielectric constant tensor:
#      x y z
#    x 3.845860 0.000000 0.000000 
#    y 0.000000 3.793240 0.000000 
#    z 0.000000 0.000000 3.692710 
# 
# 
# High freq. dielectric constant tensor:
#      x y z
#    x 1.791760 0.000000 0.000000 
#    y 0.000000 1.776800 0.000000 
#    z 0.000000 0.000000 1.768470 
# 
# From -- ./inp_files/16480.got.cif
#   From: 2010.03.12/outbox.cif.g09.slc.cpg/sg44_9_cif.got.tgz:16480.got - 2010.04.14 02:36:11.
