data_PCOD8189955
_publ_section_title
;
Structure prediction by ZEFSAII (Michael W. Deem and Ramdas Pophale) SiO2 
 PCOD8189955
Probable space group: I M M 2
;
_chemical_formula_sum "Si O2"
_cell_formula_units_Z 48
_cell_length_a 9.155449
_cell_length_b 30.219201
_cell_length_c 9.064127
_cell_angle_alpha 90.000000
_cell_angle_beta 90.000000
_cell_angle_gamma 90.000000
_cell_volume 2507.775222
_symmetry_space_group_name_H-M "I M M 2"
_symmetry_group_IT_number 44
_symmetry_cell_setting 'orthorhombic'
loop_
_space_group_symop_operation_xyz
x,y,z
-x,-y,z
-x,y,z
x,-y,z
1/2+x,1/2+y,1/2+z
1/2-x,1/2-y,1/2+z
1/2-x,1/2+y,1/2+z
1/2+x,1/2-y,1/2+z
loop_
_atom_site_type_symbol
_atom_site_label
_atom_site_fract_x
_atom_site_fract_y
_atom_site_fract_z
Si Si1 0.329123 0.291854 0.073150
Si Si2 0.330420 0.950293 0.596437
Si Si3 0.671332 0.131370 0.403795
Si Si4 0.832146 0.127445 0.101193
Si Si5 0.329253 0.449823 0.392134
Si Si6 0.666707 0.714178 0.415813
O O1 0.500000 0.298110 0.042800
O O2 0.292991 0.287627 0.244739
O O3 0.245017 0.334108 0.012813
O O4 0.276091 0.247759 0.992989
O O5 0.500000 0.948335 0.635341
O O6 0.291905 0.917926 0.461448
O O7 0.247591 0.934361 0.742394
O O8 0.282249 0.000000 0.550614
O O9 0.500000 0.140918 0.400401
O O10 0.731985 0.137201 0.240432
O O11 0.000000 0.124618 0.153270
O O12 0.780424 0.081623 0.026187
O O13 0.809264 0.165806 0.982320
O O14 0.500000 0.444746 0.362776
O O15 0.285308 0.500000 0.434090
O O16 0.500000 0.730196 0.439091
#
# Coordination Sequence:
#
# PCOD8189955 Si02
#       6
#     8   8   8   8   8   8
#     4  11  23  39  60  83 109 142 179 222 273 325
#     4   9  19  36  56  79 109 145 184 226 272 322
#     4  11  23  37  55  81 112 145 184 227 270 321
#     4  10  21  37  56  80 113 148 182 224 272 321
#     4   9  18  34  57  84 112 143 182 227 273 323
#     4  10  22  39  58  82 111 143 181 223 268 322
#
# _framework density 19.140473
#
# number of rings (size 3 to 8) (size 9 to 14) (size 15 to 20)
#    0.000    2.000    0.000    3.000    0.000    8.667 
#    0.000    0.000    0.000    0.000    0.000    0.000 
#    0.000    0.000    0.000    0.000    0.000    0.000 
#
# Total GULP energy -297701.806011 kJ/mol
# GULP energy per Si atom -12404.241917 kJ/mol
# Density = 1.909691 g / cm^3
# Si number density = 19.140473 Si / 1000 Ang^3
#
#
#
# Elastic Constant Matrix: (Units=GPa)
#
#
# Indices 1 2 3 4 5 6 
#
# 1 80.3299 49.9262 64.8415 0.0008 0.0002 -0.0002
# 2 49.9262 105.1091 60.9658 0.0011 -0.0012 -0.0002
# 3 64.8415 60.9658 137.7389 0.0084 0.0021 -0.0020
# 4 0.0008 0.0011 0.0084 32.9782 -0.0005 -0.0003
# 5 0.0002 -0.0012 0.0021 -0.0005 31.7166 0.0015
# 6 -0.0002 -0.0002 -0.0020 -0.0003 0.0015 27.2790
#
#
#
# Elastic Compliance Matrix: (Units=1/GPa)
#
#
# Indices 1 2 3 4 5 6 
#
# 1 0.022707 -0.006170 -0.007959 0.000002 0.000000 0.000000
# 2 -0.006170 0.014476 -0.003503 0.000001 0.000001 0.000000
# 3 -0.007959 -0.003503 0.012557 -0.000003 -0.000001 0.000001
# 4 0.000002 0.000001 -0.000003 0.030323 0.000000 0.000000
# 5 0.000000 0.000001 -0.000001 0.000000 0.031529 -0.000002
# 6 0.000000 0.000000 0.000001 0.000000 -0.000002 0.036658
#
#
# Mechanical properties :
#
#
# Convention : Reuss Voigt Hill
#
# Bulk Modulus (GPa) = 69.07050 74.96053 72.01551
# Shear Modulus (GPa) = 26.54759 28.22439 27.38599
#
# Velocity S-wave (km/s) = 3.72827 3.84421 3.78668
# Velocity P-wave (km/s) = 7.39579 7.67804 7.53824
#
# Compressibility (1/GPa) = 0.01447796
#
# Stress axis : x y z
#
# Youngs Moduli (GPa) = 44.03834 69.07830 79.63432
#
# Poissons Ratio (x) = 0.42618 0.63380
# Poissons Ratio (y) = 0.27170 0.27897
# Poissons Ratio (z) = 0.35050 0.24199
#
# Static dielectric constant tensor:
#      x y z
#    x 3.529390 0.000000 0.000000 
#    y 0.000000 3.773070 -0.000010 
#    z 0.000000 -0.000010 3.462890 
# 
# 
# High freq. dielectric constant tensor:
#      x y z
#    x 1.744620 0.000000 0.000000 
#    y 0.000000 1.759370 0.000000 
#    z 0.000000 0.000000 1.745790 
# 
# From -- ./inp_files/4894.got.cif
#   From: 2010.03.12/outbox.cif.g09.slc.cpg/sg44_3_cif.got.tgz:4894.got - 2010.04.14 02:36:11.
