data_PCOD8189429
_publ_section_title
;
Structure prediction by ZEFSAII (Michael W. Deem and Ramdas Pophale) SiO2 
 PCOD8189429
Probable space group: I M M 2
;
_chemical_formula_sum "Si O2"
_cell_formula_units_Z 64
_cell_length_a 13.492309
_cell_length_b 18.024167
_cell_length_c 13.755540
_cell_angle_alpha 90.000000
_cell_angle_beta 90.000000
_cell_angle_gamma 90.000000
_cell_volume 3345.177181
_symmetry_space_group_name_H-M "I M M 2"
_symmetry_group_IT_number 44
_symmetry_cell_setting 'orthorhombic'
loop_
_space_group_symop_operation_xyz
x,y,z
-x,-y,z
-x,y,z
x,-y,z
1/2+x,1/2+y,1/2+z
1/2-x,1/2-y,1/2+z
1/2-x,1/2+y,1/2+z
1/2+x,1/2-y,1/2+z
loop_
_atom_site_type_symbol
_atom_site_label
_atom_site_fract_x
_atom_site_fract_y
_atom_site_fract_z
Si Si1 0.718712 0.417654 0.662670
Si Si2 0.886719 0.165322 0.330636
Si Si3 0.383263 0.179512 0.468571
Si Si4 0.109469 0.582494 0.792404
Si Si5 0.791150 0.588279 0.139672
Si Si6 0.234880 0.694887 0.507964
Si Si7 0.383080 0.835210 0.822888
Si Si8 0.382827 0.328436 0.055359
O O1 0.681592 0.500000 0.634718
O O2 0.665679 0.392566 0.761057
O O3 0.834324 0.416341 0.690034
O O4 0.704637 0.364296 0.571781
O O5 0.868129 0.249196 0.293593
O O6 0.854578 0.154761 0.442925
O O7 0.000000 0.144506 0.323151
O O8 0.500000 0.196125 0.466623
O O9 0.344947 0.136793 0.373073
O O10 0.361027 0.129728 0.562789
O O11 0.323498 0.255866 0.464675
O O12 0.111159 0.500000 0.837992
O O13 0.000000 0.609101 0.766527
O O14 0.799207 0.500000 0.128550
O O15 0.829696 0.611714 0.245749
O O16 0.676287 0.613458 0.123461
O O17 0.171667 0.652057 0.425909
O O18 0.159616 0.745215 0.573447
O O19 0.500000 0.854501 0.832376
O O20 0.500000 0.332783 0.077470
#
# Coordination Sequence:
#
# PCOD8189429 Si02
#       8
#     8   8   8   8   8   8   8   8
#     4  11  22  34  51  77 109 141 172 214 268 322
#     4   9  18  35  58  82 106 136 179 225 269 320
#     4  10  20  34  55  81 108 138 174 223 278 328
#     4   9  18  32  50  75 105 132 160 201 262 329
#     4  11  22  34  53  83 116 147 180 219 272 338
#     4  10  21  37  55  77 104 141 191 234 268 316
#     4  10  21  38  58  78 104 142 188 235 274 316
#     4   9  19  36  60  86 110 141 181 228 279 329
#
# _framework density 19.132020000000001
#
# number of rings (size 3 to 8) (size 9 to 14) (size 15 to 20)
#    0.000    2.125    0.000    5.625    0.000    6.500 
#    0.000    3.125    0.000    0.000    0.000    1.750 
#    0.000    0.000    0.000    0.000    0.000    0.000 
#
# Total GULP energy -396681.905678 kJ/mol
# GULP energy per Si atom -12396.309552 kJ/mol
# Density = 1.908848 g / cm^3
# Si number density = 19.132020 Si / 1000 Ang^3
#
#
#
# Elastic Constant Matrix: (Units=GPa)
#
#
# Indices 1 2 3 4 5 6 
#
# 1 77.6823 28.1563 18.6894 -0.0001 0.0000 0.0000
# 2 28.1563 88.1220 35.3033 -0.0004 0.0000 0.0000
# 3 18.6894 35.3033 57.3488 -0.0009 -0.0001 -0.0001
# 4 -0.0001 -0.0004 -0.0009 26.3765 0.0000 0.0000
# 5 0.0000 0.0000 -0.0001 0.0000 23.1869 0.0000
# 6 0.0000 0.0000 -0.0001 0.0000 0.0000 15.0017
#
#
#
# Elastic Compliance Matrix: (Units=1/GPa)
#
#
# Indices 1 2 3 4 5 6 
#
# 1 0.014833 -0.003720 -0.002544 0.000000 0.000000 0.000000
# 2 -0.003720 0.015996 -0.008634 0.000000 0.000000 0.000000
# 3 -0.002544 -0.008634 0.023581 0.000001 0.000000 0.000000
# 4 0.000000 0.000000 0.000001 0.037913 0.000000 0.000000
# 5 0.000000 0.000000 0.000000 0.000000 0.043128 0.000000
# 6 0.000000 0.000000 0.000000 0.000000 0.000000 0.066659
#
#
# Mechanical properties :
#
#
# Convention : Reuss Voigt Hill
#
# Bulk Modulus (GPa) = 40.62831 43.05010 41.83920
# Shear Modulus (GPa) = 20.82366 22.31329 21.56848
#
# Velocity S-wave (km/s) = 3.30270 3.41879 3.36125
# Velocity P-wave (km/s) = 5.98545 6.17532 6.08113
#
# Compressibility (1/GPa) = 0.02461338
#
# Stress axis : x y z
#
# Youngs Moduli (GPa) = 67.41528 62.51685 42.40642
#
# Poissons Ratio (x) = 0.23259 0.10787
# Poissons Ratio (y) = 0.25081 0.36615
# Poissons Ratio (z) = 0.17149 0.53979
#
# Static dielectric constant tensor:
#      x y z
#    x 3.628270 0.000000 0.000000 
#    y 0.000000 3.427990 0.000000 
#    z 0.000000 0.000000 3.304520 
# 
# 
# High freq. dielectric constant tensor:
#      x y z
#    x 1.755710 0.000000 0.000000 
#    y 0.000000 1.730600 0.000000 
#    z 0.000000 0.000000 1.726910 
# 
# From -- ./inp_files/13435.got.cif
#   From: 2010.03.12/outbox.cif.g09.slc.cpg/sg44_7_cif.got.tgz:13435.got - 2010.04.14 02:36:11.
