data_PCOD8189209
_publ_section_title
;
Structure prediction by ZEFSAII (Michael W. Deem and Ramdas Pophale) SiO2 
 PCOD8189209
Probable space group: I M M 2
;
_chemical_formula_sum "Si O2"
_cell_formula_units_Z 56
_cell_length_a 7.691318
_cell_length_b 13.650063
_cell_length_c 32.746453
_cell_angle_alpha 90.000000
_cell_angle_beta 90.000000
_cell_angle_gamma 90.000000
_cell_volume 3437.951051
_symmetry_space_group_name_H-M "I M M 2"
_symmetry_group_IT_number 44
_symmetry_cell_setting 'orthorhombic'
loop_
_space_group_symop_operation_xyz
x,y,z
-x,-y,z
-x,y,z
x,-y,z
1/2+x,1/2+y,1/2+z
1/2-x,1/2-y,1/2+z
1/2-x,1/2+y,1/2+z
1/2+x,1/2-y,1/2+z
loop_
_atom_site_type_symbol
_atom_site_label
_atom_site_fract_x
_atom_site_fract_y
_atom_site_fract_z
Si Si1 0.000000 0.382754 0.500000
Si Si2 0.698012 0.711746 0.817723
Si Si3 0.500000 0.883976 0.093829
Si Si4 0.193283 0.117029 0.149639
Si Si5 0.697510 0.296374 0.447005
Si Si6 0.294830 0.109105 0.866392
Si Si7 0.706456 0.391428 0.739455
Si Si8 0.203942 0.390408 0.897407
O O1 0.826032 0.335498 0.481665
O O2 0.000000 0.500000 0.493468
O O3 0.000000 0.351578 0.547142
O O4 0.500000 0.732152 0.806733
O O5 0.780494 0.814819 0.832859
O O6 0.789236 0.674158 0.776009
O O7 0.708361 0.632047 0.853920
O O8 0.671904 0.841799 0.116204
O O9 0.500000 0.000000 0.097684
O O10 0.252071 0.153364 0.194889
O O11 0.000000 0.156441 0.138738
O O12 0.189889 0.000000 0.150408
O O13 0.500000 0.292793 0.464319
O O14 0.701207 0.371366 0.409241
O O15 0.761020 0.188456 0.431811
O O16 0.500000 0.124695 0.873601
O O17 0.251101 0.000000 0.851275
O O18 0.500000 0.398456 0.744145
O O19 0.787003 0.500000 0.743715
O O20 0.258814 0.500000 0.911465
O O21 0.000000 0.381705 0.890453
#
# Coordination Sequence:
#
# PCOD8189209 Si02
#       8
#     4   8   4   8   8   8   8   8
#     4  11  22  34  47  67  93 115 152 200 227 261
#     4   9  16  25  39  61  86 115 153 188 217 255
#     4   9  18  30  44  63  85 111 143 180 222 267
#     4   8  14  26  42  59  82 111 140 171 214 267
#     4  10  20  33  48  66  88 118 153 186 227 274
#     4   9  16  27  42  59  85 120 155 191 224 254
#     4   8  13  22  37  57  82 111 143 177 211 256
#     4   9  18  31  44  62  91 120 147 184 226 267
#
# _framework density 16.288771000000001
#
# number of rings (size 3 to 8) (size 9 to 14) (size 15 to 20)
#    0.000    3.000    0.714    1.714    1.000    2.571 
#    1.286    1.429    0.000    0.000    0.000    0.000 
#    0.000    2.286    0.000    8.857    0.000    0.000 
#
# Total GULP energy -346978.545711 kJ/mol
# GULP energy per Si atom -12392.090918 kJ/mol
# Density = 1.625170 g / cm^3
# Si number density = 16.288771 Si / 1000 Ang^3
#
#
#
# Elastic Constant Matrix: (Units=GPa)
#
#
# Indices 1 2 3 4 5 6 
#
# 1 65.2046 21.9848 50.8959 0.0000 0.0000 0.0000
# 2 21.9848 90.2688 47.6075 0.0000 0.0000 0.0000
# 3 50.8959 47.6075 135.2601 0.0000 0.0000 0.0000
# 4 0.0000 0.0000 0.0000 19.0996 0.0000 0.0000
# 5 0.0000 0.0000 0.0000 0.0000 7.8174 0.0000
# 6 0.0000 0.0000 0.0000 0.0000 0.0000 13.2361
#
#
#
# Elastic Compliance Matrix: (Units=1/GPa)
#
#
# Indices 1 2 3 4 5 6 
#
# 1 0.021821 -0.001208 -0.007785 0.000000 0.000000 0.000000
# 2 -0.001208 0.013670 -0.004357 0.000000 0.000000 0.000000
# 3 -0.007785 -0.004357 0.011856 0.000000 0.000000 0.000000
# 4 0.000000 0.000000 0.000000 0.052357 0.000000 0.000000
# 5 0.000000 0.000000 0.000000 0.000000 0.127920 0.000000
# 6 0.000000 0.000000 0.000000 0.000000 0.000000 0.075551
#
#
# Mechanical properties :
#
#
# Convention : Reuss Voigt Hill
#
# Bulk Modulus (GPa) = 48.43602 59.07886 53.75744
# Shear Modulus (GPa) = 14.84746 19.38031 17.11388
#
# Velocity S-wave (km/s) = 3.02241 3.45308 3.24490
# Velocity P-wave (km/s) = 6.47922 7.22819 6.86393
#
# Compressibility (1/GPa) = 0.02064579
#
# Stress axis : x y z
#
# Youngs Moduli (GPa) = 45.82798 73.15251 84.34455
#
# Poissons Ratio (x) = 0.08840 0.65666
# Poissons Ratio (y) = 0.05538 0.36747
# Poissons Ratio (z) = 0.35679 0.31871
#
# Static dielectric constant tensor:
#      x y z
#    x 3.086870 0.000000 0.000000 
#    y 0.000000 3.064200 0.000000 
#    z 0.000000 0.000000 3.114870 
# 
# 
# High freq. dielectric constant tensor:
#      x y z
#    x 1.626960 0.000000 0.000000 
#    y 0.000000 1.590120 0.000000 
#    z 0.000000 0.000000 1.605720 
# 
# From -- ./inp_files/27241.got.cif
#   From: 2010.03.12/outbox.cif.g09.slc.cpg/sg44_14_cif.got.tgz:27241.got - 2010.04.14 02:36:11.
