data_PCOD8189931
_publ_section_title
;
Structure prediction by ZEFSAII (Michael W. Deem and Ramdas Pophale) SiO2 
 PCOD8189931
Probable space group: I M M 2
;
_chemical_formula_sum "Si O2"
_cell_formula_units_Z 40
_cell_length_a 11.563073
_cell_length_b 7.573976
_cell_length_c 23.401665
_cell_angle_alpha 90.000000
_cell_angle_beta 90.000000
_cell_angle_gamma 90.000000
_cell_volume 2049.481253
_symmetry_space_group_name_H-M "I M M 2"
_symmetry_group_IT_number 44
_symmetry_cell_setting 'orthorhombic'
loop_
_space_group_symop_operation_xyz
x,y,z
-x,-y,z
-x,y,z
x,-y,z
1/2+x,1/2+y,1/2+z
1/2-x,1/2-y,1/2+z
1/2-x,1/2+y,1/2+z
1/2+x,1/2-y,1/2+z
loop_
_atom_site_type_symbol
_atom_site_label
_atom_site_fract_x
_atom_site_fract_y
_atom_site_fract_z
Si Si1 0.866552 0.000000 0.937521
Si Si2 0.713144 0.201055 0.649449
Si Si3 0.130876 0.292414 0.748480
Si Si4 0.000000 0.708693 0.222108
Si Si5 0.500000 0.210044 0.848285
Si Si6 0.637697 0.500000 0.571356
Si Si7 0.752778 0.701619 0.865538
O O1 0.813804 0.821918 0.912108
O O2 0.000000 0.000000 0.922429
O O3 0.842342 0.000000 0.004350
O O4 0.828552 0.209595 0.688077
O O5 0.612518 0.276529 0.689840
O O6 0.706745 0.327890 0.594595
O O7 0.693572 0.000000 0.628491
O O8 0.136551 0.500000 0.741499
O O9 0.211460 0.230960 0.801768
O O10 0.000000 0.227677 0.760185
O O11 0.000000 0.790292 0.284762
O O12 0.000000 0.500000 0.225817
O O13 0.384253 0.283304 0.877456
O O14 0.500000 0.000000 0.850381
O O15 0.500000 0.500000 0.586026
O O16 0.794000 0.500000 0.874344
#
# Coordination Sequence:
#
# PCOD8189931 Si02
#       7
#     4   8   8   4   4   4   8
#     4  11  26  45  65  89 123 172 218 261 312 374
#     4  11  21  36  60  91 123 157 200 250 307 368
#     4  10  21  36  58  91 130 167 200 246 313 381
#     4   9  18  30  54  94 126 152 186 240 309 370
#     4  11  19  35  63  96 129 163 202 251 324 378
#     4  11  24  42  64  90 122 164 211 258 309 361
#     4  11  23  40  63  94 128 163 209 262 315 379
#
# _framework density 19.517133999999999
#
# number of rings (size 3 to 8) (size 9 to 14) (size 15 to 20)
#    0.000    1.400    5.000    0.900    1.400    2.400 
#    1.800    2.000    4.400    0.000    0.000    0.000 
#    0.000    0.000    0.000    0.000    0.000    0.000 
#
# Total GULP energy -247985.647683 kJ/mol
# GULP energy per Si atom -12399.282384 kJ/mol
# Density = 1.947271 g / cm^3
# Si number density = 19.517134 Si / 1000 Ang^3
#
#
#
# Elastic Constant Matrix: (Units=GPa)
#
#
# Indices 1 2 3 4 5 6 
#
# 1 123.5706 32.8183 47.8550 0.0000 0.0000 0.0000
# 2 32.8183 114.0815 54.6341 0.0000 0.0000 0.0000
# 3 47.8550 54.6341 105.4178 0.0000 0.0000 0.0000
# 4 0.0000 0.0000 0.0000 28.6817 0.0000 0.0000
# 5 0.0000 0.0000 0.0000 0.0000 29.2726 0.0000
# 6 0.0000 0.0000 0.0000 0.0000 0.0000 23.2593
#
#
#
# Elastic Compliance Matrix: (Units=1/GPa)
#
#
# Indices 1 2 3 4 5 6 
#
# 1 0.009891 -0.000925 -0.004011 0.000000 0.000000 0.000000
# 2 -0.000925 0.011746 -0.005668 0.000000 0.000000 0.000000
# 3 -0.004011 -0.005668 0.014244 0.000000 0.000000 0.000000
# 4 0.000000 0.000000 0.000000 0.034865 0.000000 0.000000
# 5 0.000000 0.000000 0.000000 0.000000 0.034162 0.000000
# 6 0.000000 0.000000 0.000000 0.000000 0.000000 0.042994
#
#
# Mechanical properties :
#
#
# Convention : Reuss Voigt Hill
#
# Bulk Modulus (GPa) = 68.14393 68.18719 68.16556
# Shear Modulus (GPa) = 28.73546 30.09354 29.41450
#
# Velocity S-wave (km/s) = 3.84124 3.93097 3.88637
# Velocity P-wave (km/s) = 7.39353 7.45763 7.42565
#
# Compressibility (1/GPa) = 0.01467482
#
# Stress axis : x y z
#
# Youngs Moduli (GPa) = 101.09720 85.13568 70.20347
#
# Poissons Ratio (x) = 0.07872 0.28159
# Poissons Ratio (y) = 0.09347 0.39790
# Poissons Ratio (z) = 0.40551 0.48253
#
# Static dielectric constant tensor:
#      x y z
#    x 3.674410 0.000000 0.000000 
#    y 0.000000 3.503110 0.000000 
#    z 0.000000 0.000000 3.324300 
# 
# 
# High freq. dielectric constant tensor:
#      x y z
#    x 1.762180 0.000000 0.000000 
#    y 0.000000 1.768260 0.000000 
#    z 0.000000 0.000000 1.727920 
# 
# From -- ./inp_files/23624.got.cif
#   From: 2010.03.12/outbox.cif.g09.slc.cpg/sg44_12_cif.got.tgz:23624.got - 2010.04.14 02:36:11.
