data_PCOD8189332
_publ_section_title
;
Structure prediction by ZEFSAII (Michael W. Deem and Ramdas Pophale) SiO2 
 PCOD8189332
Probable space group: I M M 2
;
_chemical_formula_sum "Si O2"
_cell_formula_units_Z 56
_cell_length_a 14.216697
_cell_length_b 8.962964
_cell_length_c 22.778576
_cell_angle_alpha 90.000000
_cell_angle_beta 90.000000
_cell_angle_gamma 90.000000
_cell_volume 2902.531423
_symmetry_space_group_name_H-M "I M M 2"
_symmetry_group_IT_number 44
_symmetry_cell_setting 'orthorhombic'
loop_
_space_group_symop_operation_xyz
x,y,z
-x,-y,z
-x,y,z
x,-y,z
1/2+x,1/2+y,1/2+z
1/2-x,1/2-y,1/2+z
1/2-x,1/2+y,1/2+z
1/2+x,1/2-y,1/2+z
loop_
_atom_site_type_symbol
_atom_site_label
_atom_site_fract_x
_atom_site_fract_y
_atom_site_fract_z
Si Si1 0.291200 0.171701 0.189690
Si Si2 0.106282 0.176685 0.795595
Si Si3 0.390936 0.828434 0.512019
Si Si4 0.106902 0.824476 0.451356
Si Si5 0.718071 0.676486 0.408960
Si Si6 0.894927 0.829119 0.132304
Si Si7 0.608230 0.829992 0.070981
O O1 0.334757 0.272792 0.239684
O O2 0.178589 0.199133 0.185352
O O3 0.332935 0.220817 0.127155
O O4 0.315726 0.000000 0.203495
O O5 0.158033 0.236526 0.853838
O O6 0.000000 0.241674 0.793675
O O7 0.102860 0.000000 0.795867
O O8 0.500000 0.805640 0.496844
O O9 0.331661 0.727690 0.468261
O O10 0.369741 0.776453 0.577959
O O11 0.360241 0.000000 0.505372
O O12 0.177027 0.745807 0.405333
O O13 0.135796 0.775764 0.517009
O O14 0.000000 0.773687 0.437375
O O15 0.118275 0.000000 0.445861
O O16 0.726388 0.500000 0.408113
O O17 0.000000 0.795155 0.156161
O O18 0.886496 0.000000 0.110394
O O19 0.500000 0.811403 0.088288
O O20 0.631692 0.000000 0.052814
#
# Coordination Sequence:
#
# PCOD8189332 Si02
#       7
#     8   8   8   8   8   8   8
#     4  10  20  34  54  79 106 140 181 221 262 310
#     4  10  23  41  58  78 104 135 174 220 269 320
#     4  10  20  33  53  84 116 143 176 222 274 323
#     4  10  21  36  55  82 113 142 176 221 270 317
#     4  11  22  37  57  78 105 144 185 222 265 322
#     4   9  18  33  53  79 112 147 180 215 260 317
#     4   9  17  30  50  78 110 142 177 217 264 320
#
# _framework density 19.293503999999999
#
# number of rings (size 3 to 8) (size 9 to 14) (size 15 to 20)
#    0.000    2.143    0.000    3.000    0.000    6.571 
#    0.000    2.143    0.000    2.571    0.000    0.000 
#    0.000    0.000    0.000    0.000    0.000    0.000 
#
# Total GULP energy -347253.772633 kJ/mol
# GULP energy per Si atom -12401.920451 kJ/mol
# Density = 1.924959 g / cm^3
# Si number density = 19.293504 Si / 1000 Ang^3
#
#
#
# Elastic Constant Matrix: (Units=GPa)
#
#
# Indices 1 2 3 4 5 6 
#
# 1 134.1576 36.1891 72.0782 0.0000 0.0000 0.0000
# 2 36.1891 53.4360 27.5941 0.0000 0.0000 0.0000
# 3 72.0782 27.5941 72.9661 0.0000 0.0000 0.0000
# 4 0.0000 0.0000 0.0000 30.6380 0.0000 0.0000
# 5 0.0000 0.0000 0.0000 0.0000 32.2259 0.0000
# 6 0.0000 0.0000 0.0000 0.0000 0.0000 29.9487
#
#
#
# Elastic Compliance Matrix: (Units=1/GPa)
#
#
# Indices 1 2 3 4 5 6 
#
# 1 0.016366 -0.003399 -0.014882 0.000000 0.000000 0.000000
# 2 -0.003399 0.023961 -0.005704 0.000000 0.000000 0.000000
# 3 -0.014882 -0.005704 0.030563 0.000000 0.000000 0.000000
# 4 0.000000 0.000000 0.000000 0.032639 0.000000 0.000000
# 5 0.000000 0.000000 0.000000 0.000000 0.031031 0.000000
# 6 0.000000 0.000000 0.000000 0.000000 0.000000 0.033390
#
#
# Mechanical properties :
#
#
# Convention : Reuss Voigt Hill
#
# Bulk Modulus (GPa) = 43.62809 59.14249 51.38529
# Shear Modulus (GPa) = 22.36531 26.87572 24.62052
#
# Velocity S-wave (km/s) = 3.40842 3.73633 3.57614
# Velocity P-wave (km/s) = 6.17670 7.02383 6.61384
#
# Compressibility (1/GPa) = 0.02292101
#
# Stress axis : x y z
#
# Youngs Moduli (GPa) = 61.10170 41.73362 32.71973
#
# Poissons Ratio (x) = 0.14186 0.48692
# Poissons Ratio (y) = 0.20769 0.18663
# Poissons Ratio (z) = 0.90929 0.23805
#
# Static dielectric constant tensor:
#      x y z
#    x 3.970060 0.000000 0.000000 
#    y 0.000000 3.463000 0.000000 
#    z 0.000000 0.000000 3.310100 
# 
# 
# High freq. dielectric constant tensor:
#      x y z
#    x 1.773140 0.000000 0.000000 
#    y 0.000000 1.745720 0.000000 
#    z 0.000000 0.000000 1.723540 
# 
# From -- ./inp_files/23042.got.cif
#   From: 2010.03.12/outbox.cif.g09.slc.cpg/sg44_12_cif.got.tgz:23042.got - 2010.04.14 02:36:11.
