data_PCOD8189055
_publ_section_title
;
Structure prediction by ZEFSAII (Michael W. Deem and Ramdas Pophale) SiO2 
 PCOD8189055
Probable space group: I M M 2
;
_chemical_formula_sum "Si O2"
_cell_formula_units_Z 56
_cell_length_a 14.216932
_cell_length_b 19.992799
_cell_length_c 9.949401
_cell_angle_alpha 90.000000
_cell_angle_beta 90.000000
_cell_angle_gamma 90.000000
_cell_volume 2827.980568
_symmetry_space_group_name_H-M "I M M 2"
_symmetry_group_IT_number 44
_symmetry_cell_setting 'orthorhombic'
loop_
_space_group_symop_operation_xyz
x,y,z
-x,-y,z
-x,y,z
x,-y,z
1/2+x,1/2+y,1/2+z
1/2-x,1/2-y,1/2+z
1/2-x,1/2+y,1/2+z
1/2+x,1/2-y,1/2+z
loop_
_atom_site_type_symbol
_atom_site_label
_atom_site_fract_x
_atom_site_fract_y
_atom_site_fract_z
Si Si1 0.395059 0.927851 0.514930
Si Si2 0.106209 0.870436 0.651399
Si Si3 0.705117 0.425051 0.894155
Si Si4 0.392247 0.423641 0.437518
Si Si5 0.211556 0.161928 0.148129
Si Si6 0.606428 0.784815 0.558490
Si Si7 0.892537 0.279871 0.744674
O O1 0.500000 0.921847 0.450670
O O2 0.319178 0.927050 0.394522
O O3 0.380145 0.862136 0.609031
O O4 0.385796 0.000000 0.592970
O O5 0.175477 0.892561 0.534371
O O6 0.127202 0.916812 0.779626
O O7 0.123579 0.793934 0.688509
O O8 0.000000 0.881673 0.600864
O O9 0.663736 0.500000 0.878363
O O10 0.668346 0.379959 0.772072
O O11 0.500000 0.401014 0.469103
O O12 0.375727 0.500000 0.481476
O O13 0.318153 0.376324 0.513297
O O14 0.324239 0.169835 0.162428
O O15 0.169389 0.236766 0.149851
O O16 0.500000 0.760191 0.575674
O O17 0.635773 0.780932 0.401697
O O18 0.000000 0.303411 0.723689
#
# Coordination Sequence:
#
# PCOD8189055 Si02
#       7
#     8   8   8   8   8   8   8
#     4   9  18  35  58  83 112 149 193 239 291 354
#     4  10  21  39  60  83 116 160 201 237 289 356
#     4  11  23  36  55  90 124 152 195 248 297 346
#     4  10  21  39  62  87 119 162 203 237 287 359
#     4  12  22  35  61  89 119 153 196 248 303 342
#     4  10  19  36  58  85 117 155 194 239 294 355
#     4  10  21  37  59  84 116 154 199 246 291 352
#
# _framework density 19.802116000000002
#
# number of rings (size 3 to 8) (size 9 to 14) (size 15 to 20)
#    0.000    1.714    2.857    2.143    0.000    2.000 
#    0.000    0.000    0.000    2.143    0.000    0.000 
#    0.000    0.000    0.000    0.000    0.000    0.000 
#
# Total GULP energy -347037.723114 kJ/mol
# GULP energy per Si atom -12394.204397 kJ/mol
# Density = 1.975705 g / cm^3
# Si number density = 19.802116 Si / 1000 Ang^3
#
#
#
# Elastic Constant Matrix: (Units=GPa)
#
#
# Indices 1 2 3 4 5 6 
#
# 1 90.8185 44.5276 44.2314 0.0000 0.0000 0.0000
# 2 44.5276 144.7152 49.0975 0.0000 0.0000 0.0000
# 3 44.2314 49.0975 70.1228 0.0000 0.0000 0.0000
# 4 0.0000 0.0000 0.0000 29.5316 0.0000 0.0000
# 5 0.0000 0.0000 0.0000 0.0000 17.3859 0.0000
# 6 0.0000 0.0000 0.0000 0.0000 0.0000 27.5377
#
#
#
# Elastic Compliance Matrix: (Units=1/GPa)
#
#
# Indices 1 2 3 4 5 6 
#
# 1 0.016326 -0.002006 -0.008893 0.000000 0.000000 0.000000
# 2 -0.002006 0.009309 -0.005253 0.000000 0.000000 0.000000
# 3 -0.008893 -0.005253 0.023548 0.000000 0.000000 0.000000
# 4 0.000000 0.000000 0.000000 0.033862 0.000000 0.000000
# 5 0.000000 0.000000 0.000000 0.000000 0.057518 0.000000
# 6 0.000000 0.000000 0.000000 0.000000 0.000000 0.036314
#
#
# Mechanical properties :
#
#
# Convention : Reuss Voigt Hill
#
# Bulk Modulus (GPa) = 59.24468 64.59662 61.92065
# Shear Modulus (GPa) = 23.27662 26.07772 24.67717
#
# Velocity S-wave (km/s) = 3.43222 3.63287 3.53397
# Velocity P-wave (km/s) = 6.75945 7.09147 6.92745
#
# Compressibility (1/GPa) = 0.01687915
#
# Stress axis : x y z
#
# Youngs Moduli (GPa) = 61.25264 107.41718 42.46624
#
# Poissons Ratio (x) = 0.21549 0.37766
# Poissons Ratio (y) = 0.12288 0.22307
# Poissons Ratio (z) = 0.54474 0.56424
#
# Static dielectric constant tensor:
#      x y z
#    x 3.703890 0.000000 0.000000 
#    y 0.000000 4.028520 0.000000 
#    z 0.000000 0.000000 3.175210 
# 
# 
# High freq. dielectric constant tensor:
#      x y z
#    x 1.774410 0.000000 0.000000 
#    y 0.000000 1.798290 0.000000 
#    z 0.000000 0.000000 1.722930 
# 
# From -- ./inp_files/7397.got.cif
#   From: 2010.03.12/outbox.cif.g09.slc.cpg/sg44_4_cif.got.tgz:7397.got - 2010.04.14 02:36:11.
