data_PCOD8189419
_publ_section_title
;
Structure prediction by ZEFSAII (Michael W. Deem and Ramdas Pophale) SiO2 
 PCOD8189419
Probable space group: I M M 2
;
_chemical_formula_sum "Si O2"
_cell_formula_units_Z 64
_cell_length_a 12.676449
_cell_length_b 26.733703
_cell_length_c 9.132512
_cell_angle_alpha 90.000000
_cell_angle_beta 90.000000
_cell_angle_gamma 90.000000
_cell_volume 3094.902587
_symmetry_space_group_name_H-M "I M M 2"
_symmetry_group_IT_number 44
_symmetry_cell_setting 'orthorhombic'
loop_
_space_group_symop_operation_xyz
x,y,z
-x,-y,z
-x,y,z
x,-y,z
1/2+x,1/2+y,1/2+z
1/2-x,1/2-y,1/2+z
1/2-x,1/2+y,1/2+z
1/2+x,1/2-y,1/2+z
loop_
_atom_site_type_symbol
_atom_site_label
_atom_site_fract_x
_atom_site_fract_y
_atom_site_fract_z
Si Si1 0.377309 0.279554 0.828400
Si Si2 0.380464 0.621231 0.001344
Si Si3 0.621749 0.109575 0.139639
Si Si4 0.723759 0.442338 0.437559
Si Si5 0.760268 0.292873 0.543197
Si Si6 0.804649 0.443777 0.906308
Si Si7 0.611372 0.056332 0.718487
Si Si8 0.881050 0.853794 0.828691
O O1 0.500000 0.264181 0.801344
O O2 0.310772 0.271735 0.677915
O O3 0.370304 0.337223 0.875298
O O4 0.330988 0.249533 0.967403
O O5 0.500000 0.601732 0.015162
O O6 0.343034 0.641333 0.160103
O O7 0.312529 0.574002 0.948801
O O8 0.500000 0.102863 0.089514
O O9 0.660082 0.165161 0.103892
O O10 0.633928 0.097126 0.309824
O O11 0.701040 0.067428 0.075072
O O12 0.687792 0.500000 0.428422
O O13 0.790990 0.418954 0.300946
O O14 0.622567 0.406323 0.422136
O O15 0.687782 0.313068 0.412671
O O16 0.797179 0.500000 0.839520
O O17 0.877761 0.444541 0.046786
O O18 0.500000 0.083149 0.758063
O O19 0.608634 0.000000 0.781541
O O20 0.000000 0.834174 0.831845
#
# Coordination Sequence:
#
# PCOD8189419 Si02
#       8
#     8   8   8   8   8   8   8   8
#     4  11  23  43  70  96 127 166 207 262 329 394
#     4  10  21  39  62  89 124 163 204 256 318 378
#     4  11  23  39  59  87 124 164 209 260 313 377
#     4  10  20  34  54  82 118 161 209 256 308 368
#     4  11  23  42  69  95 130 160 212 262 327 393
#     4  11  21  36  57  86 122 165 212 256 308 366
#     4   9  17  30  50  75 107 150 201 250 296 350
#     4  10  21  38  62  89 122 164 207 258 320 379
#
# _framework density 20.679165000000001
#
# number of rings (size 3 to 8) (size 9 to 14) (size 15 to 20)
#    0.000    1.625    2.500    2.625    0.000    2.500 
#    0.000    3.125    0.000    1.500    0.000    0.000 
#    0.000    0.000    0.000    0.000    0.000    0.000 
#
# Total GULP energy -396531.621472 kJ/mol
# GULP energy per Si atom -12391.613171 kJ/mol
# Density = 2.063210 g / cm^3
# Si number density = 20.679165 Si / 1000 Ang^3
#
#
#
# Elastic Constant Matrix: (Units=GPa)
#
#
# Indices 1 2 3 4 5 6 
#
# 1 83.3341 22.7385 23.6361 -0.0010 -0.0020 -0.0007
# 2 22.7385 61.2002 13.8288 -0.0009 -0.0015 -0.0011
# 3 23.6361 13.8288 79.6702 0.0033 0.0003 -0.0006
# 4 -0.0010 -0.0009 0.0033 33.0946 0.0033 -0.0006
# 5 -0.0020 -0.0015 0.0003 0.0033 11.2508 -0.0052
# 6 -0.0007 -0.0011 -0.0006 -0.0006 -0.0052 5.3747
#
#
#
# Elastic Compliance Matrix: (Units=1/GPa)
#
#
# Indices 1 2 3 4 5 6 
#
# 1 0.014201 -0.004501 -0.003432 0.000001 0.000002 0.000001
# 2 -0.004501 0.018433 -0.001864 0.000001 0.000002 0.000003
# 3 -0.003432 -0.001864 0.013893 -0.000002 -0.000001 0.000001
# 4 0.000001 0.000001 -0.000002 0.030216 -0.000009 0.000004
# 5 0.000002 0.000002 -0.000001 -0.000009 0.088883 0.000086
# 6 0.000001 0.000003 0.000001 0.000004 0.000086 0.186059
#
#
# Mechanical properties :
#
#
# Convention : Reuss Voigt Hill
#
# Bulk Modulus (GPa) = 37.12784 38.29015 37.70899
# Shear Modulus (GPa) = 13.14896 20.87743 17.01320
#
# Velocity S-wave (km/s) = 2.52435 3.18085 2.87142
# Velocity P-wave (km/s) = 5.14681 5.66100 5.41002
#
# Compressibility (1/GPa) = 0.02693397
#
# Stress axis : x y z
#
# Youngs Moduli (GPa) = 70.41553 54.24952 71.97613
#
# Poissons Ratio (x) = 0.24417 0.24702
# Poissons Ratio (y) = 0.31694 0.13418
# Poissons Ratio (z) = 0.24166 0.10113
#
# Static dielectric constant tensor:
#      x y z
#    x 3.806900 0.000000 0.000000 
#    y 0.000000 3.504110 0.000000 
#    z 0.000000 0.000000 3.848320 
# 
# 
# High freq. dielectric constant tensor:
#      x y z
#    x 1.813020 0.000000 0.000000 
#    y 0.000000 1.788270 0.000000 
#    z 0.000000 0.000000 1.819770 
# 
# From -- ./inp_files/6355.got.cif
#   From: 2010.03.12/outbox.cif.g09.slc.cpg/sg44_4_cif.got.tgz:6355.got - 2010.04.14 02:36:11.
