data_PCOD8189203
_publ_section_title
;
Structure prediction by ZEFSAII (Michael W. Deem and Ramdas Pophale) SiO2 
 PCOD8189203
Probable space group: I M M 2
;
_chemical_formula_sum "Si O2"
_cell_formula_units_Z 40
_cell_length_a 7.707430
_cell_length_b 7.668439
_cell_length_c 32.872211
_cell_angle_alpha 90.000000
_cell_angle_beta 90.000000
_cell_angle_gamma 90.000000
_cell_volume 1942.877739
_symmetry_space_group_name_H-M "I M M 2"
_symmetry_group_IT_number 44
_symmetry_cell_setting 'orthorhombic'
loop_
_space_group_symop_operation_xyz
x,y,z
-x,-y,z
-x,y,z
x,-y,z
1/2+x,1/2+y,1/2+z
1/2-x,1/2-y,1/2+z
1/2-x,1/2+y,1/2+z
1/2+x,1/2-y,1/2+z
loop_
_atom_site_type_symbol
_atom_site_label
_atom_site_fract_x
_atom_site_fract_y
_atom_site_fract_z
Si Si1 0.500000 0.797017 0.534350
Si Si2 0.696511 0.699661 0.094202
Si Si3 0.205759 0.000000 0.152904
Si Si4 0.690899 0.206766 0.891328
Si Si5 0.293950 0.192589 0.800724
Si Si6 0.206838 0.000000 0.245163
Si Si7 0.500000 0.698351 0.443238
O O1 0.671920 0.740180 0.558885
O O2 0.500000 0.700602 0.491678
O O3 0.500000 0.000000 0.525183
O O4 0.500000 0.716130 0.077560
O O5 0.737271 0.500000 0.107539
O O6 0.720326 0.824829 0.132651
O O7 0.273690 0.000000 0.199016
O O8 0.000000 0.000000 0.149876
O O9 0.500000 0.288780 0.899764
O O10 0.757823 0.255428 0.846074
O O11 0.826479 0.285879 0.924260
O O12 0.675184 0.000000 0.894921
O O13 0.500000 0.183938 0.798231
O O14 0.219115 0.328616 0.767834
O O15 0.216726 0.000000 0.791351
O O16 0.000000 0.000000 0.246583
O O17 0.500000 0.500000 0.428266
#
# Coordination Sequence:
#
# PCOD8189203 Si02
#       7
#     4   8   4   8   8   4   4
#     4  10  22  40  58  84 118 148 194 245 303 364
#     4  10  22  41  64  85 113 159 201 243 301 367
#     4  11  21  35  61  92 125 155 198 249 311 364
#     4   8  15  30  51  75 106 148 191 230 281 340
#     4   8  14  28  49  72 107 152 193 234 282 335
#     4   9  18  29  49  87 116 145 193 244 283 353
#     4  10  20  32  54  82 112 144 188 246 286 349
#
# _framework density 20.588018000000002
#
# number of rings (size 3 to 8) (size 9 to 14) (size 15 to 20)
#    0.000    2.800    1.000    1.500    1.400    1.600 
#    1.800    2.000    4.400    0.000    0.000    0.000 
#    0.000    0.000    0.000    0.000    0.000    0.000 
#
# Total GULP energy -247909.340092 kJ/mol
# GULP energy per Si atom -12395.467005 kJ/mol
# Density = 2.054116 g / cm^3
# Si number density = 20.588018 Si / 1000 Ang^3
#
#
#
# Elastic Constant Matrix: (Units=GPa)
#
#
# Indices 1 2 3 4 5 6 
#
# 1 115.0371 29.0037 67.4987 0.0000 0.0000 0.0000
# 2 29.0037 88.4036 62.4255 0.0000 0.0000 0.0000
# 3 67.4987 62.4255 171.6565 0.0000 0.0000 0.0000
# 4 0.0000 0.0000 0.0000 20.6813 0.0000 0.0000
# 5 0.0000 0.0000 0.0000 0.0000 11.2549 0.0000
# 6 0.0000 0.0000 0.0000 0.0000 0.0000 13.2423
#
#
#
# Elastic Compliance Matrix: (Units=1/GPa)
#
#
# Indices 1 2 3 4 5 6 
#
# 1 0.011339 -0.000769 -0.004179 0.000000 0.000000 0.000000
# 2 -0.000769 0.015272 -0.005252 0.000000 0.000000 0.000000
# 3 -0.004179 -0.005252 0.009379 0.000000 0.000000 0.000000
# 4 0.000000 0.000000 0.000000 0.048353 0.000000 0.000000
# 5 0.000000 0.000000 0.000000 0.000000 0.088850 0.000000
# 6 0.000000 0.000000 0.000000 0.000000 0.000000 0.075516
#
#
# Mechanical properties :
#
#
# Convention : Reuss Voigt Hill
#
# Bulk Modulus (GPa) = 64.14149 76.99479 70.56814
# Shear Modulus (GPa) = 18.22790 23.44699 20.83745
#
# Velocity S-wave (km/s) = 2.97874 3.37837 3.18483
# Velocity P-wave (km/s) = 6.56147 7.25926 6.91917
#
# Compressibility (1/GPa) = 0.01559053
#
# Stress axis : x y z
#
# Youngs Moduli (GPa) = 88.19293 65.47718 106.62500
#
# Poissons Ratio (x) = 0.05036 0.44558
# Poissons Ratio (y) = 0.06783 0.55996
# Poissons Ratio (z) = 0.36855 0.34386
#
# Static dielectric constant tensor:
#      x y z
#    x 3.905730 0.000000 0.000000 
#    y 0.000000 3.760020 0.000000 
#    z 0.000000 0.000000 3.642450 
# 
# 
# High freq. dielectric constant tensor:
#      x y z
#    x 1.798670 0.000000 0.000000 
#    y 0.000000 1.795730 0.000000 
#    z 0.000000 0.000000 1.789090 
# 
# From -- ./inp_files/25988.got.cif
#   From: 2010.03.12/outbox.cif.g09.slc.cpg/sg44_13_cif.got.tgz:25988.got - 2010.04.14 02:36:11.
