data_PCOD8189235
_publ_section_title
;
Structure prediction by ZEFSAII (Michael W. Deem and Ramdas Pophale) SiO2 
 PCOD8189235
Probable space group: I M M 2
;
_chemical_formula_sum "Si O2"
_cell_formula_units_Z 64
_cell_length_a 13.733492
_cell_length_b 9.213271
_cell_length_c 24.691197
_cell_angle_alpha 90.000000
_cell_angle_beta 90.000000
_cell_angle_gamma 90.000000
_cell_volume 3124.186627
_symmetry_space_group_name_H-M "I M M 2"
_symmetry_group_IT_number 44
_symmetry_cell_setting 'orthorhombic'
loop_
_space_group_symop_operation_xyz
x,y,z
-x,-y,z
-x,y,z
x,-y,z
1/2+x,1/2+y,1/2+z
1/2-x,1/2-y,1/2+z
1/2-x,1/2+y,1/2+z
1/2+x,1/2-y,1/2+z
loop_
_atom_site_type_symbol
_atom_site_label
_atom_site_fract_x
_atom_site_fract_y
_atom_site_fract_z
Si Si1 0.610531 0.658975 0.299160
Si Si2 0.713764 0.166071 0.679095
Si Si3 0.892534 0.669171 0.688790
Si Si4 0.392257 0.171987 0.786532
Si Si5 0.390750 0.828042 0.908025
Si Si6 0.213408 0.172906 0.982198
Si Si7 0.889571 0.332960 0.071623
Si Si8 0.112897 0.659949 0.895261
O O1 0.500000 0.631629 0.316464
O O2 0.662463 0.500000 0.293603
O O3 0.615807 0.747978 0.244863
O O4 0.663380 0.752226 0.345842
O O5 0.804385 0.260906 0.654842
O O6 0.680476 0.225591 0.738687
O O7 0.626689 0.182243 0.636143
O O8 0.748446 0.000000 0.683067
O O9 0.875144 0.500000 0.697944
O O10 0.000000 0.695850 0.662567
O O11 0.500000 0.235915 0.775280
O O12 0.358941 0.221823 0.847105
O O13 0.398310 0.000000 0.783472
O O14 0.500000 0.769456 0.921464
O O15 0.314643 0.772756 0.954031
O O16 0.392352 0.000000 0.909755
O O17 0.125409 0.242989 0.948441
O O18 0.206739 0.000000 0.983486
O O19 0.193743 0.236491 0.042020
O O20 0.877250 0.500000 0.053162
O O21 0.000000 0.279917 0.059452
O O22 0.161303 0.500000 0.901084
O O23 0.000000 0.638318 0.883347
#
# Coordination Sequence:
#
# PCOD8189235 Si02
#       8
#     8   8   8   8   8   8   8   8
#     4   9  17  30  49  73 103 141 186 232 272 319
#     4  10  20  34  59  88 110 142 192 241 286 340
#     4  10  21  36  52  75 113 156 191 226 278 340
#     4   8  14  28  53  84 113 139 174 227 289 348
#     4   8  16  32  53  80 114 144 176 228 288 343
#     4  11  22  34  55  84 111 146 194 238 281 337
#     4  10  22  41  61  83 115 151 188 235 291 349
#     4  10  20  33  49  73 109 150 186 225 282 345
#
# _framework density 20.485330999999999
#
# number of rings (size 3 to 8) (size 9 to 14) (size 15 to 20)
#    0.000    2.500    0.000    3.000    1.750    6.750 
#    0.000    0.625    0.000    4.875    0.000    3.500 
#    0.000    0.000    0.000    0.000    0.000    0.000 
#
# Total GULP energy -396436.009208 kJ/mol
# GULP energy per Si atom -12388.625288 kJ/mol
# Density = 2.043871 g / cm^3
# Si number density = 20.485331 Si / 1000 Ang^3
#
#
#
# Elastic Constant Matrix: (Units=GPa)
#
#
# Indices 1 2 3 4 5 6 
#
# 1 118.6231 44.5620 40.7757 0.0000 0.0000 0.0000
# 2 44.5620 89.4645 30.3112 0.0000 0.0000 0.0000
# 3 40.7757 30.3112 85.7733 0.0000 0.0000 0.0000
# 4 0.0000 0.0000 0.0000 26.9403 0.0000 0.0000
# 5 0.0000 0.0000 0.0000 0.0000 29.7144 0.0000
# 6 0.0000 0.0000 0.0000 0.0000 0.0000 21.5978
#
#
#
# Elastic Compliance Matrix: (Units=1/GPa)
#
#
# Indices 1 2 3 4 5 6 
#
# 1 0.011403 -0.004366 -0.003878 0.000000 0.000000 0.000000
# 2 -0.004366 0.014370 -0.003002 0.000000 0.000000 0.000000
# 3 -0.003878 -0.003002 0.014563 0.000000 0.000000 0.000000
# 4 0.000000 0.000000 0.000000 0.037119 0.000000 0.000000
# 5 0.000000 0.000000 0.000000 0.000000 0.033654 0.000000
# 6 0.000000 0.000000 0.000000 0.000000 0.000000 0.046301
#
#
# Mechanical properties :
#
#
# Convention : Reuss Voigt Hill
#
# Bulk Modulus (GPa) = 56.04451 58.35097 57.19774
# Shear Modulus (GPa) = 26.90330 27.53130 27.21730
#
# Velocity S-wave (km/s) = 3.62787 3.66997 3.64898
# Velocity P-wave (km/s) = 6.70570 6.81941 6.76279
#
# Compressibility (1/GPa) = 0.01784296
#
# Stress axis : x y z
#
# Youngs Moduli (GPa) = 87.69418 69.59149 68.66582
#
# Poissons Ratio (x) = 0.30384 0.26629
# Poissons Ratio (y) = 0.38287 0.20617
# Poissons Ratio (z) = 0.34009 0.20895
#
# Static dielectric constant tensor:
#      x y z
#    x 4.360920 0.000000 0.000000 
#    y 0.000000 3.890670 0.000000 
#    z 0.000000 0.000000 3.640180 
# 
# 
# High freq. dielectric constant tensor:
#      x y z
#    x 1.804220 0.000000 0.000000 
#    y 0.000000 1.773890 0.000000 
#    z 0.000000 0.000000 1.783550 
# 
# From -- ./inp_files/25750.got.cif
#   From: 2010.03.12/outbox.cif.g09.slc.cpg/sg44_13_cif.got.tgz:25750.got - 2010.04.14 02:36:11.
