data_PCOD8189577
_publ_section_title
;
Structure prediction by ZEFSAII (Michael W. Deem and Ramdas Pophale) SiO2 
 PCOD8189577
Probable space group: I M M 2
;
_chemical_formula_sum "Si O2"
_cell_formula_units_Z 56
_cell_length_a 8.616909
_cell_length_b 14.215419
_cell_length_c 22.612399
_cell_angle_alpha 90.000000
_cell_angle_beta 90.000000
_cell_angle_gamma 90.000000
_cell_volume 2769.859956
_symmetry_space_group_name_H-M "I M M 2"
_symmetry_group_IT_number 44
_symmetry_cell_setting 'orthorhombic'
loop_
_space_group_symop_operation_xyz
x,y,z
-x,-y,z
-x,y,z
x,-y,z
1/2+x,1/2+y,1/2+z
1/2-x,1/2-y,1/2+z
1/2-x,1/2+y,1/2+z
1/2+x,1/2-y,1/2+z
loop_
_atom_site_type_symbol
_atom_site_label
_atom_site_fract_x
_atom_site_fract_y
_atom_site_fract_z
Si Si1 0.316494 0.603410 0.593750
Si Si2 0.179622 0.211039 0.417956
Si Si3 0.322129 0.109412 0.524967
Si Si4 0.682608 0.276299 0.702262
Si Si5 0.182482 0.107601 0.960475
Si Si6 0.818967 0.608805 0.808531
Si Si7 0.179593 0.893695 0.650181
O O1 0.500000 0.597473 0.599707
O O2 0.245407 0.500000 0.605347
O O3 0.249920 0.672478 0.643618
O O4 0.272429 0.636462 0.527718
O O5 0.211883 0.168506 0.482339
O O6 0.227124 0.321373 0.417126
O O7 0.282171 0.153087 0.371852
O O8 0.000000 0.201457 0.401291
O O9 0.500000 0.140417 0.515027
O O10 0.278137 0.132240 0.592188
O O11 0.297452 0.000000 0.510956
O O12 0.500000 0.261384 0.699729
O O13 0.722490 0.335985 0.759607
O O14 0.765720 0.174440 0.703395
O O15 0.000000 0.118854 0.950074
O O16 0.233337 0.000000 0.947291
O O17 0.767465 0.500000 0.808310
O O18 0.000000 0.619200 0.795140
O O19 0.000000 0.879780 0.635331
O O20 0.213983 0.000000 0.670892
#
# Coordination Sequence:
#
# PCOD8189577 Si02
#       7
#     8   8   8   8   8   8   8
#     4   8  15  29  52  83 115 146 180 219 268 327
#     4  12  24  37  57  84 115 151 191 238 290 344
#     4  10  20  35  57  85 117 153 193 237 286 341
#     4  11  21  35  59  87 116 151 190 234 283 337
#     4   9  18  35  59  85 115 152 191 229 273 332
#     4  11  25  44  63  83 111 148 190 236 284 338
#     4  10  21  37  57  84 119 155 192 236 284 336
#
# _framework density 20.217628999999999
#
# number of rings (size 3 to 8) (size 9 to 14) (size 15 to 20)
#    0.000    1.857    0.000    5.571    0.000    6.571 
#    0.000    1.429    0.000    6.000    0.000    0.000 
#    0.000    0.000    0.000    0.000    0.000    0.000 
#
# Total GULP energy -347261.436828 kJ/mol
# GULP energy per Si atom -12402.194172 kJ/mol
# Density = 2.017161 g / cm^3
# Si number density = 20.217629 Si / 1000 Ang^3
#
#
#
# Elastic Constant Matrix: (Units=GPa)
#
#
# Indices 1 2 3 4 5 6 
#
# 1 59.0655 32.4371 16.2406 0.0000 0.0000 0.0000
# 2 32.4371 121.4315 55.6719 0.0000 0.0000 0.0000
# 3 16.2406 55.6719 60.0294 0.0000 0.0000 0.0000
# 4 0.0000 0.0000 0.0000 34.0377 0.0000 0.0000
# 5 0.0000 0.0000 0.0000 0.0000 30.3553 0.0000
# 6 0.0000 0.0000 0.0000 0.0000 0.0000 29.2479
#
#
#
# Elastic Compliance Matrix: (Units=1/GPa)
#
#
# Indices 1 2 3 4 5 6 
#
# 1 0.019862 -0.004944 -0.000788 0.000000 0.000000 0.000000
# 2 -0.004944 0.015557 -0.013090 0.000000 0.000000 0.000000
# 3 -0.000788 -0.013090 0.029012 0.000000 0.000000 0.000000
# 4 0.000000 0.000000 0.000000 0.029379 0.000000 0.000000
# 5 0.000000 0.000000 0.000000 0.000000 0.032943 0.000000
# 6 0.000000 0.000000 0.000000 0.000000 0.000000 0.034190
#
#
# Mechanical properties :
#
#
# Convention : Reuss Voigt Hill
#
# Bulk Modulus (GPa) = 37.33328 49.91395 43.62362
# Shear Modulus (GPa) = 24.09423 27.80663 25.95043
#
# Velocity S-wave (km/s) = 3.45591 3.71262 3.58656
# Velocity P-wave (km/s) = 5.86773 6.56658 6.22696
#
# Compressibility (1/GPa) = 0.02678575
#
# Stress axis : x y z
#
# Youngs Moduli (GPa) = 50.34647 64.27875 34.46871
#
# Poissons Ratio (x) = 0.31781 0.02717
# Poissons Ratio (y) = 0.24893 0.45121
# Poissons Ratio (z) = 0.03969 0.84143
#
# Static dielectric constant tensor:
#      x y z
#    x 3.429580 0.000000 0.000000 
#    y 0.000000 3.992120 0.000000 
#    z 0.000000 0.000000 3.463940 
# 
# 
# High freq. dielectric constant tensor:
#      x y z
#    x 1.777630 0.000000 0.000000 
#    y 0.000000 1.808970 0.000000 
#    z 0.000000 0.000000 1.767490 
# 
# From -- ./inp_files/23049.got.cif
#   From: 2010.03.12/outbox.cif.g09.slc.cpg/sg44_12_cif.got.tgz:23049.got - 2010.04.14 02:36:11.
