data_PCOD8189918
_publ_section_title
;
Structure prediction by ZEFSAII (Michael W. Deem and Ramdas Pophale) SiO2 
 PCOD8189918
Probable space group: I M M 2
;
_chemical_formula_sum "Si O2"
_cell_formula_units_Z 64
_cell_length_a 9.370503
_cell_length_b 22.231548
_cell_length_c 15.313667
_cell_angle_alpha 90.000000
_cell_angle_beta 90.000000
_cell_angle_gamma 90.000000
_cell_volume 3190.155165
_symmetry_space_group_name_H-M "I M M 2"
_symmetry_group_IT_number 44
_symmetry_cell_setting 'orthorhombic'
loop_
_space_group_symop_operation_xyz
x,y,z
-x,-y,z
-x,y,z
x,-y,z
1/2+x,1/2+y,1/2+z
1/2-x,1/2-y,1/2+z
1/2-x,1/2+y,1/2+z
1/2+x,1/2-y,1/2+z
loop_
_atom_site_type_symbol
_atom_site_label
_atom_site_fract_x
_atom_site_fract_y
_atom_site_fract_z
Si Si1 0.166283 0.067386 0.793580
Si Si2 0.343124 0.929024 0.269178
Si Si3 0.166675 0.684757 0.343484
Si Si4 0.165246 0.673227 0.538157
Si Si5 0.167372 0.567003 0.958864
Si Si6 0.339807 0.740059 0.193274
Si Si7 0.832902 0.930584 0.104548
Si Si8 0.155871 0.889396 0.610158
O O1 0.265154 0.118040 0.836900
O O2 0.195036 0.066055 0.689464
O O3 0.000000 0.083521 0.812075
O O4 0.201741 0.000000 0.829536
O O5 0.500000 0.903622 0.242087
O O6 0.296133 0.904180 0.364055
O O7 0.225918 0.909995 0.199010
O O8 0.355205 0.000000 0.279046
O O9 0.187273 0.706098 0.444368
O O10 0.240186 0.734101 0.279432
O O11 0.000000 0.680450 0.318614
O O12 0.219113 0.713018 0.620626
O O13 0.255991 0.611351 0.533805
O O14 0.000000 0.656644 0.550190
O O15 0.232678 0.500000 0.967931
O O16 0.000000 0.564657 0.972149
O O17 0.231696 0.608846 0.032780
O O18 0.500000 0.758122 0.223444
O O19 0.343192 0.677132 0.146099
O O20 0.000000 0.919221 0.102262
O O21 0.795058 0.000000 0.084687
O O22 0.000000 0.905744 0.572463
#
# Coordination Sequence:
#
# PCOD8189918 Si02
#       8
#     8   8   8   8   8   8   8   8
#     4   9  18  33  53  78 112 154 192 227 278 341
#     4   8  15  30  49  68 100 145 183 218 267 327
#     4  10  21  37  59  87 116 146 186 239 286 329
#     4  10  22  41  63  84 112 151 189 227 280 341
#     4   9  17  28  44  70 105 143 183 228 276 327
#     4   9  20  41  61  77 107 150 189 230 281 337
#     4  10  21  36  56  85 116 143 179 230 281 330
#     4   9  17  30  49  72 101 140 184 229 277 330
#
# _framework density 20.061722
#
# number of rings (size 3 to 8) (size 9 to 14) (size 15 to 20)
#    0.000    2.750    0.000    2.625    0.000    6.250 
#    2.250    3.750    0.000    0.000    0.000    0.000 
#    0.000    0.000    0.000    0.000    0.000    0.000 
#
# Total GULP energy -396576.884227 kJ/mol
# GULP energy per Si atom -12393.027632 kJ/mol
# Density = 2.001606 g / cm^3
# Si number density = 20.061722 Si / 1000 Ang^3
#
#
#
# Elastic Constant Matrix: (Units=GPa)
#
#
# Indices 1 2 3 4 5 6 
#
# 1 82.5461 30.5070 57.8528 0.0001 0.0000 0.0000
# 2 30.5070 58.4463 33.6966 -0.0003 0.0000 0.0000
# 3 57.8528 33.6966 117.9998 -0.0003 0.0000 0.0000
# 4 0.0001 -0.0003 -0.0003 20.6368 0.0000 0.0000
# 5 0.0000 0.0000 0.0000 0.0000 33.6245 0.0000
# 6 0.0000 0.0000 0.0000 0.0000 0.0000 19.3816
#
#
#
# Elastic Compliance Matrix: (Units=1/GPa)
#
#
# Indices 1 2 3 4 5 6 
#
# 1 0.019930 -0.005709 -0.008141 0.000000 0.000000 0.000000
# 2 -0.005709 0.022117 -0.003517 0.000000 0.000000 0.000000
# 3 -0.008141 -0.003517 0.013470 0.000000 0.000000 0.000000
# 4 0.000000 0.000000 0.000000 0.048457 0.000000 0.000000
# 5 0.000000 0.000000 0.000000 0.000000 0.029740 0.000000
# 6 0.000000 0.000000 0.000000 0.000000 0.000000 0.051595
#
#
# Mechanical properties :
#
#
# Convention : Reuss Voigt Hill
#
# Bulk Modulus (GPa) = 48.11487 55.90058 52.00773
# Shear Modulus (GPa) = 22.02914 23.85763 22.94338
#
# Velocity S-wave (km/s) = 3.31731 3.45224 3.38544
# Velocity P-wave (km/s) = 6.22159 6.61932 6.42353
#
# Compressibility (1/GPa) = 0.02078360
#
# Stress axis : x y z
#
# Youngs Moduli (GPa) = 50.17551 45.21342 74.23808
#
# Poissons Ratio (x) = 0.25814 0.60437
# Poissons Ratio (y) = 0.28647 0.26108
# Poissons Ratio (z) = 0.40847 0.15901
#
# Static dielectric constant tensor:
#      x y z
#    x 3.593820 0.000000 0.000000 
#    y 0.000000 3.579150 0.000000 
#    z 0.000000 0.000000 3.781370 
# 
# 
# High freq. dielectric constant tensor:
#      x y z
#    x 1.772670 0.000000 0.000000 
#    y 0.000000 1.764560 0.000000 
#    z 0.000000 0.000000 1.786260 
# 
# From -- ./inp_files/16840.got.cif
#   From: 2010.03.12/outbox.cif.g09.slc.cpg/sg44_9_cif.got.tgz:16840.got - 2010.04.14 02:36:11.
