data_PCOD8189977
_publ_section_title
;
Structure prediction by ZEFSAII (Michael W. Deem and Ramdas Pophale) SiO2 
 PCOD8189977
Probable space group: I M M 2
;
_chemical_formula_sum "Si O2"
_cell_formula_units_Z 64
_cell_length_a 14.712076
_cell_length_b 9.066476
_cell_length_c 24.103648
_cell_angle_alpha 90.000000
_cell_angle_beta 90.000000
_cell_angle_gamma 90.000000
_cell_volume 3215.105678
_symmetry_space_group_name_H-M "I M M 2"
_symmetry_group_IT_number 44
_symmetry_cell_setting 'orthorhombic'
loop_
_space_group_symop_operation_xyz
x,y,z
-x,-y,z
-x,y,z
x,-y,z
1/2+x,1/2+y,1/2+z
1/2-x,1/2-y,1/2+z
1/2-x,1/2+y,1/2+z
1/2+x,1/2-y,1/2+z
loop_
_atom_site_type_symbol
_atom_site_label
_atom_site_fract_x
_atom_site_fract_y
_atom_site_fract_z
Si Si1 0.892784 0.170298 0.550090
Si Si2 0.398039 0.174775 0.280063
Si Si3 0.604333 0.827702 0.747490
Si Si4 0.892246 0.833754 0.138620
Si Si5 0.605200 0.826086 0.527870
Si Si6 0.760856 0.672280 0.467592
Si Si7 0.256825 0.169947 0.840731
Si Si8 0.892282 0.336529 0.657976
O O1 0.843630 0.261447 0.502343
O O2 0.857845 0.226787 0.610094
O O3 0.000000 0.195716 0.543231
O O4 0.865832 0.000000 0.544860
O O5 0.500000 0.234196 0.290735
O O6 0.333720 0.240403 0.326936
O O7 0.362656 0.223295 0.218665
O O8 0.396916 0.000000 0.284052
O O9 0.500000 0.783909 0.758733
O O10 0.645292 0.739827 0.694858
O O11 0.659902 0.779615 0.801853
O O12 0.613336 0.000000 0.734276
O O13 0.858934 0.739807 0.086010
O O14 0.000000 0.831219 0.140399
O O15 0.854514 0.000000 0.133884
O O16 0.500000 0.786071 0.516688
O O17 0.665422 0.752990 0.479896
O O18 0.620673 0.000000 0.528979
O O19 0.750466 0.500000 0.480994
O O20 0.785635 0.701039 0.403673
O O21 0.233683 0.000000 0.830880
O O22 0.851539 0.500000 0.646865
O O23 0.000000 0.347537 0.657801
#
# Coordination Sequence:
#
# PCOD8189977 Si02
#       8
#     8   8   8   8   8   8   8   8
#     4  10  21  37  58  85 115 146 182 227 278 329
#     4   9  19  36  58  83 111 144 179 217 267 326
#     4   9  18  35  57  79 108 145 182 223 271 323
#     4   9  17  31  54  85 116 143 176 219 269 328
#     4  10  21  38  60  84 111 145 183 226 279 333
#     4  11  24  40  57  79 109 147 192 235 274 324
#     4  10  23  39  55  79 107 141 188 233 272 318
#     4   8  15  31  55  82 111 143 180 220 268 330
#
# _framework density 19.906033000000001
#
# number of rings (size 3 to 8) (size 9 to 14) (size 15 to 20)
#    0.000    2.500    0.000    2.250    0.000    7.250 
#    0.000    7.500    0.000    1.500    0.000    0.000 
#    0.000    0.000    0.000    0.000    0.000    0.000 
#
# Total GULP energy -396819.942762 kJ/mol
# GULP energy per Si atom -12400.623211 kJ/mol
# Density = 1.986073 g / cm^3
# Si number density = 19.906033 Si / 1000 Ang^3
#
#
#
# Elastic Constant Matrix: (Units=GPa)
#
#
# Indices 1 2 3 4 5 6 
#
# 1 46.4107 17.8670 8.5725 0.0000 0.0000 0.0000
# 2 17.8670 84.8075 34.6151 0.0000 0.0000 0.0000
# 3 8.5725 34.6151 82.2578 0.0000 0.0000 0.0000
# 4 0.0000 0.0000 0.0000 33.6459 0.0000 0.0000
# 5 0.0000 0.0000 0.0000 0.0000 32.6489 0.0000
# 6 0.0000 0.0000 0.0000 0.0000 0.0000 25.7510
#
#
#
# Elastic Compliance Matrix: (Units=1/GPa)
#
#
# Indices 1 2 3 4 5 6 
#
# 1 0.023462 -0.004763 -0.000441 0.000000 0.000000 0.000000
# 2 -0.004763 0.015204 -0.005902 0.000000 0.000000 0.000000
# 3 -0.000441 -0.005902 0.014686 0.000000 0.000000 0.000000
# 4 0.000000 0.000000 0.000000 0.029721 0.000000 0.000000
# 5 0.000000 0.000000 0.000000 0.000000 0.030629 0.000000
# 6 0.000000 0.000000 0.000000 0.000000 0.000000 0.038833
#
#
# Mechanical properties :
#
#
# Convention : Reuss Voigt Hill
#
# Bulk Modulus (GPa) = 32.11178 37.28725 34.69951
# Shear Modulus (GPa) = 27.00860 28.57059 27.78959
#
# Velocity S-wave (km/s) = 3.68748 3.79261 3.74041
# Velocity P-wave (km/s) = 5.85634 6.16042 6.01030
#
# Compressibility (1/GPa) = 0.03114122
#
# Stress axis : x y z
#
# Youngs Moduli (GPa) = 42.62251 65.77375 68.09083
#
# Poissons Ratio (x) = 0.31328 0.03001
# Poissons Ratio (y) = 0.20301 0.40184
# Poissons Ratio (z) = 0.01879 0.38816
#
# Static dielectric constant tensor:
#      x y z
#    x 3.511470 0.000000 0.000000 
#    y 0.000000 3.636230 0.000000 
#    z 0.000000 0.000000 3.712510 
# 
# 
# High freq. dielectric constant tensor:
#      x y z
#    x 1.773310 0.000000 0.000000 
#    y 0.000000 1.775320 0.000000 
#    z 0.000000 0.000000 1.775140 
# 
# From -- ./inp_files/25130.got.cif
#   From: 2010.03.12/outbox.cif.g09.slc.cpg/sg44_13_cif.got.tgz:25130.got - 2010.04.14 02:36:11.
