data_PCOD8189593
_publ_section_title
;
Structure prediction by ZEFSAII (Michael W. Deem and Ramdas Pophale) SiO2 
 PCOD8189593
Probable space group: I M M 2
;
_chemical_formula_sum "Si O2"
_cell_formula_units_Z 64
_cell_length_a 24.777079
_cell_length_b 8.670703
_cell_length_c 14.915952
_cell_angle_alpha 90.000000
_cell_angle_beta 90.000000
_cell_angle_gamma 90.000000
_cell_volume 3204.463972
_symmetry_space_group_name_H-M "I M M 2"
_symmetry_group_IT_number 44
_symmetry_cell_setting 'orthorhombic'
loop_
_space_group_symop_operation_xyz
x,y,z
-x,-y,z
-x,y,z
x,-y,z
1/2+x,1/2+y,1/2+z
1/2-x,1/2-y,1/2+z
1/2-x,1/2+y,1/2+z
1/2+x,1/2-y,1/2+z
loop_
_atom_site_type_symbol
_atom_site_label
_atom_site_fract_x
_atom_site_fract_y
_atom_site_fract_z
Si Si1 0.166376 0.179736 0.947650
Si Si2 0.864056 0.679253 0.123154
Si Si3 0.439151 0.677430 0.112447
Si Si4 0.777393 0.176499 0.421302
Si Si5 0.888189 0.679096 0.446072
Si Si6 0.264854 0.323376 0.713222
Si Si7 0.345822 0.680303 0.245463
Si Si8 0.562811 0.321477 0.770539
O O1 0.229530 0.219018 0.960001
O O2 0.147021 0.231348 0.848769
O O3 0.157554 0.000000 0.964536
O O4 0.130335 0.273367 0.018956
O O5 0.876132 0.500000 0.135716
O O6 0.803183 0.717824 0.153104
O O7 0.907206 0.775900 0.179487
O O8 0.500000 0.705447 0.146053
O O9 0.429796 0.500000 0.084838
O O10 0.400278 0.725476 0.193934
O O11 0.429342 0.781701 0.025522
O O12 0.833278 0.228121 0.465823
O O13 0.783311 0.199545 0.315207
O O14 0.764966 0.000000 0.446466
O O15 0.874349 0.500000 0.444631
O O16 0.915071 0.721934 0.352232
O O17 0.270829 0.500000 0.682572
O O18 0.203271 0.271166 0.699353
O O19 0.332310 0.500000 0.240403
O O20 0.500000 0.287458 0.756917
O O21 0.574196 0.500000 0.791846
#
# Coordination Sequence:
#
# PCOD8189593 Si02
#       8
#     8   8   8   8   8   8   8   8
#     4  10  21  38  60  87 123 159 200 253 306 359
#     4  12  24  38  60  89 124 162 202 247 300 364
#     4  10  22  41  63  86 116 157 205 254 304 360
#     4  10  20  36  58  85 120 160 200 242 296 358
#     4  12  24  37  58  89 124 161 200 245 301 366
#     4  10  20  35  58  86 119 155 195 243 298 359
#     4   9  20  39  62  87 117 154 202 255 305 358
#     4  11  24  43  65  88 119 160 205 254 306 360
#
# _framework density 19.97214
#
# number of rings (size 3 to 8) (size 9 to 14) (size 15 to 20)
#    0.000    1.500    1.250    4.125    1.750    4.750 
#    0.000    0.625    0.000    2.250    0.000    0.000 
#    0.000    0.000    0.000    0.000    0.000    0.000 
#
# Total GULP energy -397009.442733 kJ/mol
# GULP energy per Si atom -12406.545085 kJ/mol
# Density = 1.992668 g / cm^3
# Si number density = 19.972140 Si / 1000 Ang^3
#
#
#
# Elastic Constant Matrix: (Units=GPa)
#
#
# Indices 1 2 3 4 5 6 
#
# 1 108.6789 21.7805 43.2141 0.0000 0.0000 0.0000
# 2 21.7805 64.0317 16.8508 0.0000 0.0000 0.0000
# 3 43.2141 16.8508 83.0776 0.0000 0.0000 0.0000
# 4 0.0000 0.0000 0.0000 28.3812 0.0000 0.0000
# 5 0.0000 0.0000 0.0000 0.0000 29.4536 0.0000
# 6 0.0000 0.0000 0.0000 0.0000 0.0000 29.0110
#
#
#
# Elastic Compliance Matrix: (Units=1/GPa)
#
#
# Indices 1 2 3 4 5 6 
#
# 1 0.011990 -0.002574 -0.005714 0.000000 0.000000 0.000000
# 2 -0.002574 0.017051 -0.002119 0.000000 0.000000 0.000000
# 3 -0.005714 -0.002119 0.015439 0.000000 0.000000 0.000000
# 4 0.000000 0.000000 0.000000 0.035235 0.000000 0.000000
# 5 0.000000 0.000000 0.000000 0.000000 0.033952 0.000000
# 6 0.000000 0.000000 0.000000 0.000000 0.000000 0.034470
#
#
# Mechanical properties :
#
#
# Convention : Reuss Voigt Hill
#
# Bulk Modulus (GPa) = 42.25962 46.60877 44.43420
# Shear Modulus (GPa) = 28.27422 28.96534 28.61978
#
# Velocity S-wave (km/s) = 3.76664 3.81240 3.78959
# Velocity P-wave (km/s) = 6.33419 6.53963 6.43773
#
# Compressibility (1/GPa) = 0.02366325
#
# Stress axis : x y z
#
# Youngs Moduli (GPa) = 83.40568 58.64866 64.77005
#
# Poissons Ratio (x) = 0.15099 0.37012
# Poissons Ratio (y) = 0.21472 0.13727
# Poissons Ratio (z) = 0.47661 0.12429
#
# Static dielectric constant tensor:
#      x y z
#    x 3.580750 0.000000 0.000000 
#    y 0.000000 3.629620 0.000000 
#    z 0.000000 0.000000 3.689800 
# 
# 
# High freq. dielectric constant tensor:
#      x y z
#    x 1.769690 0.000000 0.000000 
#    y 0.000000 1.782790 0.000000 
#    z 0.000000 0.000000 1.781320 
# 
# From -- ./inp_files/19475.got.cif
#   From: 2010.03.12/outbox.cif.g09.slc.cpg/sg44_10_cif.got.tgz:19475.got - 2010.04.14 02:36:11.
