data_PCOD8189411
_publ_section_title
;
Structure prediction by ZEFSAII (Michael W. Deem and Ramdas Pophale) SiO2 
 PCOD8189411
Probable space group: I M M 2
;
_chemical_formula_sum "Si O2"
_cell_formula_units_Z 48
_cell_length_a 23.364985
_cell_length_b 9.105093
_cell_length_c 11.840678
_cell_angle_alpha 90.000000
_cell_angle_beta 90.000000
_cell_angle_gamma 90.000000
_cell_volume 2518.990117
_symmetry_space_group_name_H-M "I M M 2"
_symmetry_group_IT_number 44
_symmetry_cell_setting 'orthorhombic'
loop_
_space_group_symop_operation_xyz
x,y,z
-x,-y,z
-x,y,z
x,-y,z
1/2+x,1/2+y,1/2+z
1/2-x,1/2-y,1/2+z
1/2-x,1/2+y,1/2+z
1/2+x,1/2-y,1/2+z
loop_
_atom_site_type_symbol
_atom_site_label
_atom_site_fract_x
_atom_site_fract_y
_atom_site_fract_z
Si Si1 0.876105 0.333431 0.627800
Si Si2 0.935095 0.338267 0.851437
Si Si3 0.345694 0.328183 0.478143
Si Si4 0.934058 0.825526 0.422584
Si Si5 0.224065 0.326094 0.795341
Si Si6 0.348859 0.325872 0.731464
O O1 0.868546 0.500000 0.583652
O O2 0.927646 0.321181 0.717338
O O3 0.894538 0.231894 0.524204
O O4 0.817416 0.279586 0.690335
O O5 0.910407 0.500000 0.886150
O O6 0.904627 0.206007 0.915274
O O7 0.000000 0.325841 0.885838
O O8 0.332291 0.500000 0.477131
O O9 0.294797 0.245801 0.413348
O O10 0.353869 0.266165 0.604361
O O11 0.902390 0.771362 0.307604
O O12 0.000000 0.766060 0.424522
O O13 0.934650 0.000000 0.430445
O O14 0.220949 0.500000 0.808919
O O15 0.288091 0.267488 0.777194
O O16 0.348273 0.500000 0.730813
#
# Coordination Sequence:
#
# PCOD8189411 Si02
#       6
#     8   8   8   8   8   8
#     4   9  18  33  55  79 104 137 177 221 266 314
#     4   9  18  34  55  77 106 145 180 213 264 323
#     4  10  20  34  54  81 107 133 176 228 271 316
#     4  10  21  36  54  78 109 145 182 219 265 323
#     4   9  19  37  57  76 105 143 179 220 274 331
#     4   9  20  37  55  75 106 146 180 216 270 331
#
# _framework density 19.055254999999999
#
# number of rings (size 3 to 8) (size 9 to 14) (size 15 to 20)
#    0.000    2.667    0.000    2.000    2.333    4.667 
#    0.000    5.000    0.000    0.000    0.000    0.000 
#    0.000    0.000    0.000    0.000    0.000    0.000 
#
# Total GULP energy -297438.265420 kJ/mol
# GULP energy per Si atom -12393.261059 kJ/mol
# Density = 1.901188 g / cm^3
# Si number density = 19.055255 Si / 1000 Ang^3
#
#
#
# Elastic Constant Matrix: (Units=GPa)
#
#
# Indices 1 2 3 4 5 6 
#
# 1 107.0343 20.4863 49.5464 0.0000 0.0000 0.0000
# 2 20.4863 34.1818 32.2024 0.0000 0.0000 0.0000
# 3 49.5464 32.2024 130.9810 0.0000 0.0000 0.0000
# 4 0.0000 0.0000 0.0000 26.5776 0.0000 0.0000
# 5 0.0000 0.0000 0.0000 0.0000 18.5886 0.0000
# 6 0.0000 0.0000 0.0000 0.0000 0.0000 20.8283
#
#
#
# Elastic Compliance Matrix: (Units=1/GPa)
#
#
# Indices 1 2 3 4 5 6 
#
# 1 0.011673 -0.003691 -0.003508 0.000000 0.000000 0.000000
# 2 -0.003691 0.039241 -0.008251 0.000000 0.000000 0.000000
# 3 -0.003508 -0.008251 0.010990 0.000000 0.000000 0.000000
# 4 0.000000 0.000000 0.000000 0.037626 0.000000 0.000000
# 5 0.000000 0.000000 0.000000 0.000000 0.053796 0.000000
# 6 0.000000 0.000000 0.000000 0.000000 0.000000 0.048012
#
#
# Mechanical properties :
#
#
# Convention : Reuss Voigt Hill
#
# Bulk Modulus (GPa) = 32.25457 52.96304 42.60880
# Shear Modulus (GPa) = 20.61224 24.52970 22.57097
#
# Velocity S-wave (km/s) = 3.29250 3.59178 3.44539
# Velocity P-wave (km/s) = 5.60515 6.71237 6.18359
#
# Compressibility (1/GPa) = 0.03100336
#
# Stress axis : x y z
#
# Youngs Moduli (GPa) = 85.66618 25.48341 90.98861
#
# Poissons Ratio (x) = 0.09406 0.31920
# Poissons Ratio (y) = 0.31621 0.75078
# Poissons Ratio (z) = 0.30053 0.21027
#
# Static dielectric constant tensor:
#      x y z
#    x 3.711020 0.000000 0.000000 
#    y 0.000000 3.254490 0.000000 
#    z 0.000000 0.000000 3.546000 
# 
# 
# High freq. dielectric constant tensor:
#      x y z
#    x 1.748370 0.000000 0.000000 
#    y 0.000000 1.714410 0.000000 
#    z 0.000000 0.000000 1.739280 
# 
# From -- ./inp_files/11127.got.cif
#   From: 2010.03.12/outbox.cif.g09.slc.cpg/sg44_6_cif.got.tgz:11127.got - 2010.04.14 02:36:11.
