data_PCOD8189260
_publ_section_title
;
Structure prediction by ZEFSAII (Michael W. Deem and Ramdas Pophale) SiO2 
 PCOD8189260
Probable space group: I M M 2
;
_chemical_formula_sum "Si O2"
_cell_formula_units_Z 56
_cell_length_a 16.590178
_cell_length_b 8.885247
_cell_length_c 19.678605
_cell_angle_alpha 90.000000
_cell_angle_beta 90.000000
_cell_angle_gamma 90.000000
_cell_volume 2900.780447
_symmetry_space_group_name_H-M "I M M 2"
_symmetry_group_IT_number 44
_symmetry_cell_setting 'orthorhombic'
loop_
_space_group_symop_operation_xyz
x,y,z
-x,-y,z
-x,y,z
x,-y,z
1/2+x,1/2+y,1/2+z
1/2-x,1/2-y,1/2+z
1/2-x,1/2+y,1/2+z
1/2+x,1/2-y,1/2+z
loop_
_atom_site_type_symbol
_atom_site_label
_atom_site_fract_x
_atom_site_fract_y
_atom_site_fract_z
Si Si1 0.909955 0.671219 0.584460
Si Si2 0.000000 0.322925 0.824128
Si Si3 0.264151 0.674523 0.150558
Si Si4 0.158115 0.824697 0.042494
Si Si5 0.659071 0.674432 0.287505
Si Si6 0.736923 0.827548 0.913109
Si Si7 0.000000 0.320938 0.980540
Si Si8 0.912577 0.170522 0.444331
O O1 0.877801 0.500000 0.591369
O O2 0.852000 0.785985 0.622104
O O3 0.911471 0.713124 0.505852
O O4 0.000000 0.686005 0.615164
O O5 0.922744 0.268836 0.781264
O O6 0.000000 0.500000 0.825500
O O7 0.000000 0.261094 0.902338
O O8 0.245642 0.500000 0.137923
O O9 0.191821 0.767487 0.115264
O O10 0.273208 0.713741 0.230609
O O11 0.136455 0.000000 0.047561
O O12 0.229468 0.795104 0.988479
O O13 0.078233 0.737231 0.020518
O O14 0.635511 0.500000 0.282614
O O15 0.694534 0.718250 0.360410
O O16 0.659705 0.723575 0.895692
O O17 0.711680 0.000000 0.903302
O O18 0.000000 0.500000 0.982368
O O19 0.000000 0.181418 0.407304
O O20 0.897533 0.000000 0.469442
#
# Coordination Sequence:
#
# PCOD8189260 Si02
#       8
#     8   4   8   8   8   8   4   8
#     4  10  20  33  50  76 112 148 183 223 269 326
#     4  11  23  37  59  93 127 160 199 248 305 359
#     4  11  23  38  58  83 115 155 197 240 292 353
#     4  11  22  38  63  90 119 154 197 248 301 356
#     4  10  23  41  59  82 118 160 199 241 296 366
#     4  10  20  36  59  84 112 149 194 240 291 352
#     4  11  23  39  63  95 125 154 199 256 309 357
#     4  10  20  33  53  82 112 142 183 233 285 338
#
# _framework density 19.305149
#
# number of rings (size 3 to 8) (size 9 to 14) (size 15 to 20)
#    0.000    1.571    2.857    2.143    1.000    4.571 
#    0.000    0.000    1.571    0.000    0.000    0.000 
#    0.000    0.000    0.000    0.000    0.000    0.000 
#
# Total GULP energy -347164.508994 kJ/mol
# GULP energy per Si atom -12398.732464 kJ/mol
# Density = 1.926121 g / cm^3
# Si number density = 19.305149 Si / 1000 Ang^3
#
#
#
# Elastic Constant Matrix: (Units=GPa)
#
#
# Indices 1 2 3 4 5 6 
#
# 1 99.3070 46.8538 20.7653 0.0000 0.0000 0.0000
# 2 46.8538 76.8581 30.1112 0.0000 0.0000 0.0000
# 3 20.7653 30.1112 66.6670 0.0000 0.0000 0.0000
# 4 0.0000 0.0000 0.0000 25.3065 0.0000 0.0000
# 5 0.0000 0.0000 0.0000 0.0000 23.7503 0.0000
# 6 0.0000 0.0000 0.0000 0.0000 0.0000 38.9199
#
#
#
# Elastic Compliance Matrix: (Units=1/GPa)
#
#
# Indices 1 2 3 4 5 6 
#
# 1 0.014157 -0.008387 -0.000622 0.000000 0.000000 0.000000
# 2 -0.008387 0.020777 -0.006772 0.000000 0.000000 0.000000
# 3 -0.000622 -0.006772 0.018252 0.000000 0.000000 0.000000
# 4 0.000000 0.000000 0.000000 0.039516 0.000000 0.000000
# 5 0.000000 0.000000 0.000000 0.000000 0.042105 0.000000
# 6 0.000000 0.000000 0.000000 0.000000 0.000000 0.025694
#
#
# Mechanical properties :
#
#
# Convention : Reuss Voigt Hill
#
# Bulk Modulus (GPa) = 46.24187 48.69919 47.47053
# Shear Modulus (GPa) = 25.09186 27.26877 26.18032
#
# Velocity S-wave (km/s) = 3.60911 3.76242 3.68656
# Velocity P-wave (km/s) = 6.43216 6.64494 6.53942
#
# Compressibility (1/GPa) = 0.02162542
#
# Stress axis : x y z
#
# Youngs Moduli (GPa) = 70.63851 48.13113 54.78815
#
# Poissons Ratio (x) = 0.40365 0.03405
# Poissons Ratio (y) = 0.59241 0.37102
# Poissons Ratio (z) = 0.04391 0.32594
#
# Static dielectric constant tensor:
#      x y z
#    x 3.628100 0.000000 0.000000 
#    y 0.000000 3.515560 0.000000 
#    z 0.000000 0.000000 3.461810 
# 
# 
# High freq. dielectric constant tensor:
#      x y z
#    x 1.753890 0.000000 0.000000 
#    y 0.000000 1.758600 0.000000 
#    z 0.000000 0.000000 1.724560 
# 
# From -- ./inp_files/24157.got.cif
#   From: 2010.03.12/outbox.cif.g09.slc.cpg/sg44_13_cif.got.tgz:24157.got - 2010.04.14 02:36:11.
