data_PCOD8189965
_publ_section_title
;
Structure prediction by ZEFSAII (Michael W. Deem and Ramdas Pophale) SiO2 
 PCOD8189965
Probable space group: I M M 2
;
_chemical_formula_sum "Si O2"
_cell_formula_units_Z 48
_cell_length_a 7.816854
_cell_length_b 9.151062
_cell_length_c 33.625482
_cell_angle_alpha 90.000000
_cell_angle_beta 90.000000
_cell_angle_gamma 90.000000
_cell_volume 2405.315316
_symmetry_space_group_name_H-M "I M M 2"
_symmetry_group_IT_number 44
_symmetry_cell_setting 'orthorhombic'
loop_
_space_group_symop_operation_xyz
x,y,z
-x,-y,z
-x,y,z
x,-y,z
1/2+x,1/2+y,1/2+z
1/2-x,1/2-y,1/2+z
1/2-x,1/2+y,1/2+z
1/2+x,1/2-y,1/2+z
loop_
_atom_site_type_symbol
_atom_site_label
_atom_site_fract_x
_atom_site_fract_y
_atom_site_fract_z
Si Si1 0.000000 0.169966 0.574630
Si Si2 0.199686 0.832873 0.936016
Si Si3 0.694416 0.664631 0.860370
Si Si4 0.000000 0.327295 0.657862
Si Si5 0.190396 0.832348 0.212249
Si Si6 0.695397 0.169140 0.516491
Si Si7 0.806291 0.164724 0.786184
O O1 0.000000 0.258803 0.614831
O O2 0.172289 0.212891 0.550966
O O3 0.000000 0.000000 0.585061
O O4 0.298818 0.742225 0.902895
O O5 0.000000 0.820879 0.926804
O O6 0.262476 0.000000 0.935442
O O7 0.244318 0.765747 0.978653
O O8 0.500000 0.661657 0.845608
O O9 0.767464 0.500000 0.864017
O O10 0.802444 0.753308 0.828202
O O11 0.169939 0.273033 0.681008
O O12 0.000000 0.500000 0.652861
O O13 0.192454 0.743343 0.253165
O O14 0.000000 0.815885 0.193662
O O15 0.231807 0.000000 0.222916
O O16 0.500000 0.200742 0.530629
O O17 0.717565 0.000000 0.504587
O O18 0.000000 0.165246 0.770680
O O19 0.738252 0.000000 0.792236
#
# Coordination Sequence:
#
# PCOD8189965 Si02
#       7
#     4   8   8   4   8   8   8
#     4  10  22  38  60  88 118 152 198 246 290 356
#     4  10  21  37  57  83 114 148 191 243 297 349
#     4  11  24  38  54  80 114 154 199 243 289 347
#     4  10  22  40  60  88 122 154 192 244 300 354
#     4  10  21  39  63  88 116 155 199 240 290 354
#     4   9  19  37  59  83 115 155 195 240 294 350
#     4  11  23  38  58  85 117 152 194 244 297 350
#
# _framework density 19.955805000000002
#
# number of rings (size 3 to 8) (size 9 to 14) (size 15 to 20)
#    0.000    1.833    0.833    2.500    1.167    9.667 
#    0.000    0.000    0.000    0.000    0.000    0.000 
#    0.000    0.000    0.000    0.000    0.000    0.000 
#
# Total GULP energy -297685.726627 kJ/mol
# GULP energy per Si atom -12403.571943 kJ/mol
# Density = 1.991039 g / cm^3
# Si number density = 19.955805 Si / 1000 Ang^3
#
#
#
# Elastic Constant Matrix: (Units=GPa)
#
#
# Indices 1 2 3 4 5 6 
#
# 1 104.1632 37.4981 54.5737 0.0000 0.0000 0.0000
# 2 37.4981 118.5913 65.6963 0.0000 0.0000 0.0000
# 3 54.5737 65.6963 132.9896 0.0000 0.0000 0.0000
# 4 0.0000 0.0000 0.0000 42.2065 0.0000 0.0000
# 5 0.0000 0.0000 0.0000 0.0000 27.1057 0.0000
# 6 0.0000 0.0000 0.0000 0.0000 0.0000 15.2509
#
#
#
# Elastic Compliance Matrix: (Units=1/GPa)
#
#
# Indices 1 2 3 4 5 6 
#
# 1 0.012426 -0.001520 -0.004348 0.000000 0.000000 0.000000
# 2 -0.001520 0.011795 -0.005203 0.000000 0.000000 0.000000
# 3 -0.004348 -0.005203 0.011874 0.000000 0.000000 0.000000
# 4 0.000000 0.000000 0.000000 0.023693 0.000000 0.000000
# 5 0.000000 0.000000 0.000000 0.000000 0.036893 0.000000
# 6 0.000000 0.000000 0.000000 0.000000 0.000000 0.065570
#
#
# Mechanical properties :
#
#
# Convention : Reuss Voigt Hill
#
# Bulk Modulus (GPa) = 71.67246 74.58671 73.12959
# Shear Modulus (GPa) = 26.44891 30.11101 28.27996
#
# Velocity S-wave (km/s) = 3.64452 3.88865 3.76856
# Velocity P-wave (km/s) = 7.32827 7.59073 7.46066
#
# Compressibility (1/GPa) = 0.01395236
#
# Stress axis : x y z
#
# Youngs Moduli (GPa) = 80.47888 84.77924 84.21839
#
# Poissons Ratio (x) = 0.12889 0.36618
# Poissons Ratio (y) = 0.12235 0.43819
# Poissons Ratio (z) = 0.34992 0.44111
#
# Static dielectric constant tensor:
#      x y z
#    x 3.765400 0.000000 0.000000 
#    y 0.000000 3.699300 0.000000 
#    z 0.000000 0.000000 3.371970 
# 
# 
# High freq. dielectric constant tensor:
#      x y z
#    x 1.788330 0.000000 0.000000 
#    y 0.000000 1.781230 0.000000 
#    z 0.000000 0.000000 1.766630 
# 
# From -- ./inp_files/26879.got.cif
#   From: 2010.03.12/outbox.cif.g09.slc.cpg/sg44_14_cif.got.tgz:26879.got - 2010.04.14 02:36:11.
