data_PCOD8189160
_publ_section_title
;
Structure prediction by ZEFSAII (Michael W. Deem and Ramdas Pophale) SiO2 
 PCOD8189160
Probable space group: I M M 2
;
_chemical_formula_sum "Si O2"
_cell_formula_units_Z 48
_cell_length_a 9.277754
_cell_length_b 7.745652
_cell_length_c 34.567928
_cell_angle_alpha 90.000000
_cell_angle_beta 90.000000
_cell_angle_gamma 90.000000
_cell_volume 2484.129216
_symmetry_space_group_name_H-M "I M M 2"
_symmetry_group_IT_number 44
_symmetry_cell_setting 'orthorhombic'
loop_
_space_group_symop_operation_xyz
x,y,z
-x,-y,z
-x,y,z
x,-y,z
1/2+x,1/2+y,1/2+z
1/2-x,1/2-y,1/2+z
1/2-x,1/2+y,1/2+z
1/2+x,1/2-y,1/2+z
loop_
_atom_site_type_symbol
_atom_site_label
_atom_site_fract_x
_atom_site_fract_y
_atom_site_fract_z
Si Si1 0.668995 0.302042 0.635490
Si Si2 0.158628 0.801792 0.282565
Si Si3 0.827531 0.500000 0.993092
Si Si4 0.338891 0.795350 0.211821
Si Si5 0.829707 0.500000 0.079633
Si Si6 0.161595 0.797204 0.854292
Si Si7 0.828492 0.191137 0.940730
O O1 0.500000 0.281313 0.644123
O O2 0.705743 0.500000 0.623806
O O3 0.752913 0.241533 0.673550
O O4 0.720576 0.174648 0.601298
O O5 0.257219 0.715141 0.249178
O O6 0.231454 0.790295 0.324307
O O7 0.000000 0.713533 0.283486
O O8 0.139150 0.000000 0.271509
O O9 0.763874 0.500000 0.036477
O O10 0.000000 0.500000 0.992845
O O11 0.768076 0.329712 0.971315
O O12 0.500000 0.716853 0.210230
O O13 0.347588 0.000000 0.215188
O O14 0.000000 0.500000 0.076371
O O15 0.218611 0.754067 0.897424
O O16 0.000000 0.723017 0.848270
O O17 0.160697 0.000000 0.847407
O O18 0.000000 0.184835 0.941734
O O19 0.767965 0.000000 0.951178
#
# Coordination Sequence:
#
# PCOD8189160 Si02
#       7
#     8   8   4   8   4   8   8
#     4   9  17  31  50  70  98 135 167 204 255 304
#     4  10  20  32  48  73 102 132 168 209 253 306
#     4   9  16  26  44  71 101 133 165 203 255 307
#     4   9  17  31  51  73  96 127 169 210 249 298
#     4   9  18  30  45  73 105 131 169 209 249 311
#     4   9  18  32  48  69  98 131 171 214 254 300
#     4   8  15  27  43  67  99 132 166 206 251 300
#
# _framework density 19.322664
#
# number of rings (size 3 to 8) (size 9 to 14) (size 15 to 20)
#    0.000    3.000    0.000    2.000    1.167    4.000 
#    1.500    3.750    0.000    0.000    0.000    2.333 
#    0.000    2.667    0.000    0.000    0.000    0.000 
#
# Total GULP energy -297492.087572 kJ/mol
# GULP energy per Si atom -12395.503649 kJ/mol
# Density = 1.927869 g / cm^3
# Si number density = 19.322664 Si / 1000 Ang^3
#
#
#
# Elastic Constant Matrix: (Units=GPa)
#
#
# Indices 1 2 3 4 5 6 
#
# 1 80.2930 26.0219 56.5465 0.0000 0.0000 0.0000
# 2 26.0219 81.0661 67.3500 0.0000 0.0000 0.0000
# 3 56.5465 67.3500 178.3543 0.0000 0.0000 0.0000
# 4 0.0000 0.0000 0.0000 17.7758 0.0000 0.0000
# 5 0.0000 0.0000 0.0000 0.0000 18.9563 0.0000
# 6 0.0000 0.0000 0.0000 0.0000 0.0000 8.4882
#
#
#
# Elastic Compliance Matrix: (Units=1/GPa)
#
#
# Indices 1 2 3 4 5 6 
#
# 1 0.016136 -0.001354 -0.004604 0.000000 0.000000 0.000000
# 2 -0.001354 0.018088 -0.006401 0.000000 0.000000 0.000000
# 3 -0.004604 -0.006401 0.009484 0.000000 0.000000 0.000000
# 4 0.000000 0.000000 0.000000 0.056256 0.000000 0.000000
# 5 0.000000 0.000000 0.000000 0.000000 0.052753 0.000000
# 6 0.000000 0.000000 0.000000 0.000000 0.000000 0.117811
#
#
# Mechanical properties :
#
#
# Convention : Reuss Voigt Hill
#
# Bulk Modulus (GPa) = 52.66326 71.06113 61.86220
# Shear Modulus (GPa) = 16.57949 21.69706 19.13828
#
# Velocity S-wave (km/s) = 2.93240 3.35458 3.15057
# Velocity P-wave (km/s) = 6.22729 7.20140 6.73199
#
# Compressibility (1/GPa) = 0.01898857
#
# Stress axis : x y z
#
# Youngs Moduli (GPa) = 61.97331 55.28394 105.44225
#
# Poissons Ratio (x) = 0.07486 0.48551
# Poissons Ratio (y) = 0.08392 0.67496
# Poissons Ratio (z) = 0.28536 0.35388
#
# Static dielectric constant tensor:
#      x y z
#    x 3.340760 0.000000 0.000000 
#    y 0.000000 3.491310 0.000000 
#    z 0.000000 0.000000 3.685210 
# 
# 
# High freq. dielectric constant tensor:
#      x y z
#    x 1.710130 0.000000 0.000000 
#    y 0.000000 1.743440 0.000000 
#    z 0.000000 0.000000 1.752270 
# 
# From -- ./inp_files/26907.got.cif
#   From: 2010.03.12/outbox.cif.g09.slc.cpg/sg44_14_cif.got.tgz:26907.got - 2010.04.14 02:36:11.
