data_PCOD8189963
_publ_section_title
;
Structure prediction by ZEFSAII (Michael W. Deem and Ramdas Pophale) SiO2 
 PCOD8189963
Probable space group: I M M 2
;
_chemical_formula_sum "Si O2"
_cell_formula_units_Z 64
_cell_length_a 22.316843
_cell_length_b 9.549064
_cell_length_c 15.164024
_cell_angle_alpha 90.000000
_cell_angle_beta 90.000000
_cell_angle_gamma 90.000000
_cell_volume 3231.528760
_symmetry_space_group_name_H-M "I M M 2"
_symmetry_group_IT_number 44
_symmetry_cell_setting 'orthorhombic'
loop_
_space_group_symop_operation_xyz
x,y,z
-x,-y,z
-x,y,z
x,-y,z
1/2+x,1/2+y,1/2+z
1/2-x,1/2-y,1/2+z
1/2-x,1/2+y,1/2+z
1/2+x,1/2-y,1/2+z
loop_
_atom_site_type_symbol
_atom_site_label
_atom_site_fract_x
_atom_site_fract_y
_atom_site_fract_z
Si Si1 0.813795 0.341076 0.498610
Si Si2 0.113496 0.340076 0.906304
Si Si3 0.929167 0.154932 0.244708
Si Si4 0.180141 0.834503 0.661911
Si Si5 0.432673 0.158754 0.909313
Si Si6 0.067696 0.661073 0.717944
Si Si7 0.778200 0.839189 0.851613
Si Si8 0.930410 0.345868 0.093084
O O1 0.798406 0.500000 0.527060
O O2 0.790346 0.236558 0.575099
O O3 0.885694 0.321629 0.488792
O O4 0.784009 0.308293 0.402755
O O5 0.134508 0.500000 0.912103
O O6 0.070105 0.317198 0.823281
O O7 0.172542 0.248545 0.902219
O O8 0.078089 0.292958 0.993474
O O9 0.912633 0.237517 0.332591
O O10 0.900608 0.236696 0.161243
O O11 0.000000 0.143494 0.233839
O O12 0.900535 0.000000 0.249240
O O13 0.114390 0.766507 0.673147
O O14 0.222424 0.800261 0.746910
O O15 0.173303 0.000000 0.646459
O O16 0.500000 0.192133 0.943944
O O17 0.429587 0.000000 0.872381
O O18 0.084168 0.500000 0.693220
O O19 0.000000 0.696089 0.686873
O O20 0.796949 0.000000 0.859942
O O21 0.901170 0.500000 0.106574
O O22 0.000000 0.356596 0.114515
#
# Coordination Sequence:
#
# PCOD8189963 Si02
#       8
#     8   8   8   8   8   8   8   8
#     4  10  21  39  61  82 107 143 184 226 273 331
#     4   9  17  30  50  76 104 138 183 232 272 314
#     4   9  17  29  45  68 102 139 172 212 263 316
#     4  10  21  37  57  82 113 146 182 230 280 326
#     4   9  18  34  56  79 103 134 174 219 269 325
#     4   9  17  31  53  80 111 147 185 224 270 327
#     4   9  20  39  57  75 107 146 180 223 277 327
#     4   9  16  27  45  70 102 140 181 223 268 318
#
# _framework density 19.804867000000002
#
# number of rings (size 3 to 8) (size 9 to 14) (size 15 to 20)
#    0.000    2.750    0.000    1.125    0.000    5.750 
#    2.250    1.250    0.000    2.250    0.000    0.000 
#    0.000    0.000    0.000    0.000    0.000    0.000 
#
# Total GULP energy -396632.313641 kJ/mol
# GULP energy per Si atom -12394.759801 kJ/mol
# Density = 1.975979 g / cm^3
# Si number density = 19.804867 Si / 1000 Ang^3
#
#
#
# Elastic Constant Matrix: (Units=GPa)
#
#
# Indices 1 2 3 4 5 6 
#
# 1 60.8567 28.4731 27.3404 0.0000 0.0000 0.0000
# 2 28.4731 102.8607 63.3402 0.0000 0.0000 0.0000
# 3 27.3404 63.3402 111.8710 0.0000 0.0000 0.0000
# 4 0.0000 0.0000 0.0000 31.8563 0.0000 0.0000
# 5 0.0000 0.0000 0.0000 0.0000 23.5378 0.0000
# 6 0.0000 0.0000 0.0000 0.0000 0.0000 21.4908
#
#
#
# Elastic Compliance Matrix: (Units=1/GPa)
#
#
# Indices 1 2 3 4 5 6 
#
# 1 0.019359 -0.003754 -0.002606 0.000000 0.000000 0.000000
# 2 -0.003754 0.015654 -0.007946 0.000000 0.000000 0.000000
# 3 -0.002606 -0.007946 0.014074 0.000000 0.000000 0.000000
# 4 0.000000 0.000000 0.000000 0.031391 0.000000 0.000000
# 5 0.000000 0.000000 0.000000 0.000000 0.042485 0.000000
# 6 0.000000 0.000000 0.000000 0.000000 0.000000 0.046532
#
#
# Mechanical properties :
#
#
# Convention : Reuss Voigt Hill
#
# Bulk Modulus (GPa) = 48.83653 57.09953 52.96803
# Shear Modulus (GPa) = 24.39843 25.80596 25.10220
#
# Velocity S-wave (km/s) = 3.51371 3.61364 3.56403
# Velocity P-wave (km/s) = 6.41669 6.80477 6.61358
#
# Compressibility (1/GPa) = 0.02047647
#
# Stress axis : x y z
#
# Youngs Moduli (GPa) = 51.65504 63.88190 71.05145
#
# Poissons Ratio (x) = 0.23984 0.18513
# Poissons Ratio (y) = 0.19393 0.56454
# Poissons Ratio (z) = 0.13459 0.50757
#
# Static dielectric constant tensor:
#      x y z
#    x 3.352520 0.000000 0.000000 
#    y 0.000000 3.768290 0.000000 
#    z 0.000000 0.000000 3.630900 
# 
# 
# High freq. dielectric constant tensor:
#      x y z
#    x 1.740140 0.000000 0.000000 
#    y 0.000000 1.769420 0.000000 
#    z 0.000000 0.000000 1.775760 
# 
# From -- ./inp_files/19467.got.cif
#   From: 2010.03.12/outbox.cif.g09.slc.cpg/sg44_10_cif.got.tgz:19467.got - 2010.04.14 02:36:11.
