data_PCOD8189049
_publ_section_title
;
Structure prediction by ZEFSAII (Michael W. Deem and Ramdas Pophale) SiO2 
 PCOD8189049
Probable space group: I M M 2
;
_chemical_formula_sum "Si O2"
_cell_formula_units_Z 48
_cell_length_a 10.364777
_cell_length_b 8.845180
_cell_length_c 28.130759
_cell_angle_alpha 90.000000
_cell_angle_beta 90.000000
_cell_angle_gamma 90.000000
_cell_volume 2578.980676
_symmetry_space_group_name_H-M "I M M 2"
_symmetry_group_IT_number 44
_symmetry_cell_setting 'orthorhombic'
loop_
_space_group_symop_operation_xyz
x,y,z
-x,-y,z
-x,y,z
x,-y,z
1/2+x,1/2+y,1/2+z
1/2-x,1/2-y,1/2+z
1/2-x,1/2+y,1/2+z
1/2+x,1/2-y,1/2+z
loop_
_atom_site_type_symbol
_atom_site_label
_atom_site_fract_x
_atom_site_fract_y
_atom_site_fract_z
Si Si1 0.000000 0.679666 0.966570
Si Si2 0.737574 0.678900 0.411891
Si Si3 0.500000 0.179088 0.574594
Si Si4 0.000000 0.320910 0.567204
Si Si5 0.349215 0.824707 0.319270
Si Si6 0.500000 0.179005 0.959860
Si Si7 0.262724 0.322093 0.120886
Si Si8 0.148750 0.826668 0.723168
O O1 0.873586 0.740863 0.941394
O O2 0.000000 0.500000 0.962908
O O3 0.000000 0.738509 0.020674
O O4 0.721191 0.500000 0.416262
O O5 0.731109 0.727602 0.356988
O O6 0.873444 0.737274 0.432474
O O7 0.373599 0.239363 0.601650
O O8 0.500000 0.000000 0.575378
O O9 0.126802 0.263765 0.593034
O O10 0.000000 0.500000 0.567933
O O11 0.000000 0.257259 0.513437
O O12 0.500000 0.787777 0.326074
O O13 0.304099 0.777194 0.266602
O O14 0.319671 0.000000 0.327066
O O15 0.500000 0.000000 0.960804
O O16 0.281878 0.500000 0.112227
O O17 0.268091 0.284372 0.176885
O O18 0.000000 0.795056 0.710400
O O19 0.169360 0.000000 0.738229
#
# Coordination Sequence:
#
# PCOD8189049 Si02
#       8
#     4   8   4   4   8   4   8   8
#     4  11  21  35  54  83 114 143 184 227 266 319
#     4  11  21  37  59  80 107 145 184 225 270 320
#     4   9  20  35  56  81 112 148 182 222 270 317
#     4  11  21  35  56  81 110 145 184 227 270 317
#     4  10  20  34  54  81 112 139 174 224 273 323
#     4   9  22  39  54  79 112 144 184 226 268 321
#     4  10  19  36  57  82 111 144 184 225 265 317
#     4   9  17  31  53  79 106 139 182 225 265 316
#
# _framework density 18.612005
#
# number of rings (size 3 to 8) (size 9 to 14) (size 15 to 20)
#    0.000    2.000    1.667    2.500    0.000    1.333 
#    0.000    6.250    0.000    3.000    0.000    0.000 
#    0.000    0.000    0.000    0.000    0.000    0.000 
#
# Total GULP energy -297670.341813 kJ/mol
# GULP energy per Si atom -12402.930909 kJ/mol
# Density = 1.856964 g / cm^3
# Si number density = 18.612005 Si / 1000 Ang^3
#
#
#
# Elastic Constant Matrix: (Units=GPa)
#
#
# Indices 1 2 3 4 5 6 
#
# 1 138.6972 38.7029 75.0086 0.0000 0.0000 0.0000
# 2 38.7029 60.8149 45.5350 0.0000 0.0000 0.0000
# 3 75.0086 45.5350 151.7462 0.0000 0.0000 0.0000
# 4 0.0000 0.0000 0.0000 30.1187 0.0000 0.0000
# 5 0.0000 0.0000 0.0000 0.0000 74.7382 0.0000
# 6 0.0000 0.0000 0.0000 0.0000 0.0000 -8.6498
#
#
#
# Elastic Compliance Matrix: (Units=1/GPa)
#
#
# Indices 1 2 3 4 5 6 
#
# 1 0.010410 -0.003576 -0.004073 0.000000 0.000000 0.000000
# 2 -0.003576 0.022437 -0.004965 0.000000 0.000000 0.000000
# 3 -0.004073 -0.004965 0.010093 0.000000 0.000000 0.000000
# 4 0.000000 0.000000 0.000000 0.033202 0.000000 0.000000
# 5 0.000000 0.000000 0.000000 0.000000 0.013380 0.000000
# 6 0.000000 0.000000 0.000000 0.000000 0.000000 -0.115610
#
#
# Mechanical properties :
#
#
# Convention : Reuss Voigt Hill
#
# Bulk Modulus (GPa) = 56.45697 74.41681 65.43689
# Shear Modulus (GPa) = 991.38340 32.04223 511.71281
#
# Velocity S-wave (km/s) = 23.10442 4.15371 16.59921
# Velocity P-wave (km/s) = 27.24247 7.94194 20.06522
#
# Compressibility (1/GPa) = 0.01771260
#
# Stress axis : x y z
#
# Youngs Moduli (GPa) = 96.05784 44.57015 99.07730
#
# Poissons Ratio (x) = 0.15937 0.40354
# Poissons Ratio (y) = 0.34347 0.49194
# Poissons Ratio (z) = 0.39124 0.22130
#
# Static dielectric constant tensor:
#      x y z
#    x 3.418610 0.000000 0.000000 
#    y 0.000000 3.285370 0.000000 
#    z 0.000000 0.000000 3.657810 
# 
# 
# High freq. dielectric constant tensor:
#      x y z
#    x 1.709130 0.000000 0.000000 
#    y 0.000000 1.710720 0.000000 
#    z 0.000000 0.000000 1.739890 
# 
# From -- ./inp_files/27048.got.cif
#   From: 2010.03.12/outbox.cif.g09.slc.cpg/sg44_14_cif.got.tgz:27048.got - 2010.04.14 02:36:11.
