data_PCOD8189493
_publ_section_title
;
Structure prediction by ZEFSAII (Michael W. Deem and Ramdas Pophale) SiO2 
 PCOD8189493
Probable space group: I M M 2
;
_chemical_formula_sum "Si O2"
_cell_formula_units_Z 46
_cell_length_a 7.599882
_cell_length_b 11.533037
_cell_length_c 29.298928
_cell_angle_alpha 90.000000
_cell_angle_beta 90.000000
_cell_angle_gamma 90.000000
_cell_volume 2568.042844
_symmetry_space_group_name_H-M "I M M 2"
_symmetry_group_IT_number 44
_symmetry_cell_setting 'orthorhombic'
loop_
_space_group_symop_operation_xyz
x,y,z
-x,-y,z
-x,y,z
x,-y,z
1/2+x,1/2+y,1/2+z
1/2-x,1/2-y,1/2+z
1/2-x,1/2+y,1/2+z
1/2+x,1/2-y,1/2+z
loop_
_atom_site_type_symbol
_atom_site_label
_atom_site_fract_x
_atom_site_fract_y
_atom_site_fract_z
Si Si1 0.795355 0.750028 0.030500
Si Si2 0.500000 0.000000 0.131429
Si Si3 0.205042 0.637235 0.124078
Si Si4 0.500000 0.139095 0.276807
Si Si5 0.798100 0.000000 0.059360
Si Si6 0.500000 0.241856 0.179609
Si Si7 0.195210 0.864156 0.343497
Si Si8 0.208675 0.369127 0.941094
O O1 0.720898 0.691401 0.076671
O O2 0.755906 0.887023 0.029359
O O3 0.000000 0.721049 0.029920
O O4 0.709344 0.698497 0.984577
O O5 0.679159 0.000000 0.103513
O O6 0.500000 0.887358 0.161610
O O7 0.229945 0.500000 0.122027
O O8 0.324080 0.689455 0.164541
O O9 0.000000 0.670454 0.132613
O O10 0.500000 0.224199 0.233744
O O11 0.669476 0.179580 0.305657
O O12 0.500000 0.000000 0.265680
O O13 0.000000 0.000000 0.076359
O O14 0.226131 0.809749 0.393909
O O15 0.000000 0.833442 0.326103
O O16 0.226247 0.000000 0.349756
O O17 0.278505 0.500000 0.945190
O O18 0.000000 0.364371 0.941458
#
# Coordination Sequence:
#
# PCOD8189493 Si02
#       8
#     8   2   8   4   4   4   8   8
#     4   9  17  30  52  78 107 146 184 214 261 324
#     4  12  22  36  54  78 114 150 188 226 272 322
#     4  10  21  38  57  80 113 146 181 228 274 323
#     4  10  20  35  53  76 108 142 177 227 276 323
#     4  10  20  36  52  72 110 154 182 222 268 316
#     4  12  23  36  57  84 110 145 192 225 277 337
#     4   9  17  31  49  72 103 136 173 222 276 325
#     4   9  15  27  49  76 106 140 174 217 272 323
#
# _framework density 17.912474
#
# number of rings (size 3 to 8) (size 9 to 14) (size 15 to 20)
#    0.000    2.261    3.043    0.783    0.000    2.783 
#    3.130    0.000    0.000    0.000    4.522    0.000 
#    0.000    0.000    0.000    0.000    0.000    0.000 
#
# Total GULP energy -285095.502056 kJ/mol
# GULP energy per Si atom -12395.456611 kJ/mol
# Density = 1.787170 g / cm^3
# Si number density = 17.912474 Si / 1000 Ang^3
#
#
#
# Elastic Constant Matrix: (Units=GPa)
#
#
# Indices 1 2 3 4 5 6 
#
# 1 89.4315 35.5635 60.3540 0.0000 0.0000 0.0000
# 2 35.5635 89.4039 52.3625 0.0000 0.0000 0.0000
# 3 60.3540 52.3625 159.3500 0.0000 0.0000 0.0000
# 4 0.0000 0.0000 0.0000 32.7513 0.0000 0.0000
# 5 0.0000 0.0000 0.0000 0.0000 5.8722 0.0000
# 6 0.0000 0.0000 0.0000 0.0000 0.0000 21.5367
#
#
#
# Elastic Compliance Matrix: (Units=1/GPa)
#
#
# Indices 1 2 3 4 5 6 
#
# 1 0.015837 -0.003451 -0.004864 0.000000 0.000000 0.000000
# 2 -0.003451 0.014603 -0.003492 0.000000 0.000000 0.000000
# 3 -0.004864 -0.003492 0.009265 0.000000 0.000000 0.000000
# 4 0.000000 0.000000 0.000000 0.030533 0.000000 0.000000
# 5 0.000000 0.000000 0.000000 0.000000 0.170294 0.000000
# 6 0.000000 0.000000 0.000000 0.000000 0.000000 0.046432
#
#
# Mechanical properties :
#
#
# Convention : Reuss Voigt Hill
#
# Bulk Modulus (GPa) = 62.14399 70.52726 66.33562
# Shear Modulus (GPa) = 15.82574 24.69239 20.25906
#
# Velocity S-wave (km/s) = 2.97560 3.71685 3.36669
# Velocity P-wave (km/s) = 6.82452 7.60780 7.22678
#
# Compressibility (1/GPa) = 0.01609166
#
# Stress axis : x y z
#
# Youngs Moduli (GPa) = 63.14467 68.48028 107.93119
#
# Poissons Ratio (x) = 0.23630 0.52501
# Poissons Ratio (y) = 0.21789 0.37685
# Poissons Ratio (z) = 0.30715 0.23910
#
# Static dielectric constant tensor:
#      x y z
#    x 3.334620 0.000000 0.000000 
#    y 0.000000 3.170540 0.000000 
#    z 0.000000 0.000000 3.392910 
# 
# 
# High freq. dielectric constant tensor:
#      x y z
#    x 1.696650 0.000000 0.000000 
#    y 0.000000 1.662760 0.000000 
#    z 0.000000 0.000000 1.686320 
# 
# From -- ./inp_files/24827.got.cif
#   From: 2010.03.12/outbox.cif.g09.slc.cpg/sg44_13_cif.got.tgz:24827.got - 2010.04.14 02:36:11.
