data_PCOD8189477
_publ_section_title
;
Structure prediction by ZEFSAII (Michael W. Deem and Ramdas Pophale) SiO2 
 PCOD8189477
Probable space group: I M M 2
;
_chemical_formula_sum "Si O2"
_cell_formula_units_Z 64
_cell_length_a 8.981282
_cell_length_b 24.514386
_cell_length_c 15.077029
_cell_angle_alpha 90.000000
_cell_angle_beta 90.000000
_cell_angle_gamma 90.000000
_cell_volume 3319.518728
_symmetry_space_group_name_H-M "I M M 2"
_symmetry_group_IT_number 44
_symmetry_cell_setting 'orthorhombic'
loop_
_space_group_symop_operation_xyz
x,y,z
-x,-y,z
-x,y,z
x,-y,z
1/2+x,1/2+y,1/2+z
1/2-x,1/2-y,1/2+z
1/2-x,1/2+y,1/2+z
1/2+x,1/2-y,1/2+z
loop_
_atom_site_type_symbol
_atom_site_label
_atom_site_fract_x
_atom_site_fract_y
_atom_site_fract_z
Si Si1 0.824250 0.351845 0.532140
Si Si2 0.328588 0.436980 0.653340
Si Si3 0.174480 0.110277 0.338066
Si Si4 0.829898 0.716777 0.870080
Si Si5 0.825397 0.363567 0.170351
Si Si6 0.674296 0.563744 0.023437
Si Si7 0.327533 0.243580 0.567423
Si Si8 0.825919 0.160322 0.845196
O O1 0.779083 0.404142 0.588749
O O2 0.770019 0.297550 0.583957
O O3 0.749015 0.357751 0.436451
O O4 0.000000 0.349412 0.520206
O O5 0.500000 0.418683 0.639328
O O6 0.307263 0.500000 0.630688
O O7 0.279098 0.426924 0.754961
O O8 0.232588 0.171440 0.320898
O O9 0.238669 0.084301 0.428734
O O10 0.000000 0.113209 0.347057
O O11 0.797755 0.775605 0.827556
O O12 0.000000 0.699587 0.858293
O O13 0.784706 0.717488 0.973186
O O14 0.761791 0.406631 0.101371
O O15 0.790927 0.301572 0.140760
O O16 0.747087 0.373282 0.264904
O O17 0.000000 0.373706 0.179878
O O18 0.500000 0.576934 0.032846
O O19 0.706292 0.500000 0.031446
O O20 0.500000 0.261413 0.567461
O O21 0.000000 0.146767 0.851281
#
# Coordination Sequence:
#
# PCOD8189477 Si02
#       8
#     8   8   8   8   8   8   8   8
#     4  11  23  39  61  88 117 151 197 248 298 349
#     4  10  22  41  62  84 115 157 201 244 297 355
#     4  10  20  34  57  87 117 153 197 240 283 343
#     4   9  18  34  54  81 117 154 188 228 285 346
#     4  11  22  37  59  88 120 155 200 247 292 345
#     4  10  21  38  59  85 120 160 200 242 292 351
#     4   9  19  36  56  82 118 157 192 233 288 350
#     4  10  22  40  60  84 120 158 194 240 298 359
#
# _framework density 19.279903000000001
#
# number of rings (size 3 to 8) (size 9 to 14) (size 15 to 20)
#    0.000    2.000    1.250    3.000    1.750    6.000 
#    0.000    0.625    0.000    6.000    0.000    0.000 
#    0.000    0.000    0.000    0.000    0.000    0.000 
#
# Total GULP energy -396890.229680 kJ/mol
# GULP energy per Si atom -12402.819678 kJ/mol
# Density = 1.923602 g / cm^3
# Si number density = 19.279903 Si / 1000 Ang^3
#
#
#
# Elastic Constant Matrix: (Units=GPa)
#
#
# Indices 1 2 3 4 5 6 
#
# 1 86.9822 50.5303 62.3881 0.0000 0.0000 0.0000
# 2 50.5303 90.8321 51.5243 0.0000 0.0000 0.0000
# 3 62.3881 51.5243 99.3455 0.0000 0.0000 0.0000
# 4 0.0000 0.0000 0.0000 26.6799 0.0000 0.0000
# 5 0.0000 0.0000 0.0000 0.0000 26.8490 0.0000
# 6 0.0000 0.0000 0.0000 0.0000 0.0000 30.7566
#
#
#
# Elastic Compliance Matrix: (Units=1/GPa)
#
#
# Indices 1 2 3 4 5 6 
#
# 1 0.023446 -0.006646 -0.011277 0.000000 0.000000 0.000000
# 2 -0.006646 0.017482 -0.004893 0.000000 0.000000 0.000000
# 3 -0.011277 -0.004893 0.019685 0.000000 0.000000 0.000000
# 4 0.000000 0.000000 0.000000 0.037481 0.000000 0.000000
# 5 0.000000 0.000000 0.000000 0.000000 0.037245 0.000000
# 6 0.000000 0.000000 0.000000 0.000000 0.000000 0.032513
#
#
# Mechanical properties :
#
#
# Convention : Reuss Voigt Hill
#
# Bulk Modulus (GPa) = 66.75090 67.33837 67.04463
# Shear Modulus (GPa) = 22.88536 24.37155 23.62845
#
# Velocity S-wave (km/s) = 3.44903 3.55926 3.50458
# Velocity P-wave (km/s) = 7.11043 7.20373 7.15723
#
# Compressibility (1/GPa) = 0.01498107
#
# Stress axis : x y z
#
# Youngs Moduli (GPa) = 42.65127 57.20049 50.79906
#
# Poissons Ratio (x) = 0.38018 0.57285
# Poissons Ratio (y) = 0.28348 0.24857
# Poissons Ratio (z) = 0.48097 0.27989
#
# Static dielectric constant tensor:
#      x y z
#    x 3.424060 0.000000 0.000000 
#    y 0.000000 3.397740 0.000000 
#    z 0.000000 0.000000 3.561670 
# 
# 
# High freq. dielectric constant tensor:
#      x y z
#    x 1.745430 0.000000 0.000000 
#    y 0.000000 1.740310 0.000000 
#    z 0.000000 0.000000 1.754030 
# 
# From -- ./inp_files/16773.got.cif
#   From: 2010.03.12/outbox.cif.g09.slc.cpg/sg44_9_cif.got.tgz:16773.got - 2010.04.14 02:36:11.
