data_PCOD8189041
_publ_section_title
;
Structure prediction by ZEFSAII (Michael W. Deem and Ramdas Pophale) SiO2 
 PCOD8189041
Probable space group: I M M 2
;
_chemical_formula_sum "Si O2"
_cell_formula_units_Z 64
_cell_length_a 15.252092
_cell_length_b 8.645856
_cell_length_c 23.497309
_cell_angle_alpha 90.000000
_cell_angle_beta 90.000000
_cell_angle_gamma 90.000000
_cell_volume 3098.528836
_symmetry_space_group_name_H-M "I M M 2"
_symmetry_group_IT_number 44
_symmetry_cell_setting 'orthorhombic'
loop_
_space_group_symop_operation_xyz
x,y,z
-x,-y,z
-x,y,z
x,-y,z
1/2+x,1/2+y,1/2+z
1/2-x,1/2-y,1/2+z
1/2-x,1/2+y,1/2+z
1/2+x,1/2-y,1/2+z
loop_
_atom_site_type_symbol
_atom_site_label
_atom_site_fract_x
_atom_site_fract_y
_atom_site_fract_z
Si Si1 0.900809 0.178197 0.774470
Si Si2 0.098571 0.822744 0.529757
Si Si3 0.251392 0.321082 0.460221
Si Si4 0.166191 0.175834 0.651856
Si Si5 0.098900 0.322864 0.262112
Si Si6 0.098963 0.676790 0.031362
Si Si7 0.256210 0.321188 0.839447
Si Si8 0.850310 0.821552 0.148151
O O1 0.890813 0.211727 0.707498
O O2 0.836558 0.285649 0.810394
O O3 0.000000 0.218569 0.792248
O O4 0.878693 0.000000 0.788087
O O5 0.165744 0.712904 0.497474
O O6 0.105113 0.797114 0.597369
O O7 0.000000 0.779553 0.510899
O O8 0.120241 0.000000 0.513869
O O9 0.274375 0.500000 0.465662
O O10 0.335478 0.226342 0.481486
O O11 0.230742 0.279859 0.395481
O O12 0.246865 0.292501 0.649149
O O13 0.202370 0.000000 0.653142
O O14 0.129059 0.500000 0.269265
O O15 0.164681 0.214729 0.296640
O O16 0.101328 0.279519 0.195752
O O17 0.000000 0.299443 0.284881
O O18 0.119355 0.500000 0.047858
O O19 0.000000 0.696630 0.008347
O O20 0.111266 0.780466 0.086863
O O21 0.259476 0.500000 0.856096
O O22 0.869032 0.000000 0.160800
#
# Coordination Sequence:
#
# PCOD8189041 Si02
#       8
#     8   8   8   8   8   8   8   8
#     4  10  21  39  65  96 129 167 209 253 306 370
#     4  10  21  39  65  96 129 167 209 253 306 370
#     4  12  26  44  66  91 124 165 211 263 316 371
#     4  10  19  35  63  93 129 169 205 247 303 372
#     4  11  24  43  67  94 126 166 210 259 316 375
#     4  11  24  43  67  94 126 166 210 259 316 375
#     4  12  26  44  66  91 124 165 211 263 316 371
#     4  12  23  36  61  97 133 168 205 253 313 375
#
# _framework density 20.654965000000001
#
# number of rings (size 3 to 8) (size 9 to 14) (size 15 to 20)
#    0.000    1.000    2.500    4.875    0.000    6.500 
#    0.000    0.000    0.000    2.250    0.000    0.000 
#    0.000    0.000    0.000    0.000    0.000    0.000 
#
# Total GULP energy -397005.170795 kJ/mol
# GULP energy per Si atom -12406.411587 kJ/mol
# Density = 2.060795 g / cm^3
# Si number density = 20.654965 Si / 1000 Ang^3
#
#
#
# Elastic Constant Matrix: (Units=GPa)
#
#
# Indices 1 2 3 4 5 6 
#
# 1 114.3102 41.6391 17.3239 0.0000 0.0000 0.0000
# 2 41.6391 86.3143 17.3780 0.0000 0.0000 0.0000
# 3 17.3239 17.3780 79.7777 0.0000 0.0000 0.0000
# 4 0.0000 0.0000 0.0000 33.8847 0.0000 0.0000
# 5 0.0000 0.0000 0.0000 0.0000 6.3544 0.0000
# 6 0.0000 0.0000 0.0000 0.0000 0.0000 10.2105
#
#
#
# Elastic Compliance Matrix: (Units=1/GPa)
#
#
# Indices 1 2 3 4 5 6 
#
# 1 0.010732 -0.004924 -0.001258 0.000000 0.000000 0.000000
# 2 -0.004924 0.014376 -0.002062 0.000000 0.000000 0.000000
# 3 -0.001258 -0.002062 0.013257 0.000000 0.000000 0.000000
# 4 0.000000 0.000000 0.000000 0.029512 0.000000 0.000000
# 5 0.000000 0.000000 0.000000 0.000000 0.157370 0.000000
# 6 0.000000 0.000000 0.000000 0.000000 0.000000 0.097938
#
#
# Mechanical properties :
#
#
# Convention : Reuss Voigt Hill
#
# Bulk Modulus (GPa) = 45.70987 48.12045 46.91516
# Shear Modulus (GPa) = 14.41058 23.69401 19.05229
#
# Velocity S-wave (km/s) = 2.64423 3.39061 3.04041
# Velocity P-wave (km/s) = 5.61256 6.21902 5.92356
#
# Compressibility (1/GPa) = 0.02187711
#
# Stress axis : x y z
#
# Youngs Moduli (GPa) = 93.17506 69.55901 75.43054
#
# Poissons Ratio (x) = 0.34252 0.09489
# Poissons Ratio (y) = 0.45881 0.15556
# Poissons Ratio (z) = 0.11721 0.14345
#
# Static dielectric constant tensor:
#      x y z
#    x 3.792830 0.000000 0.000000 
#    y 0.000000 3.683300 0.000000 
#    z 0.000000 0.000000 3.693390 
# 
# 
# High freq. dielectric constant tensor:
#      x y z
#    x 1.817860 0.000000 0.000000 
#    y 0.000000 1.805930 0.000000 
#    z 0.000000 0.000000 1.804830 
# 
# From -- ./inp_files/25802.got.cif
#   From: 2010.03.12/outbox.cif.g09.slc.cpg/sg44_13_cif.got.tgz:25802.got - 2010.04.14 02:36:11.
