data_PCOD8189378
_publ_section_title
;
Structure prediction by ZEFSAII (Michael W. Deem and Ramdas Pophale) SiO2 
 PCOD8189378
Probable space group: I M M 2
;
_chemical_formula_sum "Si O2"
_cell_formula_units_Z 48
_cell_length_a 7.827326
_cell_length_b 9.339912
_cell_length_c 34.059131
_cell_angle_alpha 90.000000
_cell_angle_beta 90.000000
_cell_angle_gamma 90.000000
_cell_volume 2489.945088
_symmetry_space_group_name_H-M "I M M 2"
_symmetry_group_IT_number 44
_symmetry_cell_setting 'orthorhombic'
loop_
_space_group_symop_operation_xyz
x,y,z
-x,-y,z
-x,y,z
x,-y,z
1/2+x,1/2+y,1/2+z
1/2-x,1/2-y,1/2+z
1/2-x,1/2+y,1/2+z
1/2+x,1/2-y,1/2+z
loop_
_atom_site_type_symbol
_atom_site_label
_atom_site_fract_x
_atom_site_fract_y
_atom_site_fract_z
Si Si1 0.808282 0.664786 0.849320
Si Si2 0.200795 0.333782 0.275012
Si Si3 0.500000 0.669601 0.903241
Si Si4 0.201706 0.162081 0.199641
Si Si5 0.309997 0.164766 0.543401
Si Si6 0.195506 0.336533 0.614886
Si Si7 0.000000 0.170508 0.490847
O O1 0.766995 0.500000 0.838440
O O2 0.798933 0.758953 0.810400
O O3 0.670912 0.722551 0.880934
O O4 0.000000 0.678926 0.866922
O O5 0.248778 0.500000 0.274197
O O6 0.266539 0.263211 0.234662
O O7 0.000000 0.308094 0.280702
O O8 0.500000 0.500000 0.906234
O O9 0.500000 0.736037 0.946978
O O10 0.280764 0.221347 0.159128
O O11 0.000000 0.168306 0.195783
O O12 0.264585 0.000000 0.207984
O O13 0.500000 0.182964 0.525153
O O14 0.306953 0.245771 0.584755
O O15 0.170155 0.226749 0.512984
O O16 0.268340 0.000000 0.552285
O O17 0.259763 0.500000 0.613157
O O18 0.000000 0.322019 0.602099
O O19 0.000000 0.000000 0.488708
#
# Coordination Sequence:
#
# PCOD8189378 Si02
#       7
#     8   8   4   8   8   8   4
#     4  10  20  34  56  83 108 141 183 224 270 324
#     4  10  20  34  53  77 108 146 183 222 273 327
#     4   9  18  34  57  83 113 143 177 227 277 323
#     4   9  18  32  50  73 104 143 185 230 274 318
#     4  10  20  34  55  81 110 146 182 220 271 327
#     4  10  20  34  53  77 107 144 185 227 272 321
#     4   9  18  34  55  83 115 143 177 225 277 327
#
# _framework density 19.277532999999998
#
# number of rings (size 3 to 8) (size 9 to 14) (size 15 to 20)
#    0.000    2.333    1.667    1.000    0.000    4.000 
#    0.000    6.667    0.000    2.000    0.000    2.333 
#    0.000    0.000    0.000    0.000    0.000    0.000 
#
# Total GULP energy -297616.877524 kJ/mol
# GULP energy per Si atom -12400.703230 kJ/mol
# Density = 1.923366 g / cm^3
# Si number density = 19.277533 Si / 1000 Ang^3
#
#
#
# Elastic Constant Matrix: (Units=GPa)
#
#
# Indices 1 2 3 4 5 6 
#
# 1 107.8064 31.1277 63.6216 0.0000 0.0000 0.0000
# 2 31.1277 60.7666 48.2177 0.0000 0.0000 0.0000
# 3 63.6216 48.2177 147.6775 0.0000 0.0000 0.0000
# 4 0.0000 0.0000 0.0000 21.2750 0.0000 0.0000
# 5 0.0000 0.0000 0.0000 0.0000 26.7011 0.0000
# 6 0.0000 0.0000 0.0000 0.0000 0.0000 18.1941
#
#
#
# Elastic Compliance Matrix: (Units=1/GPa)
#
#
# Indices 1 2 3 4 5 6 
#
# 1 0.012818 -0.002948 -0.004560 0.000000 0.000000 0.000000
# 2 -0.002948 0.022889 -0.006203 0.000000 0.000000 0.000000
# 3 -0.004560 -0.006203 0.010761 0.000000 0.000000 0.000000
# 4 0.000000 0.000000 0.000000 0.047003 0.000000 0.000000
# 5 0.000000 0.000000 0.000000 0.000000 0.037452 0.000000
# 6 0.000000 0.000000 0.000000 0.000000 0.000000 0.054963
#
#
# Mechanical properties :
#
#
# Convention : Reuss Voigt Hill
#
# Bulk Modulus (GPa) = 52.50399 66.90939 59.70669
# Shear Modulus (GPa) = 22.76281 24.78627 23.77454
#
# Velocity S-wave (km/s) = 3.44000 3.58964 3.51561
# Velocity P-wave (km/s) = 6.56301 7.20864 6.89339
#
# Compressibility (1/GPa) = 0.01904617
#
# Stress axis : x y z
#
# Youngs Moduli (GPa) = 78.01582 43.68960 92.92579
#
# Poissons Ratio (x) = 0.12880 0.42371
# Poissons Ratio (y) = 0.22999 0.57645
# Poissons Ratio (z) = 0.35572 0.27102
#
# Static dielectric constant tensor:
#      x y z
#    x 3.577030 0.000000 0.000000 
#    y 0.000000 3.293630 0.000000 
#    z 0.000000 0.000000 3.563750 
# 
# 
# High freq. dielectric constant tensor:
#      x y z
#    x 1.757810 0.000000 0.000000 
#    y 0.000000 1.719300 0.000000 
#    z 0.000000 0.000000 1.744450 
# 
# From -- ./inp_files/26950.got.cif
#   From: 2010.03.12/outbox.cif.g09.slc.cpg/sg44_14_cif.got.tgz:26950.got - 2010.04.14 02:36:11.
