data_PCOD8189999
_publ_section_title
;
Structure prediction by ZEFSAII (Michael W. Deem and Ramdas Pophale) SiO2 
 PCOD8189999
Probable space group: I M M 2
;
_chemical_formula_sum "Si O2"
_cell_formula_units_Z 40
_cell_length_a 12.913484
_cell_length_b 7.731301
_cell_length_c 19.696760
_cell_angle_alpha 90.000000
_cell_angle_beta 90.000000
_cell_angle_gamma 90.000000
_cell_volume 1966.485751
_symmetry_space_group_name_H-M "I M M 2"
_symmetry_group_IT_number 44
_symmetry_cell_setting 'orthorhombic'
loop_
_space_group_symop_operation_xyz
x,y,z
-x,-y,z
-x,y,z
x,-y,z
1/2+x,1/2+y,1/2+z
1/2-x,1/2-y,1/2+z
1/2-x,1/2+y,1/2+z
1/2+x,1/2-y,1/2+z
loop_
_atom_site_type_symbol
_atom_site_label
_atom_site_fract_x
_atom_site_fract_y
_atom_site_fract_z
Si Si1 0.711238 0.199068 0.484700
Si Si2 0.115311 0.000000 0.906646
Si Si3 0.766170 0.804561 0.251161
Si Si4 0.376515 0.500000 0.258265
Si Si5 0.614085 0.297885 0.884768
Si Si6 0.617342 0.199237 0.625840
O O1 0.632384 0.325019 0.447717
O O2 0.825588 0.244973 0.455447
O O3 0.698828 0.234754 0.564732
O O4 0.681959 0.000000 0.467649
O O5 0.170567 0.000000 0.834348
O O6 0.000000 0.000000 0.881992
O O7 0.672808 0.676740 0.227569
O O8 0.821539 0.732979 0.319502
O O9 0.849885 0.811349 0.190553
O O10 0.723395 0.000000 0.262548
O O11 0.500000 0.500000 0.245644
O O12 0.500000 0.209455 0.887755
O O13 0.599013 0.500000 0.876976
O O14 0.500000 0.250276 0.603751
O O15 0.621753 0.000000 0.647384
#
# Coordination Sequence:
#
# PCOD8189999 Si02
#       6
#     8   4   8   4   8   8
#     4  10  21  38  57  86 127 159 197 246 299 357
#     4  11  22  36  60  88 116 153 200 243 299 362
#     4  11  22  40  63  89 121 156 200 257 306 363
#     4  11  24  42  62  90 120 155 204 251 307 366
#     4   9  18  35  60  87 116 156 201 245 299 355
#     4  10  21  37  60  91 126 161 200 252 310 359
#
# _framework density 20.340852999999999
#
# number of rings (size 3 to 8) (size 9 to 14) (size 15 to 20)
#    0.000    1.800    3.000    1.200    1.400    2.800 
#    0.000    4.500    0.000    0.000    0.000    0.000 
#    0.000    0.000    0.000    0.000    0.000    0.000 
#
# Total GULP energy -247826.721356 kJ/mol
# GULP energy per Si atom -12391.336068 kJ/mol
# Density = 2.029456 g / cm^3
# Si number density = 20.340853 Si / 1000 Ang^3
#
#
#
# Elastic Constant Matrix: (Units=GPa)
#
#
# Indices 1 2 3 4 5 6 
#
# 1 131.9193 42.2733 49.8398 0.0000 0.0000 0.0000
# 2 42.2733 82.2207 17.8579 0.0000 0.0000 0.0000
# 3 49.8398 17.8579 102.8553 0.0000 0.0000 0.0000
# 4 0.0000 0.0000 0.0000 25.9915 0.0000 0.0000
# 5 0.0000 0.0000 0.0000 0.0000 29.2929 0.0000
# 6 0.0000 0.0000 0.0000 0.0000 0.0000 16.8321
#
#
#
# Elastic Compliance Matrix: (Units=1/GPa)
#
#
# Indices 1 2 3 4 5 6 
#
# 1 0.010697 -0.004545 -0.004394 0.000000 0.000000 0.000000
# 2 -0.004545 0.014570 -0.000327 0.000000 0.000000 0.000000
# 3 -0.004394 -0.000327 0.011908 0.000000 0.000000 0.000000
# 4 0.000000 0.000000 0.000000 0.038474 0.000000 0.000000
# 5 0.000000 0.000000 0.000000 0.000000 0.034138 0.000000
# 6 0.000000 0.000000 0.000000 0.000000 0.000000 0.059410
#
#
# Mechanical properties :
#
#
# Convention : Reuss Voigt Hill
#
# Bulk Modulus (GPa) = 53.64139 59.65969 56.65054
# Shear Modulus (GPa) = 25.78032 28.22492 27.00262
#
# Velocity S-wave (km/s) = 3.56394 3.72909 3.64745
# Velocity P-wave (km/s) = 6.58514 6.92352 6.75645
#
# Compressibility (1/GPa) = 0.01864232
#
# Stress axis : x y z
#
# Youngs Moduli (GPa) = 93.48288 68.63195 83.97368
#
# Poissons Ratio (x) = 0.31196 0.36900
# Poissons Ratio (y) = 0.42492 0.02747
# Poissons Ratio (z) = 0.41079 0.02246
#
# Static dielectric constant tensor:
#      x y z
#    x 3.727460 0.000000 0.000000 
#    y 0.000000 3.592910 0.000000 
#    z 0.000000 0.000000 3.595390 
# 
# 
# High freq. dielectric constant tensor:
#      x y z
#    x 1.780730 0.000000 0.000000 
#    y 0.000000 1.793230 0.000000 
#    z 0.000000 0.000000 1.786510 
# 
# From -- ./inp_files/22797.got.cif
#   From: 2010.03.12/outbox.cif.g09.slc.cpg/sg44_12_cif.got.tgz:22797.got - 2010.04.14 02:36:11.
