data_PCOD8189693
_publ_section_title
;
Structure prediction by ZEFSAII (Michael W. Deem and Ramdas Pophale) SiO2 
 PCOD8189693
Probable space group: I M M 2
;
_chemical_formula_sum "Si O2"
_cell_formula_units_Z 48
_cell_length_a 27.233174
_cell_length_b 9.192310
_cell_length_c 9.760965
_cell_angle_alpha 90.000000
_cell_angle_beta 90.000000
_cell_angle_gamma 90.000000
_cell_volume 2443.518764
_symmetry_space_group_name_H-M "I M M 2"
_symmetry_group_IT_number 44
_symmetry_cell_setting 'orthorhombic'
loop_
_space_group_symop_operation_xyz
x,y,z
-x,-y,z
-x,y,z
x,-y,z
1/2+x,1/2+y,1/2+z
1/2-x,1/2-y,1/2+z
1/2-x,1/2+y,1/2+z
1/2+x,1/2-y,1/2+z
loop_
_atom_site_type_symbol
_atom_site_label
_atom_site_fract_x
_atom_site_fract_y
_atom_site_fract_z
Si Si1 0.554676 0.664447 0.875000
Si Si2 0.882120 0.830987 0.630244
Si Si3 0.598885 0.168583 0.642734
Si Si4 0.792722 0.669291 0.249792
Si Si5 0.785923 0.327638 0.567831
Si Si6 0.056326 0.830102 0.894797
O O1 0.500000 0.674359 0.936312
O O2 0.566326 0.500000 0.827433
O O3 0.558140 0.769956 0.745694
O O4 0.592566 0.715697 0.989394
O O5 0.833427 0.735527 0.645126
O O6 0.921394 0.795351 0.746978
O O7 0.867134 0.000000 0.632568
O O8 0.651713 0.201824 0.707154
O O9 0.591908 0.247358 0.498723
O O10 0.589605 0.000000 0.619854
O O11 0.779324 0.500000 0.231554
O O12 0.784389 0.718221 0.407513
O O13 0.760751 0.764421 0.146337
O O14 0.786575 0.500000 0.582748
O O15 0.000000 0.773970 0.900590
O O16 0.058198 0.000000 0.928878
#
# Coordination Sequence:
#
# PCOD8189693 Si02
#       6
#     8   8   8   8   8   8
#     4  10  20  36  61  90 118 154 199 243 292 354
#     4  10  21  39  63  89 121 157 197 246 300 353
#     4  11  23  40  60  86 123 159 197 247 300 353
#     4  10  24  44  62  88 123 157 197 246 300 360
#     4  11  24  42  65  91 120 155 198 247 302 359
#     4  10  22  40  61  88 123 162 204 247 292 349
#
# _framework density 19.643802999999998
#
# number of rings (size 3 to 8) (size 9 to 14) (size 15 to 20)
#    0.000    1.667    1.667    2.000    2.333    8.000 
#    0.000    0.000    0.000    3.000    0.000    0.000 
#    0.000    0.000    0.000    0.000    0.000    0.000 
#
# Total GULP energy -297676.337878 kJ/mol
# GULP energy per Si atom -12403.180745 kJ/mol
# Density = 1.959909 g / cm^3
# Si number density = 19.643803 Si / 1000 Ang^3
#
#
#
# Elastic Constant Matrix: (Units=GPa)
#
#
# Indices 1 2 3 4 5 6 
#
# 1 83.1735 43.8789 42.3512 0.0000 0.0000 0.0000
# 2 43.8789 71.3578 56.1305 0.0000 0.0000 0.0000
# 3 42.3512 56.1305 108.2319 0.0000 0.0000 0.0000
# 4 0.0000 0.0000 0.0000 29.2896 0.0000 0.0000
# 5 0.0000 0.0000 0.0000 0.0000 36.0263 0.0000
# 6 0.0000 0.0000 0.0000 0.0000 0.0000 28.5210
#
#
#
# Elastic Compliance Matrix: (Units=1/GPa)
#
#
# Indices 1 2 3 4 5 6 
#
# 1 0.018105 -0.009391 -0.002214 0.000000 0.000000 0.000000
# 2 -0.009391 0.028541 -0.011127 0.000000 0.000000 0.000000
# 3 -0.002214 -0.011127 0.015876 0.000000 0.000000 0.000000
# 4 0.000000 0.000000 0.000000 0.034142 0.000000 0.000000
# 5 0.000000 0.000000 0.000000 0.000000 0.027758 0.000000
# 6 0.000000 0.000000 0.000000 0.000000 0.000000 0.035062
#
#
# Mechanical properties :
#
#
# Convention : Reuss Voigt Hill
#
# Bulk Modulus (GPa) = 58.62425 60.83162 59.72793
# Shear Modulus (GPa) = 23.73774 26.79420 25.26597
#
# Velocity S-wave (km/s) = 3.47999 3.69725 3.59026
# Velocity P-wave (km/s) = 6.78642 7.01860 6.90349
#
# Compressibility (1/GPa) = 0.01705779
#
# Stress axis : x y z
#
# Youngs Moduli (GPa) = 55.23358 35.03672 62.98651
#
# Poissons Ratio (x) = 0.32905 0.13945
# Poissons Ratio (y) = 0.51872 0.70086
# Poissons Ratio (z) = 0.12228 0.38986
#
# Static dielectric constant tensor:
#      x y z
#    x 3.581270 0.000000 0.000000 
#    y 0.000000 3.527280 0.000000 
#    z 0.000000 0.000000 3.622040 
# 
# 
# High freq. dielectric constant tensor:
#      x y z
#    x 1.775170 0.000000 0.000000 
#    y 0.000000 1.759670 0.000000 
#    z 0.000000 0.000000 1.773780 
# 
# From -- ./inp_files/4887.got.cif
#   From: 2010.03.12/outbox.cif.g09.slc.cpg/sg44_3_cif.got.tgz:4887.got - 2010.04.14 02:36:11.
