data_PCOD8189672
_publ_section_title
;
Structure prediction by ZEFSAII (Michael W. Deem and Ramdas Pophale) SiO2 
 PCOD8189672
Probable space group: I M M 2
;
_chemical_formula_sum "Si O2"
_cell_formula_units_Z 48
_cell_length_a 14.903215
_cell_length_b 8.858724
_cell_length_c 18.934173
_cell_angle_alpha 90.000000
_cell_angle_beta 90.000000
_cell_angle_gamma 90.000000
_cell_volume 2499.755191
_symmetry_space_group_name_H-M "I M M 2"
_symmetry_group_IT_number 44
_symmetry_cell_setting 'orthorhombic'
loop_
_space_group_symop_operation_xyz
x,y,z
-x,-y,z
-x,y,z
x,-y,z
1/2+x,1/2+y,1/2+z
1/2-x,1/2-y,1/2+z
1/2-x,1/2+y,1/2+z
1/2+x,1/2-y,1/2+z
loop_
_atom_site_type_symbol
_atom_site_label
_atom_site_fract_x
_atom_site_fract_y
_atom_site_fract_z
Si Si1 0.852754 0.175619 0.689790
Si Si2 0.145565 0.322451 0.190869
Si Si3 0.500000 0.175232 0.445811
Si Si4 0.350623 0.826120 0.334246
Si Si5 0.500000 0.823838 0.097107
Si Si6 0.500000 0.678155 0.594843
Si Si7 0.855194 0.823290 0.338191
Si Si8 0.500000 0.177314 0.933319
O O1 0.749111 0.215517 0.675785
O O2 0.882374 0.229073 0.767433
O O3 0.910055 0.257267 0.630415
O O4 0.872161 0.000000 0.684385
O O5 0.127238 0.500000 0.193753
O O6 0.089051 0.248892 0.128427
O O7 0.114464 0.251144 0.264731
O O8 0.588300 0.214719 0.400840
O O9 0.500000 0.283576 0.512541
O O10 0.500000 0.000000 0.469178
O O11 0.248518 0.788836 0.354898
O O12 0.362255 0.000000 0.312481
O O13 0.500000 0.000000 0.110846
O O14 0.500000 0.782217 0.015269
O O15 0.500000 0.500000 0.606082
O O16 0.910907 0.749772 0.400950
O O17 0.875751 0.000000 0.333758
O O18 0.500000 0.000000 0.918876
#
# Coordination Sequence:
#
# PCOD8189672 Si02
#       8
#     8   8   4   8   4   4   8   4
#     4  10  21  37  61  88 112 143 187 234 278 326
#     4  10  21  39  61  84 112 147 185 230 280 332
#     4  10  21  38  57  81 114 151 185 220 271 334
#     4   9  19  36  60  86 113 146 183 224 276 333
#     4  11  24  39  56  80 116 156 188 225 278 333
#     4  12  25  38  55  82 114 150 189 232 279 330
#     4  10  20  36  59  86 112 142 183 231 277 327
#     4  11  24  39  54  77 110 151 190 227 278 333
#
# _framework density 19.201881
#
# number of rings (size 3 to 8) (size 9 to 14) (size 15 to 20)
#    0.000    1.833    0.000    3.750    0.000    6.667 
#    0.000    5.000    0.000    0.000    0.000    0.000 
#    0.000    0.000    0.000    0.000    0.000    0.000 
#
# Total GULP energy -297739.241485 kJ/mol
# GULP energy per Si atom -12405.801729 kJ/mol
# Density = 1.915818 g / cm^3
# Si number density = 19.201881 Si / 1000 Ang^3
#
#
#
# Elastic Constant Matrix: (Units=GPa)
#
#
# Indices 1 2 3 4 5 6 
#
# 1 112.6046 57.2493 77.6471 0.0000 0.0000 0.0000
# 2 57.2493 115.1417 79.9009 0.0000 0.0000 0.0000
# 3 77.6471 79.9009 140.8814 0.0000 0.0000 0.0000
# 4 0.0000 0.0000 0.0000 36.4440 0.0000 0.0000
# 5 0.0000 0.0000 0.0000 0.0000 52.2569 0.0000
# 6 0.0000 0.0000 0.0000 0.0000 0.0000 30.7917
#
#
#
# Elastic Compliance Matrix: (Units=1/GPa)
#
#
# Indices 1 2 3 4 5 6 
#
# 1 0.014857 -0.002811 -0.006594 0.000000 0.000000 0.000000
# 2 -0.002811 0.014853 -0.006875 0.000000 0.000000 0.000000
# 3 -0.006594 -0.006875 0.014631 0.000000 0.000000 0.000000
# 4 0.000000 0.000000 0.000000 0.027439 0.000000 0.000000
# 5 0.000000 0.000000 0.000000 0.000000 0.019136 0.000000
# 6 0.000000 0.000000 0.000000 0.000000 0.000000 0.032476
#
#
# Mechanical properties :
#
#
# Convention : Reuss Voigt Hill
#
# Bulk Modulus (GPa) = 84.87610 88.69138 86.78374
# Shear Modulus (GPa) = 31.27340 34.15386 32.71363
#
# Velocity S-wave (km/s) = 4.04005 4.22201 4.13203
# Velocity P-wave (km/s) = 8.12777 8.36996 8.24975
#
# Compressibility (1/GPa) = 0.01178188
#
# Stress axis : x y z
#
# Youngs Moduli (GPa) = 67.30942 67.32545 68.34579
#
# Poissons Ratio (x) = 0.18925 0.45068
# Poissons Ratio (y) = 0.18921 0.46986
# Poissons Ratio (z) = 0.44384 0.46284
#
# Static dielectric constant tensor:
#      x y z
#    x 3.367410 0.000000 0.000000 
#    y 0.000000 3.604100 0.000000 
#    z 0.000000 0.000000 3.415020 
# 
# 
# High freq. dielectric constant tensor:
#      x y z
#    x 1.762120 0.000000 0.000000 
#    y 0.000000 1.757680 0.000000 
#    z 0.000000 0.000000 1.742360 
# 
# From -- ./inp_files/20389.got.cif
#   From: 2010.03.12/outbox.cif.g09.slc.cpg/sg44_11_cif.got.tgz:20389.got - 2010.04.14 02:36:11.
