data_PCOD8189240
_publ_section_title
;
Structure prediction by ZEFSAII (Michael W. Deem and Ramdas Pophale) SiO2 
 PCOD8189240
Probable space group: I M M 2
;
_chemical_formula_sum "Si O2"
_cell_formula_units_Z 56
_cell_length_a 8.702131
_cell_length_b 16.212169
_cell_length_c 23.087594
_cell_angle_alpha 90.000000
_cell_angle_beta 90.000000
_cell_angle_gamma 90.000000
_cell_volume 3257.207422
_symmetry_space_group_name_H-M "I M M 2"
_symmetry_group_IT_number 44
_symmetry_cell_setting 'orthorhombic'
loop_
_space_group_symop_operation_xyz
x,y,z
-x,-y,z
-x,y,z
x,-y,z
1/2+x,1/2+y,1/2+z
1/2-x,1/2-y,1/2+z
1/2-x,1/2+y,1/2+z
1/2+x,1/2-y,1/2+z
loop_
_atom_site_type_symbol
_atom_site_label
_atom_site_fract_x
_atom_site_fract_y
_atom_site_fract_z
Si Si1 0.680632 0.347744 0.992750
Si Si2 0.817758 0.594267 0.108053
Si Si3 0.680356 0.833020 0.282286
Si Si4 0.677570 0.906063 0.843133
Si Si5 0.819331 0.500000 0.926661
Si Si6 0.321558 0.818784 0.725003
Si Si7 0.178794 0.757501 0.900403
Si Si8 0.680593 0.500000 0.802416
O O1 0.500000 0.354869 0.997565
O O2 0.747496 0.420883 0.955203
O O3 0.728372 0.265065 0.958613
O O4 0.750367 0.349957 0.056807
O O5 0.755954 0.500000 0.104216
O O6 0.761487 0.636122 0.167402
O O7 0.000000 0.593950 0.104089
O O8 0.500000 0.849982 0.278230
O O9 0.727137 0.765329 0.234566
O O10 0.727714 0.800605 0.346307
O O11 0.772769 0.917131 0.267775
O O12 0.500000 0.891284 0.858730
O O13 0.709209 0.882685 0.776691
O O14 0.781525 0.851733 0.885693
O O15 0.727044 0.000000 0.852501
O O16 0.784221 0.500000 0.859378
O O17 0.000000 0.500000 0.937442
O O18 0.500000 0.795252 0.720339
O O19 0.000000 0.747962 0.913395
O O20 0.500000 0.500000 0.816222
#
# Coordination Sequence:
#
# PCOD8189240 Si02
#       8
#     8   8   8   8   4   8   8   4
#     4  12  23  34  50  75 105 138 175 213 251 302
#     4  10  20  34  53  75 104 141 176 211 253 302
#     4  10  20  33  50  73 104 138 170 211 260 305
#     4   9  17  31  52  77 105 134 170 213 254 301
#     4  12  22  34  50  72 106 140 170 207 252 307
#     4   9  18  33  52  75 103 137 177 212 249 301
#     4  10  20  33  50  72 103 138 171 210 257 308
#     4  12  22  32  52  78 104 136 172 211 254 309
#
# _framework density 17.192641999999999
#
# number of rings (size 3 to 8) (size 9 to 14) (size 15 to 20)
#    0.000    1.714    2.143    3.857    0.000    3.714 
#    0.000    0.000    0.000    2.571    1.857    0.000 
#    0.000    0.000    0.000    0.000    0.000    0.000 
#
# Total GULP energy -347268.686536 kJ/mol
# GULP energy per Si atom -12402.453091 kJ/mol
# Density = 1.715351 g / cm^3
# Si number density = 17.192642 Si / 1000 Ang^3
#
#
#
# Elastic Constant Matrix: (Units=GPa)
#
#
# Indices 1 2 3 4 5 6 
#
# 1 21.9212 29.9098 26.6817 0.0000 0.0000 0.0000
# 2 29.9098 109.8552 44.2811 0.0000 0.0000 0.0000
# 3 26.6817 44.2811 98.5440 0.0000 0.0000 0.0000
# 4 0.0000 0.0000 0.0000 29.9012 0.0000 0.0000
# 5 0.0000 0.0000 0.0000 0.0000 24.9611 0.0000
# 6 0.0000 0.0000 0.0000 0.0000 0.0000 28.0427
#
#
#
# Elastic Compliance Matrix: (Units=1/GPa)
#
#
# Indices 1 2 3 4 5 6 
#
# 1 0.089872 -0.017903 -0.016289 0.000000 0.000000 0.000000
# 2 -0.017903 0.014683 -0.001750 0.000000 0.000000 0.000000
# 3 -0.016289 -0.001750 0.015345 0.000000 0.000000 0.000000
# 4 0.000000 0.000000 0.000000 0.033443 0.000000 0.000000
# 5 0.000000 0.000000 0.000000 0.000000 0.040062 0.000000
# 6 0.000000 0.000000 0.000000 0.000000 0.000000 0.035660
#
#
# Mechanical properties :
#
#
# Convention : Reuss Voigt Hill
#
# Bulk Modulus (GPa) = 20.82704 48.00730 34.41717
# Shear Modulus (GPa) = 15.77516 25.21086 20.49301
#
# Velocity S-wave (km/s) = 3.03240 3.83348 3.45623
# Velocity P-wave (km/s) = 4.93972 6.89767 5.99911
#
# Compressibility (1/GPa) = 0.04801450
#
# Stress axis : x y z
#
# Youngs Moduli (GPa) = 11.12699 68.10669 65.16956
#
# Poissons Ratio (x) = 1.21933 1.06153
# Poissons Ratio (y) = 0.19921 0.11407
# Poissons Ratio (z) = 0.18124 0.11921
#
# Static dielectric constant tensor:
#      x y z
#    x 3.175530 0.000000 0.000000 
#    y 0.000000 3.281120 0.000000 
#    z 0.000000 0.000000 3.132830 
# 
# 
# High freq. dielectric constant tensor:
#      x y z
#    x 1.668750 0.000000 0.000000 
#    y 0.000000 1.660850 0.000000 
#    z 0.000000 0.000000 1.638920 
# 
# From -- ./inp_files/23128.got.cif
#   From: 2010.03.12/outbox.cif.g09.slc.cpg/sg44_12_cif.got.tgz:23128.got - 2010.04.14 02:36:11.
