data_PCOD8189694
_publ_section_title
;
Structure prediction by ZEFSAII (Michael W. Deem and Ramdas Pophale) SiO2 
 PCOD8189694
Probable space group: I M M 2
;
_chemical_formula_sum "Si O2"
_cell_formula_units_Z 48
_cell_length_a 7.870478
_cell_length_b 8.872684
_cell_length_c 34.514978
_cell_angle_alpha 90.000000
_cell_angle_beta 90.000000
_cell_angle_gamma 90.000000
_cell_volume 2410.259063
_symmetry_space_group_name_H-M "I M M 2"
_symmetry_group_IT_number 44
_symmetry_cell_setting 'orthorhombic'
loop_
_space_group_symop_operation_xyz
x,y,z
-x,-y,z
-x,y,z
x,-y,z
1/2+x,1/2+y,1/2+z
1/2-x,1/2-y,1/2+z
1/2-x,1/2+y,1/2+z
1/2+x,1/2-y,1/2+z
loop_
_atom_site_type_symbol
_atom_site_label
_atom_site_fract_x
_atom_site_fract_y
_atom_site_fract_z
Si Si1 0.306627 0.327285 0.208300
Si Si2 0.803287 0.322133 0.947898
Si Si3 0.500000 0.173430 0.084388
Si Si4 0.809956 0.677590 0.127617
Si Si5 0.000000 0.674363 0.493301
Si Si6 0.302786 0.830992 0.788259
Si Si7 0.800664 0.831549 0.869543
O O1 0.500000 0.310324 0.195727
O O2 0.250655 0.500000 0.214489
O O3 0.202196 0.260062 0.171981
O O4 0.274472 0.246935 0.250108
O O5 0.786279 0.500000 0.950842
O O6 0.674359 0.248686 0.978284
O O7 0.741440 0.270864 0.905309
O O8 0.000000 0.272344 0.956175
O O9 0.327654 0.245568 0.100406
O O10 0.500000 0.000000 0.096370
O O11 0.500000 0.198029 0.038879
O O12 0.771789 0.500000 0.127665
O O13 0.000000 0.712952 0.112087
O O14 0.000000 0.500000 0.481316
O O15 0.500000 0.833817 0.781244
O O16 0.258517 0.751582 0.829247
O O17 0.225629 0.000000 0.791697
O O18 0.000000 0.843323 0.869332
O O19 0.720506 0.000000 0.873908
#
# Coordination Sequence:
#
# PCOD8189694 Si02
#       7
#     8   8   4   8   4   8   8
#     4   9  15  26  47  76 112 150 190 241 294 337
#     4  10  22  40  62  89 120 155 192 237 297 359
#     4  11  25  43  61  87 121 155 193 241 299 363
#     4  10  20  36  61  90 119 155 197 244 296 349
#     4  11  25  43  65  89 115 151 197 247 297 353
#     4   9  16  24  39  71 111 147 189 242 290 332
#     4   9  17  30  49  75 109 150 194 239 288 342
#
# _framework density 19.914874000000001
#
# number of rings (size 3 to 8) (size 9 to 14) (size 15 to 20)
#    0.000    2.333    0.833    2.000    1.167    7.333 
#    0.000    3.333    0.000    1.000    0.000    0.000 
#    0.000    0.000    0.000    0.000    0.000    0.000 
#
# Total GULP energy -297429.337723 kJ/mol
# GULP energy per Si atom -12392.889072 kJ/mol
# Density = 1.986955 g / cm^3
# Si number density = 19.914874 Si / 1000 Ang^3
#
#
#
# Elastic Constant Matrix: (Units=GPa)
#
#
# Indices 1 2 3 4 5 6 
#
# 1 107.0933 44.1418 62.2850 0.0000 0.0000 0.0000
# 2 44.1418 63.4892 46.3621 0.0000 0.0000 0.0000
# 3 62.2850 46.3621 119.0844 0.0000 0.0000 0.0000
# 4 0.0000 0.0000 0.0000 19.8836 0.0000 0.0000
# 5 0.0000 0.0000 0.0000 0.0000 28.4577 0.0000
# 6 0.0000 0.0000 0.0000 0.0000 0.0000 18.4672
#
#
#
# Elastic Compliance Matrix: (Units=1/GPa)
#
#
# Indices 1 2 3 4 5 6 
#
# 1 0.015196 -0.006653 -0.005358 0.000000 0.000000 0.000000
# 2 -0.006653 0.024920 -0.006222 0.000000 0.000000 0.000000
# 3 -0.005358 -0.006222 0.013622 0.000000 0.000000 0.000000
# 4 0.000000 0.000000 0.000000 0.050293 0.000000 0.000000
# 5 0.000000 0.000000 0.000000 0.000000 0.035140 0.000000
# 6 0.000000 0.000000 0.000000 0.000000 0.000000 0.054150
#
#
# Mechanical properties :
#
#
# Convention : Reuss Voigt Hill
#
# Bulk Modulus (GPa) = 57.89630 66.13830 62.01730
# Shear Modulus (GPa) = 21.22751 22.48691 21.85721
#
# Velocity S-wave (km/s) = 3.26837 3.36393 3.31650
# Velocity P-wave (km/s) = 6.58620 6.95490 6.77306
#
# Compressibility (1/GPa) = 0.01727226
#
# Stress axis : x y z
#
# Youngs Moduli (GPa) = 65.80731 40.12883 73.40937
#
# Poissons Ratio (x) = 0.26696 0.39332
# Poissons Ratio (y) = 0.43779 0.45677
# Poissons Ratio (z) = 0.35259 0.24969
#
# Static dielectric constant tensor:
#      x y z
#    x 3.637540 0.000000 0.000000 
#    y 0.000000 3.295400 0.000000 
#    z 0.000000 0.000000 3.889020 
# 
# 
# High freq. dielectric constant tensor:
#      x y z
#    x 1.786040 0.000000 0.000000 
#    y 0.000000 1.719880 0.000000 
#    z 0.000000 0.000000 1.791960 
# 
# From -- ./inp_files/26977.got.cif
#   From: 2010.03.12/outbox.cif.g09.slc.cpg/sg44_14_cif.got.tgz:26977.got - 2010.04.14 02:36:11.
