data_PCOD8189279
_publ_section_title
;
Structure prediction by ZEFSAII (Michael W. Deem and Ramdas Pophale) SiO2 
 PCOD8189279
Probable space group: I M M 2
;
_chemical_formula_sum "Si O2"
_cell_formula_units_Z 64
_cell_length_a 27.073222
_cell_length_b 9.350415
_cell_length_c 12.992806
_cell_angle_alpha 90.000000
_cell_angle_beta 90.000000
_cell_angle_gamma 90.000000
_cell_volume 3289.075063
_symmetry_space_group_name_H-M "I M M 2"
_symmetry_group_IT_number 44
_symmetry_cell_setting 'orthorhombic'
loop_
_space_group_symop_operation_xyz
x,y,z
-x,-y,z
-x,y,z
x,-y,z
1/2+x,1/2+y,1/2+z
1/2-x,1/2-y,1/2+z
1/2-x,1/2+y,1/2+z
1/2+x,1/2-y,1/2+z
loop_
_atom_site_type_symbol
_atom_site_label
_atom_site_fract_x
_atom_site_fract_y
_atom_site_fract_z
Si Si1 0.058333 0.333193 0.724250
Si Si2 0.780893 0.656080 0.308424
Si Si3 0.619397 0.669756 0.054056
Si Si4 0.876015 0.167885 0.319185
Si Si5 0.727666 0.659906 0.110962
Si Si6 0.944941 0.169731 0.137470
Si Si7 0.206983 0.839657 0.984123
Si Si8 0.100421 0.168706 0.919622
O O1 0.073576 0.500000 0.725787
O O2 0.081813 0.255831 0.625464
O O3 0.075931 0.258519 0.828954
O O4 0.000000 0.314722 0.714993
O O5 0.806176 0.500000 0.296634
O O6 0.821966 0.774899 0.292620
O O7 0.733284 0.666587 0.233680
O O8 0.756804 0.672543 0.419077
O O9 0.614451 0.500000 0.076189
O O10 0.674821 0.725728 0.079352
O O11 0.607029 0.707926 0.935182
O O12 0.914041 0.230800 0.234644
O O13 0.872018 0.000000 0.307568
O O14 0.729624 0.500000 0.065753
O O15 0.778378 0.739089 0.078247
O O16 0.000000 0.232904 0.146217
O O17 0.945762 0.000000 0.143034
O O18 0.922403 0.217982 0.028503
O O19 0.158253 0.789768 0.923640
O O20 0.197353 0.000000 0.025184
O O21 0.091939 0.000000 0.898553
#
# Coordination Sequence:
#
# PCOD8189279 Si02
#       8
#     8   8   8   8   8   8   8   8
#     4  11  25  42  60  85 116 151 196 251 305 355
#     4  10  20  33  51  76 113 151 181 223 278 332
#     4  10  21  38  60  85 116 154 197 243 288 345
#     4  10  20  36  59  85 114 148 191 238 278 336
#     4  10  20  35  54  81 115 151 192 234 275 332
#     4   9  18  33  56  86 114 142 183 238 292 336
#     4  10  20  34  54  82 112 147 186 225 277 339
#     4  10  20  37  61  87 117 152 193 239 291 354
#
# _framework density 19.458356999999999
#
# number of rings (size 3 to 8) (size 9 to 14) (size 15 to 20)
#    0.000    2.000    1.250    2.250    0.000    7.000 
#    0.000    3.125    0.000    1.125    0.000    0.000 
#    0.000    0.000    0.000    0.000    0.000    0.000 
#
# Total GULP energy -396664.731449 kJ/mol
# GULP energy per Si atom -12395.772858 kJ/mol
# Density = 1.941407 g / cm^3
# Si number density = 19.458357 Si / 1000 Ang^3
#
#
#
# Elastic Constant Matrix: (Units=GPa)
#
#
# Indices 1 2 3 4 5 6 
#
# 1 118.4729 45.1797 55.9359 0.0000 0.0000 0.0000
# 2 45.1797 56.9937 43.2265 0.0000 0.0000 0.0000
# 3 55.9359 43.2265 125.5979 0.0000 0.0000 0.0000
# 4 0.0000 0.0000 0.0000 23.9950 0.0000 0.0000
# 5 0.0000 0.0000 0.0000 0.0000 34.8573 0.0000
# 6 0.0000 0.0000 0.0000 0.0000 0.0000 28.7945
#
#
#
# Elastic Compliance Matrix: (Units=1/GPa)
#
#
# Indices 1 2 3 4 5 6 
#
# 1 0.012887 -0.007934 -0.003009 0.000000 0.000000 0.000000
# 2 -0.007934 0.028628 -0.006319 0.000000 0.000000 0.000000
# 3 -0.003009 -0.006319 0.011477 0.000000 0.000000 0.000000
# 4 0.000000 0.000000 0.000000 0.041675 0.000000 0.000000
# 5 0.000000 0.000000 0.000000 0.000000 0.028688 0.000000
# 6 0.000000 0.000000 0.000000 0.000000 0.000000 0.034729
#
#
# Mechanical properties :
#
#
# Convention : Reuss Voigt Hill
#
# Bulk Modulus (GPa) = 54.14810 65.52762 59.83786
# Shear Modulus (GPa) = 25.15556 27.97754 26.56655
#
# Velocity S-wave (km/s) = 3.59944 3.79597 3.69901
# Velocity P-wave (km/s) = 6.72032 7.27746 7.00443
#
# Compressibility (1/GPa) = 0.01846787
#
# Stress axis : x y z
#
# Youngs Moduli (GPa) = 77.59906 34.93119 87.13221
#
# Poissons Ratio (x) = 0.27713 0.26216
# Poissons Ratio (y) = 0.61563 0.55063
# Poissons Ratio (z) = 0.23348 0.22074
#
# Static dielectric constant tensor:
#      x y z
#    x 3.596000 0.000000 0.000000 
#    y 0.000000 3.396190 0.000000 
#    z 0.000000 0.000000 3.710130 
# 
# 
# High freq. dielectric constant tensor:
#      x y z
#    x 1.759480 0.000000 0.000000 
#    y 0.000000 1.732540 0.000000 
#    z 0.000000 0.000000 1.771750 
# 
# From -- ./inp_files/15074.got.cif
#   From: 2010.03.12/outbox.cif.g09.slc.cpg/sg44_8_cif.got.tgz:15074.got - 2010.04.14 02:36:11.
