data_PCOD8189372
_publ_section_title
;
Structure prediction by ZEFSAII (Michael W. Deem and Ramdas Pophale) SiO2 
 PCOD8189372
Probable space group: I M M 2
;
_chemical_formula_sum "Si O2"
_cell_formula_units_Z 64
_cell_length_a 9.758535
_cell_length_b 18.125509
_cell_length_c 18.909706
_cell_angle_alpha 90.000000
_cell_angle_beta 90.000000
_cell_angle_gamma 90.000000
_cell_volume 3344.718806
_symmetry_space_group_name_H-M "I M M 2"
_symmetry_group_IT_number 44
_symmetry_cell_setting 'orthorhombic'
loop_
_space_group_symop_operation_xyz
x,y,z
-x,-y,z
-x,y,z
x,-y,z
1/2+x,1/2+y,1/2+z
1/2-x,1/2-y,1/2+z
1/2-x,1/2+y,1/2+z
1/2+x,1/2-y,1/2+z
loop_
_atom_site_type_symbol
_atom_site_label
_atom_site_fract_x
_atom_site_fract_y
_atom_site_fract_z
Si Si1 0.653261 0.415753 0.933280
Si Si2 0.847594 0.150200 0.200702
Si Si3 0.655690 0.811978 0.674703
Si Si4 0.847604 0.917770 0.055778
Si Si5 0.339320 0.150048 0.947393
Si Si6 0.847589 0.413049 0.811773
Si Si7 0.837483 0.415518 0.299162
Si Si8 0.344514 0.709310 0.039246
O O1 0.500000 0.408215 0.901051
O O2 0.688074 0.500000 0.952002
O O3 0.759638 0.381982 0.877073
O O4 0.665727 0.371061 0.005130
O O5 0.843576 0.236503 0.219997
O O6 0.815444 0.140375 0.117636
O O7 0.729050 0.107031 0.240277
O O8 0.000000 0.118114 0.217963
O O9 0.500000 0.830400 0.650164
O O10 0.714371 0.876077 0.726592
O O11 0.748296 0.797007 0.606752
O O12 0.000000 0.903164 0.025183
O O13 0.836548 0.000000 0.087520
O O14 0.738276 0.910547 0.993666
O O15 0.500000 0.135576 0.954215
O O16 0.291504 0.135020 0.866323
O O17 0.299421 0.230659 0.979250
O O18 0.857282 0.500000 0.817277
O O19 0.000000 0.378148 0.812794
O O20 0.779951 0.500000 0.303513
O O21 0.000000 0.417963 0.296941
O O22 0.500000 0.726755 0.063950
#
# Coordination Sequence:
#
# PCOD8189372 Si02
#       8
#     8   8   8   8   8   8   8   8
#     4   9  19  36  57  80 108 146 186 223 272 336
#     4  10  20  34  53  76 107 149 189 223 269 333
#     4  10  21  37  59  82 109 146 188 231 277 330
#     4  10  20  34  53  78 109 144 181 222 273 336
#     4  10  20  35  57  82 110 144 184 232 281 330
#     4  10  21  35  52  79 112 142 178 227 276 324
#     4   9  19  36  58  85 113 145 190 237 281 334
#     4  10  21  36  57  84 114 146 186 233 281 335
#
# _framework density 19.134641999999999
#
# number of rings (size 3 to 8) (size 9 to 14) (size 15 to 20)
#    0.000    2.250    1.250    1.125    1.750    4.000 
#    0.000    0.625    0.000    0.750    0.000    0.000 
#    0.000    0.000    0.000    0.000    0.000    0.000 
#
# Total GULP energy -396630.856406 kJ/mol
# GULP energy per Si atom -12394.714263 kJ/mol
# Density = 1.909109 g / cm^3
# Si number density = 19.134642 Si / 1000 Ang^3
#
#
#
# Elastic Constant Matrix: (Units=GPa)
#
#
# Indices 1 2 3 4 5 6 
#
# 1 90.4598 29.2951 55.1717 0.0000 0.0000 0.0000
# 2 29.2951 80.6647 51.6946 0.0000 0.0000 0.0000
# 3 55.1717 51.6946 106.2469 0.0000 0.0000 0.0000
# 4 0.0000 0.0000 0.0000 33.4932 0.0000 0.0000
# 5 0.0000 0.0000 0.0000 0.0000 31.4312 0.0000
# 6 0.0000 0.0000 0.0000 0.0000 0.0000 20.8990
#
#
#
# Elastic Compliance Matrix: (Units=1/GPa)
#
#
# Indices 1 2 3 4 5 6 
#
# 1 0.016207 -0.000716 -0.008068 0.000000 0.000000 0.000000
# 2 -0.000716 0.018046 -0.008408 0.000000 0.000000 0.000000
# 3 -0.008068 -0.008408 0.017693 0.000000 0.000000 0.000000
# 4 0.000000 0.000000 0.000000 0.029857 0.000000 0.000000
# 5 0.000000 0.000000 0.000000 0.000000 0.031815 0.000000
# 6 0.000000 0.000000 0.000000 0.000000 0.000000 0.047849
#
#
# Mechanical properties :
#
#
# Convention : Reuss Voigt Hill
#
# Bulk Modulus (GPa) = 56.94307 61.07713 59.01010
# Shear Modulus (GPa) = 24.78884 26.57870 25.68377
#
# Velocity S-wave (km/s) = 3.60320 3.73102 3.66767
# Velocity P-wave (km/s) = 6.86546 7.10983 6.98871
#
# Compressibility (1/GPa) = 0.01756140
#
# Stress axis : x y z
#
# Youngs Moduli (GPa) = 61.70210 55.41547 56.52098
#
# Poissons Ratio (x) = 0.03966 0.45599
# Poissons Ratio (y) = 0.04416 0.47525
# Poissons Ratio (z) = 0.49779 0.46596
#
# Static dielectric constant tensor:
#      x y z
#    x 3.539270 0.000000 0.000000 
#    y 0.000000 3.606250 0.000000 
#    z 0.000000 0.000000 3.361400 
# 
# 
# High freq. dielectric constant tensor:
#      x y z
#    x 1.729990 0.000000 0.000000 
#    y 0.000000 1.745390 0.000000 
#    z 0.000000 0.000000 1.733140 
# 
# From -- ./inp_files/20788.got.cif
#   From: 2010.03.12/outbox.cif.g09.slc.cpg/sg44_11_cif.got.tgz:20788.got - 2010.04.14 02:36:11.
