data_PCOD8189470
_publ_section_title
;
Structure prediction by ZEFSAII (Michael W. Deem and Ramdas Pophale) SiO2 
 PCOD8189470
Probable space group: I M M 2
;
_chemical_formula_sum "Si O2"
_cell_formula_units_Z 48
_cell_length_a 9.011945
_cell_length_b 22.697677
_cell_length_c 11.760072
_cell_angle_alpha 90.000000
_cell_angle_beta 90.000000
_cell_angle_gamma 90.000000
_cell_volume 2405.525277
_symmetry_space_group_name_H-M "I M M 2"
_symmetry_group_IT_number 44
_symmetry_cell_setting 'orthorhombic'
loop_
_space_group_symop_operation_xyz
x,y,z
-x,-y,z
-x,y,z
x,-y,z
1/2+x,1/2+y,1/2+z
1/2-x,1/2-y,1/2+z
1/2-x,1/2+y,1/2+z
1/2+x,1/2-y,1/2+z
loop_
_atom_site_type_symbol
_atom_site_label
_atom_site_fract_x
_atom_site_fract_y
_atom_site_fract_z
Si Si1 0.676143 0.431422 0.146940
Si Si2 0.162878 0.932192 0.053939
Si Si3 0.831165 0.266523 0.518218
Si Si4 0.331869 0.856806 0.215528
Si Si5 0.325921 0.873356 0.859577
Si Si6 0.326850 0.850367 0.476261
O O1 0.500000 0.426349 0.147204
O O2 0.724419 0.500000 0.163058
O O3 0.739317 0.388357 0.244494
O O4 0.740428 0.406385 0.028646
O O5 0.221120 0.906550 0.172156
O O6 0.000000 0.905460 0.023905
O O7 0.146851 0.000000 0.075128
O O8 0.278314 0.921034 0.952966
O O9 0.812581 0.299142 0.638318
O O10 0.785825 0.309047 0.412080
O O11 0.724338 0.210951 0.530862
O O12 0.000000 0.245204 0.501122
O O13 0.500000 0.880374 0.206950
O O14 0.287558 0.843740 0.344180
O O15 0.500000 0.879089 0.836132
O O16 0.500000 0.859489 0.499849
#
# Coordination Sequence:
#
# PCOD8189470 Si02
#       6
#     8   8   8   8   8   8
#     4  11  25  43  62  87 123 167 210 253 306 366
#     4  10  20  34  56  87 119 153 195 242 295 353
#     4   9  20  39  61  88 120 153 193 246 306 365
#     4   9  21  40  58  82 116 153 197 246 297 354
#     4  10  21  38  62  92 122 156 200 250 302 357
#     4  11  24  40  61  89 119 158 203 250 304 363
#
# _framework density 19.954060999999999
#
# number of rings (size 3 to 8) (size 9 to 14) (size 15 to 20)
#    0.000    2.000    0.000    3.500    2.333   10.000 
#    0.000    3.333    0.000    0.000    0.000    0.000 
#    0.000    0.000    0.000    0.000    0.000    0.000 
#
# Total GULP energy -297582.960333 kJ/mol
# GULP energy per Si atom -12399.290014 kJ/mol
# Density = 1.990865 g / cm^3
# Si number density = 19.954061 Si / 1000 Ang^3
#
#
#
# Elastic Constant Matrix: (Units=GPa)
#
#
# Indices 1 2 3 4 5 6 
#
# 1 87.7599 44.0025 36.8878 0.0000 -0.0001 0.0001
# 2 44.0025 82.6010 34.5311 0.0002 -0.0001 0.0000
# 3 36.8878 34.5311 107.4435 -0.0002 -0.0001 0.0001
# 4 0.0000 0.0002 -0.0002 20.5322 0.0002 -0.0001
# 5 -0.0001 -0.0001 -0.0001 0.0002 29.7136 0.0000
# 6 0.0001 0.0000 0.0001 -0.0001 0.0000 33.2811
#
#
#
# Elastic Compliance Matrix: (Units=1/GPa)
#
#
# Indices 1 2 3 4 5 6 
#
# 1 0.016490 -0.007414 -0.003279 0.000000 0.000000 0.000000
# 2 -0.007414 0.017319 -0.003021 0.000000 0.000000 0.000000
# 3 -0.003279 -0.003021 0.011404 0.000000 0.000000 0.000000
# 4 0.000000 0.000000 0.000000 0.048704 0.000000 0.000000
# 5 0.000000 0.000000 0.000000 0.000000 0.033655 0.000000
# 6 0.000000 0.000000 0.000000 0.000000 0.000000 0.030047
#
#
# Mechanical properties :
#
#
# Convention : Reuss Voigt Hill
#
# Bulk Modulus (GPa) = 56.22399 56.51634 56.37017
# Shear Modulus (GPa) = 26.18170 27.53092 26.85631
#
# Velocity S-wave (km/s) = 3.62622 3.71848 3.67264
# Velocity P-wave (km/s) = 6.76539 6.84258 6.80409
#
# Compressibility (1/GPa) = 0.01778600
#
# Stress axis : x y z
#
# Youngs Moduli (GPa) = 60.64246 57.74150 87.69106
#
# Poissons Ratio (x) = 0.42808 0.28751
# Poissons Ratio (y) = 0.44959 0.26488
# Poissons Ratio (z) = 0.19883 0.17442
#
# Static dielectric constant tensor:
#      x y z
#    x 3.841570 0.000000 0.000000 
#    y 0.000000 3.525900 0.000000 
#    z 0.000000 0.000000 3.704190 
# 
# 
# High freq. dielectric constant tensor:
#      x y z
#    x 1.788370 0.000000 0.000000 
#    y 0.000000 1.771370 0.000000 
#    z 0.000000 0.000000 1.780600 
# 
# From -- ./inp_files/11149.got.cif
#   From: 2010.03.12/outbox.cif.g09.slc.cpg/sg44_6_cif.got.tgz:11149.got - 2010.04.14 02:36:11.
