data_PCOD8189638
_publ_section_title
;
Structure prediction by ZEFSAII (Michael W. Deem and Ramdas Pophale) SiO2 
 PCOD8189638
Probable space group: I M M 2
;
_chemical_formula_sum "Si O2"
_cell_formula_units_Z 64
_cell_length_a 26.888139
_cell_length_b 8.773644
_cell_length_c 13.152509
_cell_angle_alpha 90.000000
_cell_angle_beta 90.000000
_cell_angle_gamma 90.000000
_cell_volume 3102.768407
_symmetry_space_group_name_H-M "I M M 2"
_symmetry_group_IT_number 44
_symmetry_cell_setting 'orthorhombic'
loop_
_space_group_symop_operation_xyz
x,y,z
-x,-y,z
-x,y,z
x,-y,z
1/2+x,1/2+y,1/2+z
1/2-x,1/2-y,1/2+z
1/2-x,1/2+y,1/2+z
1/2+x,1/2-y,1/2+z
loop_
_atom_site_type_symbol
_atom_site_label
_atom_site_fract_x
_atom_site_fract_y
_atom_site_fract_z
Si Si1 0.441482 0.825072 0.935740
Si Si2 0.774846 0.325325 0.908892
Si Si3 0.378927 0.181084 0.335635
Si Si4 0.299340 0.672213 0.748129
Si Si5 0.058140 0.176687 0.015869
Si Si6 0.599097 0.178574 0.719137
Si Si7 0.772472 0.820924 0.609168
Si Si8 0.385347 0.677999 0.121025
O O1 0.500000 0.804770 0.934875
O O2 0.421224 0.761403 0.827775
O O3 0.425242 0.000000 0.948198
O O4 0.420759 0.732379 0.030767
O O5 0.790499 0.500000 0.912878
O O6 0.823271 0.247799 0.856311
O O7 0.718719 0.309473 0.863833
O O8 0.765477 0.264233 0.021682
O O9 0.413725 0.231344 0.428419
O O10 0.399195 0.245090 0.228618
O O11 0.380094 0.000000 0.328314
O O12 0.316006 0.500000 0.722047
O O13 0.342087 0.788570 0.716426
O O14 0.246146 0.716840 0.700413
O O15 0.072148 0.235360 0.127939
O O16 0.000000 0.202971 0.999092
O O17 0.072740 0.000000 0.008303
O O18 0.589309 0.000000 0.705619
O O19 0.829477 0.779902 0.587458
O O20 0.766618 0.000000 0.632555
O O21 0.393277 0.500000 0.135817
#
# Coordination Sequence:
#
# PCOD8189638 Si02
#       8
#     8   8   8   8   8   8   8   8
#     4  10  23  43  66  91 121 162 213 266 319 381
#     4   9  19  35  56  83 118 158 199 244 295 357
#     4  11  22  40  65  91 127 171 215 261 313 375
#     4  11  21  36  58  87 122 160 201 245 299 359
#     4  11  25  44  66  94 126 162 210 267 325 383
#     4  11  23  41  65  95 129 164 208 260 319 387
#     4  10  20  36  57  84 120 161 202 247 301 365
#     4  11  23  39  62  92 130 169 209 264 321 375
#
# _framework density 20.626740999999999
#
# number of rings (size 3 to 8) (size 9 to 14) (size 15 to 20)
#    0.000    1.500    1.250    3.750    0.000    5.750 
#    0.000    1.875    0.000    0.000    0.000    0.000 
#    0.000    0.000    0.000    0.000    0.000    0.000 
#
# Total GULP energy -396666.548853 kJ/mol
# GULP energy per Si atom -12395.829652 kJ/mol
# Density = 2.057979 g / cm^3
# Si number density = 20.626741 Si / 1000 Ang^3
#
#
#
# Elastic Constant Matrix: (Units=GPa)
#
#
# Indices 1 2 3 4 5 6 
#
# 1 74.0284 40.0925 12.7178 0.0000 0.0000 0.0000
# 2 40.0925 67.4156 66.8517 0.0000 0.0000 0.0000
# 3 12.7178 66.8517 41.0316 0.0000 0.0000 0.0000
# 4 0.0000 0.0000 0.0000 30.6768 0.0000 0.0000
# 5 0.0000 0.0000 0.0000 0.0000 26.9382 0.0000
# 6 0.0000 0.0000 0.0000 0.0000 0.0000 30.0828
#
#
#
# Elastic Compliance Matrix: (Units=1/GPa)
#
#
# Indices 1 2 3 4 5 6 
#
# 1 0.012638 0.005899 -0.013527 0.000000 0.000000 0.000000
# 2 0.005899 -0.021341 0.032942 0.000000 0.000000 0.000000
# 3 -0.013527 0.032942 -0.025107 0.000000 0.000000 0.000000
# 4 0.000000 0.000000 0.000000 0.032598 0.000000 0.000000
# 5 0.000000 0.000000 0.000000 0.000000 0.037122 0.000000
# 6 0.000000 0.000000 0.000000 0.000000 0.000000 0.033242
#
#
# Mechanical properties :
#
#
# Convention : Reuss Voigt Hill
#
# Bulk Modulus (GPa) = 59.46788 46.86661 53.16724
# Shear Modulus (GPa) = 207.20765 21.72714 114.46740
#
# Velocity S-wave (km/s) = 10.03364 3.24905 7.45756
# Velocity P-wave (km/s) = 12.77204 6.07007 9.99927
#
# Compressibility (1/GPa) = 0.01681580
#
# Stress axis : x y z
#
# Youngs Moduli (GPa) = 79.12811 -46.85830 -39.82941
#
# Poissons Ratio (x) = 0.27640 -0.53879
# Poissons Ratio (y) = -0.46674 1.31206
# Poissons Ratio (z) = 1.07040 1.54360
#
# Static dielectric constant tensor:
#      x y z
#    x 3.749980 0.000000 0.000000 
#    y 0.000000 3.587720 0.000000 
#    z 0.000000 0.000000 5.718200 
# 
# 
# High freq. dielectric constant tensor:
#      x y z
#    x 1.811860 0.000000 0.000000 
#    y 0.000000 1.796000 0.000000 
#    z 0.000000 0.000000 1.823810 
# 
# From -- ./inp_files/15042.got.cif
#   From: 2010.03.12/outbox.cif.g09.slc.cpg/sg44_8_cif.got.tgz:15042.got - 2010.04.14 02:36:11.
