data_PCOD8189057
_publ_section_title
;
Structure prediction by ZEFSAII (Michael W. Deem and Ramdas Pophale) SiO2 
 PCOD8189057
Probable space group: I M M 2
;
_chemical_formula_sum "Si O2"
_cell_formula_units_Z 48
_cell_length_a 18.106913
_cell_length_b 9.345441
_cell_length_c 14.903487
_cell_angle_alpha 90.000000
_cell_angle_beta 90.000000
_cell_angle_gamma 90.000000
_cell_volume 2521.924658
_symmetry_space_group_name_H-M "I M M 2"
_symmetry_group_IT_number 44
_symmetry_cell_setting 'orthorhombic'
loop_
_space_group_symop_operation_xyz
x,y,z
-x,-y,z
-x,y,z
x,-y,z
1/2+x,1/2+y,1/2+z
1/2-x,1/2-y,1/2+z
1/2-x,1/2+y,1/2+z
1/2+x,1/2-y,1/2+z
loop_
_atom_site_type_symbol
_atom_site_label
_atom_site_fract_x
_atom_site_fract_y
_atom_site_fract_z
Si Si1 0.500000 0.663468 0.778780
Si Si2 0.107944 0.839692 0.982804
Si Si3 0.157875 0.834189 0.361573
Si Si4 0.220449 0.330695 0.718913
Si Si5 0.500000 0.169491 0.599123
Si Si6 0.727164 0.165003 0.014929
Si Si7 0.418858 0.338555 0.281047
O O1 0.500000 0.500000 0.742206
O O2 0.427093 0.692306 0.836944
O O3 0.500000 0.777324 0.700083
O O4 0.070222 0.823195 0.887203
O O5 0.095683 0.000000 0.022124
O O6 0.073374 0.727198 0.051205
O O7 0.194003 0.809201 0.969355
O O8 0.212873 0.774958 0.283006
O O9 0.169294 0.753807 0.455896
O O10 0.174661 0.000000 0.377698
O O11 0.217237 0.500000 0.724267
O O12 0.233533 0.279013 0.617054
O O13 0.140964 0.272257 0.746760
O O14 0.500000 0.000000 0.596434
O O15 0.702634 0.000000 0.012608
O O16 0.500000 0.305604 0.238738
O O17 0.393650 0.500000 0.256545
#
# Coordination Sequence:
#
# PCOD8189057 Si02
#       7
#     4   8   8   8   4   8   8
#     4  10  22  42  62  81 116 163 198 233 296 360
#     4  10  19  36  59  81 114 155 190 229 292 363
#     4  10  21  39  63  87 115 154 200 245 287 345
#     4  10  21  37  58  86 117 150 190 238 293 346
#     4  12  24  34  54  91 122 147 190 249 298 342
#     4  10  21  38  61  86 114 154 196 237 294 354
#     4  10  20  36  58  83 110 148 192 232 278 342
#
# _framework density 19.033080999999999
#
# number of rings (size 3 to 8) (size 9 to 14) (size 15 to 20)
#    0.000    1.833    2.500    1.750    0.000    5.667 
#    1.500    1.667    0.000    0.000    0.000    0.000 
#    0.000    0.000    0.000    0.000    0.000    0.000 
#
# Total GULP energy -297591.893247 kJ/mol
# GULP energy per Si atom -12399.662219 kJ/mol
# Density = 1.898976 g / cm^3
# Si number density = 19.033081 Si / 1000 Ang^3
#
#
#
# Elastic Constant Matrix: (Units=GPa)
#
#
# Indices 1 2 3 4 5 6 
#
# 1 116.5776 33.6068 41.8101 0.0000 0.0000 0.0000
# 2 33.6068 68.8686 41.1169 0.0000 0.0000 0.0000
# 3 41.8101 41.1169 93.6399 0.0000 0.0000 0.0000
# 4 0.0000 0.0000 0.0000 34.1080 0.0000 0.0000
# 5 0.0000 0.0000 0.0000 0.0000 19.9569 0.0000
# 6 0.0000 0.0000 0.0000 0.0000 0.0000 29.2415
#
#
#
# Elastic Compliance Matrix: (Units=1/GPa)
#
#
# Indices 1 2 3 4 5 6 
#
# 1 0.010714 -0.003215 -0.003372 0.000000 0.000000 0.000000
# 2 -0.003215 0.020644 -0.007629 0.000000 0.000000 0.000000
# 3 -0.003372 -0.007629 0.015535 0.000000 0.000000 0.000000
# 4 0.000000 0.000000 0.000000 0.029319 0.000000 0.000000
# 5 0.000000 0.000000 0.000000 0.000000 0.050108 0.000000
# 6 0.000000 0.000000 0.000000 0.000000 0.000000 0.034198
#
#
# Mechanical properties :
#
#
# Convention : Reuss Voigt Hill
#
# Bulk Modulus (GPa) = 54.17030 56.90596 55.53813
# Shear Modulus (GPa) = 25.62731 27.49812 26.56271
#
# Velocity S-wave (km/s) = 3.67340 3.80512 3.73984
# Velocity P-wave (km/s) = 6.82017 7.01916 6.92038
#
# Compressibility (1/GPa) = 0.01846030
#
# Stress axis : x y z
#
# Youngs Moduli (GPa) = 93.33388 48.43967 64.37142
#
# Poissons Ratio (x) = 0.15574 0.21707
# Poissons Ratio (y) = 0.30008 0.49111
# Poissons Ratio (z) = 0.31474 0.36956
#
# Static dielectric constant tensor:
#      x y z
#    x 3.562440 0.000000 0.000000 
#    y 0.000000 3.355540 0.000000 
#    z 0.000000 0.000000 3.417270 
# 
# 
# High freq. dielectric constant tensor:
#      x y z
#    x 1.749360 0.000000 0.000000 
#    y 0.000000 1.725450 0.000000 
#    z 0.000000 0.000000 1.733050 
# 
# From -- ./inp_files/16136.got.cif
#   From: 2010.03.12/outbox.cif.g09.slc.cpg/sg44_9_cif.got.tgz:16136.got - 2010.04.14 02:36:11.
