data_PCOD8189984
_publ_section_title
;
Structure prediction by ZEFSAII (Michael W. Deem and Ramdas Pophale) SiO2 
 PCOD8189984
Probable space group: I M M 2
;
_chemical_formula_sum "Si O2"
_cell_formula_units_Z 40
_cell_length_a 8.996757
_cell_length_b 28.183514
_cell_length_c 7.768287
_cell_angle_alpha 90.000000
_cell_angle_beta 90.000000
_cell_angle_gamma 90.000000
_cell_volume 1969.728614
_symmetry_space_group_name_H-M "I M M 2"
_symmetry_group_IT_number 44
_symmetry_cell_setting 'orthorhombic'
loop_
_space_group_symop_operation_xyz
x,y,z
-x,-y,z
-x,y,z
x,-y,z
1/2+x,1/2+y,1/2+z
1/2-x,1/2-y,1/2+z
1/2-x,1/2+y,1/2+z
1/2+x,1/2-y,1/2+z
loop_
_atom_site_type_symbol
_atom_site_label
_atom_site_fract_x
_atom_site_fract_y
_atom_site_fract_z
Si Si1 0.670410 0.800675 0.962020
Si Si2 0.327983 0.106166 0.497216
Si Si3 0.167708 0.707725 0.858477
Si Si4 0.675548 0.607572 0.342174
Si Si5 0.829130 0.555845 0.651944
O O1 0.500000 0.808128 0.906973
O O2 0.716584 0.747870 0.910092
O O3 0.769527 0.838559 0.862503
O O4 0.693365 0.808844 0.163760
O O5 0.500000 0.093736 0.528101
O O6 0.303228 0.162508 0.478292
O O7 0.235118 0.087671 0.660337
O O8 0.269149 0.079173 0.327838
O O9 0.000000 0.727002 0.882981
O O10 0.500000 0.606549 0.341930
O O11 0.733532 0.574053 0.493043
O O12 0.810891 0.500000 0.667902
O O13 0.000000 0.571156 0.621066
#
# Coordination Sequence:
#
# PCOD8189984 Si02
#       5
#     8   8   8   8   8
#     4  11  22  38  59  86 124 167 215 261 308 373
#     4  10  21  41  66  93 127 165 212 264 314 373
#     4  10  21  37  58  88 124 162 209 264 317 371
#     4  12  25  40  62  94 132 169 209 257 318 379
#     4  10  22  44  72  97 123 163 215 266 318 375
#
# _framework density 20.307365000000001
#
# number of rings (size 3 to 8) (size 9 to 14) (size 15 to 20)
#    0.000    1.400    2.000    3.600    0.000    7.600 
#    0.000    2.000    0.000    0.000    0.000    0.000 
#    0.000    0.000    0.000    0.000    0.000    0.000 
#
# Total GULP energy -248129.498342 kJ/mol
# GULP energy per Si atom -12406.474917 kJ/mol
# Density = 2.026114 g / cm^3
# Si number density = 20.307365 Si / 1000 Ang^3
#
#
#
# Elastic Constant Matrix: (Units=GPa)
#
#
# Indices 1 2 3 4 5 6 
#
# 1 115.8672 38.6593 70.9481 0.0013 -0.0025 -0.0009
# 2 38.6593 76.9325 39.5622 0.0018 0.0001 -0.0003
# 3 70.9481 39.5622 145.2994 -0.0038 0.0039 0.0077
# 4 0.0013 0.0018 -0.0038 23.5606 0.0006 0.0004
# 5 -0.0025 0.0001 0.0039 0.0006 25.5997 -0.0026
# 6 -0.0009 -0.0003 0.0077 0.0004 -0.0026 28.3569
#
#
#
# Elastic Compliance Matrix: (Units=1/GPa)
#
#
# Indices 1 2 3 4 5 6 
#
# 1 0.013233 -0.003869 -0.005408 -0.000001 0.000002 0.000002
# 2 -0.003869 0.016246 -0.002534 -0.000001 0.000000 0.000001
# 3 -0.005408 -0.002534 0.010213 0.000002 -0.000002 -0.000003
# 4 -0.000001 -0.000001 0.000002 0.042444 -0.000001 -0.000001
# 5 0.000002 0.000000 -0.000002 -0.000001 0.039063 0.000004
# 6 0.000002 0.000001 -0.000003 -0.000001 0.000004 0.035265
#
#
# Mechanical properties :
#
#
# Convention : Reuss Voigt Hill
#
# Bulk Modulus (GPa) = 62.22960 70.71535 66.47248
# Shear Modulus (GPa) = 26.96263 28.09873 27.53068
#
# Velocity S-wave (km/s) = 3.64775 3.72381 3.68598
# Velocity P-wave (km/s) = 6.96074 7.30665 7.13579
#
# Compressibility (1/GPa) = 0.01606952
#
# Stress axis : x y z
#
# Youngs Moduli (GPa) = 75.56964 61.55482 97.91301
#
# Poissons Ratio (x) = 0.23813 0.52953
# Poissons Ratio (y) = 0.29234 0.24815
# Poissons Ratio (z) = 0.40869 0.15601
#
# Static dielectric constant tensor:
#      x y z
#    x 3.658960 -0.000020 0.000000 
#    y -0.000020 3.616390 -0.000030 
#    z 0.000000 -0.000030 3.852900 
# 
# 
# High freq. dielectric constant tensor:
#      x y z
#    x 1.782220 0.000000 0.000000 
#    y 0.000000 1.789340 0.000000 
#    z 0.000000 0.000000 1.811030 
# 
# From -- ./inp_files/4603.got.cif
#   From: 2010.03.12/outbox.cif.g09.slc.cpg/sg44_3_cif.got.tgz:4603.got - 2010.04.14 02:36:11.
