data_PCOD8189273
_publ_section_title
;
Structure prediction by ZEFSAII (Michael W. Deem and Ramdas Pophale) SiO2 
 PCOD8189273
Probable space group: I M M 2
;
_chemical_formula_sum "Si O2"
_cell_formula_units_Z 64
_cell_length_a 32.479274
_cell_length_b 9.256418
_cell_length_c 11.775536
_cell_angle_alpha 90.000000
_cell_angle_beta 90.000000
_cell_angle_gamma 90.000000
_cell_volume 3540.217591
_symmetry_space_group_name_H-M "I M M 2"
_symmetry_group_IT_number 44
_symmetry_cell_setting 'orthorhombic'
loop_
_space_group_symop_operation_xyz
x,y,z
-x,-y,z
-x,y,z
x,-y,z
1/2+x,1/2+y,1/2+z
1/2-x,1/2-y,1/2+z
1/2-x,1/2+y,1/2+z
1/2+x,1/2-y,1/2+z
loop_
_atom_site_type_symbol
_atom_site_label
_atom_site_fract_x
_atom_site_fract_y
_atom_site_fract_z
Si Si1 0.119725 0.829214 0.305060
Si Si2 0.320426 0.337516 0.220851
Si Si3 0.783706 0.671810 0.924724
Si Si4 0.352867 0.329228 0.552274
Si Si5 0.691316 0.329187 0.968800
Si Si6 0.548243 0.842808 0.175872
Si Si7 0.904283 0.159139 0.842292
Si Si8 0.547360 0.828386 0.924507
O O1 0.131401 0.788858 0.176420
O O2 0.156775 0.767628 0.383167
O O3 0.076970 0.751691 0.335633
O O4 0.113589 0.000000 0.319451
O O5 0.301326 0.500000 0.229499
O O6 0.297031 0.227014 0.301782
O O7 0.368088 0.344242 0.250752
O O8 0.317520 0.272704 0.095054
O O9 0.788881 0.500000 0.933119
O O10 0.736700 0.723180 0.935582
O O11 0.810523 0.745491 0.024737
O O12 0.344238 0.500000 0.536892
O O13 0.387732 0.278054 0.462100
O O14 0.688743 0.500000 0.963855
O O15 0.500000 0.861431 0.176967
O O16 0.559880 0.751739 0.286433
O O17 0.569305 0.000000 0.188290
O O18 0.560059 0.776517 0.052289
O O19 0.922397 0.000000 0.863259
O O20 0.500000 0.785402 0.897317
O O21 0.552877 0.000000 0.913899
#
# Coordination Sequence:
#
# PCOD8189273 Si02
#       8
#     8   8   8   8   8   8   8   8
#     4  10  20  36  57  78 102 138 183 223 258 311
#     4   9  18  34  51  69  98 132 163 203 259 306
#     4  10  20  33  51  76 102 132 174 217 257 307
#     4   9  20  37  54  72 102 142 175 211 264 312
#     4   9  19  33  51  76 104 132 167 218 266 304
#     4   9  18  32  51  76 105 134 163 203 258 313
#     4   9  17  31  51  73  96 128 169 207 249 302
#     4   9  19  36  55  78 111 141 167 212 271 320
#
# _framework density 18.077985000000002
#
# number of rings (size 3 to 8) (size 9 to 14) (size 15 to 20)
#    0.000    2.750    0.000    2.625    1.750    4.500 
#    0.000    4.375    0.000    3.750    0.000    0.000 
#    0.000    0.000    0.000    0.000    0.000    0.000 
#
# Total GULP energy -396671.122291 kJ/mol
# GULP energy per Si atom -12395.972572 kJ/mol
# Density = 1.803684 g / cm^3
# Si number density = 18.077985 Si / 1000 Ang^3
#
#
#
# Elastic Constant Matrix: (Units=GPa)
#
#
# Indices 1 2 3 4 5 6 
#
# 1 83.5852 34.7794 62.8970 0.0000 0.0000 0.0000
# 2 34.7794 50.2259 37.0687 0.0000 0.0000 0.0000
# 3 62.8970 37.0687 139.0154 0.0000 0.0000 0.0000
# 4 0.0000 0.0000 0.0000 20.0672 0.0000 0.0000
# 5 0.0000 0.0000 0.0000 0.0000 25.6742 0.0000
# 6 0.0000 0.0000 0.0000 0.0000 0.0000 26.5469
#
#
#
# Elastic Compliance Matrix: (Units=1/GPa)
#
#
# Indices 1 2 3 4 5 6 
#
# 1 0.021236 -0.009480 -0.007081 0.000000 0.000000 0.000000
# 2 -0.009480 0.029020 -0.003449 0.000000 0.000000 0.000000
# 3 -0.007081 -0.003449 0.011317 0.000000 0.000000 0.000000
# 4 0.000000 0.000000 0.000000 0.049833 0.000000 0.000000
# 5 0.000000 0.000000 0.000000 0.000000 0.038950 0.000000
# 6 0.000000 0.000000 0.000000 0.000000 0.000000 0.037669
#
#
# Mechanical properties :
#
#
# Convention : Reuss Voigt Hill
#
# Bulk Modulus (GPa) = 46.39440 60.25742 53.32591
# Shear Modulus (GPa) = 21.25599 23.66308 22.45953
#
# Velocity S-wave (km/s) = 3.43271 3.62186 3.52855
# Velocity P-wave (km/s) = 6.43665 7.13406 6.79431
#
# Compressibility (1/GPa) = 0.02155433
#
# Stress axis : x y z
#
# Youngs Moduli (GPa) = 47.08927 34.45905 88.36461
#
# Poissons Ratio (x) = 0.32666 0.62567
# Poissons Ratio (y) = 0.44639 0.30479
# Poissons Ratio (z) = 0.33342 0.11886
#
# Static dielectric constant tensor:
#      x y z
#    x 3.247090 0.000000 0.000000 
#    y 0.000000 3.219080 0.000000 
#    z 0.000000 0.000000 3.433040 
# 
# 
# High freq. dielectric constant tensor:
#      x y z
#    x 1.693490 0.000000 0.000000 
#    y 0.000000 1.682830 0.000000 
#    z 0.000000 0.000000 1.704400 
# 
# From -- ./inp_files/15065.got.cif
#   From: 2010.03.12/outbox.cif.g09.slc.cpg/sg44_8_cif.got.tgz:15065.got - 2010.04.14 02:36:11.
