data_PCOD8189597
_publ_section_title
;
Structure prediction by ZEFSAII (Michael W. Deem and Ramdas Pophale) SiO2 
 PCOD8189597
Probable space group: I M M 2
;
_chemical_formula_sum "Si O2"
_cell_formula_units_Z 64
_cell_length_a 9.030893
_cell_length_b 17.895534
_cell_length_c 19.089286
_cell_angle_alpha 90.000000
_cell_angle_beta 90.000000
_cell_angle_gamma 90.000000
_cell_volume 3085.070149
_symmetry_space_group_name_H-M "I M M 2"
_symmetry_group_IT_number 44
_symmetry_cell_setting 'orthorhombic'
loop_
_space_group_symop_operation_xyz
x,y,z
-x,-y,z
-x,y,z
x,-y,z
1/2+x,1/2+y,1/2+z
1/2-x,1/2-y,1/2+z
1/2-x,1/2+y,1/2+z
1/2+x,1/2-y,1/2+z
loop_
_atom_site_type_symbol
_atom_site_label
_atom_site_fract_x
_atom_site_fract_y
_atom_site_fract_z
Si Si1 0.669405 0.175017 0.234170
Si Si2 0.675616 0.587651 0.855543
Si Si3 0.169625 0.335611 0.985810
Si Si4 0.169081 0.581067 0.121260
Si Si5 0.336061 0.413032 0.369419
Si Si6 0.665509 0.911665 0.000365
Si Si7 0.174031 0.800564 0.086688
Si Si8 0.166203 0.161905 0.734045
O O1 0.500000 0.146434 0.224791
O O2 0.758148 0.115037 0.280795
O O3 0.739815 0.197071 0.159695
O O4 0.674890 0.256467 0.270198
O O5 0.500000 0.596718 0.852435
O O6 0.719213 0.500000 0.866486
O O7 0.736126 0.641671 0.917272
O O8 0.184111 0.405091 0.038565
O O9 0.226017 0.262775 0.030000
O O10 0.000000 0.323372 0.961491
O O11 0.242220 0.500000 0.137551
O O12 0.239734 0.649622 0.163779
O O13 0.000000 0.580024 0.144002
O O14 0.500000 0.376063 0.379923
O O15 0.351912 0.500000 0.379976
O O16 0.217471 0.382059 0.424458
O O17 0.274418 0.395265 0.292492
O O18 0.500000 0.880920 0.014451
O O19 0.784675 0.880811 0.054928
O O20 0.667929 0.000000 0.006627
O O21 0.000000 0.792410 0.101381
O O22 0.000000 0.142439 0.711544
#
# Coordination Sequence:
#
# PCOD8189597 Si02
#       8
#     8   8   8   8   8   8   8   8
#     4  11  24  42  65  93 126 164 208 257 312 372
#     4  11  26  46  68  96 129 168 216 269 324 382
#     4  10  22  41  65  93 127 166 209 260 318 380
#     4  10  20  35  58  88 123 163 204 248 304 370
#     4   9  18  34  55  81 117 158 198 241 290 351
#     4  10  22  39  59  87 121 157 200 251 309 370
#     4  11  23  41  66  93 124 164 210 260 318 379
#     4  10  21  36  56  85 121 160 203 249 300 362
#
# _framework density 20.745069999999998
#
# number of rings (size 3 to 8) (size 9 to 14) (size 15 to 20)
#    0.000    1.750    1.250    2.250    1.750    6.000 
#    0.000    1.250    0.000    0.000    0.000    0.000 
#    0.000    0.000    0.000    0.000    0.000    0.000 
#
# Total GULP energy -396526.390913 kJ/mol
# GULP energy per Si atom -12391.449716 kJ/mol
# Density = 2.069785 g / cm^3
# Si number density = 20.745070 Si / 1000 Ang^3
#
#
#
# Elastic Constant Matrix: (Units=GPa)
#
#
# Indices 1 2 3 4 5 6 
#
# 1 93.7708 47.8397 52.3450 0.0000 0.0000 0.0000
# 2 47.8397 62.0782 49.6608 0.0000 0.0000 0.0000
# 3 52.3450 49.6608 102.4652 0.0000 0.0000 0.0000
# 4 0.0000 0.0000 0.0000 31.0200 0.0000 0.0000
# 5 0.0000 0.0000 0.0000 0.0000 37.3767 0.0000
# 6 0.0000 0.0000 0.0000 0.0000 0.0000 27.7236
#
#
#
# Elastic Compliance Matrix: (Units=1/GPa)
#
#
# Indices 1 2 3 4 5 6 
#
# 1 0.018606 -0.010999 -0.004174 0.000000 0.000000 0.000000
# 2 -0.010999 0.032812 -0.010283 0.000000 0.000000 0.000000
# 3 -0.004174 -0.010283 0.016876 0.000000 0.000000 0.000000
# 4 0.000000 0.000000 0.000000 0.032237 0.000000 0.000000
# 5 0.000000 0.000000 0.000000 0.000000 0.026755 0.000000
# 6 0.000000 0.000000 0.000000 0.000000 0.000000 0.036070
#
#
# Mechanical properties :
#
#
# Convention : Reuss Voigt Hill
#
# Bulk Modulus (GPa) = 57.53825 62.00058 59.76941
# Shear Modulus (GPa) = 22.72084 26.45529 24.58807
#
# Velocity S-wave (km/s) = 3.31303 3.57495 3.44648
# Velocity P-wave (km/s) = 6.51391 6.85508 6.68667
#
# Compressibility (1/GPa) = 0.01737974
#
# Stress axis : x y z
#
# Youngs Moduli (GPa) = 53.74635 30.47702 59.25677
#
# Poissons Ratio (x) = 0.33523 0.24734
# Poissons Ratio (y) = 0.59117 0.60936
# Poissons Ratio (z) = 0.22434 0.31341
#
# Static dielectric constant tensor:
#      x y z
#    x 3.833360 0.000000 0.000000 
#    y 0.000000 3.906390 0.000000 
#    z 0.000000 0.000000 3.716290 
# 
# 
# High freq. dielectric constant tensor:
#      x y z
#    x 1.806560 0.000000 0.000000 
#    y 0.000000 1.814790 0.000000 
#    z 0.000000 0.000000 1.812580 
# 
# From -- ./inp_files/23321.got.cif
#   From: 2010.03.12/outbox.cif.g09.slc.cpg/sg44_12_cif.got.tgz:23321.got - 2010.04.14 02:36:11.
