data_PCOD8189500
_publ_section_title
;
Structure prediction by ZEFSAII (Michael W. Deem and Ramdas Pophale) SiO2 
 PCOD8189500
Probable space group: I M M 2
;
_chemical_formula_sum "Si O2"
_cell_formula_units_Z 64
_cell_length_a 32.624678
_cell_length_b 8.990204
_cell_length_c 11.664489
_cell_angle_alpha 90.000000
_cell_angle_beta 90.000000
_cell_angle_gamma 90.000000
_cell_volume 3421.223909
_symmetry_space_group_name_H-M "I M M 2"
_symmetry_group_IT_number 44
_symmetry_cell_setting 'orthorhombic'
loop_
_space_group_symop_operation_xyz
x,y,z
-x,-y,z
-x,y,z
x,-y,z
1/2+x,1/2+y,1/2+z
1/2-x,1/2-y,1/2+z
1/2-x,1/2+y,1/2+z
1/2+x,1/2-y,1/2+z
loop_
_atom_site_type_symbol
_atom_site_label
_atom_site_fract_x
_atom_site_fract_y
_atom_site_fract_z
Si Si1 0.953029 0.175746 0.842890
Si Si2 0.689050 0.176474 0.263527
Si Si3 0.545825 0.323370 0.086317
Si Si4 0.877188 0.675512 0.951336
Si Si5 0.854317 0.326036 0.203357
Si Si6 0.687352 0.665974 0.033890
Si Si7 0.604989 0.335721 0.896464
Si Si8 0.272467 0.824042 0.836176
O O1 0.942861 0.233668 0.713884
O O2 0.921605 0.252743 0.929720
O O3 0.000000 0.218252 0.874881
O O4 0.947158 0.000000 0.850767
O O5 0.655722 0.227345 0.356907
O O6 0.673549 0.234760 0.141287
O O7 0.731765 0.257831 0.282886
O O8 0.695310 0.000000 0.263540
O O9 0.500000 0.274389 0.055274
O O10 0.550677 0.500000 0.087290
O O11 0.574838 0.254723 0.987690
O O12 0.882980 0.500000 0.948832
O O13 0.859839 0.731216 0.073554
O O14 0.860439 0.500000 0.210429
O O15 0.890822 0.257406 0.280112
O O16 0.809428 0.281098 0.249747
O O17 0.702771 0.500000 0.070282
O O18 0.648840 0.650009 0.953131
O O19 0.722362 0.750154 0.961465
O O20 0.588291 0.500000 0.864699
O O21 0.268933 0.000000 0.852108
#
# Coordination Sequence:
#
# PCOD8189500 Si02
#       8
#     8   8   8   8   8   8   8   8
#     4   9  18  34  57  84 112 142 180 228 276 326
#     4  11  23  36  54  81 110 140 182 230 274 330
#     4   8  14  27  50  79 109 136 165 211 270 321
#     4  10  22  38  55  78 110 149 185 225 274 330
#     4   9  20  38  55  72 103 145 181 218 271 326
#     4  10  20  35  54  76 105 138 175 221 272 326
#     4   9  17  31  53  78 101 133 175 217 261 314
#     4  10  21  37  57  79 104 140 182 227 282 332
#
# _framework density 18.706757
#
# number of rings (size 3 to 8) (size 9 to 14) (size 15 to 20)
#    0.000    2.500    0.000    2.625    1.750    3.750 
#    0.000    1.250    0.000    3.375    0.000    0.000 
#    0.000    0.000    0.000    0.000    0.000    0.000 
#
# Total GULP energy -396719.009038 kJ/mol
# GULP energy per Si atom -12397.469032 kJ/mol
# Density = 1.866418 g / cm^3
# Si number density = 18.706757 Si / 1000 Ang^3
#
#
#
# Elastic Constant Matrix: (Units=GPa)
#
#
# Indices 1 2 3 4 5 6 
#
# 1 84.9678 37.0193 48.0242 0.0000 0.0000 0.0000
# 2 37.0193 47.8680 34.9881 0.0000 0.0000 0.0000
# 3 48.0242 34.9881 121.4080 0.0000 0.0000 0.0000
# 4 0.0000 0.0000 0.0000 31.2776 0.0000 0.0000
# 5 0.0000 0.0000 0.0000 0.0000 22.6239 0.0000
# 6 0.0000 0.0000 0.0000 0.0000 0.0000 25.8316
#
#
#
# Elastic Compliance Matrix: (Units=1/GPa)
#
#
# Indices 1 2 3 4 5 6 
#
# 1 0.019323 -0.011854 -0.004227 0.000000 0.000000 0.000000
# 2 -0.011854 0.033737 -0.005034 0.000000 0.000000 0.000000
# 3 -0.004227 -0.005034 0.011360 0.000000 0.000000 0.000000
# 4 0.000000 0.000000 0.000000 0.031972 0.000000 0.000000
# 5 0.000000 0.000000 0.000000 0.000000 0.044201 0.000000
# 6 0.000000 0.000000 0.000000 0.000000 0.000000 0.038712
#
#
# Mechanical properties :
#
#
# Convention : Reuss Voigt Hill
#
# Bulk Modulus (GPa) = 45.06504 54.92302 49.99403
# Shear Modulus (GPa) = 21.84057 24.89408 23.36733
#
# Velocity S-wave (km/s) = 3.42061 3.65191 3.53815
# Velocity P-wave (km/s) = 6.30423 6.87064 6.59352
#
# Compressibility (1/GPa) = 0.02219015
#
# Stress axis : x y z
#
# Youngs Moduli (GPa) = 51.75174 29.64063 88.03203
#
# Poissons Ratio (x) = 0.35136 0.37214
# Poissons Ratio (y) = 0.61346 0.44313
# Poissons Ratio (z) = 0.21877 0.14920
#
# Static dielectric constant tensor:
#      x y z
#    x 3.415630 0.000000 0.000000 
#    y 0.000000 3.451880 0.000000 
#    z 0.000000 0.000000 3.677410 
# 
# 
# High freq. dielectric constant tensor:
#      x y z
#    x 1.720640 0.000000 0.000000 
#    y 0.000000 1.712200 0.000000 
#    z 0.000000 0.000000 1.728370 
# 
# From -- ./inp_files/15115.got.cif
#   From: 2010.03.12/outbox.cif.g09.slc.cpg/sg44_8_cif.got.tgz:15115.got - 2010.04.14 02:36:11.
