data_PCOD8189459
_publ_section_title
;
Structure prediction by ZEFSAII (Michael W. Deem and Ramdas Pophale) SiO2 
 PCOD8189459
Probable space group: I M M 2
;
_chemical_formula_sum "Si O2"
_cell_formula_units_Z 64
_cell_length_a 8.815947
_cell_length_b 28.684011
_cell_length_c 13.252169
_cell_angle_alpha 90.000000
_cell_angle_beta 90.000000
_cell_angle_gamma 90.000000
_cell_volume 3351.165039
_symmetry_space_group_name_H-M "I M M 2"
_symmetry_group_IT_number 44
_symmetry_cell_setting 'orthorhombic'
loop_
_space_group_symop_operation_xyz
x,y,z
-x,-y,z
-x,y,z
x,-y,z
1/2+x,1/2+y,1/2+z
1/2-x,1/2-y,1/2+z
1/2-x,1/2+y,1/2+z
1/2+x,1/2-y,1/2+z
loop_
_atom_site_type_symbol
_atom_site_label
_atom_site_fract_x
_atom_site_fract_y
_atom_site_fract_z
Si Si1 0.164446 0.294676 0.041050
Si Si2 0.676991 0.945975 0.935415
Si Si3 0.319499 0.111678 0.321231
Si Si4 0.825367 0.944947 0.143053
Si Si5 0.173832 0.787579 0.732351
Si Si6 0.335091 0.098392 0.546233
Si Si7 0.324704 0.708515 0.844117
Si Si8 0.674546 0.397031 0.246482
O O1 0.224482 0.268717 0.139782
O O2 0.000000 0.273562 0.006215
O O3 0.137213 0.347900 0.068702
O O4 0.302418 0.293364 0.963326
O O5 0.500000 0.937260 0.952246
O O6 0.729694 0.919152 0.836310
O O7 0.715386 0.000000 0.919146
O O8 0.762349 0.926967 0.035426
O O9 0.500000 0.118287 0.323308
O O10 0.270016 0.076120 0.235122
O O11 0.266686 0.092220 0.432176
O O12 0.245536 0.161749 0.295245
O O13 0.000000 0.929702 0.152883
O O14 0.804711 0.000000 0.150564
O O15 0.230932 0.755219 0.821781
O O16 0.199495 0.841747 0.756158
O O17 0.000000 0.777686 0.707688
O O18 0.500000 0.072835 0.553335
O O19 0.225906 0.081388 0.637429
O O20 0.500000 0.712571 0.814316
O O21 0.500000 0.410699 0.260367
#
# Coordination Sequence:
#
# PCOD8189459 Si02
#       8
#     8   8   8   8   8   8   8   8
#     4   9  17  32  52  73 100 137 178 218 266 324
#     4  10  21  38  60  83 110 147 188 230 280 338
#     4  10  20  36  58  83 111 145 187 231 277 333
#     4  10  21  38  60  85 114 147 185 231 284 340
#     4  10  20  35  53  77 108 142 182 226 274 329
#     4   8  16  31  53  78 106 141 176 215 265 323
#     4  11  21  34  53  78 108 144 183 226 276 328
#     4  10  20  34  56  83 110 142 182 230 279 331
#
# _framework density 19.097836000000001
#
# number of rings (size 3 to 8) (size 9 to 14) (size 15 to 20)
#    0.000    2.250    0.000    4.125    0.000    6.500 
#    2.250    0.625    0.000    0.750    0.000    0.000 
#    0.000    0.000    0.000    0.000    0.000    0.000 
#
# Total GULP energy -396553.564344 kJ/mol
# GULP energy per Si atom -12392.298886 kJ/mol
# Density = 1.905437 g / cm^3
# Si number density = 19.097836 Si / 1000 Ang^3
#
#
#
# Elastic Constant Matrix: (Units=GPa)
#
#
# Indices 1 2 3 4 5 6 
#
# 1 95.5371 34.7467 45.6487 0.0002 0.0000 0.0000
# 2 34.7467 39.7021 32.3790 0.0003 0.0000 0.0000
# 3 45.6487 32.3790 112.6716 0.0020 -0.0002 0.0001
# 4 0.0002 0.0003 0.0020 14.1701 -0.0001 0.0000
# 5 0.0000 0.0000 -0.0002 -0.0001 34.7349 0.0000
# 6 0.0000 0.0000 0.0001 0.0000 0.0000 26.5240
#
#
#
# Elastic Compliance Matrix: (Units=1/GPa)
#
#
# Indices 1 2 3 4 5 6 
#
# 1 0.016220 -0.011541 -0.003255 0.000000 0.000000 0.000000
# 2 -0.011541 0.041109 -0.007138 0.000000 0.000000 0.000000
# 3 -0.003255 -0.007138 0.012245 -0.000002 0.000000 0.000000
# 4 0.000000 0.000000 -0.000002 0.070571 0.000000 0.000000
# 5 0.000000 0.000000 0.000000 0.000000 0.028789 0.000000
# 6 0.000000 0.000000 0.000000 0.000000 0.000000 0.037702
#
#
# Mechanical properties :
#
#
# Convention : Reuss Voigt Hill
#
# Bulk Modulus (GPa) = 38.89987 52.60663 45.75325
# Shear Modulus (GPa) = 19.29955 24.09488 21.69722
#
# Velocity S-wave (km/s) = 3.18238 3.55583 3.37428
# Velocity P-wave (km/s) = 5.82378 6.66815 6.26022
#
# Compressibility (1/GPa) = 0.02570703
#
# Stress axis : x y z
#
# Youngs Moduli (GPa) = 61.65344 24.32535 81.66360
#
# Poissons Ratio (x) = 0.28073 0.26580
# Poissons Ratio (y) = 0.71153 0.58292
# Poissons Ratio (z) = 0.20067 0.17364
#
# Static dielectric constant tensor:
#      x y z
#    x 3.772950 0.000000 0.000000 
#    y 0.000000 3.226450 0.000000 
#    z 0.000000 0.000000 3.564070 
# 
# 
# High freq. dielectric constant tensor:
#      x y z
#    x 1.757190 0.000000 0.000000 
#    y 0.000000 1.707820 0.000000 
#    z 0.000000 0.000000 1.749910 
# 
# From -- ./inp_files/11419.got.cif
#   From: 2010.03.12/outbox.cif.g09.slc.cpg/sg44_6_cif.got.tgz:11419.got - 2010.04.14 02:36:11.
