data_PCOD8189302
_publ_section_title
;
Structure prediction by ZEFSAII (Michael W. Deem and Ramdas Pophale) SiO2 
 PCOD8189302
Probable space group: I M M 2
;
_chemical_formula_sum "Si O2"
_cell_formula_units_Z 56
_cell_length_a 23.408945
_cell_length_b 8.928136
_cell_length_c 13.705099
_cell_angle_alpha 90.000000
_cell_angle_beta 90.000000
_cell_angle_gamma 90.000000
_cell_volume 2864.341633
_symmetry_space_group_name_H-M "I M M 2"
_symmetry_group_IT_number 44
_symmetry_cell_setting 'orthorhombic'
loop_
_space_group_symop_operation_xyz
x,y,z
-x,-y,z
-x,y,z
x,-y,z
1/2+x,1/2+y,1/2+z
1/2-x,1/2-y,1/2+z
1/2-x,1/2+y,1/2+z
1/2+x,1/2-y,1/2+z
loop_
_atom_site_type_symbol
_atom_site_label
_atom_site_fract_x
_atom_site_fract_y
_atom_site_fract_z
Si Si1 0.936504 0.328510 0.669540
Si Si2 0.329138 0.674859 0.849794
Si Si3 0.826216 0.675501 0.554937
Si Si4 0.434942 0.176116 0.525164
Si Si5 0.732395 0.675621 0.232244
Si Si6 0.117851 0.826447 0.844886
Si Si7 0.564445 0.327582 0.724493
O O1 0.928849 0.500000 0.702764
O O2 0.891613 0.288239 0.584852
O O3 0.927420 0.228936 0.765032
O O4 0.000000 0.297913 0.628175
O O5 0.318859 0.500000 0.870011
O O6 0.316318 0.768555 0.946208
O O7 0.287296 0.732239 0.765601
O O8 0.393824 0.706596 0.814839
O O9 0.812236 0.500000 0.561107
O O10 0.783762 0.764843 0.625419
O O11 0.500000 0.227561 0.502944
O O12 0.391686 0.244460 0.446952
O O13 0.416331 0.230125 0.632026
O O14 0.428894 0.000000 0.521079
O O15 0.746185 0.500000 0.225831
O O16 0.681606 0.708912 0.308385
O O17 0.107495 0.000000 0.861697
O O18 0.500000 0.286300 0.757671
O O19 0.568970 0.500000 0.692599
#
# Coordination Sequence:
#
# PCOD8189302 Si02
#       7
#     8   8   8   8   8   8   8
#     4   9  18  33  53  79 112 148 185 226 272 322
#     4  11  23  39  61  86 111 143 182 223 273 329
#     4  10  21  38  59  83 113 147 184 226 272 324
#     4  10  20  33  52  80 112 146 184 226 273 325
#     4  10  22  40  59  81 111 145 185 231 276 324
#     4  10  20  33  52  79 110 146 186 227 273 325
#     4   9  20  39  59  80 109 143 180 224 271 322
#
# _framework density 19.550740000000001
#
# number of rings (size 3 to 8) (size 9 to 14) (size 15 to 20)
#    0.000    2.143    0.000    2.571    0.000    8.000 
#    0.000    1.429    0.000    0.000    0.000    0.000 
#    0.000    0.000    0.000    0.000    0.000    0.000 
#
# Total GULP energy -347308.876197 kJ/mol
# GULP energy per Si atom -12403.888436 kJ/mol
# Density = 1.950624 g / cm^3
# Si number density = 19.550740 Si / 1000 Ang^3
#
#
#
# Elastic Constant Matrix: (Units=GPa)
#
#
# Indices 1 2 3 4 5 6 
#
# 1 80.1513 23.3410 33.1158 0.0000 0.0000 0.0000
# 2 23.3410 65.3024 29.1101 0.0000 0.0000 0.0000
# 3 33.1158 29.1101 93.9793 0.0000 0.0000 0.0000
# 4 0.0000 0.0000 0.0000 36.1107 0.0000 0.0000
# 5 0.0000 0.0000 0.0000 0.0000 23.3087 0.0000
# 6 0.0000 0.0000 0.0000 0.0000 0.0000 27.4776
#
#
#
# Elastic Compliance Matrix: (Units=1/GPa)
#
#
# Indices 1 2 3 4 5 6 
#
# 1 0.015281 -0.003552 -0.004284 0.000000 0.000000 0.000000
# 2 -0.003552 0.018592 -0.004507 0.000000 0.000000 0.000000
# 3 -0.004284 -0.004507 0.013546 0.000000 0.000000 0.000000
# 4 0.000000 0.000000 0.000000 0.027693 0.000000 0.000000
# 5 0.000000 0.000000 0.000000 0.000000 0.042902 0.000000
# 6 0.000000 0.000000 0.000000 0.000000 0.000000 0.036393
#
#
# Mechanical properties :
#
#
# Convention : Reuss Voigt Hill
#
# Bulk Modulus (GPa) = 43.99030 45.61853 44.80442
# Shear Modulus (GPa) = 26.78484 27.63714 27.21099
#
# Velocity S-wave (km/s) = 3.70539 3.76388 3.73475
# Velocity P-wave (km/s) = 6.39187 6.50178 6.44706
#
# Compressibility (1/GPa) = 0.02273228
#
# Stress axis : x y z
#
# Youngs Moduli (GPa) = 65.44098 53.78595 73.81985
#
# Poissons Ratio (x) = 0.19105 0.31627
# Poissons Ratio (y) = 0.23245 0.33273
# Poissons Ratio (z) = 0.28037 0.24243
#
# Static dielectric constant tensor:
#      x y z
#    x 3.665070 0.000000 0.000000 
#    y 0.000000 3.626630 0.000000 
#    z 0.000000 0.000000 3.386100 
# 
# 
# High freq. dielectric constant tensor:
#      x y z
#    x 1.761570 0.000000 0.000000 
#    y 0.000000 1.770650 0.000000 
#    z 0.000000 0.000000 1.753840 
# 
# From -- ./inp_files/19196.got.cif
#   From: 2010.03.12/outbox.cif.g09.slc.cpg/sg44_10_cif.got.tgz:19196.got - 2010.04.14 02:36:11.
