data_PCOD8189276
_publ_section_title
;
Structure prediction by ZEFSAII (Michael W. Deem and Ramdas Pophale) SiO2 
 PCOD8189276
Probable space group: I M M 2
;
_chemical_formula_sum "Si O2"
_cell_formula_units_Z 64
_cell_length_a 15.311008
_cell_length_b 14.477549
_cell_length_c 15.167679
_cell_angle_alpha 90.000000
_cell_angle_beta 90.000000
_cell_angle_gamma 90.000000
_cell_volume 3362.156740
_symmetry_space_group_name_H-M "I M M 2"
_symmetry_group_IT_number 44
_symmetry_cell_setting 'orthorhombic'
loop_
_space_group_symop_operation_xyz
x,y,z
-x,-y,z
-x,y,z
x,-y,z
1/2+x,1/2+y,1/2+z
1/2-x,1/2-y,1/2+z
1/2-x,1/2+y,1/2+z
1/2+x,1/2-y,1/2+z
loop_
_atom_site_type_symbol
_atom_site_label
_atom_site_fract_x
_atom_site_fract_y
_atom_site_fract_z
Si Si1 0.401456 0.896807 0.357430
Si Si2 0.221657 0.706099 0.182136
Si Si3 0.133257 0.102443 0.915108
Si Si4 0.094306 0.390224 0.526610
Si Si5 0.787175 0.395194 0.685589
Si Si6 0.399242 0.777489 0.518660
Si Si7 0.097945 0.891114 0.718986
Si Si8 0.672833 0.896679 0.852997
O O1 0.500000 0.869108 0.335437
O O2 0.352292 0.887835 0.266265
O O3 0.363539 0.829489 0.431736
O O4 0.394198 0.000000 0.395408
O O5 0.214811 0.816673 0.199650
O O6 0.164451 0.686860 0.095551
O O7 0.322164 0.666793 0.173731
O O8 0.171863 0.662114 0.264501
O O9 0.091786 0.135340 0.822283
O O10 0.236047 0.101250 0.903442
O O11 0.099222 0.000000 0.939964
O O12 0.106783 0.168630 0.996226
O O13 0.096784 0.500000 0.522680
O O14 0.165511 0.358982 0.597203
O O15 0.109917 0.352186 0.427319
O O16 0.000000 0.354147 0.558294
O O17 0.749352 0.500000 0.676812
O O18 0.500000 0.803501 0.541207
O O19 0.000000 0.870287 0.678962
O O20 0.121093 0.000000 0.708900
O O21 0.644222 0.000000 0.825963
#
# Coordination Sequence:
#
# PCOD8189276 Si02
#       8
#     8   8   8   8   8   8   8   8
#     4   9  18  33  52  74 102 134 166 206 258 313
#     4  11  22  34  51  74 107 146 179 211 252 302
#     4   9  17  32  54  77 101 129 166 220 281 324
#     4   9  17  30  50  76 103 129 161 208 266 321
#     4  10  20  33  51  76 104 133 169 216 269 318
#     4  11  23  35  49  74 107 144 183 214 246 301
#     4   9  18  34  58  85 107 129 164 215 274 324
#     4   9  18  33  53  76 101 131 168 212 263 315
#
# _framework density 19.035399000000002
#
# number of rings (size 3 to 8) (size 9 to 14) (size 15 to 20)
#    0.000    2.375    0.000    4.125    0.000    7.250 
#    0.000    0.000    0.000    0.000    0.000    0.000 
#    0.000    2.000    0.000    0.000    0.000    0.125 
#
# Total GULP energy -396503.210195 kJ/mol
# GULP energy per Si atom -12390.725319 kJ/mol
# Density = 1.899207 g / cm^3
# Si number density = 19.035399 Si / 1000 Ang^3
#
#
#
# Elastic Constant Matrix: (Units=GPa)
#
#
# Indices 1 2 3 4 5 6 
#
# 1 48.5742 19.4613 29.7043 0.0000 0.0000 0.0000
# 2 19.4613 81.5138 45.4850 0.0000 0.0000 0.0000
# 3 29.7043 45.4850 105.6898 0.0000 0.0000 0.0000
# 4 0.0000 0.0000 0.0000 25.8302 0.0000 0.0000
# 5 0.0000 0.0000 0.0000 0.0000 -21.7816 0.0000
# 6 0.0000 0.0000 0.0000 0.0000 0.0000 -7.3745
#
#
#
# Elastic Compliance Matrix: (Units=1/GPa)
#
#
# Indices 1 2 3 4 5 6 
#
# 1 0.025313 -0.002729 -0.005940 0.000000 0.000000 0.000000
# 2 -0.002729 0.016439 -0.006308 0.000000 0.000000 0.000000
# 3 -0.005940 -0.006308 0.013846 0.000000 0.000000 0.000000
# 4 0.000000 0.000000 0.000000 0.038714 0.000000 0.000000
# 5 0.000000 0.000000 0.000000 0.000000 -0.045910 0.000000
# 6 0.000000 0.000000 0.000000 0.000000 0.000000 -0.135603
#
#
# Mechanical properties :
#
#
# Convention : Reuss Voigt Hill
#
# Bulk Modulus (GPa) = 38.99475 47.23101 43.11288
# Shear Modulus (GPa) = -102.66932 8.74331 -46.96301
#
# Velocity S-wave (km/s) = -7.35208 2.14550 -4.97242
# Velocity P-wave (km/s) = 7.17920 5.56809 3.20448
#
# Compressibility (1/GPa) = 0.02564448
#
# Stress axis : x y z
#
# Youngs Moduli (GPa) = 39.50586 60.83024 72.22465
#
# Poissons Ratio (x) = 0.16600 0.42899
# Poissons Ratio (y) = 0.10781 0.45558
# Poissons Ratio (z) = 0.23465 0.38371
#
# Static dielectric constant tensor:
#      x y z
#    x 3.567290 0.000000 0.000000 
#    y 0.000000 3.634680 0.000000 
#    z 0.000000 0.000000 3.456710 
# 
# 
# High freq. dielectric constant tensor:
#      x y z
#    x 1.720580 0.000000 0.000000 
#    y 0.000000 1.735980 0.000000 
#    z 0.000000 0.000000 1.726090 
# 
# From -- ./inp_files/19022.got.cif
#   From: 2010.03.12/outbox.cif.g09.slc.cpg/sg44_10_cif.got.tgz:19022.got - 2010.04.14 02:36:11.
