data_PCOD8189192
_publ_section_title
;
Structure prediction by ZEFSAII (Michael W. Deem and Ramdas Pophale) SiO2 
 PCOD8189192
Probable space group: I M M 2
;
_chemical_formula_sum "Si O2"
_cell_formula_units_Z 64
_cell_length_a 9.211706
_cell_length_b 15.309244
_cell_length_c 23.238931
_cell_angle_alpha 90.000000
_cell_angle_beta 90.000000
_cell_angle_gamma 90.000000
_cell_volume 3277.252927
_symmetry_space_group_name_H-M "I M M 2"
_symmetry_group_IT_number 44
_symmetry_cell_setting 'orthorhombic'
loop_
_space_group_symop_operation_xyz
x,y,z
-x,-y,z
-x,y,z
x,-y,z
1/2+x,1/2+y,1/2+z
1/2-x,1/2-y,1/2+z
1/2-x,1/2+y,1/2+z
1/2+x,1/2-y,1/2+z
loop_
_atom_site_type_symbol
_atom_site_label
_atom_site_fract_x
_atom_site_fract_y
_atom_site_fract_z
Si Si1 0.169865 0.100922 0.467150
Si Si2 0.330626 0.240554 0.545622
Si Si3 0.662992 0.902990 0.229681
Si Si4 0.157924 0.099310 0.884131
Si Si5 0.329068 0.102336 0.994034
Si Si6 0.338094 0.168905 0.789820
Si Si7 0.836592 0.141040 0.338623
Si Si8 0.666523 0.744987 0.675335
O O1 0.259710 0.163178 0.509280
O O2 0.222635 0.119571 0.402166
O O3 0.000000 0.123218 0.473862
O O4 0.201370 0.000000 0.483039
O O5 0.500000 0.250173 0.529425
O O6 0.252324 0.334662 0.538969
O O7 0.311109 0.214154 0.612546
O O8 0.500000 0.867851 0.237831
O O9 0.737407 0.906367 0.292007
O O10 0.742484 0.843066 0.183053
O O11 0.663879 0.000000 0.203454
O O12 0.226182 0.104103 0.820375
O O13 0.000000 0.147575 0.886708
O O14 0.129997 0.000000 0.899076
O O15 0.269780 0.134880 0.931951
O O16 0.500000 0.120452 0.995572
O O17 0.296056 0.000000 0.007224
O O18 0.500000 0.128644 0.790616
O O19 0.331941 0.256141 0.827817
O O20 0.286250 0.185077 0.724170
O O21 0.000000 0.104543 0.332467
O O22 0.500000 0.719029 0.687243
#
# Coordination Sequence:
#
# PCOD8189192 Si02
#       8
#     8   8   8   8   8   8   8   8
#     4  10  21  37  58  84 113 148 189 229 273 328
#     4  11  23  39  59  81 108 145 189 236 280 321
#     4  10  20  32  50  80 112 138 168 210 261 316
#     4  10  20  33  51  79 111 137 168 215 268 322
#     4  10  21  37  58  84 114 148 183 220 270 334
#     4   9  17  32  54  77 102 134 173 216 263 318
#     4   9  18  33  54  79 107 139 174 212 258 318
#     4   9  21  39  55  73  99 137 183 222 261 316
#
# _framework density 19.528552000000001
#
# number of rings (size 3 to 8) (size 9 to 14) (size 15 to 20)
#    0.000    2.250    0.000    3.375    0.000    8.250 
#    0.000    3.125    0.000    3.750    0.000    0.000 
#    0.000    0.000    0.000    0.000    0.000    0.000 
#
# Total GULP energy -396709.713909 kJ/mol
# GULP energy per Si atom -12397.178560 kJ/mol
# Density = 1.948410 g / cm^3
# Si number density = 19.528552 Si / 1000 Ang^3
#
#
#
# Elastic Constant Matrix: (Units=GPa)
#
#
# Indices 1 2 3 4 5 6 
#
# 1 101.8052 29.6117 43.0003 0.0000 0.0000 0.0000
# 2 29.6117 53.5790 30.7136 0.0000 0.0000 0.0000
# 3 43.0003 30.7136 107.8313 0.0000 0.0000 0.0000
# 4 0.0000 0.0000 0.0000 17.8902 0.0000 0.0000
# 5 0.0000 0.0000 0.0000 0.0000 29.4855 0.0000
# 6 0.0000 0.0000 0.0000 0.0000 0.0000 27.3490
#
#
#
# Elastic Compliance Matrix: (Units=1/GPa)
#
#
# Indices 1 2 3 4 5 6 
#
# 1 0.012832 -0.004970 -0.003701 0.000000 0.000000 0.000000
# 2 -0.004970 0.024231 -0.004920 0.000000 0.000000 0.000000
# 3 -0.003701 -0.004920 0.012151 0.000000 0.000000 0.000000
# 4 0.000000 0.000000 0.000000 0.055896 0.000000 0.000000
# 5 0.000000 0.000000 0.000000 0.000000 0.033915 0.000000
# 6 0.000000 0.000000 0.000000 0.000000 0.000000 0.036564
#
#
# Mechanical properties :
#
#
# Convention : Reuss Voigt Hill
#
# Bulk Modulus (GPa) = 45.38959 52.20740 48.79850
# Shear Modulus (GPa) = 23.79643 25.60427 24.70035
#
# Velocity S-wave (km/s) = 3.49455 3.62487 3.56031
# Velocity P-wave (km/s) = 6.29092 6.65669 6.47639
#
# Compressibility (1/GPa) = 0.02203148
#
# Stress axis : x y z
#
# Youngs Moduli (GPa) = 77.93241 41.26943 82.29733
#
# Poissons Ratio (x) = 0.20511 0.30461
# Poissons Ratio (y) = 0.38732 0.40489
# Poissons Ratio (z) = 0.28845 0.20304
#
# Static dielectric constant tensor:
#      x y z
#    x 3.700580 0.000000 0.000000 
#    y 0.000000 3.354130 0.000000 
#    z 0.000000 0.000000 3.527260 
# 
# 
# High freq. dielectric constant tensor:
#      x y z
#    x 1.766140 0.000000 0.000000 
#    y 0.000000 1.743070 0.000000 
#    z 0.000000 0.000000 1.755240 
# 
# From -- ./inp_files/25189.got.cif
#   From: 2010.03.12/outbox.cif.g09.slc.cpg/sg44_13_cif.got.tgz:25189.got - 2010.04.14 02:36:11.
