data_PCOD8189198
_publ_section_title
;
Structure prediction by ZEFSAII (Michael W. Deem and Ramdas Pophale) SiO2 
 PCOD8189198
Probable space group: I M M 2
;
_chemical_formula_sum "Si O2"
_cell_formula_units_Z 64
_cell_length_a 17.442757
_cell_length_b 18.248316
_cell_length_c 11.336693
_cell_angle_alpha 90.000000
_cell_angle_beta 90.000000
_cell_angle_gamma 90.000000
_cell_volume 3608.480057
_symmetry_space_group_name_H-M "I M M 2"
_symmetry_group_IT_number 44
_symmetry_cell_setting 'orthorhombic'
loop_
_space_group_symop_operation_xyz
x,y,z
-x,-y,z
-x,y,z
x,-y,z
1/2+x,1/2+y,1/2+z
1/2-x,1/2-y,1/2+z
1/2-x,1/2+y,1/2+z
1/2+x,1/2-y,1/2+z
loop_
_atom_site_type_symbol
_atom_site_label
_atom_site_fract_x
_atom_site_fract_y
_atom_site_fract_z
Si Si1 0.913480 0.586449 0.535010
Si Si2 0.228997 0.415200 0.409101
Si Si3 0.590693 0.584087 0.804278
Si Si4 0.632591 0.583890 0.271186
Si Si5 0.157114 0.291880 0.680515
Si Si6 0.586697 0.280403 0.405916
Si Si7 0.682860 0.332907 0.607883
Si Si8 0.589829 0.659466 0.044456
O O1 0.908775 0.500000 0.564015
O O2 0.859998 0.610593 0.421767
O O3 0.881983 0.630123 0.649174
O O4 0.000000 0.609938 0.504071
O O5 0.226365 0.500000 0.424307
O O6 0.276095 0.394903 0.290042
O O7 0.276601 0.387816 0.519703
O O8 0.500000 0.587368 0.789387
O O9 0.618225 0.500000 0.817433
O O10 0.627841 0.620952 0.691251
O O11 0.617312 0.630670 0.917927
O O12 0.615945 0.500000 0.307036
O O13 0.583116 0.636271 0.356284
O O14 0.610783 0.595132 0.136006
O O15 0.129274 0.270374 0.810488
O O16 0.249957 0.293001 0.682206
O O17 0.132454 0.233882 0.580051
O O18 0.500000 0.252496 0.424739
O O19 0.631617 0.275925 0.530724
O O20 0.500000 0.675556 0.047454
#
# Coordination Sequence:
#
# PCOD8189198 Si02
#       8
#     8   8   8   8   8   8   8   8
#     4   9  16  28  48  73 100 132 172 220 273 317
#     4   8  15  27  43  69  99 127 161 207 254 303
#     4  10  21  36  54  78 111 146 178 215 262 322
#     4   9  16  28  47  72 103 135 169 211 253 303
#     4  10  20  33  53  72 105 137 178 224 267 311
#     4  10  20  33  50  76 104 136 175 217 264 317
#     4  10  20  32  51  72 102 136 175 212 263 313
#     4  10  20  33  51  75 104 140 179 215 260 314
#
# _framework density 17.736000000000001
#
# number of rings (size 3 to 8) (size 9 to 14) (size 15 to 20)
#    0.000    2.500    0.000    3.375    1.750    2.500 
#    0.000    0.000    0.000    0.000    0.000    0.000 
#    0.000    1.000    0.000    6.625    0.000    0.000 
#
# Total GULP energy -396484.614142 kJ/mol
# GULP energy per Si atom -12390.144192 kJ/mol
# Density = 1.769563 g / cm^3
# Si number density = 17.736000 Si / 1000 Ang^3
#
#
#
# Elastic Constant Matrix: (Units=GPa)
#
#
# Indices 1 2 3 4 5 6 
#
# 1 93.1831 16.4576 36.1583 0.0000 0.0000 0.0000
# 2 16.4576 55.4305 7.7814 0.0000 0.0000 0.0000
# 3 36.1583 7.7814 64.9401 0.0000 0.0000 0.0000
# 4 0.0000 0.0000 0.0000 18.3086 0.0000 0.0000
# 5 0.0000 0.0000 0.0000 0.0000 33.9294 0.0000
# 6 0.0000 0.0000 0.0000 0.0000 0.0000 24.6448
#
#
#
# Elastic Compliance Matrix: (Units=1/GPa)
#
#
# Indices 1 2 3 4 5 6 
#
# 1 0.014214 -0.003162 -0.007535 0.000000 0.000000 0.000000
# 2 -0.003162 0.019053 -0.000522 0.000000 0.000000 0.000000
# 3 -0.007535 -0.000522 0.019657 0.000000 0.000000 0.000000
# 4 0.000000 0.000000 0.000000 0.054619 0.000000 0.000000
# 5 0.000000 0.000000 0.000000 0.000000 0.029473 0.000000
# 6 0.000000 0.000000 0.000000 0.000000 0.000000 0.040577
#
#
# Mechanical properties :
#
#
# Convention : Reuss Voigt Hill
#
# Bulk Modulus (GPa) = 32.80410 37.14982 34.97696
# Shear Modulus (GPa) = 23.78757 25.58699 24.68728
#
# Velocity S-wave (km/s) = 3.66622 3.80236 3.73491
# Velocity P-wave (km/s) = 6.03800 6.34576 6.19379
#
# Compressibility (1/GPa) = 0.03048399
#
# Stress axis : x y z
#
# Youngs Moduli (GPa) = 70.35274 52.48562 50.87236
#
# Poissons Ratio (x) = 0.16598 0.38334
# Poissons Ratio (y) = 0.22248 0.02657
# Poissons Ratio (z) = 0.53014 0.02741
#
# Static dielectric constant tensor:
#      x y z
#    x 3.730290 0.000000 0.000000 
#    y 0.000000 3.228960 0.000000 
#    z 0.000000 0.000000 3.216200 
# 
# 
# High freq. dielectric constant tensor:
#      x y z
#    x 1.696210 0.000000 0.000000 
#    y 0.000000 1.677980 0.000000 
#    z 0.000000 0.000000 1.664180 
# 
# From -- ./inp_files/14078.got.cif
#   From: 2010.03.12/outbox.cif.g09.slc.cpg/sg44_8_cif.got.tgz:14078.got - 2010.04.14 02:36:11.
