data_PCOD8189749
_publ_section_title
;
Structure prediction by ZEFSAII (Michael W. Deem and Ramdas Pophale) SiO2 
 PCOD8189749
Probable space group: I M M 2
;
_chemical_formula_sum "Si O2"
_cell_formula_units_Z 64
_cell_length_a 14.728787
_cell_length_b 18.667730
_cell_length_c 11.987558
_cell_angle_alpha 90.000000
_cell_angle_beta 90.000000
_cell_angle_gamma 90.000000
_cell_volume 3296.015262
_symmetry_space_group_name_H-M "I M M 2"
_symmetry_group_IT_number 44
_symmetry_cell_setting 'orthorhombic'
loop_
_space_group_symop_operation_xyz
x,y,z
-x,-y,z
-x,y,z
x,-y,z
1/2+x,1/2+y,1/2+z
1/2-x,1/2-y,1/2+z
1/2-x,1/2+y,1/2+z
1/2+x,1/2-y,1/2+z
loop_
_atom_site_type_symbol
_atom_site_label
_atom_site_fract_x
_atom_site_fract_y
_atom_site_fract_z
Si Si1 0.177639 0.078248 0.184190
Si Si2 0.894492 0.169677 0.554773
Si Si3 0.748496 0.918696 0.943821
Si Si4 0.605508 0.330323 0.313607
Si Si5 0.751504 0.418696 0.924559
Si Si6 0.393913 0.198975 0.463432
Si Si7 0.897140 0.227954 0.184190
Si Si8 0.893913 0.301025 0.404948
O O1 0.240906 0.085349 0.291871
O O2 0.104933 0.141825 0.184190
O O3 0.128369 0.000000 0.184190
O O4 0.240906 0.085349 0.076509
O O5 0.867701 0.167556 0.684190
O O6 0.836862 0.111724 0.487042
O O7 0.874179 0.249590 0.510016
O O8 0.000000 0.150228 0.535435
O O9 0.836862 0.888276 0.881339
O O10 0.657970 0.875476 0.914765
O O11 0.734643 0.000000 0.903161
O O12 0.500000 0.349772 0.332945
O O13 0.625821 0.250410 0.358364
O O14 0.765357 0.500000 0.965219
O O15 0.842030 0.375476 0.953615
O O16 0.500000 0.181421 0.473746
O O17 0.352852 0.239363 0.572528
O O18 0.852852 0.260637 0.295852
O O19 0.000000 0.252395 0.184190
O O20 0.000000 0.318579 0.394634
#
# Coordination Sequence:
#
# PCOD8189749 Si02
#       8
#     8   8   8   8   8   8   8   8
#     4  10  22  37  57  89 117 146 192 239 290 352
#     4  10  22  39  62  90 115 148 194 238 287 347
#     4  11  24  39  59  85 118 157 192 235 293 344
#     4  10  22  39  62  90 115 148 194 238 287 347
#     4  11  24  39  59  85 118 157 192 235 293 344
#     4  10  22  39  61  87 115 151 198 244 283 337
#     4  10  20  37  61  87 111 147 197 242 288 338
#     4  10  22  39  61  87 115 151 198 244 283 337
#
# _framework density 19.417384999999999
#
# number of rings (size 3 to 8) (size 9 to 14) (size 15 to 20)
#    0.000    1.750    2.500    0.750    3.500    1.750 
#    0.000    3.750    0.000    4.500    0.000    0.000 
#    0.000    0.000    0.000    0.000    0.000    0.000 
#
# Total GULP energy -396806.852665 kJ/mol
# GULP energy per Si atom -12400.214146 kJ/mol
# Density = 1.937319 g / cm^3
# Si number density = 19.417385 Si / 1000 Ang^3
#
#
#
# Elastic Constant Matrix: (Units=GPa)
#
#
# Indices 1 2 3 4 5 6 
#
# 1 77.6172 71.1200 48.9079 0.0000 0.0000 0.0000
# 2 71.1200 169.5106 63.7393 0.0000 0.0000 0.0000
# 3 48.9079 63.7393 136.2921 0.0000 0.0000 0.0000
# 4 0.0000 0.0000 0.0000 28.1887 0.0000 0.0000
# 5 0.0000 0.0000 0.0000 0.0000 15.7578 0.0000
# 6 0.0000 0.0000 0.0000 0.0000 0.0000 26.6403
#
#
#
# Elastic Compliance Matrix: (Units=1/GPa)
#
#
# Indices 1 2 3 4 5 6 
#
# 1 0.023039 -0.007957 -0.004546 0.000000 0.000000 0.000000
# 2 -0.007957 0.009906 -0.001777 0.000000 0.000000 0.000000
# 3 -0.004546 -0.001777 0.009800 0.000000 0.000000 0.000000
# 4 0.000000 0.000000 0.000000 0.035475 0.000000 0.000000
# 5 0.000000 0.000000 0.000000 0.000000 0.063461 0.000000
# 6 0.000000 0.000000 0.000000 0.000000 0.000000 0.037537
#
#
# Mechanical properties :
#
#
# Convention : Reuss Voigt Hill
#
# Bulk Modulus (GPa) = 70.50274 83.43938 76.97106
# Shear Modulus (GPa) = 23.52854 27.42752 25.47803
#
# Velocity S-wave (km/s) = 3.48476 3.76243 3.62626
# Velocity P-wave (km/s) = 7.25116 7.87015 7.56699
#
# Compressibility (1/GPa) = 0.01418385
#
# Stress axis : x y z
#
# Youngs Moduli (GPa) = 43.40402 100.94807 102.04182
#
# Poissons Ratio (x) = 0.80323 0.46393
# Poissons Ratio (y) = 0.34536 0.18137
# Poissons Ratio (z) = 0.19733 0.17943
#
# Static dielectric constant tensor:
#      x y z
#    x 3.318560 0.000000 0.000000 
#    y 0.000000 3.540660 0.000000 
#    z 0.000000 0.000000 3.906410 
# 
# 
# High freq. dielectric constant tensor:
#      x y z
#    x 1.743900 0.000000 0.000000 
#    y 0.000000 1.752040 0.000000 
#    z 0.000000 0.000000 1.773300 
# 
# From -- ./inp_files/13424.got.cif
#   From: 2010.03.12/outbox.cif.g09.slc.cpg/sg44_7_cif.got.tgz:13424.got - 2010.04.14 02:36:11.
