data_PCOD8189076
_publ_section_title
;
Structure prediction by ZEFSAII (Michael W. Deem and Ramdas Pophale) SiO2 
 PCOD8189076
Probable space group: I M M 2
;
_chemical_formula_sum "Si O2"
_cell_formula_units_Z 64
_cell_length_a 23.532400
_cell_length_b 9.083790
_cell_length_c 15.293695
_cell_angle_alpha 90.000000
_cell_angle_beta 90.000000
_cell_angle_gamma 90.000000
_cell_volume 3269.231933
_symmetry_space_group_name_H-M "I M M 2"
_symmetry_group_IT_number 44
_symmetry_cell_setting 'orthorhombic'
loop_
_space_group_symop_operation_xyz
x,y,z
-x,-y,z
-x,y,z
x,-y,z
1/2+x,1/2+y,1/2+z
1/2-x,1/2-y,1/2+z
1/2-x,1/2+y,1/2+z
1/2+x,1/2-y,1/2+z
loop_
_atom_site_type_symbol
_atom_site_label
_atom_site_fract_x
_atom_site_fract_y
_atom_site_fract_z
Si Si1 0.376355 0.670629 0.454350
Si Si2 0.132145 0.829967 0.756762
Si Si3 0.434512 0.828173 0.105995
Si Si4 0.565993 0.170641 0.607256
Si Si5 0.253597 0.674379 0.509690
Si Si6 0.864575 0.326218 0.436204
Si Si7 0.631323 0.670384 0.761760
Si Si8 0.242312 0.329837 0.705919
O O1 0.379829 0.500000 0.482982
O O2 0.393700 0.691202 0.353524
O O3 0.419945 0.763812 0.512149
O O4 0.312303 0.732194 0.468563
O O5 0.089705 0.755040 0.689428
O O6 0.194733 0.760894 0.756615
O O7 0.137976 0.000000 0.732450
O O8 0.500000 0.786690 0.094288
O O9 0.425056 0.000000 0.122548
O O10 0.402160 0.777699 0.018816
O O11 0.500000 0.194347 0.626951
O O12 0.601644 0.254521 0.679982
O O13 0.582744 0.000000 0.608736
O O14 0.253919 0.500000 0.512662
O O15 0.200016 0.728132 0.452619
O O16 0.247384 0.734627 0.608041
O O17 0.868419 0.500000 0.420027
O O18 0.889617 0.244903 0.351417
O O19 0.614202 0.500000 0.761868
O O20 0.698683 0.692815 0.755453
O O21 0.223856 0.500000 0.703595
#
# Coordination Sequence:
#
# PCOD8189076 Si02
#       8
#     8   8   8   8   8   8   8   8
#     4  10  21  39  61  87 119 155 193 238 296 356
#     4  11  23  37  60  92 123 155 194 243 299 352
#     4  10  22  41  63  84 113 160 208 247 293 348
#     4  11  25  43  62  86 116 153 201 251 292 341
#     4   9  16  33  60  85 115 154 192 235 288 346
#     4  10  20  37  61  87 119 157 199 242 288 348
#     4  11  23  39  62  91 123 156 191 238 298 355
#     4  10  19  36  61  87 119 158 196 235 287 354
#
# _framework density 19.576463
#
# number of rings (size 3 to 8) (size 9 to 14) (size 15 to 20)
#    0.000    1.750    2.500    1.875    0.000    5.750 
#    0.000    4.375    0.000    0.000    0.000    0.000 
#    0.000    0.000    0.000    0.000    0.000    0.000 
#
# Total GULP energy -396913.692698 kJ/mol
# GULP energy per Si atom -12403.552897 kJ/mol
# Density = 1.953191 g / cm^3
# Si number density = 19.576463 Si / 1000 Ang^3
#
#
#
# Elastic Constant Matrix: (Units=GPa)
#
#
# Indices 1 2 3 4 5 6 
#
# 1 69.8354 40.1015 26.7089 0.0000 0.0000 0.0000
# 2 40.1015 82.3688 52.4619 0.0000 0.0000 0.0000
# 3 26.7089 52.4619 121.7696 0.0000 0.0000 0.0000
# 4 0.0000 0.0000 0.0000 36.1200 0.0000 0.0000
# 5 0.0000 0.0000 0.0000 0.0000 8.4009 0.0000
# 6 0.0000 0.0000 0.0000 0.0000 0.0000 28.3375
#
#
#
# Elastic Compliance Matrix: (Units=1/GPa)
#
#
# Indices 1 2 3 4 5 6 
#
# 1 0.019882 -0.009512 -0.000263 0.000000 0.000000 0.000000
# 2 -0.009512 0.021283 -0.007083 0.000000 0.000000 0.000000
# 3 -0.000263 -0.007083 0.011321 0.000000 0.000000 0.000000
# 4 0.000000 0.000000 0.000000 0.027685 0.000000 0.000000
# 5 0.000000 0.000000 0.000000 0.000000 0.119034 0.000000
# 6 0.000000 0.000000 0.000000 0.000000 0.000000 0.035289
#
#
# Mechanical properties :
#
#
# Convention : Reuss Voigt Hill
#
# Bulk Modulus (GPa) = 53.27518 56.94648 55.11083
# Shear Modulus (GPa) = 18.21709 24.88512 21.55110
#
# Velocity S-wave (km/s) = 3.05382 3.56922 3.32153
# Velocity P-wave (km/s) = 6.30138 6.79251 6.55155
#
# Compressibility (1/GPa) = 0.01877047
#
# Stress axis : x y z
#
# Youngs Moduli (GPa) = 50.29643 46.98633 88.32872
#
# Poissons Ratio (x) = 0.44695 0.02321
# Poissons Ratio (y) = 0.47844 0.62562
# Poissons Ratio (z) = 0.01322 0.33280
#
# Static dielectric constant tensor:
#      x y z
#    x 3.578110 0.000000 0.000000 
#    y 0.000000 3.416850 0.000000 
#    z 0.000000 0.000000 3.617370 
# 
# 
# High freq. dielectric constant tensor:
#      x y z
#    x 1.760520 0.000000 0.000000 
#    y 0.000000 1.747910 0.000000 
#    z 0.000000 0.000000 1.775600 
# 
# From -- ./inp_files/16780.got.cif
#   From: 2010.03.12/outbox.cif.g09.slc.cpg/sg44_9_cif.got.tgz:16780.got - 2010.04.14 02:36:11.
