data_PCOD8189047
_publ_section_title
;
Structure prediction by ZEFSAII (Michael W. Deem and Ramdas Pophale) SiO2 
 PCOD8189047
Probable space group: I M M 2
;
_chemical_formula_sum "Si O2"
_cell_formula_units_Z 56
_cell_length_a 21.119429
_cell_length_b 14.222371
_cell_length_c 10.210951
_cell_angle_alpha 90.000000
_cell_angle_beta 90.000000
_cell_angle_gamma 90.000000
_cell_volume 3067.046550
_symmetry_space_group_name_H-M "I M M 2"
_symmetry_group_IT_number 44
_symmetry_cell_setting 'orthorhombic'
loop_
_space_group_symop_operation_xyz
x,y,z
-x,-y,z
-x,y,z
x,-y,z
1/2+x,1/2+y,1/2+z
1/2-x,1/2-y,1/2+z
1/2-x,1/2+y,1/2+z
1/2+x,1/2-y,1/2+z
loop_
_atom_site_type_symbol
_atom_site_label
_atom_site_fract_x
_atom_site_fract_y
_atom_site_fract_z
Si Si1 0.148219 0.181175 0.287150
Si Si2 0.728716 0.899320 0.217974
Si Si3 0.249257 0.199685 0.686922
Si Si4 0.165500 0.394512 0.989946
Si Si5 0.628603 0.609471 0.298504
Si Si6 0.074745 0.773198 0.037134
Si Si7 0.072323 0.891241 0.519776
O O1 0.198554 0.096087 0.270161
O O2 0.188542 0.278867 0.276624
O O3 0.095795 0.177543 0.172176
O O4 0.114822 0.174306 0.427422
O O5 0.721240 0.801985 0.135135
O O6 0.679086 0.891565 0.336338
O O7 0.716337 0.000000 0.143725
O O8 0.269845 0.139452 0.561544
O O9 0.200177 0.144272 0.777148
O O10 0.149101 0.500000 0.036444
O O11 0.106021 0.329281 0.023231
O O12 0.629630 0.500000 0.332058
O O13 0.596488 0.661460 0.418593
O O14 0.588262 0.631660 0.169382
O O15 0.000000 0.760386 0.035825
O O16 0.000000 0.864976 0.494121
O O17 0.085754 0.000000 0.487307
#
# Coordination Sequence:
#
# PCOD8189047 Si02
#       7
#     8   8   8   8   8   8   8
#     4   9  19  33  54  77 108 137 180 224 272 318
#     4   9  17  31  54  79 105 136 174 222 274 318
#     4   9  19  32  54  80 106 137 179 220 279 326
#     4  10  19  36  57  80 108 142 183 230 274 326
#     4  11  22  36  53  78 113 148 180 224 279 331
#     4  11  22  37  53  80 114 147 182 223 273 329
#     4  10  20  34  53  76 102 143 189 217 254 322
#
# _framework density 18.258607999999999
#
# number of rings (size 3 to 8) (size 9 to 14) (size 15 to 20)
#    0.857    1.286    1.429    2.571    0.000    4.571 
#    0.000    0.000    0.000    0.000    0.000    4.000 
#    0.000   12.857    0.000    0.000    0.000    0.000 
#
# Total GULP energy -346919.320652 kJ/mol
# GULP energy per Si atom -12389.975738 kJ/mol
# Density = 1.821705 g / cm^3
# Si number density = 18.258608 Si / 1000 Ang^3
#
#
#
# Elastic Constant Matrix: (Units=GPa)
#
#
# Indices 1 2 3 4 5 6 
#
# 1 84.5195 13.9800 14.3377 0.0000 0.0000 0.0000
# 2 13.9800 98.4940 27.1347 0.0000 0.0000 0.0000
# 3 14.3377 27.1347 44.9370 0.0000 0.0000 0.0000
# 4 0.0000 0.0000 0.0000 23.9295 0.0000 0.0000
# 5 0.0000 0.0000 0.0000 0.0000 25.4177 0.0000
# 6 0.0000 0.0000 0.0000 0.0000 0.0000 15.6405
#
#
#
# Elastic Compliance Matrix: (Units=1/GPa)
#
#
# Indices 1 2 3 4 5 6 
#
# 1 0.012563 -0.000814 -0.003517 0.000000 0.000000 0.000000
# 2 -0.000814 0.012232 -0.007126 0.000000 0.000000 0.000000
# 3 -0.003517 -0.007126 0.027678 0.000000 0.000000 0.000000
# 4 0.000000 0.000000 0.000000 0.041789 0.000000 0.000000
# 5 0.000000 0.000000 0.000000 0.000000 0.039343 0.000000
# 6 0.000000 0.000000 0.000000 0.000000 0.000000 0.063936
#
#
# Mechanical properties :
#
#
# Convention : Reuss Voigt Hill
#
# Bulk Modulus (GPa) = 33.83087 37.65060 35.74074
# Shear Modulus (GPa) = 21.71000 24.49741 23.10371
#
# Velocity S-wave (km/s) = 3.45197 3.66688 3.56105
# Velocity P-wave (km/s) = 5.87001 6.21237 6.04362
#
# Compressibility (1/GPa) = 0.02955880
#
# Stress axis : x y z
#
# Youngs Moduli (GPa) = 79.59981 81.75477 36.12920
#
# Poissons Ratio (x) = 0.06658 0.12705
# Poissons Ratio (y) = 0.06482 0.25746
# Poissons Ratio (z) = 0.27992 0.58260
#
# Static dielectric constant tensor:
#      x y z
#    x 3.351370 0.000000 0.000000 
#    y 0.000000 3.444790 0.000000 
#    z 0.000000 0.000000 3.173970 
# 
# 
# High freq. dielectric constant tensor:
#      x y z
#    x 1.700570 0.000000 0.000000 
#    y 0.000000 1.704790 0.000000 
#    z 0.000000 0.000000 1.691440 
# 
# From -- ./inp_files/8921.got.cif
#   From: 2010.03.12/outbox.cif.g09.slc.cpg/sg44_5_cif.got.tgz:8921.got - 2010.04.14 02:36:11.
