data_PCOD8189914
_publ_section_title
;
Structure prediction by ZEFSAII (Michael W. Deem and Ramdas Pophale) SiO2 
 PCOD8189914
Probable space group: I M M 2
;
_chemical_formula_sum "Si O2"
_cell_formula_units_Z 64
_cell_length_a 14.641190
_cell_length_b 9.173886
_cell_length_c 24.204510
_cell_angle_alpha 90.000000
_cell_angle_beta 90.000000
_cell_angle_gamma 90.000000
_cell_volume 3251.067681
_symmetry_space_group_name_H-M "I M M 2"
_symmetry_group_IT_number 44
_symmetry_cell_setting 'orthorhombic'
loop_
_space_group_symop_operation_xyz
x,y,z
-x,-y,z
-x,y,z
x,-y,z
1/2+x,1/2+y,1/2+z
1/2-x,1/2-y,1/2+z
1/2-x,1/2+y,1/2+z
1/2+x,1/2-y,1/2+z
loop_
_atom_site_type_symbol
_atom_site_label
_atom_site_fract_x
_atom_site_fract_y
_atom_site_fract_z
Si Si1 0.893155 0.329841 0.165950
Si Si2 0.393876 0.169650 0.400307
Si Si3 0.391574 0.339175 0.294555
Si Si4 0.395594 0.169375 0.882253
Si Si5 0.391477 0.664477 0.774768
Si Si6 0.394028 0.670549 0.171696
Si Si7 0.253408 0.667962 0.470402
Si Si8 0.751165 0.670838 0.597663
O O1 0.869314 0.500000 0.168547
O O2 0.857089 0.256722 0.222394
O O3 0.840537 0.254597 0.115550
O O4 0.000000 0.302784 0.156318
O O5 0.500000 0.207914 0.408265
O O6 0.356004 0.230814 0.341900
O O7 0.340372 0.239837 0.451119
O O8 0.375245 0.000000 0.400189
O O9 0.500000 0.345443 0.293710
O O10 0.352498 0.500000 0.307988
O O11 0.359932 0.288166 0.233655
O O12 0.500000 0.213236 0.895433
O O13 0.355440 0.259481 0.830496
O O14 0.336614 0.210377 0.935810
O O15 0.388603 0.000000 0.866749
O O16 0.500000 0.665391 0.775456
O O17 0.353199 0.500000 0.771111
O O18 0.500000 0.708317 0.163684
O O19 0.375791 0.500000 0.160572
O O20 0.338903 0.769179 0.129389
O O21 0.279128 0.500000 0.461928
O O22 0.232020 0.704075 0.533564
O O23 0.739279 0.500000 0.609516
#
# Coordination Sequence:
#
# PCOD8189914 Si02
#       8
#     8   8   8   8   8   8   8   8
#     4  10  21  38  60  83 109 145 185 225 275 334
#     4  10  21  36  56  83 112 141 176 223 276 324
#     4   8  15  31  56  83 110 141 177 216 263 324
#     4   9  18  35  58  81 108 143 181 221 266 320
#     4   9  17  31  54  85 116 141 172 219 273 328
#     4   9  19  37  60  85 114 149 186 224 270 326
#     4  10  23  40  56  77 106 145 190 228 267 321
#     4  11  24  39  56  81 111 145 189 236 278 323
#
# _framework density 19.685839999999999
#
# number of rings (size 3 to 8) (size 9 to 14) (size 15 to 20)
#    0.000    2.500    0.000    2.250    0.000    7.250 
#    0.000    6.250    0.000    1.500    0.000    0.000 
#    0.000    0.000    0.000    0.000    0.000    0.000 
#
# Total GULP energy -396847.023079 kJ/mol
# GULP energy per Si atom -12401.469471 kJ/mol
# Density = 1.964103 g / cm^3
# Si number density = 19.685840 Si / 1000 Ang^3
#
#
#
# Elastic Constant Matrix: (Units=GPa)
#
#
# Indices 1 2 3 4 5 6 
#
# 1 64.6087 36.9926 31.1909 0.0000 0.0000 0.0000
# 2 36.9926 91.9337 43.4535 0.0000 0.0000 0.0000
# 3 31.1909 43.4535 97.5583 0.0000 0.0000 0.0000
# 4 0.0000 0.0000 0.0000 35.6515 0.0000 0.0000
# 5 0.0000 0.0000 0.0000 0.0000 32.9833 0.0000
# 6 0.0000 0.0000 0.0000 0.0000 0.0000 28.3619
#
#
#
# Elastic Compliance Matrix: (Units=1/GPa)
#
#
# Indices 1 2 3 4 5 6 
#
# 1 0.021149 -0.006731 -0.003763 0.000000 0.000000 0.000000
# 2 -0.006731 0.015920 -0.004939 0.000000 0.000000 0.000000
# 3 -0.003763 -0.004939 0.013653 0.000000 0.000000 0.000000
# 4 0.000000 0.000000 0.000000 0.028049 0.000000 0.000000
# 5 0.000000 0.000000 0.000000 0.000000 0.030318 0.000000
# 6 0.000000 0.000000 0.000000 0.000000 0.000000 0.035259
#
#
# Mechanical properties :
#
#
# Convention : Reuss Voigt Hill
#
# Bulk Modulus (GPa) = 50.36446 53.04164 51.70305
# Shear Modulus (GPa) = 27.49756 28.89691 28.19723
#
# Velocity S-wave (km/s) = 3.74146 3.83548 3.78876
# Velocity P-wave (km/s) = 6.65615 6.82767 6.74246
#
# Compressibility (1/GPa) = 0.01985527
#
# Stress axis : x y z
#
# Youngs Moduli (GPa) = 47.28441 62.81256 73.24154
#
# Poissons Ratio (x) = 0.42279 0.27564
# Poissons Ratio (y) = 0.31827 0.36175
# Poissons Ratio (z) = 0.17795 0.31024
#
# Static dielectric constant tensor:
#      x y z
#    x 3.465000 0.000000 0.000000 
#    y 0.000000 3.628940 0.000000 
#    z 0.000000 0.000000 3.641330 
# 
# 
# High freq. dielectric constant tensor:
#      x y z
#    x 1.763400 0.000000 0.000000 
#    y 0.000000 1.767760 0.000000 
#    z 0.000000 0.000000 1.765280 
# 
# From -- ./inp_files/25144.got.cif
#   From: 2010.03.12/outbox.cif.g09.slc.cpg/sg44_13_cif.got.tgz:25144.got - 2010.04.14 02:36:11.
