data_PCOD8189226
_publ_section_title
;
Structure prediction by ZEFSAII (Michael W. Deem and Ramdas Pophale) SiO2 
 PCOD8189226
Probable space group: I M M 2
;
_chemical_formula_sum "Si O2"
_cell_formula_units_Z 64
_cell_length_a 14.102759
_cell_length_b 9.074475
_cell_length_c 28.159936
_cell_angle_alpha 90.000000
_cell_angle_beta 90.000000
_cell_angle_gamma 90.000000
_cell_volume 3603.771582
_symmetry_space_group_name_H-M "I M M 2"
_symmetry_group_IT_number 44
_symmetry_cell_setting 'orthorhombic'
loop_
_space_group_symop_operation_xyz
x,y,z
-x,-y,z
-x,y,z
x,-y,z
1/2+x,1/2+y,1/2+z
1/2-x,1/2-y,1/2+z
1/2-x,1/2+y,1/2+z
1/2+x,1/2-y,1/2+z
loop_
_atom_site_type_symbol
_atom_site_label
_atom_site_fract_x
_atom_site_fract_y
_atom_site_fract_z
Si Si1 0.108461 0.829962 0.918090
Si Si2 0.608198 0.330393 0.307965
Si Si3 0.392604 0.826977 0.583091
Si Si4 0.112058 0.167208 0.639907
Si Si5 0.110264 0.672345 0.543977
Si Si6 0.230964 0.325642 0.994187
Si Si7 0.708236 0.170964 0.226636
Si Si8 0.394185 0.330162 0.677060
O O1 0.130274 0.803624 0.862956
O O2 0.180709 0.726983 0.946274
O O3 0.000000 0.784776 0.929586
O O4 0.125104 0.000000 0.931711
O O5 0.500000 0.285900 0.296337
O O6 0.624951 0.500000 0.294220
O O7 0.679667 0.229771 0.278202
O O8 0.500000 0.774071 0.574456
O O9 0.332895 0.772861 0.538293
O O10 0.353317 0.755488 0.631380
O O11 0.385721 0.000000 0.589362
O O12 0.145123 0.254011 0.593041
O O13 0.151837 0.242444 0.686610
O O14 0.000000 0.170227 0.644474
O O15 0.150100 0.000000 0.635749
O O16 0.132409 0.500000 0.546672
O O17 0.167295 0.746791 0.500453
O O18 0.000000 0.703563 0.534524
O O19 0.245055 0.500000 0.991948
O O20 0.821432 0.196617 0.220348
O O21 0.681555 0.000000 0.222553
O O22 0.500000 0.274447 0.691556
O O23 0.397534 0.500000 0.662650
#
# Coordination Sequence:
#
# PCOD8189226 Si02
#       8
#     8   8   8   8   8   8   8   8
#     4   9  19  36  56  77 102 132 165 202 248 303
#     4   9  19  36  55  75 101 131 161 198 248 302
#     4   9  18  31  46  69 101 132 162 197 238 286
#     4  10  20  33  49  71 102 137 168 201 247 302
#     4  10  21  36  52  71  99 135 174 215 253 291
#     4  11  21  32  51  77 104 134 167 205 251 303
#     4  11  21  31  49  75  99 128 168 210 251 298
#     4   9  19  34  48  65  94 131 167 202 240 283
#
# _framework density 17.759170999999998
#
# number of rings (size 3 to 8) (size 9 to 14) (size 15 to 20)
#    0.000    2.250    0.000    3.750    0.000    8.500 
#    0.000    2.500    0.000    0.750    0.000    3.500 
#    0.000    0.000    0.000    0.000    0.000    0.000 
#
# Total GULP energy -396862.491578 kJ/mol
# GULP energy per Si atom -12401.952862 kJ/mol
# Density = 1.771875 g / cm^3
# Si number density = 17.759171 Si / 1000 Ang^3
#
#
#
# Elastic Constant Matrix: (Units=GPa)
#
#
# Indices 1 2 3 4 5 6 
#
# 1 67.7009 48.3754 55.2324 0.0000 0.0000 0.0000
# 2 48.3754 93.1068 50.0479 0.0000 0.0000 0.0000
# 3 55.2324 50.0479 86.7017 0.0000 0.0000 0.0000
# 4 0.0000 0.0000 0.0000 34.1323 0.0000 0.0000
# 5 0.0000 0.0000 0.0000 0.0000 31.1283 0.0000
# 6 0.0000 0.0000 0.0000 0.0000 0.0000 26.6663
#
#
#
# Elastic Compliance Matrix: (Units=1/GPa)
#
#
# Indices 1 2 3 4 5 6 
#
# 1 0.035361 -0.009082 -0.017284 0.000000 0.000000 0.000000
# 2 -0.009082 0.017905 -0.004550 0.000000 0.000000 0.000000
# 3 -0.017284 -0.004550 0.025171 0.000000 0.000000 0.000000
# 4 0.000000 0.000000 0.000000 0.029298 0.000000 0.000000
# 5 0.000000 0.000000 0.000000 0.000000 0.032125 0.000000
# 6 0.000000 0.000000 0.000000 0.000000 0.000000 0.037500
#
#
# Mechanical properties :
#
#
# Convention : Reuss Voigt Hill
#
# Bulk Modulus (GPa) = 60.22223 61.64676 60.93449
# Shear Modulus (GPa) = 20.43102 24.64231 22.53666
#
# Velocity S-wave (km/s) = 3.39551 3.72907 3.56619
# Velocity P-wave (km/s) = 7.02543 7.30269 7.16540
#
# Compressibility (1/GPa) = 0.01660516
#
# Stress axis : x y z
#
# Youngs Moduli (GPa) = 28.27975 55.85136 39.72872
#
# Poissons Ratio (x) = 0.50723 0.68667
# Poissons Ratio (y) = 0.25683 0.18076
# Poissons Ratio (z) = 0.48879 0.25412
#
# Static dielectric constant tensor:
#      x y z
#    x 3.440470 0.000000 0.000000 
#    y 0.000000 3.319780 0.000000 
#    z 0.000000 0.000000 3.121820 
# 
# 
# High freq. dielectric constant tensor:
#      x y z
#    x 1.689080 0.000000 0.000000 
#    y 0.000000 1.693680 0.000000 
#    z 0.000000 0.000000 1.666490 
# 
# From -- ./inp_files/25137.got.cif
#   From: 2010.03.12/outbox.cif.g09.slc.cpg/sg44_13_cif.got.tgz:25137.got - 2010.04.14 02:36:11.
