data_PCOD8189709
_publ_section_title
;
Structure prediction by ZEFSAII (Michael W. Deem and Ramdas Pophale) SiO2 
 PCOD8189709
Probable space group: I M M 2
;
_chemical_formula_sum "Si O2"
_cell_formula_units_Z 32
_cell_length_a 8.804919
_cell_length_b 7.635458
_cell_length_c 24.029819
_cell_angle_alpha 90.000000
_cell_angle_beta 90.000000
_cell_angle_gamma 90.000000
_cell_volume 1615.514860
_symmetry_space_group_name_H-M "I M M 2"
_symmetry_group_IT_number 44
_symmetry_cell_setting 'orthorhombic'
loop_
_space_group_symop_operation_xyz
x,y,z
-x,-y,z
-x,y,z
x,-y,z
1/2+x,1/2+y,1/2+z
1/2-x,1/2-y,1/2+z
1/2-x,1/2+y,1/2+z
1/2+x,1/2-y,1/2+z
loop_
_atom_site_type_symbol
_atom_site_label
_atom_site_fract_x
_atom_site_fract_y
_atom_site_fract_z
Si Si1 0.322474 0.000000 0.273980
Si Si2 0.179146 0.807264 0.459395
Si Si3 0.175546 0.305005 0.341502
Si Si4 0.178622 0.000000 0.154161
Si Si5 0.177669 0.795071 0.581455
O O1 0.281234 0.826428 0.308156
O O2 0.500000 0.000000 0.261335
O O3 0.231650 0.000000 0.217240
O O4 0.224727 0.688316 0.406780
O O5 0.236706 0.738111 0.519519
O O6 0.000000 0.820802 0.465474
O O7 0.246879 0.000000 0.447772
O O8 0.197838 0.500000 0.317211
O O9 0.000000 0.244226 0.336421
O O10 0.235196 0.177539 0.125598
O O11 0.000000 0.000000 0.152911
O O12 0.000000 0.757194 0.588548
O O13 0.213287 0.000000 0.592042
#
# Coordination Sequence:
#
# PCOD8189709 Si02
#       5
#     4   8   8   4   8
#     4  12  26  44  62  82 118 164 205 254 301 354
#     4   8  14  29  58  91 123 155 192 238 286 347
#     4  10  20  36  63  94 121 155 199 247 297 354
#     4  12  26  42  62  86 118 162 205 252 301 358
#     4   9  19  37  63  93 122 156 199 246 294 351
#
# _framework density 19.807925999999998
#
# number of rings (size 3 to 8) (size 9 to 14) (size 15 to 20)
#    0.000    2.250    1.250    3.750    1.750    2.000 
#    0.000    1.250    0.000    0.000    0.000    0.000 
#    0.000    0.000    0.000    0.000    0.000    0.000 
#
# Total GULP energy -198311.027385 kJ/mol
# GULP energy per Si atom -12394.439212 kJ/mol
# Density = 1.976284 g / cm^3
# Si number density = 19.807926 Si / 1000 Ang^3
#
#
#
# Elastic Constant Matrix: (Units=GPa)
#
#
# Indices 1 2 3 4 5 6 
#
# 1 73.8963 41.2156 33.1890 0.0000 0.0000 0.0000
# 2 41.2156 104.7111 50.9654 0.0000 0.0000 0.0000
# 3 33.1890 50.9654 118.8016 0.0000 0.0000 0.0000
# 4 0.0000 0.0000 0.0000 -337.2575 0.0000 0.0000
# 5 0.0000 0.0000 0.0000 0.0000 26.2309 0.0000
# 6 0.0000 0.0000 0.0000 0.0000 0.0000 24.0536
#
#
#
# Elastic Compliance Matrix: (Units=1/GPa)
#
#
# Indices 1 2 3 4 5 6 
#
# 1 0.017908 -0.005832 -0.002501 0.000000 0.000000 0.000000
# 2 -0.005832 0.013969 -0.004364 0.000000 0.000000 0.000000
# 3 -0.002501 -0.004364 0.010988 0.000000 0.000000 0.000000
# 4 0.000000 0.000000 0.000000 -0.002965 0.000000 0.000000
# 5 0.000000 0.000000 0.000000 0.000000 0.038123 0.000000
# 6 0.000000 0.000000 0.000000 0.000000 0.000000 0.041574
#
#
# Mechanical properties :
#
#
# Convention : Reuss Voigt Hill
#
# Bulk Modulus (GPa) = 57.23132 60.90546 59.06839
# Shear Modulus (GPa) = 33.15325 -45.92531 -6.38603
#
# Velocity S-wave (km/s) = 4.09557 -4.82034 -1.79749
# Velocity P-wave (km/s) = 7.16385 0.40755 5.05741
#
# Compressibility (1/GPa) = 0.01747295
#
# Stress axis : x y z
#
# Youngs Moduli (GPa) = 55.83975 71.58530 91.00709
#
# Poissons Ratio (x) = 0.41745 0.22763
# Poissons Ratio (y) = 0.32563 0.39712
# Poissons Ratio (z) = 0.13967 0.31237
#
# Static dielectric constant tensor:
#      x y z
#    x 3.213870 0.000000 0.000000 
#    y 0.000000 3.586020 0.000000 
#    z 0.000000 0.000000 3.782680 
# 
# 
# High freq. dielectric constant tensor:
#      x y z
#    x 1.730540 0.000000 0.000000 
#    y 0.000000 1.777940 0.000000 
#    z 0.000000 0.000000 1.780000 
# 
# From -- ./inp_files/24553.got.cif
#   From: 2010.03.12/outbox.cif.g09.slc.cpg/sg44_13_cif.got.tgz:24553.got - 2010.04.14 02:36:11.
