data_PCOD8189220
_publ_section_title
;
Structure prediction by ZEFSAII (Michael W. Deem and Ramdas Pophale) SiO2 
 PCOD8189220
Probable space group: I M M 2
;
_chemical_formula_sum "Si O2"
_cell_formula_units_Z 40
_cell_length_a 9.339847
_cell_length_b 28.730779
_cell_length_c 9.298517
_cell_angle_alpha 90.000000
_cell_angle_beta 90.000000
_cell_angle_gamma 90.000000
_cell_volume 2495.174095
_symmetry_space_group_name_H-M "I M M 2"
_symmetry_group_IT_number 44
_symmetry_cell_setting 'orthorhombic'
loop_
_space_group_symop_operation_xyz
x,y,z
-x,-y,z
-x,y,z
x,-y,z
1/2+x,1/2+y,1/2+z
1/2-x,1/2-y,1/2+z
1/2-x,1/2+y,1/2+z
1/2+x,1/2-y,1/2+z
loop_
_atom_site_type_symbol
_atom_site_label
_atom_site_fract_x
_atom_site_fract_y
_atom_site_fract_z
Si Si1 0.168643 0.210139 0.471190
Si Si2 0.831361 0.210107 0.138863
Si Si3 0.667944 0.053917 0.804976
Si Si4 0.659515 0.377120 0.147007
Si Si5 0.840490 0.877156 0.963083
O O1 0.211222 0.212247 0.305025
O O2 0.249975 0.250034 0.554970
O O3 0.218884 0.160050 0.532562
O O4 0.000000 0.216734 0.495692
O O5 0.000000 0.216718 0.114357
O O6 0.781176 0.159996 0.077614
O O7 0.500000 0.062664 0.804980
O O8 0.736129 0.077784 0.661008
O O9 0.736110 0.077757 0.949000
O O10 0.708096 0.000000 0.804920
O O11 0.500000 0.393979 0.102108
O O12 0.654128 0.352643 0.305071
O O13 0.000000 0.894035 0.007919
#
# Coordination Sequence:
#
# PCOD8189220 Si02
#       5
#     8   8   8   8   8
#     4  10  20  33  49  70  98 131 165 201 241 286
#     4  10  20  33  49  70  98 131 165 201 241 286
#     4   9  17  29  49  75  97 119 157 205 246 287
#     4   8  16  30  47  68  95 124 158 196 237 287
#     4   8  16  30  47  68  95 124 158 196 237 287
#
# _framework density 16.030946
#
# number of rings (size 3 to 8) (size 9 to 14) (size 15 to 20)
#    1.200    1.800    0.000    1.200    0.000    5.600 
#    0.000    0.000    0.000    1.200    0.000    8.400 
#    0.000    0.000    0.000    0.000    0.000    0.000 
#
# Total GULP energy -247770.294618 kJ/mol
# GULP energy per Si atom -12388.514731 kJ/mol
# Density = 1.599446 g / cm^3
# Si number density = 16.030946 Si / 1000 Ang^3
#
#
#
# Elastic Constant Matrix: (Units=GPa)
#
#
# Indices 1 2 3 4 5 6 
#
# 1 70.7567 75.2651 37.9285 -0.0001 0.0004 0.0001
# 2 75.2651 146.8216 63.2171 0.0003 -0.0002 -0.0001
# 3 37.9285 63.2171 89.3954 -0.0031 -0.0030 -0.0004
# 4 -0.0001 0.0003 -0.0031 27.2517 -0.0005 -0.0001
# 5 0.0004 -0.0002 -0.0030 -0.0005 18.4966 -0.0002
# 6 0.0001 -0.0001 -0.0004 -0.0001 -0.0002 32.1871
#
#
#
# Elastic Compliance Matrix: (Units=1/GPa)
#
#
# Indices 1 2 3 4 5 6 
#
# 1 0.031562 -0.014973 -0.002803 0.000000 -0.000001 0.000000
# 2 -0.014973 0.016896 -0.005595 -0.000001 0.000000 0.000000
# 3 -0.002803 -0.005595 0.016332 0.000002 0.000003 0.000000
# 4 0.000000 -0.000001 0.000002 0.036695 0.000001 0.000000
# 5 -0.000001 0.000000 0.000003 0.000001 0.054064 0.000000
# 6 0.000000 0.000000 0.000000 0.000000 0.000000 0.031068
#
#
# Mechanical properties :
#
#
# Convention : Reuss Voigt Hill
#
# Bulk Modulus (GPa) = 55.40777 73.31056 64.35916
# Shear Modulus (GPa) = 20.88762 24.29129 22.58946
#
# Velocity S-wave (km/s) = 3.61356 3.89688 3.75789
# Velocity P-wave (km/s) = 7.21447 8.12880 7.68524
#
# Compressibility (1/GPa) = 0.01804801
#
# Stress axis : x y z
#
# Youngs Moduli (GPa) = 31.68328 59.18640 61.22838
#
# Poissons Ratio (x) = 0.88620 0.17162
# Poissons Ratio (y) = 0.47439 0.34260
# Poissons Ratio (z) = 0.08880 0.33117
#
# Static dielectric constant tensor:
#      x y z
#    x 2.989360 0.000000 0.000000 
#    y 0.000000 2.896040 0.000000 
#    z 0.000000 0.000000 2.986370 
# 
# 
# High freq. dielectric constant tensor:
#      x y z
#    x 1.616130 0.000000 0.000000 
#    y 0.000000 1.603700 0.000000 
#    z 0.000000 0.000000 1.594680 
# 
# From -- ./inp_files/4730.got.cif
#   From: 2010.03.12/outbox.cif.g09.slc.cpg/sg44_3_cif.got.tgz:4730.got - 2010.04.14 02:36:11.
