data_PCOD8189998
_publ_section_title
;
Structure prediction by ZEFSAII (Michael W. Deem and Ramdas Pophale) SiO2 
 PCOD8189998
Probable space group: I M M 2
;
_chemical_formula_sum "Si O2"
_cell_formula_units_Z 40
_cell_length_a 16.393266
_cell_length_b 9.242834
_cell_length_c 12.600861
_cell_angle_alpha 90.000000
_cell_angle_beta 90.000000
_cell_angle_gamma 90.000000
_cell_volume 1909.285437
_symmetry_space_group_name_H-M "I M M 2"
_symmetry_group_IT_number 44
_symmetry_cell_setting 'orthorhombic'
loop_
_space_group_symop_operation_xyz
x,y,z
-x,-y,z
-x,y,z
x,-y,z
1/2+x,1/2+y,1/2+z
1/2-x,1/2-y,1/2+z
1/2-x,1/2+y,1/2+z
1/2+x,1/2-y,1/2+z
loop_
_atom_site_type_symbol
_atom_site_label
_atom_site_fract_x
_atom_site_fract_y
_atom_site_fract_z
Si Si1 0.157637 0.331440 0.128880
Si Si2 0.657775 0.334436 0.196645
Si Si3 0.594442 0.840914 0.009223
Si Si4 0.906069 0.840698 0.317939
Si Si5 0.095408 0.168567 0.928593
O O1 0.134898 0.500000 0.126285
O O2 0.248564 0.304568 0.170035
O O3 0.098852 0.249329 0.209937
O O4 0.143988 0.264136 0.013411
O O5 0.633573 0.500000 0.174112
O O6 0.603189 0.234341 0.122432
O O7 0.637466 0.293182 0.317072
O O8 0.500000 0.859753 0.983381
O O9 0.636133 0.000000 0.010213
O O10 0.636317 0.745786 0.915637
O O11 0.000000 0.863077 0.345509
O O12 0.864774 0.000000 0.306861
O O13 0.000000 0.210738 0.925738
O O14 0.106003 0.000000 0.956870
#
# Coordination Sequence:
#
# PCOD8189998 Si02
#       5
#     8   8   8   8   8
#     4  11  24  39  59  91 126 158 200 255 311 361
#     4  10  23  41  61  88 122 161 204 250 305 365
#     4  10  21  37  60  90 121 154 196 249 304 356
#     4  10  21  38  61  87 118 159 202 243 296 364
#     4  10  22  42  66  89 119 165 214 256 305 370
#
# _framework density 20.950246
#
# number of rings (size 3 to 8) (size 9 to 14) (size 15 to 20)
#    0.000    1.800    0.000    3.000    2.800    8.400 
#    0.000    0.000    0.000    0.000    0.000    0.000 
#    0.000    0.000    0.000    0.000    0.000    0.000 
#
# Total GULP energy -248042.553022 kJ/mol
# GULP energy per Si atom -12402.127651 kJ/mol
# Density = 2.090256 g / cm^3
# Si number density = 20.950246 Si / 1000 Ang^3
#
#
#
# Elastic Constant Matrix: (Units=GPa)
#
#
# Indices 1 2 3 4 5 6 
#
# 1 56.9041 35.4281 39.5987 0.0000 0.0000 0.0000
# 2 35.4281 162.1565 103.0060 0.0000 0.0000 0.0000
# 3 39.5987 103.0060 175.6581 0.0000 0.0000 0.0000
# 4 0.0000 0.0000 0.0000 39.7312 0.0000 0.0000
# 5 0.0000 0.0000 0.0000 0.0000 34.3962 0.0000
# 6 0.0000 0.0000 0.0000 0.0000 0.0000 18.5064
#
#
#
# Elastic Compliance Matrix: (Units=1/GPa)
#
#
# Indices 1 2 3 4 5 6 
#
# 1 0.021499 -0.002579 -0.003334 0.000000 0.000000 0.000000
# 2 -0.002579 0.010137 -0.005363 0.000000 0.000000 0.000000
# 3 -0.003334 -0.005363 0.009589 0.000000 0.000000 0.000000
# 4 0.000000 0.000000 0.000000 0.025169 0.000000 0.000000
# 5 0.000000 0.000000 0.000000 0.000000 0.029073 0.000000
# 6 0.000000 0.000000 0.000000 0.000000 0.000000 0.054035
#
#
# Mechanical properties :
#
#
# Convention : Reuss Voigt Hill
#
# Bulk Modulus (GPa) = 53.55291 83.42048 68.48669
# Shear Modulus (GPa) = 28.04571 32.97249 30.50910
#
# Velocity S-wave (km/s) = 3.66277 3.97148 3.82024
# Velocity P-wave (km/s) = 6.59585 7.80609 7.22635
#
# Compressibility (1/GPa) = 0.01867312
#
# Stress axis : x y z
#
# Youngs Moduli (GPa) = 46.51287 98.64767 104.28262
#
# Poissons Ratio (x) = 0.25444 0.34769
# Poissons Ratio (y) = 0.11997 0.55926
# Poissons Ratio (z) = 0.15508 0.52904
#
# Static dielectric constant tensor:
#      x y z
#    x 3.540540 0.000000 0.000000 
#    y 0.000000 4.141280 0.000000 
#    z 0.000000 0.000000 3.802610 
# 
# 
# High freq. dielectric constant tensor:
#      x y z
#    x 1.802240 0.000000 0.000000 
#    y 0.000000 1.831760 0.000000 
#    z 0.000000 0.000000 1.831670 
# 
# From -- ./inp_files/10828.got.cif
#   From: 2010.03.12/outbox.cif.g09.slc.cpg/sg44_6_cif.got.tgz:10828.got - 2010.04.14 02:36:11.
