data_PCOD8189375
_publ_section_title
;
Structure prediction by ZEFSAII (Michael W. Deem and Ramdas Pophale) SiO2 
 PCOD8189375
Probable space group: I M M 2
;
_chemical_formula_sum "Si O2"
_cell_formula_units_Z 64
_cell_length_a 19.192927
_cell_length_b 9.115350
_cell_length_c 20.172500
_cell_angle_alpha 90.000000
_cell_angle_beta 90.000000
_cell_angle_gamma 90.000000
_cell_volume 3529.183860
_symmetry_space_group_name_H-M "I M M 2"
_symmetry_group_IT_number 44
_symmetry_cell_setting 'orthorhombic'
loop_
_space_group_symop_operation_xyz
x,y,z
-x,-y,z
-x,y,z
x,-y,z
1/2+x,1/2+y,1/2+z
1/2-x,1/2-y,1/2+z
1/2-x,1/2+y,1/2+z
1/2+x,1/2-y,1/2+z
loop_
_atom_site_type_symbol
_atom_site_label
_atom_site_fract_x
_atom_site_fract_y
_atom_site_fract_z
Si Si1 0.831010 0.829218 0.511560
Si Si2 0.670185 0.170307 0.515487
Si Si3 0.419294 0.169425 0.391359
Si Si4 0.580398 0.832413 0.905675
Si Si5 0.579848 0.831159 0.752253
Si Si6 0.581773 0.669122 0.258310
Si Si7 0.327322 0.328755 0.648043
Si Si8 0.166311 0.672242 0.645069
O O1 0.750140 0.795518 0.498429
O O2 0.872919 0.777778 0.447552
O O3 0.857868 0.741728 0.575643
O O4 0.844747 0.000000 0.523895
O O5 0.624349 0.225969 0.454065
O O6 0.645077 0.255170 0.580747
O O7 0.657190 0.000000 0.529307
O O8 0.500000 0.192519 0.408326
O O9 0.395870 0.266360 0.329141
O O10 0.402651 0.000000 0.375091
O O11 0.500000 0.805487 0.923558
O O12 0.594126 0.797230 0.828976
O O13 0.601123 0.000000 0.921640
O O14 0.500000 0.795276 0.734316
O O15 0.630049 0.728589 0.710404
O O16 0.596520 0.000000 0.736167
O O17 0.500000 0.689382 0.246757
O O18 0.604365 0.500000 0.255335
O O19 0.620575 0.759090 0.202392
O O20 0.339519 0.500000 0.641060
O O21 0.246595 0.289591 0.659542
O O22 0.152470 0.500000 0.641899
#
# Coordination Sequence:
#
# PCOD8189375 Si02
#       8
#     8   8   8   8   8   8   8   8
#     4  10  20  34  53  77 105 135 169 213 260 303
#     4   9  19  35  53  75 105 139 174 211 252 304
#     4   9  18  34  55  77 103 137 174 209 249 302
#     4   9  19  36  55  75 101 134 172 211 252 305
#     4   9  19  36  56  77 104 140 178 212 251 306
#     4  10  21  36  54  78 106 134 169 215 262 306
#     4  10  21  35  53  79 107 135 172 218 262 303
#     4  10  21  37  55  75 103 139 176 212 254 309
#
# _framework density 18.134505000000001
#
# number of rings (size 3 to 8) (size 9 to 14) (size 15 to 20)
#    0.000    2.500    0.000    2.250    0.000    6.250 
#    0.000    6.250    0.000    0.000    0.000    0.000 
#    0.000    0.000    0.000    0.000    0.000    0.000 
#
# Total GULP energy -396920.510474 kJ/mol
# GULP energy per Si atom -12403.765952 kJ/mol
# Density = 1.809323 g / cm^3
# Si number density = 18.134505 Si / 1000 Ang^3
#
#
#
# Elastic Constant Matrix: (Units=GPa)
#
#
# Indices 1 2 3 4 5 6 
#
# 1 59.1873 42.9282 60.9816 0.0000 0.0000 0.0000
# 2 42.9282 88.3753 63.9656 0.0000 0.0000 0.0000
# 3 60.9816 63.9656 126.7596 0.0000 0.0000 0.0000
# 4 0.0000 0.0000 0.0000 38.1989 0.0000 0.0000
# 5 0.0000 0.0000 0.0000 0.0000 40.9111 0.0000
# 6 0.0000 0.0000 0.0000 0.0000 0.0000 30.0387
#
#
#
# Elastic Compliance Matrix: (Units=1/GPa)
#
#
# Indices 1 2 3 4 5 6 
#
# 1 0.036743 -0.007962 -0.013659 0.000000 0.000000 0.000000
# 2 -0.007962 0.019552 -0.006036 0.000000 0.000000 0.000000
# 3 -0.013659 -0.006036 0.017506 0.000000 0.000000 0.000000
# 4 0.000000 0.000000 0.000000 0.026179 0.000000 0.000000
# 5 0.000000 0.000000 0.000000 0.000000 0.024443 0.000000
# 6 0.000000 0.000000 0.000000 0.000000 0.000000 0.033290
#
#
# Mechanical properties :
#
#
# Convention : Reuss Voigt Hill
#
# Bulk Modulus (GPa) = 54.09046 67.78590 60.93818
# Shear Modulus (GPa) = 22.81157 28.92620 25.86888
#
# Velocity S-wave (km/s) = 3.55055 3.99819 3.78100
# Velocity P-wave (km/s) = 6.83379 7.66647 7.26207
#
# Compressibility (1/GPa) = 0.01848755
#
# Stress axis : x y z
#
# Youngs Moduli (GPa) = 27.21630 51.14693 57.12447
#
# Poissons Ratio (x) = 0.40722 0.78024
# Poissons Ratio (y) = 0.21669 0.34480
# Poissons Ratio (z) = 0.37173 0.30872
#
# Static dielectric constant tensor:
#      x y z
#    x 3.271500 0.000000 0.000000 
#    y 0.000000 3.366730 0.000000 
#    z 0.000000 0.000000 3.395080 
# 
# 
# High freq. dielectric constant tensor:
#      x y z
#    x 1.697560 0.000000 0.000000 
#    y 0.000000 1.707530 0.000000 
#    z 0.000000 0.000000 1.709920 
# 
# From -- ./inp_files/20752.got.cif
#   From: 2010.03.12/outbox.cif.g09.slc.cpg/sg44_11_cif.got.tgz:20752.got - 2010.04.14 02:36:11.
