data_PCOD8189409
_publ_section_title
;
Structure prediction by ZEFSAII (Michael W. Deem and Ramdas Pophale) SiO2 
 PCOD8189409
Probable space group: I M M 2
;
_chemical_formula_sum "Si O2"
_cell_formula_units_Z 48
_cell_length_a 7.906153
_cell_length_b 9.309131
_cell_length_c 34.003013
_cell_angle_alpha 90.000000
_cell_angle_beta 90.000000
_cell_angle_gamma 90.000000
_cell_volume 2502.601830
_symmetry_space_group_name_H-M "I M M 2"
_symmetry_group_IT_number 44
_symmetry_cell_setting 'orthorhombic'
loop_
_space_group_symop_operation_xyz
x,y,z
-x,-y,z
-x,y,z
x,-y,z
1/2+x,1/2+y,1/2+z
1/2-x,1/2-y,1/2+z
1/2-x,1/2+y,1/2+z
1/2+x,1/2-y,1/2+z
loop_
_atom_site_type_symbol
_atom_site_label
_atom_site_fract_x
_atom_site_fract_y
_atom_site_fract_z
Si Si1 0.187480 0.670697 0.233260
Si Si2 0.201071 0.663526 0.147046
Si Si3 0.000000 0.328444 0.365693
Si Si4 0.806565 0.663075 0.573500
Si Si5 0.811174 0.664642 0.001648
Si Si6 0.500000 0.330920 0.947475
Si Si7 0.184714 0.829445 0.814922
O O1 0.176414 0.500000 0.234103
O O2 0.262193 0.715108 0.190597
O O3 0.297015 0.728093 0.270039
O O4 0.000000 0.735128 0.238476
O O5 0.258725 0.500000 0.138908
O O6 0.289581 0.766381 0.116066
O O7 0.000000 0.675842 0.144030
O O8 0.166380 0.270902 0.342841
O O9 0.000000 0.500000 0.369636
O O10 0.000000 0.259224 0.408114
O O11 0.742040 0.500000 0.576073
O O12 0.694561 0.744933 0.541546
O O13 0.000000 0.670981 0.559777
O O14 0.776614 0.500000 0.013273
O O15 0.669081 0.715743 0.970883
O O16 0.000000 0.683702 0.983362
O O17 0.500000 0.500000 0.938148
O O18 0.000000 0.778945 0.830591
O O19 0.196797 0.000000 0.814471
#
# Coordination Sequence:
#
# PCOD8189409 Si02
#       7
#     8   8   4   8   8   4   8
#     4   8  13  25  45  70 103 138 174 222 272 312
#     4   9  18  31  50  77 106 139 182 230 275 320
#     4  10  20  34  54  80 112 142 174 224 270 318
#     4  11  23  36  51  75 110 148 183 221 271 327
#     4  10  21  39  63  85 105 137 181 225 271 324
#     4  10  22  40  60  84 112 140 174 222 274 328
#     4   9  16  27  47  76 108 142 178 218 269 318
#
# _framework density 19.180038
#
# number of rings (size 3 to 8) (size 9 to 14) (size 15 to 20)
#    0.000    2.500    1.667    2.000    0.000    5.667 
#    0.000    1.667    0.000    1.000    0.000    0.000 
#    0.000    0.000    0.000    0.000    0.000    0.000 
#
# Total GULP energy -297489.168490 kJ/mol
# GULP energy per Si atom -12395.382020 kJ/mol
# Density = 1.913638 g / cm^3
# Si number density = 19.180038 Si / 1000 Ang^3
#
#
#
# Elastic Constant Matrix: (Units=GPa)
#
#
# Indices 1 2 3 4 5 6 
#
# 1 125.7339 28.0513 66.1704 0.0000 0.0000 0.0000
# 2 28.0513 53.8007 44.5594 0.0000 0.0000 0.0000
# 3 66.1704 44.5594 144.6655 0.0000 0.0000 0.0000
# 4 0.0000 0.0000 0.0000 24.2396 0.0000 0.0000
# 5 0.0000 0.0000 0.0000 0.0000 25.7895 0.0000
# 6 0.0000 0.0000 0.0000 0.0000 0.0000 12.9633
#
#
#
# Elastic Compliance Matrix: (Units=1/GPa)
#
#
# Indices 1 2 3 4 5 6 
#
# 1 0.010638 -0.002036 -0.004239 0.000000 0.000000 0.000000
# 2 -0.002036 0.025342 -0.006875 0.000000 0.000000 0.000000
# 3 -0.004239 -0.006875 0.010969 0.000000 0.000000 0.000000
# 4 0.000000 0.000000 0.000000 0.041255 0.000000 0.000000
# 5 0.000000 0.000000 0.000000 0.000000 0.038775 0.000000
# 6 0.000000 0.000000 0.000000 0.000000 0.000000 0.077141
#
#
# Mechanical properties :
#
#
# Convention : Reuss Voigt Hill
#
# Bulk Modulus (GPa) = 48.42464 66.86249 57.64356
# Shear Modulus (GPa) = 21.07009 24.95976 23.01492
#
# Velocity S-wave (km/s) = 3.31802 3.61132 3.46778
# Velocity P-wave (km/s) = 6.32307 7.23360 6.79361
#
# Compressibility (1/GPa) = 0.02065065
#
# Stress axis : x y z
#
# Youngs Moduli (GPa) = 93.99955 39.45951 91.16696
#
# Poissons Ratio (x) = 0.08034 0.38645
# Poissons Ratio (y) = 0.19138 0.62674
# Poissons Ratio (z) = 0.39845 0.27127
#
# Static dielectric constant tensor:
#      x y z
#    x 3.678360 0.000000 0.000000 
#    y 0.000000 3.085810 0.000000 
#    z 0.000000 0.000000 3.559780 
# 
# 
# High freq. dielectric constant tensor:
#      x y z
#    x 1.753710 0.000000 0.000000 
#    y 0.000000 1.695430 0.000000 
#    z 0.000000 0.000000 1.746600 
# 
# From -- ./inp_files/26948.got.cif
#   From: 2010.03.12/outbox.cif.g09.slc.cpg/sg44_14_cif.got.tgz:26948.got - 2010.04.14 02:36:11.
