data_PCOD8189415
_publ_section_title
;
Structure prediction by ZEFSAII (Michael W. Deem and Ramdas Pophale) SiO2 
 PCOD8189415
Probable space group: I M M 2
;
_chemical_formula_sum "Si O2"
_cell_formula_units_Z 64
_cell_length_a 23.399830
_cell_length_b 15.275154
_cell_length_c 9.157684
_cell_angle_alpha 90.000000
_cell_angle_beta 90.000000
_cell_angle_gamma 90.000000
_cell_volume 3273.286001
_symmetry_space_group_name_H-M "I M M 2"
_symmetry_group_IT_number 44
_symmetry_cell_setting 'orthorhombic'
loop_
_space_group_symop_operation_xyz
x,y,z
-x,-y,z
-x,y,z
x,-y,z
1/2+x,1/2+y,1/2+z
1/2-x,1/2-y,1/2+z
1/2-x,1/2+y,1/2+z
1/2+x,1/2-y,1/2+z
loop_
_atom_site_type_symbol
_atom_site_label
_atom_site_fract_x
_atom_site_fract_y
_atom_site_fract_z
Si Si1 0.230721 0.904684 0.085390
Si Si2 0.063866 0.744473 0.088164
Si Si3 0.563743 0.255225 0.254191
Si Si4 0.822694 0.326833 0.775267
Si Si5 0.380790 0.603051 0.742449
Si Si6 0.619892 0.596901 0.080463
Si Si7 0.772707 0.141063 0.764159
Si Si8 0.338726 0.897346 0.585305
O O1 0.289005 0.859645 0.134499
O O2 0.174221 0.860554 0.153232
O O3 0.231156 0.000000 0.156888
O O4 0.229746 0.914297 0.911723
O O5 0.070198 0.830213 0.190327
O O6 0.106134 0.662870 0.119883
O O7 0.000000 0.707605 0.112513
O O8 0.071701 0.780033 0.923593
O O9 0.500000 0.218591 0.221988
O O10 0.611898 0.182783 0.218186
O O11 0.573907 0.340540 0.156127
O O12 0.793244 0.235709 0.818856
O O13 0.820021 0.389489 0.915756
O O14 0.395442 0.500000 0.710257
O O15 0.370732 0.620936 0.912281
O O16 0.594201 0.500000 0.095674
O O17 0.681922 0.600136 0.153632
O O18 0.711436 0.139644 0.687141
O O19 0.351405 0.000000 0.618035
#
# Coordination Sequence:
#
# PCOD8189415 Si02
#       8
#     8   8   8   8   8   8   8   8
#     4  11  21  34  54  81 112 141 174 218 272 332
#     4  10  22  40  59  80 109 148 195 240 284 336
#     4   9  20  37  55  76 103 140 185 230 274 324
#     4  10  20  35  56  80 109 144 181 227 278 331
#     4  10  21  36  56  84 117 151 186 228 283 347
#     4  10  20  34  54  82 114 145 179 222 277 342
#     4  11  21  35  55  82 113 145 181 223 276 337
#     4  11  22  37  58  84 115 150 191 238 286 336
#
# _framework density 19.552216999999999
#
# number of rings (size 3 to 8) (size 9 to 14) (size 15 to 20)
#    0.000    1.750    0.000    6.000    0.000    6.750 
#    0.000    2.500    0.000    1.125    0.000    0.000 
#    0.000    2.000    0.000    0.000    0.000    0.000 
#
# Total GULP energy -396694.143724 kJ/mol
# GULP energy per Si atom -12396.691991 kJ/mol
# Density = 1.950772 g / cm^3
# Si number density = 19.552217 Si / 1000 Ang^3
#
#
#
# Elastic Constant Matrix: (Units=GPa)
#
#
# Indices 1 2 3 4 5 6 
#
# 1 133.1387 39.4577 39.9097 0.0000 0.0000 0.0000
# 2 39.4577 76.6077 21.4709 0.0000 0.0000 0.0000
# 3 39.9097 21.4709 86.7342 0.0000 0.0000 0.0000
# 4 0.0000 0.0000 0.0000 30.1011 0.0000 0.0000
# 5 0.0000 0.0000 0.0000 0.0000 28.7212 0.0000
# 6 0.0000 0.0000 0.0000 0.0000 0.0000 17.7501
#
#
#
# Elastic Compliance Matrix: (Units=1/GPa)
#
#
# Indices 1 2 3 4 5 6 
#
# 1 0.009756 -0.004048 -0.003487 0.000000 0.000000 0.000000
# 2 -0.004048 0.015706 -0.002026 0.000000 0.000000 0.000000
# 3 -0.003487 -0.002026 0.013635 0.000000 0.000000 0.000000
# 4 0.000000 0.000000 0.000000 0.033221 0.000000 0.000000
# 5 0.000000 0.000000 0.000000 0.000000 0.034817 0.000000
# 6 0.000000 0.000000 0.000000 0.000000 0.000000 0.056338
#
#
# Mechanical properties :
#
#
# Convention : Reuss Voigt Hill
#
# Bulk Modulus (GPa) = 50.05783 55.35079 52.70431
# Shear Modulus (GPa) = 26.41968 28.35730 27.38849
#
# Velocity S-wave (km/s) = 3.67991 3.81246 3.74677
# Velocity P-wave (km/s) = 6.61160 6.91017 6.76254
#
# Compressibility (1/GPa) = 0.01997689
#
# Stress axis : x y z
#
# Youngs Moduli (GPa) = 102.50327 63.67020 73.33834
#
# Poissons Ratio (x) = 0.25771 0.25573
# Poissons Ratio (y) = 0.41488 0.14855
# Poissons Ratio (z) = 0.35743 0.12897
#
# Static dielectric constant tensor:
#      x y z
#    x 3.653440 0.000000 0.000000 
#    y 0.000000 3.561390 0.000000 
#    z 0.000000 0.000000 3.479440 
# 
# 
# High freq. dielectric constant tensor:
#      x y z
#    x 1.759640 0.000000 0.000000 
#    y 0.000000 1.753600 0.000000 
#    z 0.000000 0.000000 1.763070 
# 
# From -- ./inp_files/7585.got.cif
#   From: 2010.03.12/outbox.cif.g09.slc.cpg/sg44_4_cif.got.tgz:7585.got - 2010.04.14 02:36:11.
