data_PCOD8189974
_publ_section_title
;
Structure prediction by ZEFSAII (Michael W. Deem and Ramdas Pophale) SiO2 
 PCOD8189974
Probable space group: I M M 2
;
_chemical_formula_sum "Si O2"
_cell_formula_units_Z 56
_cell_length_a 9.172811
_cell_length_b 18.764918
_cell_length_c 17.396053
_cell_angle_alpha 90.000000
_cell_angle_beta 90.000000
_cell_angle_gamma 90.000000
_cell_volume 2994.331219
_symmetry_space_group_name_H-M "I M M 2"
_symmetry_group_IT_number 44
_symmetry_cell_setting 'orthorhombic'
loop_
_space_group_symop_operation_xyz
x,y,z
-x,-y,z
-x,y,z
x,-y,z
1/2+x,1/2+y,1/2+z
1/2-x,1/2-y,1/2+z
1/2-x,1/2+y,1/2+z
1/2+x,1/2-y,1/2+z
loop_
_atom_site_type_symbol
_atom_site_label
_atom_site_fract_x
_atom_site_fract_y
_atom_site_fract_z
Si Si1 0.840589 0.706862 0.094560
Si Si2 0.172599 0.203725 0.953824
Si Si3 0.837080 0.076701 0.610621
Si Si4 0.831363 0.316877 0.834339
Si Si5 0.339514 0.420811 0.928778
Si Si6 0.171567 0.583176 0.539742
Si Si7 0.836781 0.849861 0.181095
O O1 0.754244 0.644287 0.138223
O O2 0.847852 0.769138 0.155527
O O3 0.000000 0.676671 0.074829
O O4 0.769431 0.738151 0.016248
O O5 0.202519 0.236961 0.868683
O O6 0.000000 0.189937 0.967428
O O7 0.257845 0.129654 0.969866
O O8 0.833414 0.076405 0.519613
O O9 0.000000 0.086445 0.642332
O O10 0.775549 0.000000 0.640523
O O11 0.792876 0.371731 0.901749
O O12 0.737598 0.344432 0.763507
O O13 0.000000 0.322098 0.812124
O O14 0.500000 0.392015 0.903027
O O15 0.316821 0.500000 0.894928
O O16 0.199946 0.500000 0.521845
O O17 0.244055 0.602604 0.621604
O O18 0.000000 0.599914 0.544547
O O19 0.000000 0.882750 0.188150
#
# Coordination Sequence:
#
# PCOD8189974 Si02
#       7
#     8   8   8   8   8   8   8
#     4   9  17  32  50  71  98 128 167 211 253 304
#     4   9  19  34  53  78 106 137 174 218 268 319
#     4   9  17  28  45  71  99 127 161 199 240 290
#     4  11  21  34  52  77 107 139 179 220 261 312
#     4   9  18  31  46  69 102 137 169 199 241 297
#     4  10  21  37  58  84 109 137 180 228 272 322
#     4  10  22  37  53  75 105 140 176 214 266 324
#
# _framework density 18.702006000000001
#
# number of rings (size 3 to 8) (size 9 to 14) (size 15 to 20)
#    0.000    2.429    1.429    3.000    0.000    6.286 
#    0.000    1.429    0.000    0.857    0.000    0.000 
#    0.000    0.000    0.000    0.000    0.000    0.000 
#
# Total GULP energy -346910.803757 kJ/mol
# GULP energy per Si atom -12389.671563 kJ/mol
# Density = 1.865944 g / cm^3
# Si number density = 18.702006 Si / 1000 Ang^3
#
#
#
# Elastic Constant Matrix: (Units=GPa)
#
#
# Indices 1 2 3 4 5 6 
#
# 1 88.0223 43.6823 14.2576 0.0000 0.0000 0.0000
# 2 43.6823 95.5990 4.3091 0.0000 0.0000 0.0000
# 3 14.2576 4.3091 31.4289 0.0000 0.0000 0.0000
# 4 0.0000 0.0000 0.0000 13.1564 0.0000 0.0000
# 5 0.0000 0.0000 0.0000 0.0000 23.1033 0.0000
# 6 0.0000 0.0000 0.0000 0.0000 0.0000 33.5891
#
#
#
# Elastic Compliance Matrix: (Units=1/GPa)
#
#
# Indices 1 2 3 4 5 6 
#
# 1 0.015816 -0.006946 -0.006222 0.000000 0.000000 0.000000
# 2 -0.006946 0.013576 0.001290 0.000000 0.000000 0.000000
# 3 -0.006222 0.001290 0.034464 0.000000 0.000000 0.000000
# 4 0.000000 0.000000 0.000000 0.076009 0.000000 0.000000
# 5 0.000000 0.000000 0.000000 0.000000 0.043284 0.000000
# 6 0.000000 0.000000 0.000000 0.000000 0.000000 0.029772
#
#
# Mechanical properties :
#
#
# Convention : Reuss Voigt Hill
#
# Bulk Modulus (GPa) = 24.93893 37.72759 31.33326
# Shear Modulus (GPa) = 19.99649 24.15651 22.07650
#
# Velocity S-wave (km/s) = 3.27343 3.59786 3.43947
# Velocity P-wave (km/s) = 5.25842 6.12178 5.70645
#
# Compressibility (1/GPa) = 0.04009795
#
# Stress axis : x y z
#
# Youngs Moduli (GPa) = 63.22771 73.65823 29.01597
#
# Poissons Ratio (x) = 0.51165 0.18055
# Poissons Ratio (y) = 0.43920 -0.03742
# Poissons Ratio (z) = 0.39343 -0.09500
#
# Static dielectric constant tensor:
#      x y z
#    x 3.679520 0.000000 0.000000 
#    y 0.000000 3.693360 0.000000 
#    z 0.000000 0.000000 3.124730 
# 
# 
# High freq. dielectric constant tensor:
#      x y z
#    x 1.728380 0.000000 0.000000 
#    y 0.000000 1.725860 0.000000 
#    z 0.000000 0.000000 1.689870 
# 
# From -- ./inp_files/20704.got.cif
#   From: 2010.03.12/outbox.cif.g09.slc.cpg/sg44_11_cif.got.tgz:20704.got - 2010.04.14 02:36:11.
