data_PCOD8189444
_publ_section_title
;
Structure prediction by ZEFSAII (Michael W. Deem and Ramdas Pophale) SiO2 
 PCOD8189444
Probable space group: I M M 2
;
_chemical_formula_sum "Si O2"
_cell_formula_units_Z 56
_cell_length_a 9.221349
_cell_length_b 21.026711
_cell_length_c 14.103143
_cell_angle_alpha 90.000000
_cell_angle_beta 90.000000
_cell_angle_gamma 90.000000
_cell_volume 2734.523841
_symmetry_space_group_name_H-M "I M M 2"
_symmetry_group_IT_number 44
_symmetry_cell_setting 'orthorhombic'
loop_
_space_group_symop_operation_xyz
x,y,z
-x,-y,z
-x,y,z
x,-y,z
1/2+x,1/2+y,1/2+z
1/2-x,1/2-y,1/2+z
1/2-x,1/2+y,1/2+z
1/2+x,1/2-y,1/2+z
loop_
_atom_site_type_symbol
_atom_site_label
_atom_site_fract_x
_atom_site_fract_y
_atom_site_fract_z
Si Si1 0.343301 0.500000 0.100490
Si Si2 0.658381 0.500000 0.880787
Si Si3 0.836809 0.426498 0.427738
Si Si4 0.337999 0.107409 0.289676
Si Si5 0.170127 0.858036 0.609502
Si Si6 0.832847 0.926063 0.116585
Si Si7 0.162317 0.712716 0.940437
Si Si8 0.668993 0.668907 0.318814
O O1 0.500000 0.500000 0.153357
O O2 0.265693 0.568839 0.122835
O O3 0.370121 0.500000 0.990066
O O4 0.500000 0.500000 0.828227
O O5 0.749790 0.561212 0.856622
O O6 0.836278 0.500000 0.402517
O O7 0.736119 0.410608 0.516426
O O8 0.766122 0.392785 0.337753
O O9 0.000000 0.402530 0.447594
O O10 0.500000 0.081274 0.268417
O O11 0.251994 0.117021 0.191850
O O12 0.345728 0.172803 0.344371
O O13 0.241605 0.818422 0.523235
O O14 0.194763 0.817464 0.706391
O O15 0.000000 0.864196 0.584774
O O16 0.000000 0.906170 0.113227
O O17 0.812056 0.000000 0.145446
O O18 0.223350 0.778389 0.895467
O O19 0.000000 0.721073 0.982165
O O20 0.500000 0.654769 0.335749
#
# Coordination Sequence:
#
# PCOD8189444 Si02
#       8
#     4   4   8   8   8   8   8   8
#     4   9  18  33  57  90 121 150 201 265 312 364
#     4  11  19  31  53  82 117 150 201 259 308 372
#     4  10  22  40  61  87 119 152 195 249 307 368
#     4  11  21  33  53  82 122 163 201 251 312 361
#     4  10  21  39  64  92 121 160 208 258 310 366
#     4  10  20  34  55  84 118 155 198 243 291 352
#     4  10  23  41  58  86 125 161 202 252 303 366
#     4  10  23  42  64  88 119 158 204 250 302 369
#
# _framework density 20.478884999999998
#
# number of rings (size 3 to 8) (size 9 to 14) (size 15 to 20)
#    0.000    1.857    2.143    1.500    1.000    4.286 
#    0.000    1.786    0.000    0.000    0.000    0.000 
#    0.000    0.000    0.000    0.000    0.000    0.000 
#
# Total GULP energy -346960.472910 kJ/mol
# GULP energy per Si atom -12391.445461 kJ/mol
# Density = 2.043227 g / cm^3
# Si number density = 20.478885 Si / 1000 Ang^3
#
#
#
# Elastic Constant Matrix: (Units=GPa)
#
#
# Indices 1 2 3 4 5 6 
#
# 1 123.6345 35.3543 57.5604 0.0000 0.0000 0.0000
# 2 35.3543 74.3057 48.8186 0.0000 0.0000 0.0000
# 3 57.5604 48.8186 109.1432 -0.0002 -0.0001 0.0000
# 4 0.0000 0.0000 -0.0002 25.3333 0.0000 0.0000
# 5 0.0000 0.0000 -0.0001 0.0000 34.3286 0.0000
# 6 0.0000 0.0000 0.0000 0.0000 0.0000 25.7872
#
#
#
# Elastic Compliance Matrix: (Units=1/GPa)
#
#
# Indices 1 2 3 4 5 6 
#
# 1 0.010927 -0.002001 -0.004868 0.000000 0.000000 0.000000
# 2 -0.002001 0.019425 -0.007633 0.000000 0.000000 0.000000
# 3 -0.004868 -0.007633 0.015144 0.000000 0.000000 0.000000
# 4 0.000000 0.000000 0.000000 0.039474 0.000000 0.000000
# 5 0.000000 0.000000 0.000000 0.000000 0.029130 0.000000
# 6 0.000000 0.000000 0.000000 0.000000 0.000000 0.038779
#
#
# Mechanical properties :
#
#
# Convention : Reuss Voigt Hill
#
# Bulk Modulus (GPa) = 60.63645 65.61665 63.12655
# Shear Modulus (GPa) = 26.68383 28.11316 27.39849
#
# Velocity S-wave (km/s) = 3.61361 3.70913 3.66169
# Velocity P-wave (km/s) = 6.86181 7.10312 6.98351
#
# Compressibility (1/GPa) = 0.01649173
#
# Stress axis : x y z
#
# Youngs Moduli (GPa) = 91.51859 51.47995 66.03397
#
# Poissons Ratio (x) = 0.10301 0.32143
# Poissons Ratio (y) = 0.18312 0.50406
# Poissons Ratio (z) = 0.44548 0.39297
#
# Static dielectric constant tensor:
#      x y z
#    x 3.742730 0.000000 0.000000 
#    y 0.000000 3.665560 0.000000 
#    z 0.000000 0.000000 3.633920 
# 
# 
# High freq. dielectric constant tensor:
#      x y z
#    x 1.794510 0.000000 0.000000 
#    y 0.000000 1.789050 0.000000 
#    z 0.000000 0.000000 1.806080 
# 
# From -- ./inp_files/16537.got.cif
#   From: 2010.03.12/outbox.cif.g09.slc.cpg/sg44_9_cif.got.tgz:16537.got - 2010.04.14 02:36:11.
