data_PCOD8189615
_publ_section_title
;
Structure prediction by ZEFSAII (Michael W. Deem and Ramdas Pophale) SiO2 
 PCOD8189615
Probable space group: I M M 2
;
_chemical_formula_sum "Si O2"
_cell_formula_units_Z 52
_cell_length_a 14.876321
_cell_length_b 23.105280
_cell_length_c 7.608686
_cell_angle_alpha 90.000000
_cell_angle_beta 90.000000
_cell_angle_gamma 90.000000
_cell_volume 2615.269437
_symmetry_space_group_name_H-M "I M M 2"
_symmetry_group_IT_number 44
_symmetry_cell_setting 'orthorhombic'
loop_
_space_group_symop_operation_xyz
x,y,z
-x,-y,z
-x,y,z
x,-y,z
1/2+x,1/2+y,1/2+z
1/2-x,1/2-y,1/2+z
1/2-x,1/2+y,1/2+z
1/2+x,1/2-y,1/2+z
loop_
_atom_site_type_symbol
_atom_site_label
_atom_site_fract_x
_atom_site_fract_y
_atom_site_fract_z
Si Si1 0.500000 0.815948 0.463771
Si Si2 0.398889 0.566468 0.033778
Si Si3 0.000000 0.745880 0.297124
Si Si4 0.312238 0.828479 0.328550
Si Si5 0.000000 0.810529 0.961196
Si Si6 0.306957 0.769322 0.960712
Si Si7 0.818738 0.130581 0.848058
Si Si8 0.208268 0.065504 0.198874
O O1 0.500000 0.811712 0.675849
O O2 0.409345 0.846320 0.402152
O O3 0.500000 0.752652 0.373687
O O4 0.500000 0.589746 0.065568
O O5 0.391357 0.500000 0.093473
O O6 0.328092 0.602469 0.154309
O O7 0.379144 0.571970 0.824861
O O8 0.908530 0.745492 0.406697
O O9 0.000000 0.803444 0.174467
O O10 0.312614 0.787875 0.160025
O O11 0.251583 0.790085 0.461591
O O12 0.278976 0.892046 0.286538
O O13 0.088260 0.841061 0.898177
O O14 0.261224 0.821755 0.849007
O O15 0.806564 0.081098 0.995454
O O16 0.245072 0.000000 0.205921
#
# Coordination Sequence:
#
# PCOD8189615 Si02
#       8
#     4   8   4   8   4   8   8   8
#     4  10  21  37  57  86 120 151 189 242 299 363
#     4  10  22  37  57  86 117 160 205 241 291 352
#     4  10  21  37  54  83 126 149 198 231 290 378
#     4  11  22  39  61  86 121 155 197 247 309 357
#     4  10  20  36  53  89 124 156 193 235 299 371
#     4  11  22  37  57  89 118 155 193 243 304 364
#     4  11  21  39  61  85 123 158 196 247 302 358
#     4  10  24  41  59  85 118 161 208 250 297 359
#
# _framework density 19.883229
#
# number of rings (size 3 to 8) (size 9 to 14) (size 15 to 20)
#    0.462    1.077    2.308    3.692    5.385    0.000 
#    1.385    0.385    0.000    0.000    0.000    1.615 
#    0.000    0.000    0.000    0.000    0.000    0.000 
#
# Total GULP energy -322159.000085 kJ/mol
# GULP energy per Si atom -12390.730772 kJ/mol
# Density = 1.983797 g / cm^3
# Si number density = 19.883229 Si / 1000 Ang^3
#
#
#
# Elastic Constant Matrix: (Units=GPa)
#
#
# Indices 1 2 3 4 5 6 
#
# 1 108.8192 2.5699 7.5281 0.0001 0.0001 -0.0002
# 2 2.5699 40.1449 18.4892 0.0001 0.0001 -0.0003
# 3 7.5281 18.4892 47.7263 0.0001 -0.0002 0.0003
# 4 0.0001 0.0001 0.0001 32.4662 0.0000 0.0001
# 5 0.0001 0.0001 -0.0002 0.0000 27.6983 0.0000
# 6 -0.0002 -0.0003 0.0003 0.0001 0.0000 13.0373
#
#
#
# Elastic Compliance Matrix: (Units=1/GPa)
#
#
# Indices 1 2 3 4 5 6 
#
# 1 0.009291 0.000098 -0.001503 0.000000 0.000000 0.000000
# 2 0.000098 0.030320 -0.011762 0.000000 0.000000 0.000001
# 3 -0.001503 -0.011762 0.025746 0.000000 0.000000 -0.000001
# 4 0.000000 0.000000 0.000000 0.030801 0.000000 0.000000
# 5 0.000000 0.000000 0.000000 0.000000 0.036103 0.000000
# 6 0.000000 0.000001 -0.000001 0.000000 0.000000 0.076703
#
#
# Mechanical properties :
#
#
# Convention : Reuss Voigt Hill
#
# Bulk Modulus (GPa) = 25.62565 28.20722 26.91643
# Shear Modulus (GPa) = 20.13627 25.84724 22.99175
#
# Velocity S-wave (km/s) = 3.18579 3.60940 3.40419
# Velocity P-wave (km/s) = 5.14280 5.62028 5.38683
#
# Compressibility (1/GPa) = 0.03902341
#
# Stress axis : x y z
#
# Youngs Moduli (GPa) = 107.62812 32.98102 38.84041
#
# Poissons Ratio (x) = -0.00322 0.05839
# Poissons Ratio (y) = -0.01051 0.45682
# Poissons Ratio (z) = 0.16181 0.38791
#
# Static dielectric constant tensor:
#      x y z
#    x 3.583260 0.000000 0.000000 
#    y 0.000000 3.687830 0.000000 
#    z 0.000000 0.000000 3.963620 
# 
# 
# High freq. dielectric constant tensor:
#      x y z
#    x 1.767090 0.000000 0.000000 
#    y 0.000000 1.764260 0.000000 
#    z 0.000000 0.000000 1.785220 
# 
# From -- ./inp_files/7349.got.cif
#   From: 2010.03.12/outbox.cif.g09.slc.cpg/sg44_4_cif.got.tgz:7349.got - 2010.04.14 02:36:11.
