data_PCOD8189371
_publ_section_title
;
Structure prediction by ZEFSAII (Michael W. Deem and Ramdas Pophale) SiO2 
 PCOD8189371
Probable space group: I M M 2
;
_chemical_formula_sum "Si O2"
_cell_formula_units_Z 56
_cell_length_a 15.347825
_cell_length_b 11.149826
_cell_length_c 16.740826
_cell_angle_alpha 90.000000
_cell_angle_beta 90.000000
_cell_angle_gamma 90.000000
_cell_volume 2864.783529
_symmetry_space_group_name_H-M "I M M 2"
_symmetry_group_IT_number 44
_symmetry_cell_setting 'orthorhombic'
loop_
_space_group_symop_operation_xyz
x,y,z
-x,-y,z
-x,y,z
x,-y,z
1/2+x,1/2+y,1/2+z
1/2-x,1/2-y,1/2+z
1/2-x,1/2+y,1/2+z
1/2+x,1/2-y,1/2+z
loop_
_atom_site_type_symbol
_atom_site_label
_atom_site_fract_x
_atom_site_fract_y
_atom_site_fract_z
Si Si1 0.403688 0.635103 0.066760
Si Si2 0.665797 0.771228 0.920413
Si Si3 0.201552 0.131806 0.034736
Si Si4 0.233963 0.754226 0.677901
Si Si5 0.307549 0.865962 0.333572
Si Si6 0.400163 0.134743 0.488928
Si Si7 0.902901 0.639638 0.258278
O O1 0.500000 0.659660 0.103890
O O2 0.396352 0.500000 0.035639
O O3 0.327917 0.651672 0.132482
O O4 0.394988 0.720468 0.990089
O O5 0.719108 0.661636 0.881644
O O6 0.610202 0.836173 0.852432
O O7 0.733250 0.865949 0.959491
O O8 0.252204 0.140588 0.119165
O O9 0.154065 0.000000 0.031756
O O10 0.142891 0.252843 0.034465
O O11 0.180937 0.718736 0.757138
O O12 0.329175 0.803029 0.702391
O O13 0.388648 0.847339 0.393635
O O14 0.301749 0.000000 0.301056
O O15 0.500000 0.138736 0.512142
O O16 0.362843 0.000000 0.512239
O O17 0.898191 0.500000 0.242320
O O18 0.000000 0.687641 0.234815
#
# Coordination Sequence:
#
# PCOD8189371 Si02
#       7
#     8   8   8   8   8   8   8
#     4  10  20  34  53  77 106 141 180 222 270 325
#     4   9  18  33  54  77 101 129 171 222 272 322
#     4  10  20  34  54  79 108 143 179 220 274 328
#     4  10  21  34  51  76 109 141 175 217 267 325
#     4   9  17  32  54  75  98 133 173 217 269 320
#     4   9  19  35  55  79 105 138 185 233 272 318
#     4  10  20  34  53  76 103 138 178 220 267 319
#
# _framework density 19.547726000000001
#
# number of rings (size 3 to 8) (size 9 to 14) (size 15 to 20)
#    0.000    2.429    0.000    2.143    0.000    5.429 
#    0.000    2.143    0.000   16.286    0.000    0.000 
#    0.000    0.000    0.000    0.000    0.000    0.000 
#
# Total GULP energy -346899.140906 kJ/mol
# GULP energy per Si atom -12389.255032 kJ/mol
# Density = 1.950323 g / cm^3
# Si number density = 19.547726 Si / 1000 Ang^3
#
#
#
# Elastic Constant Matrix: (Units=GPa)
#
#
# Indices 1 2 3 4 5 6 
#
# 1 86.8214 28.5450 27.8698 0.0000 0.0000 0.0000
# 2 28.5450 109.7514 23.9102 0.0000 0.0000 0.0000
# 3 27.8698 23.9102 90.5799 0.0000 0.0000 0.0000
# 4 0.0000 0.0000 0.0000 14.2791 0.0000 0.0000
# 5 0.0000 0.0000 0.0000 0.0000 21.4209 0.0000
# 6 0.0000 0.0000 0.0000 0.0000 0.0000 21.7842
#
#
#
# Elastic Compliance Matrix: (Units=1/GPa)
#
#
# Indices 1 2 3 4 5 6 
#
# 1 0.013531 -0.002772 -0.003432 0.000000 0.000000 0.000000
# 2 -0.002772 0.010235 -0.001849 0.000000 0.000000 0.000000
# 3 -0.003432 -0.001849 0.012584 0.000000 0.000000 0.000000
# 4 0.000000 0.000000 0.000000 0.070033 0.000000 0.000000
# 5 0.000000 0.000000 0.000000 0.000000 0.046683 0.000000
# 6 0.000000 0.000000 0.000000 0.000000 0.000000 0.045905
#
#
# Mechanical properties :
#
#
# Convention : Reuss Voigt Hill
#
# Bulk Modulus (GPa) = 49.39370 49.75587 49.57479
# Shear Modulus (GPa) = 22.54049 25.28536 23.91292
#
# Velocity S-wave (km/s) = 3.39942 3.60045 3.50138
# Velocity P-wave (km/s) = 6.38210 6.54165 6.46236
#
# Compressibility (1/GPa) = 0.02024550
#
# Stress axis : x y z
#
# Youngs Moduli (GPa) = 73.90622 97.70231 79.46674
#
# Poissons Ratio (x) = 0.27079 0.27269
# Poissons Ratio (y) = 0.20484 0.14693
# Poissons Ratio (z) = 0.25361 0.18065
#
# Static dielectric constant tensor:
#      x y z
#    x 3.500800 0.000000 0.000000 
#    y 0.000000 3.461840 0.000000 
#    z 0.000000 0.000000 3.617460 
# 
# 
# High freq. dielectric constant tensor:
#      x y z
#    x 1.746010 0.000000 0.000000 
#    y 0.000000 1.755260 0.000000 
#    z 0.000000 0.000000 1.767990 
# 
# From -- ./inp_files/18412.got.cif
#   From: 2010.03.12/outbox.cif.g09.slc.cpg/sg44_10_cif.got.tgz:18412.got - 2010.04.14 02:36:11.
