data_PCOD8189352
_publ_section_title
;
Structure prediction by ZEFSAII (Michael W. Deem and Ramdas Pophale) SiO2 
 PCOD8189352
Probable space group: I M M 2
;
_chemical_formula_sum "Si O2"
_cell_formula_units_Z 48
_cell_length_a 8.456650
_cell_length_b 23.406363
_cell_length_c 13.690227
_cell_angle_alpha 90.000000
_cell_angle_beta 90.000000
_cell_angle_gamma 90.000000
_cell_volume 2709.835587
_symmetry_space_group_name_H-M "I M M 2"
_symmetry_group_IT_number 44
_symmetry_cell_setting 'orthorhombic'
loop_
_space_group_symop_operation_xyz
x,y,z
-x,-y,z
-x,y,z
x,-y,z
1/2+x,1/2+y,1/2+z
1/2-x,1/2-y,1/2+z
1/2-x,1/2+y,1/2+z
1/2+x,1/2-y,1/2+z
loop_
_atom_site_type_symbol
_atom_site_label
_atom_site_fract_x
_atom_site_fract_y
_atom_site_fract_z
Si Si1 0.814291 0.730373 0.172190
Si Si2 0.815061 0.768518 0.880424
Si Si3 0.683581 0.832680 0.055768
Si Si4 0.685145 0.334828 0.995225
Si Si5 0.184463 0.934566 0.166563
Si Si6 0.184041 0.565838 0.876248
O O1 0.747814 0.710578 0.276221
O O2 0.731601 0.789587 0.142119
O O3 0.000000 0.740690 0.177278
O O4 0.775850 0.680869 0.094647
O O5 0.725601 0.710620 0.910834
O O6 0.000000 0.755570 0.876577
O O7 0.781041 0.818637 0.957942
O O8 0.500000 0.825580 0.032057
O O9 0.720523 0.896949 0.088641
O O10 0.500000 0.334504 0.016250
O O11 0.741147 0.397433 0.963229
O O12 0.230889 0.916985 0.275936
O O13 0.000000 0.923700 0.152330
O O14 0.231984 0.000000 0.146514
O O15 0.214876 0.500000 0.902819
O O16 0.000000 0.579529 0.864538
#
# Coordination Sequence:
#
# PCOD8189352 Si02
#       6
#     8   8   8   8   8   8
#     4  11  21  35  53  75 103 134 169 207 251 299
#     4  11  21  35  53  75 103 134 169 207 251 299
#     4  11  21  34  52  76 104 134 169 207 251 299
#     4  11  21  34  52  76 104 134 169 207 251 299
#     4  10  20  34  52  75 103 135 170 208 251 298
#     4  10  20  34  52  75 103 135 170 208 251 298
#
# _framework density 17.713253000000002
#
# number of rings (size 3 to 8) (size 9 to 14) (size 15 to 20)
#    0.000    1.333    0.000   10.000    0.000    2.000 
#    0.000    0.000    0.000    1.000    0.000    0.000 
#    0.000    0.000    0.000    0.000    0.000    0.000 
#
# Total GULP energy -297752.301481 kJ/mol
# GULP energy per Si atom -12406.345895 kJ/mol
# Density = 1.767294 g / cm^3
# Si number density = 17.713253 Si / 1000 Ang^3
#
#
#
# Elastic Constant Matrix: (Units=GPa)
#
#
# Indices 1 2 3 4 5 6 
#
# 1 81.6582 19.3814 13.9947 0.0000 0.0000 0.0000
# 2 19.3814 85.3845 44.6174 0.0000 0.0000 0.0000
# 3 13.9947 44.6174 102.6176 0.0000 0.0000 0.0000
# 4 0.0000 0.0000 0.0000 20.0639 0.0000 0.0000
# 5 0.0000 0.0000 0.0000 0.0000 32.6423 0.0000
# 6 0.0000 0.0000 0.0000 0.0000 0.0000 28.2825
#
#
#
# Elastic Compliance Matrix: (Units=1/GPa)
#
#
# Indices 1 2 3 4 5 6 
#
# 1 0.012975 -0.002615 -0.000633 0.000000 0.000000 0.000000
# 2 -0.002615 0.015682 -0.006462 0.000000 0.000000 0.000000
# 3 -0.000633 -0.006462 0.012641 0.000000 0.000000 0.000000
# 4 0.000000 0.000000 0.000000 0.049841 0.000000 0.000000
# 5 0.000000 0.000000 0.000000 0.000000 0.030635 0.000000
# 6 0.000000 0.000000 0.000000 0.000000 0.000000 0.035358
#
#
# Mechanical properties :
#
#
# Convention : Reuss Voigt Hill
#
# Bulk Modulus (GPa) = 45.70477 47.29413 46.49945
# Shear Modulus (GPa) = 27.19723 28.97555 28.08639
#
# Velocity S-wave (km/s) = 3.92269 4.04890 3.98630
# Velocity P-wave (km/s) = 6.80994 6.97252 6.89171
#
# Compressibility (1/GPa) = 0.02187955
#
# Stress axis : x y z
#
# Youngs Moduli (GPa) = 77.07025 63.76833 79.10946
#
# Poissons Ratio (x) = 0.16673 0.05005
# Poissons Ratio (y) = 0.20151 0.51118
# Poissons Ratio (z) = 0.04876 0.41205
#
# Static dielectric constant tensor:
#      x y z
#    x 3.470030 0.000000 0.000000 
#    y 0.000000 3.285550 0.000000 
#    z 0.000000 0.000000 3.355890 
# 
# 
# High freq. dielectric constant tensor:
#      x y z
#    x 1.709380 0.000000 0.000000 
#    y 0.000000 1.671680 0.000000 
#    z 0.000000 0.000000 1.675590 
# 
# From -- ./inp_files/11131.got.cif
#   From: 2010.03.12/outbox.cif.g09.slc.cpg/sg44_6_cif.got.tgz:11131.got - 2010.04.14 02:36:11.
