data_PCOD8189722
_publ_section_title
;
Structure prediction by ZEFSAII (Michael W. Deem and Ramdas Pophale) SiO2 
 PCOD8189722
Probable space group: I M M 2
;
_chemical_formula_sum "Si O2"
_cell_formula_units_Z 40
_cell_length_a 16.570983
_cell_length_b 13.310483
_cell_length_c 9.278280
_cell_angle_alpha 90.000000
_cell_angle_beta 90.000000
_cell_angle_gamma 90.000000
_cell_volume 2046.489692
_symmetry_space_group_name_H-M "I M M 2"
_symmetry_group_IT_number 44
_symmetry_cell_setting 'orthorhombic'
loop_
_space_group_symop_operation_xyz
x,y,z
-x,-y,z
-x,y,z
x,-y,z
1/2+x,1/2+y,1/2+z
1/2-x,1/2-y,1/2+z
1/2-x,1/2+y,1/2+z
1/2+x,1/2-y,1/2+z
loop_
_atom_site_type_symbol
_atom_site_label
_atom_site_fract_x
_atom_site_fract_y
_atom_site_fract_z
Si Si1 0.406329 0.713886 0.476080
Si Si2 0.333908 0.884156 0.303779
Si Si3 0.811560 0.749998 0.256532
Si Si4 0.406329 0.213884 0.036983
Si Si5 0.333911 0.615843 0.209283
O O1 0.500000 0.688927 0.489001
O O2 0.394157 0.825654 0.411287
O O3 0.367239 0.703997 0.632661
O O4 0.363968 0.631813 0.373110
O O5 0.243978 0.839036 0.321115
O O6 0.333566 0.000000 0.346423
O O7 0.363954 0.868185 0.139944
O O8 0.867254 0.703998 0.380389
O O9 0.756023 0.660954 0.191966
O O10 0.500000 0.188919 0.024094
O O11 0.394153 0.325654 0.101766
O O12 0.333570 0.500000 0.166637
#
# Coordination Sequence:
#
# PCOD8189722 Si02
#       5
#     8   8   8   8   8
#     4  10  21  36  55  80 108 138 174 218 265 310
#     4  10  20  37  58  77 103 142 182 214 253 314
#     4  10  21  36  55  80 108 138 174 218 265 310
#     4  10  21  36  55  80 108 138 174 218 265 310
#     4  10  20  37  58  77 103 142 182 214 253 314
#
# _framework density 19.545663999999999
#
# number of rings (size 3 to 8) (size 9 to 14) (size 15 to 20)
#    0.000    2.400    0.000    7.800    0.000    9.600 
#    0.000    0.000    0.000    7.200    0.000    0.000 
#    0.000    0.000    0.000    0.000    0.000    0.000 
#
# Total GULP energy -248036.816034 kJ/mol
# GULP energy per Si atom -12401.840802 kJ/mol
# Density = 1.950118 g / cm^3
# Si number density = 19.545664 Si / 1000 Ang^3
#
#
#
# Elastic Constant Matrix: (Units=GPa)
#
#
# Indices 1 2 3 4 5 6 
#
# 1 85.1095 -15.8881 12.6302 0.0000 0.0000 0.0000
# 2 -15.8881 91.7866 -36.6694 0.0000 0.0000 0.0000
# 3 12.6302 -36.6694 49.5741 0.0000 0.0000 0.0000
# 4 0.0000 0.0000 0.0000 11.6052 0.0000 0.0000
# 5 0.0000 0.0000 0.0000 0.0000 34.2101 0.0000
# 6 0.0000 0.0000 0.0000 0.0000 0.0000 8.1158
#
#
#
# Elastic Compliance Matrix: (Units=1/GPa)
#
#
# Indices 1 2 3 4 5 6 
#
# 1 0.012311 0.001246 -0.002215 0.000000 0.000000 0.000000
# 2 0.001246 0.015591 0.011215 0.000000 0.000000 0.000000
# 3 -0.002215 0.011215 0.029032 0.000000 0.000000 0.000000
# 4 0.000000 0.000000 0.000000 0.086168 0.000000 0.000000
# 5 0.000000 0.000000 0.000000 0.000000 0.029231 0.000000
# 6 0.000000 0.000000 0.000000 0.000000 0.000000 0.123216
#
#
# Mechanical properties :
#
#
# Convention : Reuss Voigt Hill
#
# Bulk Modulus (GPa) = 12.91545 16.29062 14.60304
# Shear Modulus (GPa) = 16.61874 28.54604 22.58239
#
# Velocity S-wave (km/s) = 2.91907 3.82577 3.40275
# Velocity P-wave (km/s) = 4.24069 5.27902 4.78809
#
# Compressibility (1/GPa) = 0.07742663
#
# Stress axis : x y z
#
# Youngs Moduli (GPa) = 81.22904 64.13946 34.44513
#
# Poissons Ratio (x) = -0.07993 0.07628
# Poissons Ratio (y) = -0.10123 -0.38630
# Poissons Ratio (z) = 0.17990 -0.71932
#
# Static dielectric constant tensor:
#      x y z
#    x 3.574010 0.000000 0.000000 
#    y 0.000000 3.263490 0.000000 
#    z 0.000000 0.000000 3.550340 
# 
# 
# High freq. dielectric constant tensor:
#      x y z
#    x 1.766700 0.000000 0.000000 
#    y 0.000000 1.731560 0.000000 
#    z 0.000000 0.000000 1.764870 
# 
# From -- ./inp_files/6976.got.cif
#   From: 2010.03.12/outbox.cif.g09.slc.cpg/sg44_4_cif.got.tgz:6976.got - 2010.04.14 02:36:11.
