data_PCOD8189850
_publ_section_title
;
Structure prediction by ZEFSAII (Michael W. Deem and Ramdas Pophale) SiO2 
 PCOD8189850
Probable space group: I M M 2
;
_chemical_formula_sum "Si O2"
_cell_formula_units_Z 64
_cell_length_a 9.285406
_cell_length_b 15.696550
_cell_length_c 22.826675
_cell_angle_alpha 90.000000
_cell_angle_beta 90.000000
_cell_angle_gamma 90.000000
_cell_volume 3326.961392
_symmetry_space_group_name_H-M "I M M 2"
_symmetry_group_IT_number 44
_symmetry_cell_setting 'orthorhombic'
loop_
_space_group_symop_operation_xyz
x,y,z
-x,-y,z
-x,y,z
x,-y,z
1/2+x,1/2+y,1/2+z
1/2-x,1/2-y,1/2+z
1/2-x,1/2+y,1/2+z
1/2+x,1/2-y,1/2+z
loop_
_atom_site_type_symbol
_atom_site_label
_atom_site_fract_x
_atom_site_fract_y
_atom_site_fract_z
Si Si1 0.334777 0.906362 0.305980
Si Si2 0.337997 0.138155 0.433409
Si Si3 0.171619 0.747215 0.264159
Si Si4 0.668866 0.270153 0.149086
Si Si5 0.333222 0.096357 0.089852
Si Si6 0.657323 0.597668 0.481643
Si Si7 0.163739 0.814407 0.872025
Si Si8 0.831789 0.096712 0.549763
O O1 0.500000 0.872583 0.299918
O O2 0.294188 0.913128 0.374582
O O3 0.229806 0.843359 0.271527
O O4 0.319097 0.000000 0.277612
O O5 0.500000 0.114796 0.452216
O O6 0.321306 0.236488 0.417096
O O7 0.237287 0.113559 0.486860
O O8 0.236611 0.705782 0.205559
O O9 0.226180 0.690138 0.318354
O O10 0.000000 0.747248 0.261727
O O11 0.500000 0.284456 0.161923
O O12 0.700318 0.169454 0.137420
O O13 0.721635 0.333842 0.097534
O O14 0.500000 0.091611 0.076362
O O15 0.279823 0.000000 0.108580
O O16 0.264126 0.134097 0.030403
O O17 0.500000 0.642157 0.488030
O O18 0.643000 0.500000 0.496152
O O19 0.710026 0.607763 0.414246
O O20 0.000000 0.822116 0.847688
O O21 0.000000 0.108392 0.540296
O O22 0.795176 0.000000 0.570762
#
# Coordination Sequence:
#
# PCOD8189850 Si02
#       8
#     8   8   8   8   8   8   8   8
#     4   9  18  34  55  78 107 142 172 198 242 309
#     4   9  17  30  51  78 105 134 166 200 245 305
#     4  11  23  36  52  75 100 129 173 223 263 299
#     4  10  21  38  55  70  98 140 179 214 257 312
#     4   9  18  32  52  79 107 135 167 202 247 308
#     4   9  17  30  51  79 106 131 163 206 255 306
#     4   9  18  34  53  73 102 138 171 203 250 315
#     4  10  21  35  52  76 103 133 172 217 263 308
#
# _framework density 19.236772999999999
#
# number of rings (size 3 to 8) (size 9 to 14) (size 15 to 20)
#    0.000    2.500    0.000    3.000    0.000    5.000 
#    0.000    1.875    0.000    3.750    0.000    0.000 
#    0.000    0.000    0.000    0.000    0.000    0.000 
#
# Total GULP energy -396536.869412 kJ/mol
# GULP energy per Si atom -12391.777169 kJ/mol
# Density = 1.919299 g / cm^3
# Si number density = 19.236773 Si / 1000 Ang^3
#
#
#
# Elastic Constant Matrix: (Units=GPa)
#
#
# Indices 1 2 3 4 5 6 
#
# 1 72.5014 23.1231 50.9955 0.0000 0.0000 0.0000
# 2 23.1231 48.2397 26.0293 0.0000 0.0000 0.0000
# 3 50.9955 26.0293 97.9792 0.0000 0.0000 0.0000
# 4 0.0000 0.0000 0.0000 11.5220 0.0000 0.0000
# 5 0.0000 0.0000 0.0000 0.0000 35.8720 0.0000
# 6 0.0000 0.0000 0.0000 0.0000 0.0000 18.2533
#
#
#
# Elastic Compliance Matrix: (Units=1/GPa)
#
#
# Indices 1 2 3 4 5 6 
#
# 1 0.022862 -0.005297 -0.010492 0.000000 0.000000 0.000000
# 2 -0.005297 0.025426 -0.003998 0.000000 0.000000 0.000000
# 3 -0.010492 -0.003998 0.016729 0.000000 0.000000 0.000000
# 4 0.000000 0.000000 0.000000 0.086791 0.000000 0.000000
# 5 0.000000 0.000000 0.000000 0.000000 0.027877 0.000000
# 6 0.000000 0.000000 0.000000 0.000000 0.000000 0.054785
#
#
# Mechanical properties :
#
#
# Convention : Reuss Voigt Hill
#
# Bulk Modulus (GPa) = 39.30270 46.55733 42.93001
# Shear Modulus (GPa) = 17.69764 21.03429 19.36597
#
# Velocity S-wave (km/s) = 3.03642 3.31031 3.17632
# Velocity P-wave (km/s) = 5.72438 6.23423 5.98474
#
# Compressibility (1/GPa) = 0.02544354
#
# Stress axis : x y z
#
# Youngs Moduli (GPa) = 43.74075 39.32966 59.77682
#
# Poissons Ratio (x) = 0.20835 0.62716
# Poissons Ratio (y) = 0.23171 0.23896
# Poissons Ratio (z) = 0.45892 0.15722
#
# Static dielectric constant tensor:
#      x y z
#    x 3.500590 0.000000 0.000000 
#    y 0.000000 3.746990 0.000000 
#    z 0.000000 0.000000 3.428930 
# 
# 
# High freq. dielectric constant tensor:
#      x y z
#    x 1.731160 0.000000 0.000000 
#    y 0.000000 1.743000 0.000000 
#    z 0.000000 0.000000 1.743500 
# 
# From -- ./inp_files/23322.got.cif
#   From: 2010.03.12/outbox.cif.g09.slc.cpg/sg44_12_cif.got.tgz:23322.got - 2010.04.14 02:36:11.
