data_PCOD8189679
_publ_section_title
;
Structure prediction by ZEFSAII (Michael W. Deem and Ramdas Pophale) SiO2 
 PCOD8189679
Probable space group: I M M 2
;
_chemical_formula_sum "Si O2"
_cell_formula_units_Z 40
_cell_length_a 9.224737
_cell_length_b 7.684754
_cell_length_c 29.406077
_cell_angle_alpha 90.000000
_cell_angle_beta 90.000000
_cell_angle_gamma 90.000000
_cell_volume 2084.591934
_symmetry_space_group_name_H-M "I M M 2"
_symmetry_group_IT_number 44
_symmetry_cell_setting 'orthorhombic'
loop_
_space_group_symop_operation_xyz
x,y,z
-x,-y,z
-x,y,z
x,-y,z
1/2+x,1/2+y,1/2+z
1/2-x,1/2-y,1/2+z
1/2-x,1/2+y,1/2+z
1/2+x,1/2-y,1/2+z
loop_
_atom_site_type_symbol
_atom_site_label
_atom_site_fract_x
_atom_site_fract_y
_atom_site_fract_z
Si Si1 0.828138 0.702443 0.819150
Si Si2 0.672458 0.500000 0.469799
Si Si3 0.660049 0.204042 0.635238
Si Si4 0.827896 0.307151 0.035861
Si Si5 0.174182 0.500000 0.374439
Si Si6 0.154940 0.699097 0.719793
O O1 0.786723 0.500000 0.828277
O O2 0.735893 0.823819 0.852398
O O3 0.783941 0.768545 0.768104
O O4 0.000000 0.730368 0.827228
O O5 0.500000 0.500000 0.459022
O O6 0.720069 0.330326 0.498259
O O7 0.770283 0.500000 0.425802
O O8 0.500000 0.285356 0.637058
O O9 0.732582 0.246850 0.586053
O O10 0.743241 0.286057 0.676927
O O11 0.654744 0.000000 0.642584
O O12 0.770699 0.500000 0.022096
O O13 0.000000 0.313186 0.040779
O O14 0.000000 0.500000 0.372516
O O15 0.125328 0.500000 0.730301
O O16 0.000000 0.789924 0.708617
#
# Coordination Sequence:
#
# PCOD8189679 Si02
#       6
#     8   4   8   8   4   8
#     4   9  20  41  64  83 110 152 201 244 280 336
#     4  10  20  36  60  82 102 144 200 238 281 336
#     4   9  18  31  49  78 113 145 180 222 272 325
#     4   8  16  32  53  79 109 140 183 236 274 318
#     4  12  26  40  58  88 122 150 184 240 311 362
#     4   9  19  34  52  78 109 143 184 228 273 324
#
# _framework density 19.188407999999999
#
# number of rings (size 3 to 8) (size 9 to 14) (size 15 to 20)
#    0.000    2.800    0.000    3.300    2.800    2.800 
#    0.000    5.000    0.000    1.200    0.000    0.000 
#    0.000    0.000    0.000    0.000    0.000    0.000 
#
# Total GULP energy -247782.943727 kJ/mol
# GULP energy per Si atom -12389.147186 kJ/mol
# Density = 1.914473 g / cm^3
# Si number density = 19.188408 Si / 1000 Ang^3
#
#
#
# Elastic Constant Matrix: (Units=GPa)
#
#
# Indices 1 2 3 4 5 6 
#
# 1 70.7909 41.7732 56.9046 0.0000 0.0000 0.0000
# 2 41.7732 99.9482 72.7265 0.0000 0.0000 0.0000
# 3 56.9046 72.7265 159.1562 0.0000 0.0000 0.0000
# 4 0.0000 0.0000 0.0000 37.1116 0.0000 0.0000
# 5 0.0000 0.0000 0.0000 0.0000 26.6481 0.0000
# 6 0.0000 0.0000 0.0000 0.0000 0.0000 16.2075
#
#
#
# Elastic Compliance Matrix: (Units=1/GPa)
#
#
# Indices 1 2 3 4 5 6 
#
# 1 0.021405 -0.005060 -0.005341 0.000000 0.000000 0.000000
# 2 -0.005060 0.016185 -0.005587 0.000000 0.000000 0.000000
# 3 -0.005341 -0.005587 0.010746 0.000000 0.000000 0.000000
# 4 0.000000 0.000000 0.000000 0.026946 0.000000 0.000000
# 5 0.000000 0.000000 0.000000 0.000000 0.037526 0.000000
# 6 0.000000 0.000000 0.000000 0.000000 0.000000 0.061700
#
#
# Mechanical properties :
#
#
# Convention : Reuss Voigt Hill
#
# Bulk Modulus (GPa) = 61.12230 74.74489 67.93360
# Shear Modulus (GPa) = 23.59194 26.55949 25.07572
#
# Velocity S-wave (km/s) = 3.51021 3.72444 3.61891
# Velocity P-wave (km/s) = 6.95354 7.58505 7.27615
#
# Compressibility (1/GPa) = 0.01636064
#
# Stress axis : x y z
#
# Youngs Moduli (GPa) = 46.71734 61.78544 93.06115
#
# Poissons Ratio (x) = 0.31263 0.49705
# Poissons Ratio (y) = 0.23639 0.51990
# Poissons Ratio (z) = 0.24952 0.34517
#
# Static dielectric constant tensor:
#      x y z
#    x 3.774310 0.000000 0.000000 
#    y 0.000000 3.522070 0.000000 
#    z 0.000000 0.000000 3.666830 
# 
# 
# High freq. dielectric constant tensor:
#      x y z
#    x 1.705340 0.000000 0.000000 
#    y 0.000000 1.751350 0.000000 
#    z 0.000000 0.000000 1.755570 
# 
# From -- ./inp_files/25940.got.cif
#   From: 2010.03.12/outbox.cif.g09.slc.cpg/sg44_13_cif.got.tgz:25940.got - 2010.04.14 02:36:11.
