data_PCOD8189997
_publ_section_title
;
Structure prediction by ZEFSAII (Michael W. Deem and Ramdas Pophale) SiO2 
 PCOD8189997
Probable space group: I M M 2
;
_chemical_formula_sum "Si O2"
_cell_formula_units_Z 56
_cell_length_a 20.190598
_cell_length_b 14.953265
_cell_length_c 9.972705
_cell_angle_alpha 90.000000
_cell_angle_beta 90.000000
_cell_angle_gamma 90.000000
_cell_volume 3010.912844
_symmetry_space_group_name_H-M "I M M 2"
_symmetry_group_IT_number 44
_symmetry_cell_setting 'orthorhombic'
loop_
_space_group_symop_operation_xyz
x,y,z
-x,-y,z
-x,y,z
x,-y,z
1/2+x,1/2+y,1/2+z
1/2-x,1/2-y,1/2+z
1/2-x,1/2+y,1/2+z
1/2+x,1/2-y,1/2+z
loop_
_atom_site_type_symbol
_atom_site_label
_atom_site_fract_x
_atom_site_fract_y
_atom_site_fract_z
Si Si1 0.073356 0.103136 0.928670
Si Si2 0.751619 0.317754 0.854953
Si Si3 0.802233 0.097448 0.091051
Si Si4 0.773233 0.099099 0.619380
Si Si5 0.924392 0.399186 0.549886
Si Si6 0.196111 0.363418 0.377518
Si Si7 0.627268 0.262797 0.230828
O O1 0.074953 0.171280 0.802630
O O2 0.000000 0.109124 0.992150
O O3 0.088600 0.000000 0.883882
O O4 0.127268 0.134820 0.038483
O O5 0.728273 0.343355 0.707035
O O6 0.700979 0.242021 0.904927
O O7 0.825372 0.278417 0.844761
O O8 0.753505 0.394931 0.966615
O O9 0.814273 0.000000 0.153154
O O10 0.750947 0.088514 0.969029
O O11 0.712207 0.113649 0.722720
O O12 0.829797 0.173326 0.634784
O O13 0.802801 0.000000 0.639918
O O14 0.915993 0.500000 0.612880
O O15 0.877523 0.394180 0.418651
O O16 0.906500 0.320630 0.654670
O O17 0.000000 0.385093 0.502931
#
# Coordination Sequence:
#
# PCOD8189997 Si02
#       7
#     8   8   8   8   8   8   8
#     4  10  21  37  60  89 120 156 196 238 290 356
#     4  11  21  34  57  87 120 150 187 240 293 346
#     4  11  20  35  59  86 114 151 195 235 284 346
#     4  11  21  34  58  92 119 147 188 241 297 348
#     4  11  23  39  60  85 115 158 205 244 288 345
#     4  11  20  37  58  85 114 150 196 242 282 339
#     4  11  21  36  59  85 120 153 190 244 292 349
#
# _framework density 18.599011000000001
#
# number of rings (size 3 to 8) (size 9 to 14) (size 15 to 20)
#    0.000    1.143    5.714    3.429    0.000    0.571 
#    0.000    0.714    0.000    0.000    0.000    2.000 
#    0.000    0.000    0.000    0.000    0.000    0.000 
#
# Total GULP energy -346967.011110 kJ/mol
# GULP energy per Si atom -12391.678968 kJ/mol
# Density = 1.855668 g / cm^3
# Si number density = 18.599011 Si / 1000 Ang^3
#
#
#
# Elastic Constant Matrix: (Units=GPa)
#
#
# Indices 1 2 3 4 5 6 
#
# 1 122.9592 35.2330 39.6385 0.0000 0.0000 0.0000
# 2 35.2330 109.0897 34.6686 0.0000 0.0000 0.0000
# 3 39.6385 34.6686 90.0426 0.0000 0.0000 0.0000
# 4 0.0000 0.0000 0.0000 22.0561 0.0000 0.0000
# 5 0.0000 0.0000 0.0000 0.0000 20.5100 0.0000
# 6 0.0000 0.0000 0.0000 0.0000 0.0000 26.4766
#
#
#
# Elastic Compliance Matrix: (Units=1/GPa)
#
#
# Indices 1 2 3 4 5 6 
#
# 1 0.009867 -0.002058 -0.003551 0.000000 0.000000 0.000000
# 2 -0.002058 0.010874 -0.003281 0.000000 0.000000 0.000000
# 3 -0.003551 -0.003281 0.013932 0.000000 0.000000 0.000000
# 4 0.000000 0.000000 0.000000 0.045339 0.000000 0.000000
# 5 0.000000 0.000000 0.000000 0.000000 0.048757 0.000000
# 6 0.000000 0.000000 0.000000 0.000000 0.000000 0.037769
#
#
# Mechanical properties :
#
#
# Convention : Reuss Voigt Hill
#
# Bulk Modulus (GPa) = 59.19520 60.13017 59.66268
# Shear Modulus (GPa) = 26.32263 27.97863 27.15063
#
# Velocity S-wave (km/s) = 3.76609 3.88275 3.82486
# Velocity P-wave (km/s) = 7.12793 7.24575 7.18708
#
# Compressibility (1/GPa) = 0.01689326
#
# Stress axis : x y z
#
# Youngs Moduli (GPa) = 101.34363 91.96125 71.77525
#
# Poissons Ratio (x) = 0.18928 0.25490
# Poissons Ratio (y) = 0.20859 0.23547
# Poissons Ratio (z) = 0.35991 0.30170
#
# Static dielectric constant tensor:
#      x y z
#    x 3.342160 0.000000 0.000000 
#    y 0.000000 3.603450 0.000000 
#    z 0.000000 0.000000 3.244040 
# 
# 
# High freq. dielectric constant tensor:
#      x y z
#    x 1.703380 0.000000 0.000000 
#    y 0.000000 1.744280 0.000000 
#    z 0.000000 0.000000 1.701590 
# 
# From -- ./inp_files/8926.got.cif
#   From: 2010.03.12/outbox.cif.g09.slc.cpg/sg44_5_cif.got.tgz:8926.got - 2010.04.14 02:36:11.
