data_PCOD8189948
_publ_section_title
;
Structure prediction by ZEFSAII (Michael W. Deem and Ramdas Pophale) SiO2 
 PCOD8189948
Probable space group: I M M 2
;
_chemical_formula_sum "Si O2"
_cell_formula_units_Z 40
_cell_length_a 9.427015
_cell_length_b 8.936553
_cell_length_c 25.682981
_cell_angle_alpha 90.000000
_cell_angle_beta 90.000000
_cell_angle_gamma 90.000000
_cell_volume 2163.663227
_symmetry_space_group_name_H-M "I M M 2"
_symmetry_group_IT_number 44
_symmetry_cell_setting 'orthorhombic'
loop_
_space_group_symop_operation_xyz
x,y,z
-x,-y,z
-x,y,z
x,-y,z
1/2+x,1/2+y,1/2+z
1/2-x,1/2-y,1/2+z
1/2-x,1/2+y,1/2+z
1/2+x,1/2-y,1/2+z
loop_
_atom_site_type_symbol
_atom_site_label
_atom_site_fract_x
_atom_site_fract_y
_atom_site_fract_z
Si Si1 0.833691 0.673796 0.984230
Si Si2 0.843395 0.322313 0.867868
Si Si3 0.162492 0.676667 0.165946
Si Si4 0.335454 0.326823 0.772004
Si Si5 0.164612 0.324527 0.574302
O O1 0.797519 0.500000 0.994047
O O2 0.792391 0.724247 0.925599
O O3 0.000000 0.701744 0.994831
O O4 0.739598 0.775474 0.021303
O O5 0.847551 0.500000 0.865932
O O6 0.741024 0.259293 0.823029
O O7 0.000000 0.257285 0.857318
O O8 0.175311 0.500000 0.165517
O O9 0.216125 0.736933 0.221512
O O10 0.263539 0.741903 0.122309
O O11 0.000000 0.727741 0.155620
O O12 0.500000 0.302685 0.782180
O O13 0.296874 0.500000 0.763124
O O14 0.184905 0.500000 0.581999
O O15 0.000000 0.279237 0.571893
#
# Coordination Sequence:
#
# PCOD8189948 Si02
#       5
#     8   8   8   8   8
#     4   9  18  34  56  80 105 136 174 212 252 302
#     4   8  15  29  50  76 104 133 167 207 249 295
#     4  10  21  37  56  77 102 135 174 213 256 308
#     4   9  17  30  50  76 104 135 171 208 248 297
#     4  11  24  38  52  75 105 135 170 214 263 310
#
# _framework density 18.487164
#
# number of rings (size 3 to 8) (size 9 to 14) (size 15 to 20)
#    0.000    2.600    0.000    3.000    0.000    7.200 
#    0.000    5.000    0.000    3.600    0.000    0.000 
#    0.000    0.000    0.000    0.000    0.000    0.000 
#
# Total GULP energy -247987.003508 kJ/mol
# GULP energy per Si atom -12399.350175 kJ/mol
# Density = 1.844509 g / cm^3
# Si number density = 18.487164 Si / 1000 Ang^3
#
#
#
# Elastic Constant Matrix: (Units=GPa)
#
#
# Indices 1 2 3 4 5 6 
#
# 1 83.1737 33.7240 79.4691 0.0000 0.0000 0.0000
# 2 33.7240 46.5771 42.7195 0.0000 0.0000 0.0000
# 3 79.4691 42.7195 169.6600 0.0000 0.0000 0.0000
# 4 0.0000 0.0000 0.0000 32.0481 0.0000 0.0000
# 5 0.0000 0.0000 0.0000 0.0000 40.2132 0.0000
# 6 0.0000 0.0000 0.0000 0.0000 0.0000 24.1216
#
#
#
# Elastic Compliance Matrix: (Units=1/GPa)
#
#
# Indices 1 2 3 4 5 6 
#
# 1 0.024570 -0.009407 -0.009140 0.000000 0.000000 0.000000
# 2 -0.009407 0.031518 -0.003530 0.000000 0.000000 0.000000
# 3 -0.009140 -0.003530 0.011064 0.000000 0.000000 0.000000
# 4 0.000000 0.000000 0.000000 0.031203 0.000000 0.000000
# 5 0.000000 0.000000 0.000000 0.000000 0.024867 0.000000
# 6 0.000000 0.000000 0.000000 0.000000 0.000000 0.041457
#
#
# Mechanical properties :
#
#
# Convention : Reuss Voigt Hill
#
# Bulk Modulus (GPa) = 43.48034 67.91512 55.69773
# Shear Modulus (GPa) = 23.09465 28.84311 25.96888
#
# Velocity S-wave (km/s) = 3.53827 3.95418 3.75200
# Velocity P-wave (km/s) = 6.34530 7.59365 6.99737
#
# Compressibility (1/GPa) = 0.02299890
#
# Stress axis : x y z
#
# Youngs Moduli (GPa) = 40.69967 31.72748 90.38137
#
# Poissons Ratio (x) = 0.29846 0.82610
# Poissons Ratio (y) = 0.38286 0.31904
# Poissons Ratio (z) = 0.37200 0.11200
#
# Static dielectric constant tensor:
#      x y z
#    x 3.503870 0.000000 0.000000 
#    y 0.000000 3.180900 0.000000 
#    z 0.000000 0.000000 3.752050 
# 
# 
# High freq. dielectric constant tensor:
#      x y z
#    x 1.712590 0.000000 0.000000 
#    y 0.000000 1.694560 0.000000 
#    z 0.000000 0.000000 1.734230 
# 
# From -- ./inp_files/24587.got.cif
#   From: 2010.03.12/outbox.cif.g09.slc.cpg/sg44_13_cif.got.tgz:24587.got - 2010.04.14 02:36:11.
