data_PCOD8189167
_publ_section_title
;
Structure prediction by ZEFSAII (Michael W. Deem and Ramdas Pophale) SiO2 
 PCOD8189167
Probable space group: I M M 2
;
_chemical_formula_sum "Si O2"
_cell_formula_units_Z 48
_cell_length_a 7.649183
_cell_length_b 8.984859
_cell_length_c 34.477352
_cell_angle_alpha 90.000000
_cell_angle_beta 90.000000
_cell_angle_gamma 90.000000
_cell_volume 2369.519135
_symmetry_space_group_name_H-M "I M M 2"
_symmetry_group_IT_number 44
_symmetry_cell_setting 'orthorhombic'
loop_
_space_group_symop_operation_xyz
x,y,z
-x,-y,z
-x,y,z
x,-y,z
1/2+x,1/2+y,1/2+z
1/2-x,1/2-y,1/2+z
1/2-x,1/2+y,1/2+z
1/2+x,1/2-y,1/2+z
loop_
_atom_site_type_symbol
_atom_site_label
_atom_site_fract_x
_atom_site_fract_y
_atom_site_fract_z
Si Si1 0.705578 0.166344 0.081550
Si Si2 0.296451 0.175074 0.807226
Si Si3 0.200046 0.337644 0.156176
Si Si4 0.000000 0.677402 0.856959
Si Si5 0.500000 0.677204 0.439777
Si Si6 0.193226 0.323259 0.495939
Si Si7 0.206864 0.834877 0.228916
O O1 0.500000 0.163808 0.087959
O O2 0.792099 0.268860 0.113634
O O3 0.782618 0.000000 0.086000
O O4 0.750052 0.232623 0.038863
O O5 0.500000 0.211855 0.815937
O O6 0.239505 0.231027 0.764817
O O7 0.176781 0.258917 0.838200
O O8 0.260715 0.000000 0.809794
O O9 0.291619 0.500000 0.155926
O O10 0.287847 0.234707 0.189398
O O11 0.000000 0.357708 0.167988
O O12 0.000000 0.500000 0.853876
O O13 0.000000 0.728815 0.901081
O O14 0.500000 0.500000 0.431587
O O15 0.669985 0.728952 0.463766
O O16 0.186108 0.500000 0.498340
O O17 0.000000 0.261707 0.484934
O O18 0.000000 0.847199 0.225792
O O19 0.287019 0.000000 0.234612
#
# Coordination Sequence:
#
# PCOD8189167 Si02
#       7
#     8   8   8   4   4   8   8
#     4   9  18  33  52  76 106 140 184 236 286 337
#     4  10  21  40  66  91 118 155 197 246 301 355
#     4  10  20  32  48  75 110 148 190 235 279 333
#     4  12  26  42  60  90 128 160 196 244 294 362
#     4  10  20  36  60  86 112 148 192 240 296 354
#     4   8  16  32  55  83 111 141 184 238 291 346
#     4   9  17  32  55  82 112 148 190 235 287 347
#
# _framework density 20.257276000000001
#
# number of rings (size 3 to 8) (size 9 to 14) (size 15 to 20)
#    0.000    2.500    0.000    3.250    1.167    5.000 
#    1.500    2.500    0.000    1.000    0.000    0.000 
#    0.000    0.000    0.000    0.000    0.000    0.000 
#
# Total GULP energy -297517.214372 kJ/mol
# GULP energy per Si atom -12396.550599 kJ/mol
# Density = 2.021117 g / cm^3
# Si number density = 20.257276 Si / 1000 Ang^3
#
#
#
# Elastic Constant Matrix: (Units=GPa)
#
#
# Indices 1 2 3 4 5 6 
#
# 1 77.9506 41.3321 61.3518 0.0000 0.0000 0.0000
# 2 41.3321 130.5334 70.4698 0.0000 0.0000 0.0000
# 3 61.3518 70.4698 170.1129 0.0000 0.0000 0.0000
# 4 0.0000 0.0000 0.0000 33.1992 0.0000 0.0000
# 5 0.0000 0.0000 0.0000 0.0000 193.2722 0.0000
# 6 0.0000 0.0000 0.0000 0.0000 0.0000 15.3943
#
#
#
# Elastic Compliance Matrix: (Units=1/GPa)
#
#
# Indices 1 2 3 4 5 6 
#
# 1 0.018753 -0.002945 -0.005543 0.000000 0.000000 0.000000
# 2 -0.002945 0.010330 -0.003217 0.000000 0.000000 0.000000
# 3 -0.005543 -0.003217 0.009210 0.000000 0.000000 0.000000
# 4 0.000000 0.000000 0.000000 0.030121 0.000000 0.000000
# 5 0.000000 0.000000 0.000000 0.000000 0.005174 0.000000
# 6 0.000000 0.000000 0.000000 0.000000 0.000000 0.064959
#
#
# Mechanical properties :
#
#
# Convention : Reuss Voigt Hill
#
# Bulk Modulus (GPa) = 67.19377 80.54492 73.86934
# Shear Modulus (GPa) = 29.95436 62.06935 46.01185
#
# Velocity S-wave (km/s) = 3.84955 5.54139 4.77106
# Velocity P-wave (km/s) = 7.28018 8.98833 8.17897
#
# Compressibility (1/GPa) = 0.01488233
#
# Stress axis : x y z
#
# Youngs Moduli (GPa) = 53.32386 96.80274 108.57376
#
# Poissons Ratio (x) = 0.28513 0.60185
# Poissons Ratio (y) = 0.15706 0.34929
# Poissons Ratio (z) = 0.29559 0.31142
#
# Static dielectric constant tensor:
#      x y z
#    x 3.528930 0.000000 0.000000 
#    y 0.000000 3.676560 0.000000 
#    z 0.000000 0.000000 3.748990 
# 
# 
# High freq. dielectric constant tensor:
#      x y z
#    x 1.781810 0.000000 0.000000 
#    y 0.000000 1.774870 0.000000 
#    z 0.000000 0.000000 1.794450 
# 
# From -- ./inp_files/26914.got.cif
#   From: 2010.03.12/outbox.cif.g09.slc.cpg/sg44_14_cif.got.tgz:26914.got - 2010.04.14 02:36:11.
