data_PCOD8189331
_publ_section_title
;
Structure prediction by ZEFSAII (Michael W. Deem and Ramdas Pophale) SiO2 
 PCOD8189331
Probable space group: I M M 2
;
_chemical_formula_sum "Si O2"
_cell_formula_units_Z 56
_cell_length_a 9.217437
_cell_length_b 18.232332
_cell_length_c 17.046070
_cell_angle_alpha 90.000000
_cell_angle_beta 90.000000
_cell_angle_gamma 90.000000
_cell_volume 2864.683628
_symmetry_space_group_name_H-M "I M M 2"
_symmetry_group_IT_number 44
_symmetry_cell_setting 'orthorhombic'
loop_
_space_group_symop_operation_xyz
x,y,z
-x,-y,z
-x,y,z
x,-y,z
1/2+x,1/2+y,1/2+z
1/2-x,1/2-y,1/2+z
1/2-x,1/2+y,1/2+z
1/2+x,1/2-y,1/2+z
loop_
_atom_site_type_symbol
_atom_site_label
_atom_site_fract_x
_atom_site_fract_y
_atom_site_fract_z
Si Si1 0.167380 0.917674 0.166540
Si Si2 0.830325 0.415266 0.365048
Si Si3 0.827878 0.417407 0.947356
Si Si4 0.667929 0.674335 0.243816
Si Si5 0.334272 0.655720 0.505062
Si Si6 0.166974 0.666640 0.796009
Si Si7 0.669186 0.810447 0.582053
O O1 0.255348 0.861566 0.218658
O O2 0.000000 0.907647 0.188209
O O3 0.221076 0.000000 0.183199
O O4 0.193797 0.900269 0.075779
O O5 0.795756 0.500000 0.382039
O O6 0.751384 0.392683 0.284467
O O7 0.772567 0.365907 0.435732
O O8 0.000000 0.400882 0.354727
O O9 0.764271 0.500000 0.945179
O O10 0.765414 0.370831 0.873831
O O11 0.000000 0.418393 0.941435
O O12 0.782496 0.379356 0.028748
O O13 0.500000 0.653656 0.233550
O O14 0.686619 0.745766 0.299392
O O15 0.734195 0.689684 0.159014
O O16 0.500000 0.650164 0.474726
O O17 0.299056 0.737813 0.532120
O O18 0.000000 0.644707 0.787876
O O19 0.500000 0.814117 0.605866
#
# Coordination Sequence:
#
# PCOD8189331 Si02
#       7
#     8   8   8   8   8   8   8
#     4  10  20  33  53  83 118 156 193 232 287 350
#     4  11  25  42  61  87 118 154 199 250 304 360
#     4   9  18  33  55  83 112 145 187 234 282 333
#     4  11  23  39  61  88 117 152 197 243 293 357
#     4  10  20  37  60  84 117 157 198 243 296 357
#     4  10  20  36  58  83 114 151 193 237 287 345
#     4  10  20  37  61  86 116 155 197 240 290 349
#
# _framework density 19.548404999999999
#
# number of rings (size 3 to 8) (size 9 to 14) (size 15 to 20)
#    0.000    1.857    1.429    2.571    0.000    7.143 
#    0.000    2.143    0.000    0.857    0.000    0.000 
#    0.000    0.000    0.000    0.000    0.000    0.000 
#
# Total GULP energy -347288.049361 kJ/mol
# GULP energy per Si atom -12403.144620 kJ/mol
# Density = 1.950391 g / cm^3
# Si number density = 19.548405 Si / 1000 Ang^3
#
#
#
# Elastic Constant Matrix: (Units=GPa)
#
#
# Indices 1 2 3 4 5 6 
#
# 1 84.8518 48.4138 53.4446 0.0000 0.0000 0.0000
# 2 48.4138 88.0736 53.4944 0.0000 0.0000 0.0000
# 3 53.4446 53.4944 96.6318 0.0000 0.0000 0.0000
# 4 0.0000 0.0000 0.0000 31.7448 0.0000 0.0000
# 5 0.0000 0.0000 0.0000 0.0000 34.1501 0.0000
# 6 0.0000 0.0000 0.0000 0.0000 0.0000 25.5872
#
#
#
# Elastic Compliance Matrix: (Units=1/GPa)
#
#
# Indices 1 2 3 4 5 6 
#
# 1 0.020313 -0.006542 -0.007613 0.000000 0.000000 0.000000
# 2 -0.006542 0.019213 -0.007018 0.000000 0.000000 0.000000
# 3 -0.007613 -0.007018 0.018444 0.000000 0.000000 0.000000
# 4 0.000000 0.000000 0.000000 0.031501 0.000000 0.000000
# 5 0.000000 0.000000 0.000000 0.000000 0.029282 0.000000
# 6 0.000000 0.000000 0.000000 0.000000 0.000000 0.039082
#
#
# Mechanical properties :
#
#
# Convention : Reuss Voigt Hill
#
# Bulk Modulus (GPa) = 64.00299 64.47366 64.23833
# Shear Modulus (GPa) = 24.34400 25.91004 25.12702
#
# Velocity S-wave (km/s) = 3.53274 3.64459 3.58910
# Velocity P-wave (km/s) = 7.03222 7.12488 7.07870
#
# Compressibility (1/GPa) = 0.01562427
#
# Stress axis : x y z
#
# Youngs Moduli (GPa) = 49.22945 52.04885 54.21774
#
# Poissons Ratio (x) = 0.34050 0.41276
# Poissons Ratio (y) = 0.32206 0.38049
# Poissons Ratio (z) = 0.37479 0.36527
#
# Static dielectric constant tensor:
#      x y z
#    x 3.368540 0.000000 0.000000 
#    y 0.000000 3.820540 0.000000 
#    z 0.000000 0.000000 3.518860 
# 
# 
# High freq. dielectric constant tensor:
#      x y z
#    x 1.740190 0.000000 0.000000 
#    y 0.000000 1.772100 0.000000 
#    z 0.000000 0.000000 1.767750 
# 
# From -- ./inp_files/16491.got.cif
#   From: 2010.03.12/outbox.cif.g09.slc.cpg/sg44_9_cif.got.tgz:16491.got - 2010.04.14 02:36:11.
