data_PCOD8189467
_publ_section_title
;
Structure prediction by ZEFSAII (Michael W. Deem and Ramdas Pophale) SiO2 
 PCOD8189467
Probable space group: I M M 2
;
_chemical_formula_sum "Si O2"
_cell_formula_units_Z 64
_cell_length_a 28.667943
_cell_length_b 8.510291
_cell_length_c 12.686445
_cell_angle_alpha 90.000000
_cell_angle_beta 90.000000
_cell_angle_gamma 90.000000
_cell_volume 3095.144176
_symmetry_space_group_name_H-M "I M M 2"
_symmetry_group_IT_number 44
_symmetry_cell_setting 'orthorhombic'
loop_
_space_group_symop_operation_xyz
x,y,z
-x,-y,z
-x,y,z
x,-y,z
1/2+x,1/2+y,1/2+z
1/2-x,1/2-y,1/2+z
1/2-x,1/2+y,1/2+z
1/2+x,1/2-y,1/2+z
loop_
_atom_site_type_symbol
_atom_site_label
_atom_site_fract_x
_atom_site_fract_y
_atom_site_fract_z
Si Si1 0.796655 0.815516 0.535960
Si Si2 0.203174 0.817928 0.107702
Si Si3 0.319934 0.820719 0.825196
Si Si4 0.385489 0.818137 0.509694
Si Si5 0.411965 0.321578 0.890050
Si Si6 0.603592 0.681660 0.116105
Si Si7 0.553084 0.313541 0.321419
Si Si8 0.448697 0.321565 0.673887
O O1 0.751925 0.774082 0.604933
O O2 0.787750 0.733508 0.422638
O O3 0.843883 0.752503 0.594239
O O4 0.801029 0.000000 0.518104
O O5 0.185119 0.792636 0.225522
O O6 0.211154 0.000000 0.084689
O O7 0.166324 0.753047 0.021274
O O8 0.372574 0.804474 0.864378
O O9 0.308749 0.000000 0.793627
O O10 0.415554 0.733189 0.420612
O O11 0.411982 0.795701 0.621155
O O12 0.380961 0.000000 0.482440
O O13 0.391467 0.500000 0.885926
O O14 0.451459 0.300293 0.801127
O O15 0.428460 0.290560 0.010799
O O16 0.608305 0.500000 0.143973
O O17 0.577708 0.760111 0.216435
O O18 0.500000 0.247023 0.331388
O O19 0.550605 0.500000 0.315305
O O20 0.500000 0.285448 0.628978
O O21 0.433825 0.500000 0.645350
#
# Coordination Sequence:
#
# PCOD8189467 Si02
#       8
#     8   8   8   8   8   8   8   8
#     4  10  21  39  61  89 123 160 204 256 314 374
#     4  12  24  40  62  88 119 157 205 261 320 378
#     4  11  21  36  58  85 118 157 197 241 299 365
#     4  12  25  40  58  83 117 159 207 258 313 376
#     4   9  17  33  57  84 116 153 193 244 302 356
#     4   8  17  35  60  88 119 156 200 250 301 357
#     4  10  21  39  63  89 122 167 215 261 312 373
#     4  10  20  34  56  86 118 152 192 241 302 367
#
# _framework density 20.677548999999999
#
# number of rings (size 3 to 8) (size 9 to 14) (size 15 to 20)
#    0.000    1.750    1.250    4.875    0.000    3.500 
#    0.000    9.375    0.000    0.000    0.000    1.750 
#    0.000    0.000    0.000    0.000    0.000    0.000 
#
# Total GULP energy -396624.196040 kJ/mol
# GULP energy per Si atom -12394.506126 kJ/mol
# Density = 2.063049 g / cm^3
# Si number density = 20.677549 Si / 1000 Ang^3
#
#
#
# Elastic Constant Matrix: (Units=GPa)
#
#
# Indices 1 2 3 4 5 6 
#
# 1 93.4011 20.6807 44.9280 0.0000 0.0000 0.0000
# 2 20.6807 58.2406 9.4683 0.0000 0.0000 0.0000
# 3 44.9280 9.4683 118.8111 0.0000 0.0000 0.0000
# 4 0.0000 0.0000 0.0000 20.2628 0.0000 0.0000
# 5 0.0000 0.0000 0.0000 0.0000 27.2226 0.0000
# 6 0.0000 0.0000 0.0000 0.0000 0.0000 21.9301
#
#
#
# Elastic Compliance Matrix: (Units=1/GPa)
#
#
# Indices 1 2 3 4 5 6 
#
# 1 0.014020 -0.004171 -0.004969 0.000000 0.000000 0.000000
# 2 -0.004171 0.018636 0.000092 0.000000 0.000000 0.000000
# 3 -0.004969 0.000092 0.010289 0.000000 0.000000 0.000000
# 4 0.000000 0.000000 0.000000 0.049352 0.000000 0.000000
# 5 0.000000 0.000000 0.000000 0.000000 0.036734 0.000000
# 6 0.000000 0.000000 0.000000 0.000000 0.000000 0.045599
#
#
# Mechanical properties :
#
#
# Convention : Reuss Voigt Hill
#
# Bulk Modulus (GPa) = 40.24311 46.73407 43.48859
# Shear Modulus (GPa) = 24.87446 26.90814 25.89130
#
# Velocity S-wave (km/s) = 3.47215 3.61130 3.54241
# Velocity P-wave (km/s) = 5.96480 6.32764 6.14890
#
# Compressibility (1/GPa) = 0.02484897
#
# Stress axis : x y z
#
# Youngs Moduli (GPa) = 71.32493 53.65913 97.19547
#
# Poissons Ratio (x) = 0.22379 0.48300
# Poissons Ratio (y) = 0.29747 -0.00894
# Poissons Ratio (z) = 0.35444 -0.00493
#
# Static dielectric constant tensor:
#      x y z
#    x 3.795480 0.000000 0.000000 
#    y 0.000000 3.427410 0.000000 
#    z 0.000000 0.000000 3.941570 
# 
# 
# High freq. dielectric constant tensor:
#      x y z
#    x 1.800370 0.000000 0.000000 
#    y 0.000000 1.784930 0.000000 
#    z 0.000000 0.000000 1.816810 
# 
# From -- ./inp_files/15045.got.cif
#   From: 2010.03.12/outbox.cif.g09.slc.cpg/sg44_8_cif.got.tgz:15045.got - 2010.04.14 02:36:11.
