data_PCOD8189208
_publ_section_title
;
Structure prediction by ZEFSAII (Michael W. Deem and Ramdas Pophale) SiO2 
 PCOD8189208
Probable space group: I M M 2
;
_chemical_formula_sum "Si O2"
_cell_formula_units_Z 48
_cell_length_a 9.230049
_cell_length_b 16.651621
_cell_length_c 18.593795
_cell_angle_alpha 90.000000
_cell_angle_beta 90.000000
_cell_angle_gamma 90.000000
_cell_volume 2857.778487
_symmetry_space_group_name_H-M "I M M 2"
_symmetry_group_IT_number 44
_symmetry_cell_setting 'orthorhombic'
loop_
_space_group_symop_operation_xyz
x,y,z
-x,-y,z
-x,y,z
x,-y,z
1/2+x,1/2+y,1/2+z
1/2-x,1/2-y,1/2+z
1/2-x,1/2+y,1/2+z
1/2+x,1/2-y,1/2+z
loop_
_atom_site_type_symbol
_atom_site_label
_atom_site_fract_x
_atom_site_fract_y
_atom_site_fract_z
Si Si1 0.327412 0.500000 0.645300
Si Si2 0.829676 0.828411 0.959555
Si Si3 0.829849 0.323144 0.874328
Si Si4 0.331683 0.150003 0.211709
Si Si5 0.669109 0.409873 0.998551
Si Si6 0.833685 0.243918 0.581855
Si Si7 0.671128 0.500000 0.481930
O O1 0.500000 0.500000 0.651727
O O2 0.266178 0.421493 0.683540
O O3 0.271046 0.500000 0.563518
O O4 0.783919 0.767398 0.896724
O O5 0.775953 0.919168 0.940773
O O6 0.000000 0.826655 0.972494
O O7 0.760409 0.804219 0.034925
O O8 0.780170 0.332605 0.792565
O O9 0.750946 0.387170 0.925145
O O10 0.000000 0.337066 0.883833
O O11 0.500000 0.124245 0.209273
O O12 0.307268 0.231787 0.165067
O O13 0.500000 0.405639 0.980998
O O14 0.714671 0.500000 0.021982
O O15 0.710204 0.348729 0.063890
O O16 0.000000 0.257301 0.560299
O O17 0.500000 0.500000 0.484811
#
# Coordination Sequence:
#
# PCOD8189208 Si02
#       7
#     4   8   8   8   8   8   4
#     4  11  21  31  47  73  97 122 153 188 232 277
#     4   9  16  30  48  67  91 120 153 190 228 269
#     4   9  19  32  48  67  93 125 154 185 229 280
#     4  10  20  33  47  68  98 127 153 186 230 281
#     4   9  18  32  49  69  91 118 155 196 232 268
#     4   9  17  30  48  66  90 122 154 188 228 272
#     4   9  16  27  47  71  93 112 147 194 228 263
#
# _framework density 16.796264000000001
#
# number of rings (size 3 to 8) (size 9 to 14) (size 15 to 20)
#    0.000    2.667    1.667    0.250    1.167    1.000 
#    0.000    0.417    1.833    0.000    0.000    0.000 
#    0.000    0.000    0.000    0.000    0.000    0.000 
#
# Total GULP energy -297443.438208 kJ/mol
# GULP energy per Si atom -12393.476592 kJ/mol
# Density = 1.675803 g / cm^3
# Si number density = 16.796264 Si / 1000 Ang^3
#
#
#
# Elastic Constant Matrix: (Units=GPa)
#
#
# Indices 1 2 3 4 5 6 
#
# 1 28.4502 26.9118 22.0520 0.0000 0.0000 0.0000
# 2 26.9118 145.8371 50.9305 0.0000 0.0000 0.0000
# 3 22.0520 50.9305 82.9808 0.0000 0.0000 0.0000
# 4 0.0000 0.0000 0.0000 18.7814 0.0000 0.0000
# 5 0.0000 0.0000 0.0000 0.0000 20.5615 0.0000
# 6 0.0000 0.0000 0.0000 0.0000 0.0000 20.8408
#
#
#
# Elastic Compliance Matrix: (Units=1/GPa)
#
#
# Indices 1 2 3 4 5 6 
#
# 1 0.047555 -0.005552 -0.009230 0.000000 0.000000 0.000000
# 2 -0.005552 0.009376 -0.004279 0.000000 0.000000 0.000000
# 3 -0.009230 -0.004279 0.017130 0.000000 0.000000 0.000000
# 4 0.000000 0.000000 0.000000 0.053244 0.000000 0.000000
# 5 0.000000 0.000000 0.000000 0.000000 0.048635 0.000000
# 6 0.000000 0.000000 0.000000 0.000000 0.000000 0.047983
#
#
# Mechanical properties :
#
#
# Convention : Reuss Voigt Hill
#
# Bulk Modulus (GPa) = 27.82507 50.78409 39.30458
# Shear Modulus (GPa) = 18.24650 22.52833 20.38741
#
# Velocity S-wave (km/s) = 3.29955 3.66631 3.48775
# Velocity P-wave (km/s) = 5.57837 6.94431 6.29848
#
# Compressibility (1/GPa) = 0.03593881
#
# Stress axis : x y z
#
# Youngs Moduli (GPa) = 21.02815 106.65641 58.37645
#
# Poissons Ratio (x) = 0.59217 0.53882
# Poissons Ratio (y) = 0.11675 0.24980
# Poissons Ratio (z) = 0.19409 0.45639
#
# Static dielectric constant tensor:
#      x y z
#    x 3.071900 0.000000 0.000000 
#    y 0.000000 3.635990 0.000000 
#    z 0.000000 0.000000 3.111380 
# 
# 
# High freq. dielectric constant tensor:
#      x y z
#    x 1.637880 0.000000 0.000000 
#    y 0.000000 1.657700 0.000000 
#    z 0.000000 0.000000 1.625550 
# 
# From -- ./inp_files/23187.got.cif
#   From: 2010.03.12/outbox.cif.g09.slc.cpg/sg44_12_cif.got.tgz:23187.got - 2010.04.14 02:36:11.
