data_PCOD8189251
_publ_section_title
;
Structure prediction by ZEFSAII (Michael W. Deem and Ramdas Pophale) SiO2 
 PCOD8189251
Probable space group: I M M 2
;
_chemical_formula_sum "Si O2"
_cell_formula_units_Z 56
_cell_length_a 8.632332
_cell_length_b 14.446748
_cell_length_c 23.012114
_cell_angle_alpha 90.000000
_cell_angle_beta 90.000000
_cell_angle_gamma 90.000000
_cell_volume 2869.820603
_symmetry_space_group_name_H-M "I M M 2"
_symmetry_group_IT_number 44
_symmetry_cell_setting 'orthorhombic'
loop_
_space_group_symop_operation_xyz
x,y,z
-x,-y,z
-x,y,z
x,-y,z
1/2+x,1/2+y,1/2+z
1/2-x,1/2-y,1/2+z
1/2-x,1/2+y,1/2+z
1/2+x,1/2-y,1/2+z
loop_
_atom_site_type_symbol
_atom_site_label
_atom_site_fract_x
_atom_site_fract_y
_atom_site_fract_z
Si Si1 0.322520 0.894269 0.875000
Si Si2 0.184129 0.398533 0.246861
Si Si3 0.680065 0.707437 0.701762
Si Si4 0.322263 0.107349 0.307005
Si Si5 0.817023 0.604485 0.594008
Si Si6 0.682584 0.787325 0.983624
Si Si7 0.680052 0.396985 0.929824
O O1 0.500000 0.863326 0.870471
O O2 0.245131 0.879162 0.811447
O O3 0.242953 0.833263 0.925638
O O4 0.306938 0.000000 0.894740
O O5 0.242216 0.500000 0.224330
O O6 0.232629 0.316008 0.203228
O O7 0.000000 0.401384 0.253374
O O8 0.500000 0.698024 0.686801
O O9 0.711966 0.665196 0.764894
O O10 0.777342 0.653466 0.654167
O O11 0.500000 0.135617 0.296734
O O12 0.277084 0.129605 0.373028
O O13 0.295139 0.000000 0.293127
O O14 0.748336 0.500000 0.592201
O O15 0.745094 0.665679 0.541294
O O16 0.000000 0.599423 0.589069
O O17 0.500000 0.806176 0.984958
O O18 0.719165 0.677078 0.980747
O O19 0.500000 0.391682 0.912661
O O20 0.723891 0.500000 0.952392
#
# Coordination Sequence:
#
# PCOD8189251 Si02
#       7
#     8   8   8   8   8   8   8
#     4   8  12  20  39  67  93 115 144 186 233 279
#     4   8  15  28  47  73 101 124 152 196 247 298
#     4  11  21  33  52  75  99 131 171 214 256 296
#     4  10  20  33  50  74 105 138 168 202 250 306
#     4  10  21  36  52  71  98 133 172 212 253 300
#     4   9  16  28  47  70  96 126 161 199 240 289
#     4   9  17  30  50  76 102 127 161 206 251 298
#
# _framework density 19.513414000000001
#
# number of rings (size 3 to 8) (size 9 to 14) (size 15 to 20)
#    0.000    2.714    0.000    3.429    0.000    6.857 
#    0.000    1.429    0.000    2.571    0.000    0.000 
#    0.000    0.000    0.000    0.000    0.000    0.000 
#
# Total GULP energy -347011.784097 kJ/mol
# GULP energy per Si atom -12393.278003 kJ/mol
# Density = 1.946900 g / cm^3
# Si number density = 19.513414 Si / 1000 Ang^3
#
#
#
# Elastic Constant Matrix: (Units=GPa)
#
#
# Indices 1 2 3 4 5 6 
#
# 1 14.5926 14.5239 7.6914 0.0000 0.0000 0.0000
# 2 14.5239 151.4061 79.9846 0.0000 0.0000 0.0000
# 3 7.6914 79.9846 81.8842 0.0000 0.0000 0.0000
# 4 0.0000 0.0000 0.0000 35.2601 0.0000 0.0000
# 5 0.0000 0.0000 0.0000 0.0000 17.9555 0.0000
# 6 0.0000 0.0000 0.0000 0.0000 0.0000 15.0197
#
#
#
# Elastic Compliance Matrix: (Units=1/GPa)
#
#
# Indices 1 2 3 4 5 6 
#
# 1 0.075761 -0.007249 -0.000036 0.000000 0.000000 0.000000
# 2 -0.007249 0.014340 -0.013327 0.000000 0.000000 0.000000
# 3 -0.000036 -0.013327 0.025233 0.000000 0.000000 0.000000
# 4 0.000000 0.000000 0.000000 0.028361 0.000000 0.000000
# 5 0.000000 0.000000 0.000000 0.000000 0.055693 0.000000
# 6 0.000000 0.000000 0.000000 0.000000 0.000000 0.066579
#
#
# Mechanical properties :
#
#
# Convention : Reuss Voigt Hill
#
# Bulk Modulus (GPa) = 13.49302 50.25361 31.87332
# Shear Modulus (GPa) = 15.06503 23.35926 19.21214
#
# Velocity S-wave (km/s) = 2.78156 3.46365 3.14118
# Velocity P-wave (km/s) = 4.15282 6.46569 5.43374
#
# Compressibility (1/GPa) = 0.07411238
#
# Stress axis : x y z
#
# Youngs Moduli (GPa) = 13.19939 69.73322 39.63002
#
# Poissons Ratio (x) = 0.50547 0.00142
# Poissons Ratio (y) = 0.09568 0.52814
# Poissons Ratio (z) = 0.00047 0.92932
#
# Static dielectric constant tensor:
#      x y z
#    x 3.061000 0.000000 0.000000 
#    y 0.000000 4.006250 0.000000 
#    z 0.000000 0.000000 3.472690 
# 
# 
# High freq. dielectric constant tensor:
#      x y z
#    x 1.705890 0.000000 0.000000 
#    y 0.000000 1.780060 0.000000 
#    z 0.000000 0.000000 1.739600 
# 
# From -- ./inp_files/23061.got.cif
#   From: 2010.03.12/outbox.cif.g09.slc.cpg/sg44_12_cif.got.tgz:23061.got - 2010.04.14 02:36:11.
