data_PCOD8189213
_publ_section_title
;
Structure prediction by ZEFSAII (Michael W. Deem and Ramdas Pophale) SiO2 
 PCOD8189213
Probable space group: I M M 2
;
_chemical_formula_sum "Si O2"
_cell_formula_units_Z 48
_cell_length_a 29.070702
_cell_length_b 9.247488
_cell_length_c 10.186184
_cell_angle_alpha 90.000000
_cell_angle_beta 90.000000
_cell_angle_gamma 90.000000
_cell_volume 2738.361704
_symmetry_space_group_name_H-M "I M M 2"
_symmetry_group_IT_number 44
_symmetry_cell_setting 'orthorhombic'
loop_
_space_group_symop_operation_xyz
x,y,z
-x,-y,z
-x,y,z
x,-y,z
1/2+x,1/2+y,1/2+z
1/2-x,1/2-y,1/2+z
1/2-x,1/2+y,1/2+z
1/2+x,1/2-y,1/2+z
loop_
_atom_site_type_symbol
_atom_site_label
_atom_site_fract_x
_atom_site_fract_y
_atom_site_fract_z
Si Si1 0.554067 0.165373 0.080690
Si Si2 0.278811 0.168532 0.616890
Si Si3 0.615466 0.169545 0.605884
Si Si4 0.717591 0.668399 0.876419
Si Si5 0.949108 0.671595 0.874808
Si Si6 0.111508 0.830749 0.368196
O O1 0.500000 0.178387 0.054134
O O2 0.565885 0.218394 0.228387
O O3 0.570260 0.000000 0.058448
O O4 0.580524 0.271353 0.984507
O O5 0.331281 0.203977 0.578632
O O6 0.263924 0.250346 0.748309
O O7 0.246511 0.225420 0.500162
O O8 0.271343 0.000000 0.642553
O O9 0.587221 0.230046 0.481126
O O10 0.597253 0.252657 0.733560
O O11 0.606930 0.000000 0.628691
O O12 0.726232 0.500000 0.852755
O O13 0.664350 0.703650 0.902780
O O14 0.951013 0.500000 0.878479
O O15 0.000000 0.733227 0.907812
O O16 0.102574 0.000000 0.351490
#
# Coordination Sequence:
#
# PCOD8189213 Si02
#       6
#     8   8   8   8   8   8
#     4   9  18  33  52  73  96 123 159 201 240 281
#     4   9  18  32  49  70  95 124 161 200 237 284
#     4   9  17  31  51  72  94 123 160 200 240 284
#     4   9  19  34  49  69  98 128 159 199 244 286
#     4   8  15  29  49  72  95 118 150 196 243 281
#     4  10  20  33  48  69 100 132 159 192 238 291
#
# _framework density 17.528728000000001
#
# number of rings (size 3 to 8) (size 9 to 14) (size 15 to 20)
#    0.000    3.000    0.000    1.500    0.000    3.667 
#    0.000    4.167    0.000    1.000    0.000    0.000 
#    0.000    0.000    0.000    0.000    0.000    0.000 
#
# Total GULP energy -297601.061562 kJ/mol
# GULP energy per Si atom -12400.044232 kJ/mol
# Density = 1.748883 g / cm^3
# Si number density = 17.528728 Si / 1000 Ang^3
#
#
#
# Elastic Constant Matrix: (Units=GPa)
#
#
# Indices 1 2 3 4 5 6 
#
# 1 70.5473 34.4417 80.3285 0.0000 0.0000 0.0000
# 2 34.4417 49.1508 55.0080 0.0000 0.0000 0.0000
# 3 80.3285 55.0080 166.5849 0.0000 0.0000 0.0000
# 4 0.0000 0.0000 0.0000 24.2671 0.0000 0.0000
# 5 0.0000 0.0000 0.0000 0.0000 39.0807 0.0000
# 6 0.0000 0.0000 0.0000 0.0000 0.0000 21.0388
#
#
#
# Elastic Compliance Matrix: (Units=1/GPa)
#
#
# Indices 1 2 3 4 5 6 
#
# 1 0.033568 -0.008576 -0.013355 0.000000 0.000000 0.000000
# 2 -0.008576 0.034463 -0.007245 0.000000 0.000000 0.000000
# 3 -0.013355 -0.007245 0.014835 0.000000 0.000000 0.000000
# 4 0.000000 0.000000 0.000000 0.041208 0.000000 0.000000
# 5 0.000000 0.000000 0.000000 0.000000 0.025588 0.000000
# 6 0.000000 0.000000 0.000000 0.000000 0.000000 0.047531
#
#
# Mechanical properties :
#
#
# Convention : Reuss Voigt Hill
#
# Bulk Modulus (GPa) = 40.79111 69.53773 55.16442
# Shear Modulus (GPa) = 18.95969 24.64429 21.80199
#
# Velocity S-wave (km/s) = 3.29239 3.75365 3.53056
# Velocity P-wave (km/s) = 6.14611 7.65136 6.93967
#
# Compressibility (1/GPa) = 0.02451515
#
# Stress axis : x y z
#
# Youngs Moduli (GPa) = 29.78983 29.01657 67.40772
#
# Poissons Ratio (x) = 0.24885 0.90023
# Poissons Ratio (y) = 0.25548 0.48834
# Poissons Ratio (z) = 0.39785 0.21021
#
# Static dielectric constant tensor:
#      x y z
#    x 3.334660 0.000000 0.000000 
#    y 0.000000 3.042230 0.000000 
#    z 0.000000 0.000000 3.442000 
# 
# 
# High freq. dielectric constant tensor:
#      x y z
#    x 1.674660 0.000000 0.000000 
#    y 0.000000 1.656590 0.000000 
#    z 0.000000 0.000000 1.685650 
# 
# From -- ./inp_files/4926.got.cif
#   From: 2010.03.12/outbox.cif.g09.slc.cpg/sg44_3_cif.got.tgz:4926.got - 2010.04.14 02:36:11.
