data_PCOD8189707
_publ_section_title
;
Structure prediction by ZEFSAII (Michael W. Deem and Ramdas Pophale) SiO2 
 PCOD8189707
Probable space group: I M M 2
;
_chemical_formula_sum "Si O2"
_cell_formula_units_Z 56
_cell_length_a 20.474541
_cell_length_b 9.336781
_cell_length_c 14.258413
_cell_angle_alpha 90.000000
_cell_angle_beta 90.000000
_cell_angle_gamma 90.000000
_cell_volume 2725.728134
_symmetry_space_group_name_H-M "I M M 2"
_symmetry_group_IT_number 44
_symmetry_cell_setting 'orthorhombic'
loop_
_space_group_symop_operation_xyz
x,y,z
-x,-y,z
-x,y,z
x,-y,z
1/2+x,1/2+y,1/2+z
1/2-x,1/2-y,1/2+z
1/2-x,1/2+y,1/2+z
1/2+x,1/2-y,1/2+z
loop_
_atom_site_type_symbol
_atom_site_label
_atom_site_fract_x
_atom_site_fract_y
_atom_site_fract_z
Si Si1 0.881143 0.163931 0.857130
Si Si2 0.207778 0.666972 0.729318
Si Si3 0.500000 0.830538 0.276234
Si Si4 0.500000 0.663295 0.091715
Si Si5 0.074286 0.158993 0.056924
Si Si6 0.076992 0.658749 0.228783
Si Si7 0.335784 0.661161 0.843516
Si Si8 0.149067 0.835355 0.551702
O O1 0.817893 0.236137 0.814380
O O2 0.938227 0.265791 0.825543
O O3 0.890600 0.000000 0.821824
O O4 0.877073 0.168626 0.969253
O O5 0.184816 0.500000 0.731200
O O6 0.283689 0.676501 0.758229
O O7 0.184312 0.734906 0.630206
O O8 0.500000 0.784982 0.169309
O O9 0.500000 0.000000 0.285937
O O10 0.500000 0.500000 0.131187
O O11 0.430104 0.689152 0.038891
O O12 0.101277 0.267175 0.133637
O O13 0.000000 0.195371 0.025162
O O14 0.076586 0.000000 0.100573
O O15 0.105365 0.500000 0.226514
O O16 0.104122 0.736733 0.319863
O O17 0.000000 0.663014 0.235738
O O18 0.362246 0.500000 0.845642
O O19 0.315811 0.699445 0.951471
O O20 0.161843 0.000000 0.581707
#
# Coordination Sequence:
#
# PCOD8189707 Si02
#       8
#     8   8   4   4   8   8   8   8
#     4  11  21  36  58  86 121 164 212 253 304 373
#     4  11  24  41  60  90 127 160 205 260 311 370
#     4  12  22  32  54  89 126 161 198 255 324 368
#     4  10  20  36  62  93 124 161 212 263 312 376
#     4   9  18  34  56  83 117 158 201 243 290 355
#     4  10  22  39  60  90 122 153 197 255 315 373
#     4  10  24  44  65  89 120 162 210 254 306 380
#     4  10  22  41  66  94 124 165 213 259 311 376
#
# _framework density 20.544967
#
# number of rings (size 3 to 8) (size 9 to 14) (size 15 to 20)
#    0.000    1.714    2.143    1.929    1.000    4.857 
#    0.000    2.857    0.000    0.000    0.000    0.000 
#    0.000    0.000    0.000    0.000    0.000    0.000 
#
# Total GULP energy -346880.621727 kJ/mol
# GULP energy per Si atom -12388.593633 kJ/mol
# Density = 2.049821 g / cm^3
# Si number density = 20.544967 Si / 1000 Ang^3
#
#
#
# Elastic Constant Matrix: (Units=GPa)
#
#
# Indices 1 2 3 4 5 6 
#
# 1 43.4490 35.4521 36.2780 0.0000 0.0000 0.0000
# 2 35.4521 156.9565 73.2258 0.0000 0.0000 0.0000
# 3 36.2780 73.2258 125.4393 0.0000 0.0000 0.0000
# 4 0.0000 0.0000 0.0000 24.1458 0.0000 0.0000
# 5 0.0000 0.0000 0.0000 0.0000 32.0545 0.0000
# 6 0.0000 0.0000 0.0000 0.0000 0.0000 26.2740
#
#
#
# Elastic Compliance Matrix: (Units=1/GPa)
#
#
# Indices 1 2 3 4 5 6 
#
# 1 0.032079 -0.004009 -0.006937 0.000000 0.000000 0.000000
# 2 -0.004009 0.009257 -0.004244 0.000000 0.000000 0.000000
# 3 -0.006937 -0.004244 0.012456 0.000000 0.000000 0.000000
# 4 0.000000 0.000000 0.000000 0.041415 0.000000 0.000000
# 5 0.000000 0.000000 0.000000 0.000000 0.031197 0.000000
# 6 0.000000 0.000000 0.000000 0.000000 0.000000 0.038061
#
#
# Mechanical properties :
#
#
# Convention : Reuss Voigt Hill
#
# Bulk Modulus (GPa) = 42.71588 68.41739 55.56663
# Shear Modulus (GPa) = 24.67324 28.55412 26.61368
#
# Velocity S-wave (km/s) = 3.46922 3.73209 3.60305
# Velocity P-wave (km/s) = 6.07320 7.20728 6.66441
#
# Compressibility (1/GPa) = 0.02341050
#
# Stress axis : x y z
#
# Youngs Moduli (GPa) = 31.17306 108.02781 80.28400
#
# Poissons Ratio (x) = 0.43313 0.55693
# Poissons Ratio (y) = 0.12499 0.34074
# Poissons Ratio (z) = 0.21625 0.45849
#
# Static dielectric constant tensor:
#      x y z
#    x 3.357020 0.000000 0.000000 
#    y 0.000000 3.926690 0.000000 
#    z 0.000000 0.000000 3.727510 
# 
# 
# High freq. dielectric constant tensor:
#      x y z
#    x 1.788370 0.000000 0.000000 
#    y 0.000000 1.810380 0.000000 
#    z 0.000000 0.000000 1.803040 
# 
# From -- ./inp_files/19231.got.cif
#   From: 2010.03.12/outbox.cif.g09.slc.cpg/sg44_10_cif.got.tgz:19231.got - 2010.04.14 02:36:11.
