data_PCOD8189096
_publ_section_title
;
Structure prediction by ZEFSAII (Michael W. Deem and Ramdas Pophale) SiO2 
 PCOD8189096
Probable space group: I M M 2
;
_chemical_formula_sum "Si O2"
_cell_formula_units_Z 40
_cell_length_a 19.064598
_cell_length_b 14.099752
_cell_length_c 7.086866
_cell_angle_alpha 90.000000
_cell_angle_beta 90.000000
_cell_angle_gamma 90.000000
_cell_volume 1904.992837
_symmetry_space_group_name_H-M "I M M 2"
_symmetry_group_IT_number 44
_symmetry_cell_setting 'orthorhombic'
loop_
_space_group_symop_operation_xyz
x,y,z
-x,-y,z
-x,y,z
x,-y,z
1/2+x,1/2+y,1/2+z
1/2-x,1/2-y,1/2+z
1/2-x,1/2+y,1/2+z
1/2+x,1/2-y,1/2+z
loop_
_atom_site_type_symbol
_atom_site_label
_atom_site_fract_x
_atom_site_fract_y
_atom_site_fract_z
Si Si1 0.271753 0.602440 0.112260
Si Si2 0.422504 0.745377 0.765838
Si Si3 0.833110 0.706253 0.628597
Si Si4 0.194247 0.893687 0.173822
Si Si5 0.881063 0.392400 0.999365
O O1 0.295509 0.500000 0.197477
O O2 0.313472 0.688563 0.211114
O O3 0.286361 0.603926 0.891226
O O4 0.188639 0.615254 0.128519
O O5 0.500000 0.705687 0.819009
O O6 0.377706 0.665217 0.655425
O O7 0.435917 0.830595 0.617559
O O8 0.384694 0.783933 0.952779
O O9 0.759995 0.655224 0.563671
O O10 0.872218 0.647126 0.788345
O O11 0.183431 0.000000 0.093728
O O12 0.907611 0.500000 0.980600
#
# Coordination Sequence:
#
# PCOD8189096 Si02
#       5
#     8   8   8   8   8
#     4   8  15  30  56  87 115 147 196 248 293 345
#     4  11  24  39  59  91 126 159 198 253 315 367
#     4  10  19  37  63  88 117 156 206 251 294 364
#     4   9  18  35  61  89 116 155 203 249 296 356
#     4  10  21  37  56  81 119 160 198 245 298 359
#
# _framework density 20.997454999999999
#
# number of rings (size 3 to 8) (size 9 to 14) (size 15 to 20)
#    0.000    2.400    2.000    1.800    0.000    3.200 
#    0.000    3.000    0.000    0.000    0.000    2.800 
#    0.000    0.000    0.000    0.000    0.000    0.000 
#
# Total GULP energy -247875.267720 kJ/mol
# GULP energy per Si atom -12393.763386 kJ/mol
# Density = 2.094966 g / cm^3
# Si number density = 20.997455 Si / 1000 Ang^3
#
#
#
# Elastic Constant Matrix: (Units=GPa)
#
#
# Indices 1 2 3 4 5 6 
#
# 1 128.9025 46.3411 33.8161 0.0000 0.0000 0.0000
# 2 46.3411 160.2059 21.2664 0.0000 0.0000 0.0000
# 3 33.8161 21.2664 47.9640 0.0000 0.0000 0.0000
# 4 0.0000 0.0000 0.0000 25.6881 0.0000 0.0000
# 5 0.0000 0.0000 0.0000 0.0000 19.1646 0.0000
# 6 0.0000 0.0000 0.0000 0.0000 0.0000 12.1302
#
#
#
# Elastic Compliance Matrix: (Units=1/GPa)
#
#
# Indices 1 2 3 4 5 6 
#
# 1 0.010148 -0.002110 -0.006219 0.000000 0.000000 0.000000
# 2 -0.002110 0.007071 -0.001648 0.000000 0.000000 0.000000
# 3 -0.006219 -0.001648 0.025964 0.000000 0.000000 0.000000
# 4 0.000000 0.000000 0.000000 0.038929 0.000000 0.000000
# 5 0.000000 0.000000 0.000000 0.000000 0.052180 0.000000
# 6 0.000000 0.000000 0.000000 0.000000 0.000000 0.082439
#
#
# Mechanical properties :
#
#
# Convention : Reuss Voigt Hill
#
# Bulk Modulus (GPa) = 43.04807 59.99108 51.51957
# Shear Modulus (GPa) = 20.45609 27.10650 23.78129
#
# Velocity S-wave (km/s) = 3.12463 3.59687 3.36903
# Velocity P-wave (km/s) = 5.79343 6.77367 6.30264
#
# Compressibility (1/GPa) = 0.02322984
#
# Stress axis : x y z
#
# Youngs Moduli (GPa) = 98.54362 141.42342 38.51464
#
# Poissons Ratio (x) = 0.29838 0.23953
# Poissons Ratio (y) = 0.20791 0.06346
# Poissons Ratio (z) = 0.61285 0.23302
#
# Static dielectric constant tensor:
#      x y z
#    x 3.543760 0.000000 0.000000 
#    y 0.000000 4.360810 0.000000 
#    z 0.000000 0.000000 3.426630 
# 
# 
# High freq. dielectric constant tensor:
#      x y z
#    x 1.789900 0.000000 0.000000 
#    y 0.000000 1.836340 0.000000 
#    z 0.000000 0.000000 1.811160 
# 
# From -- ./inp_files/6962.got.cif
#   From: 2010.03.12/outbox.cif.g09.slc.cpg/sg44_4_cif.got.tgz:6962.got - 2010.04.14 02:36:11.
