data_PCOD8189982
_publ_section_title
;
Structure prediction by ZEFSAII (Michael W. Deem and Ramdas Pophale) SiO2 
 PCOD8189982
Probable space group: I M M 2
;
_chemical_formula_sum "Si O2"
_cell_formula_units_Z 48
_cell_length_a 14.431820
_cell_length_b 8.604960
_cell_length_c 20.287564
_cell_angle_alpha 90.000000
_cell_angle_beta 90.000000
_cell_angle_gamma 90.000000
_cell_volume 2519.415879
_symmetry_space_group_name_H-M "I M M 2"
_symmetry_group_IT_number 44
_symmetry_cell_setting 'orthorhombic'
loop_
_space_group_symop_operation_xyz
x,y,z
-x,-y,z
-x,y,z
x,-y,z
1/2+x,1/2+y,1/2+z
1/2-x,1/2-y,1/2+z
1/2-x,1/2+y,1/2+z
1/2+x,1/2-y,1/2+z
loop_
_atom_site_type_symbol
_atom_site_label
_atom_site_fract_x
_atom_site_fract_y
_atom_site_fract_z
Si Si1 0.302564 0.682752 0.164630
Si Si2 0.806738 0.819383 0.282994
Si Si3 0.500000 0.316255 0.116806
Si Si4 0.500000 0.318224 0.970778
Si Si5 0.815817 0.679573 0.419347
Si Si6 0.000000 0.818433 0.218554
Si Si7 0.807065 0.817596 0.043387
Si Si8 0.500000 0.183437 0.575067
O O1 0.294003 0.500000 0.178347
O O2 0.265043 0.777946 0.226083
O O3 0.408687 0.737782 0.155618
O O4 0.245567 0.722309 0.099421
O O5 0.777111 0.724613 0.347720
O O6 0.910349 0.773185 0.260948
O O7 0.800238 0.000000 0.299221
O O8 0.500000 0.500000 0.109147
O O9 0.500000 0.240377 0.043584
O O10 0.500000 0.500000 0.978699
O O11 0.409828 0.272343 0.930469
O O12 0.840381 0.500000 0.422455
O O13 0.738955 0.722797 0.473466
O O14 0.000000 0.717357 0.152715
O O15 0.000000 0.000000 0.198835
O O16 0.912133 0.760418 0.039759
O O17 0.802832 0.000000 0.060196
O O18 0.500000 0.000000 0.563540
#
# Coordination Sequence:
#
# PCOD8189982 Si02
#       8
#     8   8   4   4   8   4   8   4
#     4  11  21  38  62  89 120 158 203 247 293 355
#     4  11  23  39  60  88 123 163 198 245 305 358
#     4   9  20  36  59  90 122 156 196 243 296 348
#     4  11  20  36  61  91 126 160 194 244 303 355
#     4  11  24  40  60  89 123 162 203 246 297 358
#     4  10  21  37  58  86 124 158 191 240 304 363
#     4  11  23  40  61  87 122 159 197 247 302 353
#     4  12  24  37  62  93 118 154 201 251 295 352
#
# _framework density 19.052036999999999
#
# number of rings (size 3 to 8) (size 9 to 14) (size 15 to 20)
#    0.000    1.167    3.333    3.500    0.000    3.333 
#    0.000    2.500    0.000    2.000    0.000    0.000 
#    0.000    0.000    0.000    0.000    0.000    0.000 
#
# Total GULP energy -297736.944998 kJ/mol
# GULP energy per Si atom -12405.706042 kJ/mol
# Density = 1.900867 g / cm^3
# Si number density = 19.052037 Si / 1000 Ang^3
#
#
#
# Elastic Constant Matrix: (Units=GPa)
#
#
# Indices 1 2 3 4 5 6 
#
# 1 133.7875 20.4984 50.2596 0.0000 0.0000 0.0000
# 2 20.4984 47.9072 19.5438 0.0000 0.0000 0.0000
# 3 50.2596 19.5438 122.7015 0.0000 0.0000 0.0000
# 4 0.0000 0.0000 0.0000 33.9111 0.0000 0.0000
# 5 0.0000 0.0000 0.0000 0.0000 33.8051 0.0000
# 6 0.0000 0.0000 0.0000 0.0000 0.0000 23.5265
#
#
#
# Elastic Compliance Matrix: (Units=1/GPa)
#
#
# Indices 1 2 3 4 5 6 
#
# 1 0.009114 -0.002542 -0.003328 0.000000 0.000000 0.000000
# 2 -0.002542 0.023033 -0.002627 0.000000 0.000000 0.000000
# 3 -0.003328 -0.002627 0.009932 0.000000 0.000000 0.000000
# 4 0.000000 0.000000 0.000000 0.029489 0.000000 0.000000
# 5 0.000000 0.000000 0.000000 0.000000 0.029581 0.000000
# 6 0.000000 0.000000 0.000000 0.000000 0.000000 0.042505
#
#
# Mechanical properties :
#
#
# Convention : Reuss Voigt Hill
#
# Bulk Modulus (GPa) = 39.86687 53.88887 46.87787
# Shear Modulus (GPa) = 29.58373 32.52150 31.05262
#
# Velocity S-wave (km/s) = 3.94482 4.13605 4.04156
# Velocity P-wave (km/s) = 6.45906 7.15232 6.81451
#
# Compressibility (1/GPa) = 0.02508348
#
# Stress axis : x y z
#
# Youngs Moduli (GPa) = 109.71637 43.41553 100.68740
#
# Poissons Ratio (x) = 0.11036 0.33513
# Poissons Ratio (y) = 0.27890 0.26456
# Poissons Ratio (z) = 0.36519 0.11407
#
# Static dielectric constant tensor:
#      x y z
#    x 3.673230 0.000000 0.000000 
#    y 0.000000 3.480010 0.000000 
#    z 0.000000 0.000000 3.492730 
# 
# 
# High freq. dielectric constant tensor:
#      x y z
#    x 1.744020 0.000000 0.000000 
#    y 0.000000 1.745260 0.000000 
#    z 0.000000 0.000000 1.741100 
# 
# From -- ./inp_files/20405.got.cif
#   From: 2010.03.12/outbox.cif.g09.slc.cpg/sg44_11_cif.got.tgz:20405.got - 2010.04.14 02:36:11.
