data_PCOD8189915
_publ_section_title
;
Structure prediction by ZEFSAII (Michael W. Deem and Ramdas Pophale) SiO2 
 PCOD8189915
Probable space group: I M M 2
;
_chemical_formula_sum "Si O2"
_cell_formula_units_Z 48
_cell_length_a 8.906093
_cell_length_b 18.708562
_cell_length_c 15.027971
_cell_angle_alpha 90.000000
_cell_angle_beta 90.000000
_cell_angle_gamma 90.000000
_cell_volume 2503.963429
_symmetry_space_group_name_H-M "I M M 2"
_symmetry_group_IT_number 44
_symmetry_cell_setting 'orthorhombic'
loop_
_space_group_symop_operation_xyz
x,y,z
-x,-y,z
-x,y,z
x,-y,z
1/2+x,1/2+y,1/2+z
1/2-x,1/2-y,1/2+z
1/2-x,1/2+y,1/2+z
1/2+x,1/2-y,1/2+z
loop_
_atom_site_type_symbol
_atom_site_label
_atom_site_fract_x
_atom_site_fract_y
_atom_site_fract_z
Si Si1 0.677243 0.182925 0.693390
Si Si2 0.175520 0.332363 0.696701
Si Si3 0.325687 0.583446 0.336325
Si Si4 0.327941 0.158141 0.994227
Si Si5 0.173659 0.178544 0.508123
Si Si6 0.326689 0.582529 0.845069
O O1 0.500000 0.187829 0.696240
O O2 0.741850 0.259335 0.723062
O O3 0.729884 0.122826 0.761580
O O4 0.729776 0.161383 0.595023
O O5 0.214510 0.356670 0.596684
O O6 0.228003 0.395593 0.760670
O O7 0.000000 0.317685 0.706631
O O8 0.500000 0.599873 0.321061
O O9 0.290160 0.500000 0.329438
O O10 0.279826 0.610412 0.434084
O O11 0.500000 0.137203 0.974520
O O12 0.300088 0.241402 0.972802
O O13 0.228400 0.125316 0.431524
O O14 0.000000 0.166762 0.533666
O O15 0.500000 0.599660 0.824302
O O16 0.299413 0.500000 0.865240
#
# Coordination Sequence:
#
# PCOD8189915 Si02
#       6
#     8   8   8   8   8   8
#     4  11  22  37  60  86 111 143 185 234 282 329
#     4  10  21  38  60  84 112 148 188 231 278 329
#     4  11  24  39  56  81 114 151 187 226 276 333
#     4   9  19  36  58  82 108 143 188 234 278 326
#     4   9  19  37  58  82 113 148 186 228 277 331
#     4  10  21  36  56  84 118 154 188 226 275 329
#
# _framework density 19.169609000000001
#
# number of rings (size 3 to 8) (size 9 to 14) (size 15 to 20)
#    0.000    2.000    0.000    4.500    0.000    8.333 
#    0.000    5.000    0.000    0.000    0.000    0.000 
#    0.000    0.000    0.000    0.000    0.000    0.000 
#
# Total GULP energy -297728.433355 kJ/mol
# GULP energy per Si atom -12405.351390 kJ/mol
# Density = 1.912598 g / cm^3
# Si number density = 19.169609 Si / 1000 Ang^3
#
#
#
# Elastic Constant Matrix: (Units=GPa)
#
#
# Indices 1 2 3 4 5 6 
#
# 1 88.9174 24.8205 36.7078 0.0000 0.0000 0.0000
# 2 24.8205 48.2085 30.2570 0.0000 0.0000 0.0000
# 3 36.7078 30.2570 83.4865 0.0000 0.0000 0.0000
# 4 0.0000 0.0000 0.0000 11.4412 0.0000 0.0000
# 5 0.0000 0.0000 0.0000 0.0000 33.3586 0.0000
# 6 0.0000 0.0000 0.0000 0.0000 0.0000 30.7699
#
#
#
# Elastic Compliance Matrix: (Units=1/GPa)
#
#
# Indices 1 2 3 4 5 6 
#
# 1 0.014448 -0.004468 -0.004733 0.000000 0.000000 0.000000
# 2 -0.004468 0.028232 -0.008268 0.000000 0.000000 0.000000
# 3 -0.004733 -0.008268 0.017055 0.000000 0.000000 0.000000
# 4 0.000000 0.000000 0.000000 0.087403 0.000000 0.000000
# 5 0.000000 0.000000 0.000000 0.000000 0.029977 0.000000
# 6 0.000000 0.000000 0.000000 0.000000 0.000000 0.032499
#
#
# Mechanical properties :
#
#
# Convention : Reuss Voigt Hill
#
# Bulk Modulus (GPa) = 40.32512 44.90923 42.61717
# Shear Modulus (GPa) = 19.77703 23.70241 21.73972
#
# Velocity S-wave (km/s) = 3.21547 3.52014 3.37125
# Velocity P-wave (km/s) = 5.90486 6.32456 6.11831
#
# Compressibility (1/GPa) = 0.02479844
#
# Stress axis : x y z
#
# Youngs Moduli (GPa) = 69.21602 35.42022 58.63239
#
# Poissons Ratio (x) = 0.15825 0.27752
# Poissons Ratio (y) = 0.30924 0.48475
# Poissons Ratio (z) = 0.32761 0.29284
#
# Static dielectric constant tensor:
#      x y z
#    x 3.493120 0.000000 0.000000 
#    y 0.000000 3.442630 0.000000 
#    z 0.000000 0.000000 3.576550 
# 
# 
# High freq. dielectric constant tensor:
#      x y z
#    x 1.746430 0.000000 0.000000 
#    y 0.000000 1.741720 0.000000 
#    z 0.000000 0.000000 1.755710 
# 
# From -- ./inp_files/16081.got.cif
#   From: 2010.03.12/outbox.cif.g09.slc.cpg/sg44_9_cif.got.tgz:16081.got - 2010.04.14 02:36:11.
