data_PCOD8189131
_publ_section_title
;
Structure prediction by ZEFSAII (Michael W. Deem and Ramdas Pophale) SiO2 
 PCOD8189131
Probable space group: I M M 2
;
_chemical_formula_sum "Si O2"
_cell_formula_units_Z 64
_cell_length_a 8.961804
_cell_length_b 22.734546
_cell_length_c 19.343718
_cell_angle_alpha 90.000000
_cell_angle_beta 90.000000
_cell_angle_gamma 90.000000
_cell_volume 3941.138341
_symmetry_space_group_name_H-M "I M M 2"
_symmetry_group_IT_number 44
_symmetry_cell_setting 'orthorhombic'
loop_
_space_group_symop_operation_xyz
x,y,z
-x,-y,z
-x,y,z
x,-y,z
1/2+x,1/2+y,1/2+z
1/2-x,1/2-y,1/2+z
1/2-x,1/2+y,1/2+z
1/2+x,1/2-y,1/2+z
loop_
_atom_site_type_symbol
_atom_site_label
_atom_site_fract_x
_atom_site_fract_y
_atom_site_fract_z
Si Si1 0.327327 0.931786 0.859760
Si Si2 0.667753 0.259480 0.702445
Si Si3 0.832710 0.837403 0.774137
Si Si4 0.836816 0.168321 0.343182
Si Si5 0.162947 0.238525 0.911441
Si Si6 0.324578 0.432548 0.751839
Si Si7 0.320686 0.373373 0.487182
Si Si8 0.322310 0.135517 0.131165
O O1 0.500000 0.913788 0.869469
O O2 0.258872 0.895410 0.795651
O O3 0.238754 0.919309 0.930593
O O4 0.310087 0.000000 0.841194
O O5 0.500000 0.249462 0.673913
O O6 0.749613 0.196471 0.711320
O O7 0.660560 0.291062 0.775875
O O8 0.758585 0.299866 0.648656
O O9 0.843004 0.793533 0.838217
O O10 0.000000 0.855240 0.750658
O O11 0.747999 0.199548 0.405089
O O12 0.772196 0.104909 0.319257
O O13 0.000000 0.159386 0.374209
O O14 0.233051 0.192719 0.966178
O O15 0.000000 0.256088 0.937237
O O16 0.500000 0.420104 0.736396
O O17 0.292684 0.500000 0.768411
O O18 0.227560 0.412889 0.686688
O O19 0.500000 0.378052 0.490209
O O20 0.245870 0.388205 0.559791
O O21 0.500000 0.138584 0.127363
#
# Coordination Sequence:
#
# PCOD8189131 Si02
#       8
#     8   8   8   8   8   8   8   8
#     4  10  20  32  45  63  88 118 152 187 221 259
#     4   9  16  28  45  63  84 110 140 175 218 263
#     4   9  16  27  44  65  86 109 140 178 221 263
#     4   8  14  24  41  62  80 102 133 170 211 251
#     4   8  15  26  41  60  80 103 132 170 214 258
#     4   9  18  32  46  60  83 117 152 180 209 251
#     4  10  20  33  46  60  82 115 152 184 218 261
#     4  11  21  31  44  63  87 114 147 185 222 260
#
# _framework density 16.238962999999998
#
# number of rings (size 3 to 8) (size 9 to 14) (size 15 to 20)
#    0.000    2.750    0.000    4.125    0.000    8.250 
#    0.000    0.000    0.000    0.000    0.000    0.000 
#    0.000    1.000    0.000    6.500    0.000    5.250 
#
# Total GULP energy -396599.546942 kJ/mol
# GULP energy per Si atom -12393.735842 kJ/mol
# Density = 1.620200 g / cm^3
# Si number density = 16.238963 Si / 1000 Ang^3
#
#
#
# Elastic Constant Matrix: (Units=GPa)
#
#
# Indices 1 2 3 4 5 6 
#
# 1 103.5192 46.3906 13.4254 0.0000 0.0000 0.0000
# 2 46.3906 103.0501 24.0019 0.0000 0.0000 0.0000
# 3 13.4254 24.0019 8.7975 0.0000 0.0000 0.0000
# 4 0.0000 0.0000 0.0000 13.8006 0.0000 0.0000
# 5 0.0000 0.0000 0.0000 0.0000 20.7688 0.0000
# 6 0.0000 0.0000 0.0000 0.0000 0.0000 24.4237
#
#
#
# Elastic Compliance Matrix: (Units=1/GPa)
#
#
# Indices 1 2 3 4 5 6 
#
# 1 0.012423 -0.003228 -0.010150 0.000000 0.000000 0.000000
# 2 -0.003228 0.027458 -0.069986 0.000000 0.000000 0.000000
# 3 -0.010150 -0.069986 0.320097 0.000000 0.000000 0.000000
# 4 0.000000 0.000000 0.000000 0.072460 0.000000 0.000000
# 5 0.000000 0.000000 0.000000 0.000000 0.048149 0.000000
# 6 0.000000 0.000000 0.000000 0.000000 0.000000 0.040944
#
#
# Mechanical properties :
#
#
# Convention : Reuss Voigt Hill
#
# Bulk Modulus (GPa) = 5.17466 42.55582 23.86524
# Shear Modulus (GPa) = 6.64295 20.56856 13.60576
#
# Velocity S-wave (km/s) = 2.02475 3.56282 2.89770
# Velocity P-wave (km/s) = 2.94273 6.57174 5.09153
#
# Compressibility (1/GPa) = 0.19324929
#
# Stress axis : x y z
#
# Youngs Moduli (GPa) = 80.49438 36.41906 3.12405
#
# Poissons Ratio (x) = 0.11758 0.03171
# Poissons Ratio (y) = 0.25988 0.21864
# Poissons Ratio (z) = 0.81703 2.54882
#
# Static dielectric constant tensor:
#      x y z
#    x 3.306440 0.000000 0.000000 
#    y 0.000000 3.089590 0.000000 
#    z 0.000000 0.000000 2.764590 
# 
# 
# High freq. dielectric constant tensor:
#      x y z
#    x 1.636970 0.000000 0.000000 
#    y 0.000000 1.612090 0.000000 
#    z 0.000000 0.000000 1.574590 
# 
# From -- ./inp_files/20879.got.cif
#   From: 2010.03.12/outbox.cif.g09.slc.cpg/sg44_11_cif.got.tgz:20879.got - 2010.04.14 02:36:11.
