data_PCOD8189876
_publ_section_title
;
Structure prediction by ZEFSAII (Michael W. Deem and Ramdas Pophale) SiO2 
 PCOD8189876
Probable space group: I M M 2
;
_chemical_formula_sum "Si O2"
_cell_formula_units_Z 64
_cell_length_a 8.888623
_cell_length_b 30.008659
_cell_length_c 14.288947
_cell_angle_alpha 90.000000
_cell_angle_beta 90.000000
_cell_angle_gamma 90.000000
_cell_volume 3811.371660
_symmetry_space_group_name_H-M "I M M 2"
_symmetry_group_IT_number 44
_symmetry_cell_setting 'orthorhombic'
loop_
_space_group_symop_operation_xyz
x,y,z
-x,-y,z
-x,y,z
x,-y,z
1/2+x,1/2+y,1/2+z
1/2-x,1/2-y,1/2+z
1/2-x,1/2+y,1/2+z
1/2+x,1/2-y,1/2+z
loop_
_atom_site_type_symbol
_atom_site_label
_atom_site_fract_x
_atom_site_fract_y
_atom_site_fract_z
Si Si1 0.675721 0.211429 0.415130
Si Si2 0.324926 0.050374 0.030548
Si Si3 0.324438 0.770049 0.627281
Si Si4 0.676568 0.177982 0.128389
Si Si5 0.173349 0.865703 0.959566
Si Si6 0.177136 0.134387 0.299822
Si Si7 0.173156 0.200745 0.800834
Si Si8 0.175419 0.550274 0.747270
O O1 0.500000 0.203926 0.399739
O O2 0.717467 0.212698 0.524633
O O3 0.760421 0.168529 0.375995
O O4 0.726723 0.257208 0.364714
O O5 0.500000 0.061464 0.017280
O O6 0.228858 0.083312 0.964645
O O7 0.289594 0.000000 0.998370
O O8 0.279295 0.057010 0.138565
O O9 0.500000 0.758060 0.633436
O O10 0.224319 0.727638 0.653465
O O11 0.276419 0.804798 0.708144
O O12 0.500000 0.172148 0.141740
O O13 0.760998 0.144954 0.197424
O O14 0.725719 0.165829 0.024384
O O15 0.194029 0.845695 0.856024
O O16 0.000000 0.862343 0.991178
O O17 0.232482 0.083496 0.315720
O O18 0.000000 0.136943 0.302981
O O19 0.000000 0.207322 0.771760
O O20 0.215066 0.500000 0.778141
O O21 0.000000 0.559868 0.760191
#
# Coordination Sequence:
#
# PCOD8189876 Si02
#       8
#     8   8   8   8   8   8   8   8
#     4  10  21  37  53  72 103 138 170 210 257 302
#     4   9  18  32  50  74 104 137 171 207 252 306
#     4  11  22  37  54  74 100 132 178 221 250 293
#     4  12  22  32  49  71 103 141 173 209 256 301
#     4  11  21  34  51  75 104 136 176 214 251 301
#     4  12  23  33  50  77 104 135 177 214 249 300
#     4  10  21  36  52  73 105 138 168 209 260 306
#     4   9  18  33  52  74 103 138 170 204 254 308
#
# _framework density 16.791855000000002
#
# number of rings (size 3 to 8) (size 9 to 14) (size 15 to 20)
#    0.000    1.500    3.750    3.750    0.000    2.500 
#    0.000    1.250    0.000    0.000    0.000    0.875 
#    0.000    5.000    0.000    0.000    0.000    0.000 
#
# Total GULP energy -396800.403944 kJ/mol
# GULP energy per Si atom -12400.012623 kJ/mol
# Density = 1.675364 g / cm^3
# Si number density = 16.791855 Si / 1000 Ang^3
#
#
#
# Elastic Constant Matrix: (Units=GPa)
#
#
# Indices 1 2 3 4 5 6 
#
# 1 70.6990 48.9277 38.8224 -0.0002 -0.0001 -0.0001
# 2 48.9277 95.6483 28.6241 -0.0004 0.0000 -0.0001
# 3 38.8224 28.6241 74.6775 -0.0016 0.0000 0.0002
# 4 -0.0002 -0.0004 -0.0016 24.2282 0.0000 0.0002
# 5 -0.0001 0.0000 0.0000 0.0000 24.9915 -0.0002
# 6 -0.0001 -0.0001 0.0002 0.0002 -0.0002 28.2006
#
#
#
# Elastic Compliance Matrix: (Units=1/GPa)
#
#
# Indices 1 2 3 4 5 6 
#
# 1 0.027154 -0.010918 -0.009932 -0.000001 0.000000 0.000000
# 2 -0.010918 0.016200 -0.000533 0.000000 0.000000 0.000000
# 3 -0.009932 -0.000533 0.018758 0.000001 0.000000 0.000000
# 4 -0.000001 0.000000 0.000001 0.041274 0.000000 0.000000
# 5 0.000000 0.000000 0.000000 0.000000 0.040014 0.000000
# 6 0.000000 0.000000 0.000000 0.000000 0.000000 0.035460
#
#
# Mechanical properties :
#
#
# Convention : Reuss Voigt Hill
#
# Bulk Modulus (GPa) = 51.69033 52.64147 52.16590
# Shear Modulus (GPa) = 21.92258 23.79408 22.85833
#
# Velocity S-wave (km/s) = 3.61716 3.76839 3.69355
# Velocity P-wave (km/s) = 6.94945 7.09590 7.02306
#
# Compressibility (1/GPa) = 0.01934598
#
# Stress axis : x y z
#
# Youngs Moduli (GPa) = 36.82679 61.72972 53.30924
#
# Poissons Ratio (x) = 0.67398 0.52945
# Poissons Ratio (y) = 0.40208 0.02843
# Poissons Ratio (z) = 0.36575 0.03292
#
# Static dielectric constant tensor:
#      x y z
#    x 3.131420 0.000000 0.000000 
#    y 0.000000 3.346910 0.000000 
#    z 0.000000 0.000000 2.958480 
# 
# 
# High freq. dielectric constant tensor:
#      x y z
#    x 1.652670 0.000000 0.000000 
#    y 0.000000 1.642810 0.000000 
#    z 0.000000 0.000000 1.617080 
# 
# From -- ./inp_files/17098.got.cif
#   From: 2010.03.12/outbox.cif.g09.slc.cpg/sg44_9_cif.got.tgz:17098.got - 2010.04.14 02:36:11.
