data_PCOD8189094
_publ_section_title
;
Structure prediction by ZEFSAII (Michael W. Deem and Ramdas Pophale) SiO2 
 PCOD8189094
Probable space group: I M M 2
;
_chemical_formula_sum "Si O2"
_cell_formula_units_Z 40
_cell_length_a 8.720152
_cell_length_b 9.682123
_cell_length_c 25.719506
_cell_angle_alpha 90.000000
_cell_angle_beta 90.000000
_cell_angle_gamma 90.000000
_cell_volume 2171.487199
_symmetry_space_group_name_H-M "I M M 2"
_symmetry_group_IT_number 44
_symmetry_cell_setting 'orthorhombic'
loop_
_space_group_symop_operation_xyz
x,y,z
-x,-y,z
-x,y,z
x,-y,z
1/2+x,1/2+y,1/2+z
1/2-x,1/2-y,1/2+z
1/2-x,1/2+y,1/2+z
1/2+x,1/2-y,1/2+z
loop_
_atom_site_type_symbol
_atom_site_label
_atom_site_fract_x
_atom_site_fract_y
_atom_site_fract_z
Si Si1 0.817702 0.000000 0.934820
Si Si2 0.819911 0.000000 0.661208
Si Si3 0.180557 0.500000 0.829854
Si Si4 0.823248 0.500000 0.272310
Si Si5 0.680893 0.000000 0.209720
Si Si6 0.680937 0.500000 0.551365
Si Si7 0.320172 0.784115 0.859535
Si Si8 0.681853 0.716064 0.635069
O O1 0.757224 0.862462 0.907436
O O2 0.750405 0.000000 0.993537
O O3 0.000000 0.000000 0.933641
O O4 0.749177 0.868588 0.632311
O O5 0.783633 0.000000 0.722287
O O6 0.000000 0.000000 0.653478
O O7 0.226946 0.500000 0.769765
O O8 0.250929 0.632485 0.857775
O O9 0.000000 0.500000 0.837864
O O10 0.784759 0.364269 0.305919
O O11 0.000000 0.500000 0.254256
O O12 0.752329 0.862155 0.185315
O O13 0.500000 0.000000 0.200882
O O14 0.500000 0.500000 0.547828
O O15 0.734505 0.636041 0.582920
O O16 0.500000 0.778342 0.870003
O O17 0.500000 0.721337 0.640809
#
# Coordination Sequence:
#
# PCOD8189094 Si02
#       8
#     4   4   4   4   4   4   8   8
#     4  10  19  37  62  82 102 131 172 219 267 316
#     4  12  23  33  49  79 114 142 175 221 266 301
#     4  11  22  34  51  78 111 145 177 214 261 308
#     4   9  19  35  54  75 104 146 185 211 250 313
#     4  10  20  34  53  80 111 141 177 218 259 304
#     4   8  18  37  61  82  98 129 176 219 259 316
#     4  10  21  36  54  79 108 139 178 218 259 311
#     4  10  20  36  56  78 106 142 181 213 254 315
#
# _framework density 18.420556000000001
#
# number of rings (size 3 to 8) (size 9 to 14) (size 15 to 20)
#    0.000    2.000    0.000    5.400    0.000    7.200 
#    0.000    7.000    0.000    2.400    0.000    0.000 
#    0.000    0.000    0.000    0.000    0.000    0.000 
#
# Total GULP energy -248064.019502 kJ/mol
# GULP energy per Si atom -12403.200975 kJ/mol
# Density = 1.837863 g / cm^3
# Si number density = 18.420556 Si / 1000 Ang^3
#
#
#
# Elastic Constant Matrix: (Units=GPa)
#
#
# Indices 1 2 3 4 5 6 
#
# 1 95.5465 55.3673 53.7038 0.0000 0.0000 0.0000
# 2 55.3673 180.7322 75.6201 0.0000 0.0000 0.0000
# 3 53.7038 75.6201 133.7754 0.0000 0.0000 0.0000
# 4 0.0000 0.0000 0.0000 10.9590 0.0000 0.0000
# 5 0.0000 0.0000 0.0000 0.0000 23.5555 0.0000
# 6 0.0000 0.0000 0.0000 0.0000 0.0000 35.3307
#
#
#
# Elastic Compliance Matrix: (Units=1/GPa)
#
#
# Indices 1 2 3 4 5 6 
#
# 1 0.014398 -0.002610 -0.004305 0.000000 0.000000 0.000000
# 2 -0.002610 0.007720 -0.003316 0.000000 0.000000 0.000000
# 3 -0.004305 -0.003316 0.011078 0.000000 0.000000 0.000000
# 4 0.000000 0.000000 0.000000 0.091249 0.000000 0.000000
# 5 0.000000 0.000000 0.000000 0.000000 0.042453 0.000000
# 6 0.000000 0.000000 0.000000 0.000000 0.000000 0.028304
#
#
# Mechanical properties :
#
#
# Convention : Reuss Voigt Hill
#
# Bulk Modulus (GPa) = 78.52735 86.60405 82.56570
# Shear Modulus (GPa) = 22.73672 28.99324 25.86498
#
# Velocity S-wave (km/s) = 3.51709 3.97162 3.75125
# Velocity P-wave (km/s) = 7.69520 8.25522 7.98012
#
# Compressibility (1/GPa) = 0.01273442
#
# Stress axis : x y z
#
# Youngs Moduli (GPa) = 69.45425 129.53185 90.26846
#
# Poissons Ratio (x) = 0.33803 0.38859
# Poissons Ratio (y) = 0.18125 0.29936
# Poissons Ratio (z) = 0.29899 0.42958
#
# Static dielectric constant tensor:
#      x y z
#    x 3.385100 0.000000 0.000000 
#    y 0.000000 3.528390 0.000000 
#    z 0.000000 0.000000 3.427800 
# 
# 
# High freq. dielectric constant tensor:
#      x y z
#    x 1.720670 0.000000 0.000000 
#    y 0.000000 1.724180 0.000000 
#    z 0.000000 0.000000 1.699340 
# 
# From -- ./inp_files/26007.got.cif
#   From: 2010.03.12/outbox.cif.g09.slc.cpg/sg44_14_cif.got.tgz:26007.got - 2010.04.14 02:36:11.
