data_PCOD8189579
_publ_section_title
;
Structure prediction by ZEFSAII (Michael W. Deem and Ramdas Pophale) SiO2 
 PCOD8189579
Probable space group: I M M 2
;
_chemical_formula_sum "Si O2"
_cell_formula_units_Z 32
_cell_length_a 8.835220
_cell_length_b 7.651587
_cell_length_c 24.011500
_cell_angle_alpha 90.000000
_cell_angle_beta 90.000000
_cell_angle_gamma 90.000000
_cell_volume 1623.260348
_symmetry_space_group_name_H-M "I M M 2"
_symmetry_group_IT_number 44
_symmetry_cell_setting 'orthorhombic'
loop_
_space_group_symop_operation_xyz
x,y,z
-x,-y,z
-x,y,z
x,-y,z
1/2+x,1/2+y,1/2+z
1/2-x,1/2-y,1/2+z
1/2-x,1/2+y,1/2+z
1/2+x,1/2-y,1/2+z
loop_
_atom_site_type_symbol
_atom_site_label
_atom_site_fract_x
_atom_site_fract_y
_atom_site_fract_z
Si Si1 0.672748 0.806239 0.659210
Si Si2 0.677836 0.298179 0.434721
Si Si3 0.179543 0.000000 0.236992
Si Si4 0.679942 0.500000 0.862475
Si Si5 0.326472 0.797103 0.049568
O O1 0.500000 0.755739 0.644326
O O2 0.739422 0.671454 0.704488
O O3 0.768986 0.807064 0.602897
O O4 0.682688 0.000000 0.685387
O O5 0.500000 0.269031 0.430037
O O6 0.723162 0.500000 0.423209
O O7 0.730133 0.240124 0.496053
O O8 0.760238 0.176753 0.390274
O O9 0.243517 0.000000 0.299435
O O10 0.000000 0.000000 0.239830
O O11 0.500000 0.500000 0.865203
O O12 0.500000 0.748825 0.037654
O O13 0.303908 0.000000 0.062591
#
# Coordination Sequence:
#
# PCOD8189579 Si02
#       5
#     8   8   4   4   8
#     4  10  20  35  58  85 113 152 196 237 287 351
#     4  10  22  40  61  86 118 159 202 244 296 359
#     4   9  20  39  59  83 117 155 198 243 292 349
#     4  11  23  39  63  91 119 157 202 253 302 351
#     4  10  20  35  57  86 120 154 190 240 299 350
#
# _framework density 19.713411000000001
#
# number of rings (size 3 to 8) (size 9 to 14) (size 15 to 20)
#    0.000    2.000    1.250    1.875    1.750    4.000 
#    0.000    5.000    0.000    0.000    0.000    0.000 
#    0.000    0.000    0.000    0.000    0.000    0.000 
#
# Total GULP energy -198444.853816 kJ/mol
# GULP energy per Si atom -12402.803363 kJ/mol
# Density = 1.966854 g / cm^3
# Si number density = 19.713411 Si / 1000 Ang^3
#
#
#
# Elastic Constant Matrix: (Units=GPa)
#
#
# Indices 1 2 3 4 5 6 
#
# 1 75.1296 38.8252 41.0837 0.0000 0.0000 0.0000
# 2 38.8252 125.0425 78.6796 0.0000 0.0000 0.0000
# 3 41.0837 78.6796 158.8212 0.0000 0.0000 0.0000
# 4 0.0000 0.0000 0.0000 25.1599 0.0000 0.0000
# 5 0.0000 0.0000 0.0000 0.0000 27.2305 0.0000
# 6 0.0000 0.0000 0.0000 0.0000 0.0000 26.6203
#
#
#
# Elastic Compliance Matrix: (Units=1/GPa)
#
#
# Indices 1 2 3 4 5 6 
#
# 1 0.016519 -0.003545 -0.002517 0.000000 0.000000 0.000000
# 2 -0.003545 0.012380 -0.005216 0.000000 0.000000 0.000000
# 3 -0.002517 -0.005216 0.009531 0.000000 0.000000 0.000000
# 4 0.000000 0.000000 0.000000 0.039746 0.000000 0.000000
# 5 0.000000 0.000000 0.000000 0.000000 0.036724 0.000000
# 6 0.000000 0.000000 0.000000 0.000000 0.000000 0.037565
#
#
# Mechanical properties :
#
#
# Convention : Reuss Voigt Hill
#
# Bulk Modulus (GPa) = 62.99562 75.13003 69.06282
# Shear Modulus (GPa) = 27.72965 29.16245 28.44605
#
# Velocity S-wave (km/s) = 3.75459 3.85037 3.80278
# Velocity P-wave (km/s) = 7.12888 7.61321 7.37502
#
# Compressibility (1/GPa) = 0.01587412
#
# Stress axis : x y z
#
# Youngs Moduli (GPa) = 60.53728 80.77458 104.91688
#
# Poissons Ratio (x) = 0.28639 0.26404
# Poissons Ratio (y) = 0.21463 0.54724
# Poissons Ratio (z) = 0.15235 0.42132
#
# Static dielectric constant tensor:
#      x y z
#    x 3.469410 0.000000 0.000000 
#    y 0.000000 3.698350 0.000000 
#    z 0.000000 0.000000 3.597240 
# 
# 
# High freq. dielectric constant tensor:
#      x y z
#    x 1.758850 0.000000 0.000000 
#    y 0.000000 1.779450 0.000000 
#    z 0.000000 0.000000 1.760990 
# 
# From -- ./inp_files/22513.got.cif
#   From: 2010.03.12/outbox.cif.g09.slc.cpg/sg44_12_cif.got.tgz:22513.got - 2010.04.14 02:36:11.
