data_PCOD8189424
_publ_section_title
;
Structure prediction by ZEFSAII (Michael W. Deem and Ramdas Pophale) SiO2 
 PCOD8189424
Probable space group: I M M 2
;
_chemical_formula_sum "Si O2"
_cell_formula_units_Z 48
_cell_length_a 8.319364
_cell_length_b 18.565863
_cell_length_c 15.138643
_cell_angle_alpha 90.000000
_cell_angle_beta 90.000000
_cell_angle_gamma 90.000000
_cell_volume 2338.256851
_symmetry_space_group_name_H-M "I M M 2"
_symmetry_group_IT_number 44
_symmetry_cell_setting 'orthorhombic'
loop_
_space_group_symop_operation_xyz
x,y,z
-x,-y,z
-x,y,z
x,-y,z
1/2+x,1/2+y,1/2+z
1/2-x,1/2-y,1/2+z
1/2-x,1/2+y,1/2+z
1/2+x,1/2-y,1/2+z
loop_
_atom_site_type_symbol
_atom_site_label
_atom_site_fract_x
_atom_site_fract_y
_atom_site_fract_z
Si Si1 0.185691 0.000000 0.770741
Si Si2 0.810224 0.735204 0.502042
Si Si3 0.192498 0.726827 0.701418
Si Si4 0.312181 0.609592 0.954112
Si Si5 0.686410 0.923152 0.272617
Si Si6 0.184940 0.500000 0.082195
Si Si7 0.690293 0.850870 0.833787
O O1 0.300752 0.000000 0.686693
O O2 0.223313 0.927621 0.824891
O O3 0.000000 0.000000 0.742580
O O4 0.740659 0.728018 0.600975
O O5 0.748272 0.809481 0.461012
O O6 0.755737 0.674450 0.432161
O O7 0.000000 0.736376 0.510746
O O8 0.265237 0.650401 0.736084
O O9 0.259582 0.793450 0.758389
O O10 0.000000 0.730258 0.706410
O O11 0.500000 0.605325 0.932708
O O12 0.214367 0.571319 0.876984
O O13 0.274174 0.570579 0.045986
O O14 0.500000 0.919108 0.250593
O O15 0.752636 0.000000 0.232418
O O16 0.000000 0.500000 0.054315
O O17 0.500000 0.860825 0.827801
#
# Coordination Sequence:
#
# PCOD8189424 Si02
#       7
#     4   8   8   8   8   4   8
#     4  12  26  44  62  87 120 159 200 247 308 372
#     4   9  20  37  59  87 118 154 202 247 299 360
#     4  10  20  38  62  88 120 163 207 254 306 362
#     4  11  20  34  57  85 120 160 197 241 300 365
#     4  10  20  34  54  84 120 156 201 252 301 356
#     4  12  24  38  58  91 124 155 198 251 304 364
#     4  11  22  41  64  90 121 159 204 258 307 360
#
# _framework density 20.528110999999999
#
# number of rings (size 3 to 8) (size 9 to 14) (size 15 to 20)
#    0.000    1.500    2.500    3.500    0.000    1.333 
#    1.500    2.500    0.000    0.000    0.000    0.000 
#    0.000    0.000    0.000    0.000    0.000    0.000 
#
# Total GULP energy -297462.214197 kJ/mol
# GULP energy per Si atom -12394.258925 kJ/mol
# Density = 2.048139 g / cm^3
# Si number density = 20.528111 Si / 1000 Ang^3
#
#
#
# Elastic Constant Matrix: (Units=GPa)
#
#
# Indices 1 2 3 4 5 6 
#
# 1 42.2089 24.3310 10.1216 0.0000 0.0000 0.0000
# 2 24.3310 181.7056 53.8726 0.0000 0.0000 0.0000
# 3 10.1216 53.8726 114.4455 0.0000 0.0000 0.0000
# 4 0.0000 0.0000 0.0000 -64.0803 0.0000 0.0000
# 5 0.0000 0.0000 0.0000 0.0000 24.9386 0.0000
# 6 0.0000 0.0000 0.0000 0.0000 0.0000 27.4266
#
#
#
# Elastic Compliance Matrix: (Units=1/GPa)
#
#
# Indices 1 2 3 4 5 6 
#
# 1 0.025730 -0.003220 -0.000760 0.000000 0.000000 0.000000
# 2 -0.003220 0.006799 -0.002916 0.000000 0.000000 0.000000
# 3 -0.000760 -0.002916 0.010177 0.000000 0.000000 0.000000
# 4 0.000000 0.000000 0.000000 -0.015605 0.000000 0.000000
# 5 0.000000 0.000000 0.000000 0.000000 0.040098 0.000000
# 6 0.000000 0.000000 0.000000 0.000000 0.000000 0.036461
#
#
# Mechanical properties :
#
#
# Convention : Reuss Voigt Hill
#
# Bulk Modulus (GPa) = 34.58361 57.22338 45.90349
# Shear Modulus (GPa) = 39.34211 14.32595 26.83403
#
# Velocity S-wave (km/s) = 4.38253 2.64459 3.61942
# Velocity P-wave (km/s) = 6.51861 6.10420 6.31481
#
# Compressibility (1/GPa) = 0.02891544
#
# Stress axis : x y z
#
# Youngs Moduli (GPa) = 38.86501 147.07944 98.25609
#
# Poissons Ratio (x) = 0.47361 0.07465
# Poissons Ratio (y) = 0.12515 0.28649
# Poissons Ratio (z) = 0.02953 0.42884
#
# Static dielectric constant tensor:
#      x y z
#    x 3.434820 0.000000 0.000000 
#    y 0.000000 4.440820 0.000000 
#    z 0.000000 0.000000 3.768680 
# 
# 
# High freq. dielectric constant tensor:
#      x y z
#    x 1.780980 0.000000 0.000000 
#    y 0.000000 1.822150 0.000000 
#    z 0.000000 0.000000 1.795550 
# 
# From -- ./inp_files/16177.got.cif
#   From: 2010.03.12/outbox.cif.g09.slc.cpg/sg44_9_cif.got.tgz:16177.got - 2010.04.14 02:36:11.
