data_PCOD8189656
_publ_section_title
;
Structure prediction by ZEFSAII (Michael W. Deem and Ramdas Pophale) SiO2 
 PCOD8189656
Probable space group: I M M 2
;
_chemical_formula_sum "Si O2"
_cell_formula_units_Z 64
_cell_length_a 25.169258
_cell_length_b 13.917837
_cell_length_c 8.534982
_cell_angle_alpha 90.000000
_cell_angle_beta 90.000000
_cell_angle_gamma 90.000000
_cell_volume 2989.818109
_symmetry_space_group_name_H-M "I M M 2"
_symmetry_group_IT_number 44
_symmetry_cell_setting 'orthorhombic'
loop_
_space_group_symop_operation_xyz
x,y,z
-x,-y,z
-x,y,z
x,-y,z
1/2+x,1/2+y,1/2+z
1/2-x,1/2-y,1/2+z
1/2-x,1/2+y,1/2+z
1/2+x,1/2-y,1/2+z
loop_
_atom_site_type_symbol
_atom_site_label
_atom_site_fract_x
_atom_site_fract_y
_atom_site_fract_z
Si Si1 0.939437 0.608125 0.936690
Si Si2 0.728872 0.388798 0.629923
Si Si3 0.251227 0.206512 0.794480
Si Si4 0.620694 0.394474 0.781550
Si Si5 0.557707 0.719342 0.217197
Si Si6 0.942289 0.723802 0.363207
Si Si7 0.154882 0.891034 0.635005
Si Si8 0.640220 0.109474 0.719416
O O1 0.932049 0.500000 0.872623
O O2 0.926766 0.680384 0.796614
O O3 0.000000 0.621834 0.999639
O O4 0.895984 0.630090 0.068428
O O5 0.750777 0.500000 0.635651
O O6 0.751617 0.323557 0.774904
O O7 0.744707 0.334640 0.469197
O O8 0.665164 0.391700 0.646104
O O9 0.206105 0.168111 0.681270
O O10 0.307912 0.175518 0.721498
O O11 0.593370 0.500000 0.782730
O O12 0.577387 0.311746 0.750285
O O13 0.647625 0.374804 0.950390
O O14 0.500000 0.681329 0.278990
O O15 0.604022 0.641420 0.239513
O O16 0.552243 0.737279 0.035177
O O17 0.899197 0.637924 0.361856
O O18 0.000000 0.688994 0.301942
O O19 0.165796 0.000000 0.679866
O O20 0.658430 0.000000 0.735824
#
# Coordination Sequence:
#
# PCOD8189656 Si02
#       8
#     8   8   8   8   8   8   8   8
#     4   9  19  38  61  87 121 162 209 260 317 381
#     4  11  24  44  69  95 128 172 215 265 324 387
#     4  12  25  42  66  95 131 167 209 267 323 385
#     4   9  19  39  62  88 123 163 209 258 320 386
#     4   9  20  37  59  89 124 159 204 260 316 377
#     4  10  20  36  58  88 122 160 207 260 318 377
#     4  10  21  38  62  90 124 169 212 258 320 383
#     4  11  23  39  59  87 121 163 211 261 320 383
#
# _framework density 21.405985000000001
#
# number of rings (size 3 to 8) (size 9 to 14) (size 15 to 20)
#    0.000    1.875    1.250    2.250    3.500    1.750 
#    0.000    5.625    0.000    0.000    0.000    3.500 
#    0.000    0.000    0.000    0.000    0.000    0.000 
#
# Total GULP energy -396537.939370 kJ/mol
# GULP energy per Si atom -12391.810605 kJ/mol
# Density = 2.135726 g / cm^3
# Si number density = 21.405985 Si / 1000 Ang^3
#
#
#
# Elastic Constant Matrix: (Units=GPa)
#
#
# Indices 1 2 3 4 5 6 
#
# 1 121.7157 32.9468 22.5081 0.0000 0.0000 0.0000
# 2 32.9468 126.4260 39.9054 0.0000 0.0000 0.0000
# 3 22.5081 39.9054 37.7764 0.0000 0.0000 0.0000
# 4 0.0000 0.0000 0.0000 31.6078 0.0000 0.0000
# 5 0.0000 0.0000 0.0000 0.0000 25.7756 0.0000
# 6 0.0000 0.0000 0.0000 0.0000 0.0000 21.6895
#
#
#
# Elastic Compliance Matrix: (Units=1/GPa)
#
#
# Indices 1 2 3 4 5 6 
#
# 1 0.009319 -0.001014 -0.004481 0.000000 0.000000 0.000000
# 2 -0.001014 0.011977 -0.012048 0.000000 0.000000 0.000000
# 3 -0.004481 -0.012048 0.041868 0.000000 0.000000 0.000000
# 4 0.000000 0.000000 0.000000 0.031638 0.000000 0.000000
# 5 0.000000 0.000000 0.000000 0.000000 0.038796 0.000000
# 6 0.000000 0.000000 0.000000 0.000000 0.000000 0.046105
#
#
# Mechanical properties :
#
#
# Convention : Reuss Voigt Hill
#
# Bulk Modulus (GPa) = 35.61491 52.95986 44.28738
# Shear Modulus (GPa) = 22.30665 28.51845 25.41255
#
# Velocity S-wave (km/s) = 3.23162 3.65398 3.44927
# Velocity P-wave (km/s) = 5.53159 6.52660 6.04958
#
# Compressibility (1/GPa) = 0.02807813
#
# Stress axis : x y z
#
# Youngs Moduli (GPa) = 107.30702 83.49516 23.88453
#
# Poissons Ratio (x) = 0.08467 0.10703
# Poissons Ratio (y) = 0.10882 0.28775
# Poissons Ratio (z) = 0.48087 1.00591
#
# Static dielectric constant tensor:
#      x y z
#    x 4.357950 0.000000 0.000000 
#    y 0.000000 4.123370 0.000000 
#    z 0.000000 0.000000 3.645600 
# 
# 
# High freq. dielectric constant tensor:
#      x y z
#    x 1.843830 0.000000 0.000000 
#    y 0.000000 1.848530 0.000000 
#    z 0.000000 0.000000 1.819830 
# 
# From -- ./inp_files/9485.got.cif
#   From: 2010.03.12/outbox.cif.g09.slc.cpg/sg44_5_cif.got.tgz:9485.got - 2010.04.14 02:36:11.
