data_PCOD8189810
_publ_section_title
;
Structure prediction by ZEFSAII (Michael W. Deem and Ramdas Pophale) SiO2 
 PCOD8189810
Probable space group: I M M 2
;
_chemical_formula_sum "Si O2"
_cell_formula_units_Z 64
_cell_length_a 22.326339
_cell_length_b 18.439525
_cell_length_c 7.693186
_cell_angle_alpha 90.000000
_cell_angle_beta 90.000000
_cell_angle_gamma 90.000000
_cell_volume 3167.185328
_symmetry_space_group_name_H-M "I M M 2"
_symmetry_group_IT_number 44
_symmetry_cell_setting 'orthorhombic'
loop_
_space_group_symop_operation_xyz
x,y,z
-x,-y,z
-x,y,z
x,-y,z
1/2+x,1/2+y,1/2+z
1/2-x,1/2-y,1/2+z
1/2-x,1/2+y,1/2+z
1/2+x,1/2-y,1/2+z
loop_
_atom_site_type_symbol
_atom_site_label
_atom_site_fract_x
_atom_site_fract_y
_atom_site_fract_z
Si Si1 0.820203 0.808999 0.702690
Si Si2 0.932215 0.917664 0.187943
Si Si3 0.719059 0.154035 0.176079
Si Si4 0.725281 0.083077 0.536637
Si Si5 0.655362 0.694611 0.585026
Si Si6 0.149813 0.418739 0.375029
Si Si7 0.932088 0.706927 0.289302
Si Si8 0.065040 0.156617 0.531358
O O1 0.813377 0.729092 0.622565
O O2 0.777189 0.866597 0.613806
O O3 0.887172 0.840226 0.684188
O O4 0.809349 0.794300 0.905656
O O5 0.889901 0.872121 0.062835
O O6 0.916075 0.904071 0.390105
O O7 0.000000 0.891675 0.155919
O O8 0.922229 0.000000 0.138156
O O9 0.698879 0.116054 0.356690
O O10 0.789929 0.170868 0.210145
O O11 0.701820 0.102403 0.013948
O O12 0.673257 0.083397 0.678358
O O13 0.747943 0.000000 0.505892
O O14 0.617461 0.764994 0.647477
O O15 0.128525 0.500000 0.421561
O O16 0.091765 0.366649 0.378719
O O17 0.936428 0.766379 0.437512
O O18 0.000000 0.694898 0.211933
O O19 0.000000 0.138474 0.612748
#
# Coordination Sequence:
#
# PCOD8189810 Si02
#       8
#     8   8   8   8   8   8   8   8
#     4  12  22  37  59  88 124 159 208 260 312 383
#     4   9  19  37  57  79 113 159 206 247 298 364
#     4  12  23  40  63  90 127 164 206 258 329 381
#     4  11  25  41  60  91 129 167 207 261 321 386
#     4  11  23  34  60  91 121 161 209 256 310 378
#     4  11  23  41  64  93 124 162 215 264 318 387
#     4  10  20  40  62  88 123 163 213 264 320 382
#     4   9  19  34  56  82 112 151 199 252 301 361
#
# _framework density 20.207215000000001
#
# number of rings (size 3 to 8) (size 9 to 14) (size 15 to 20)
#    0.000    1.375    2.500    5.250    0.000    4.250 
#    0.000    0.000    0.000    1.500    0.000    1.750 
#    0.000    0.000    0.000    0.000    0.000    0.000 
#
# Total GULP energy -396575.589847 kJ/mol
# GULP energy per Si atom -12392.987183 kJ/mol
# Density = 2.016122 g / cm^3
# Si number density = 20.207215 Si / 1000 Ang^3
#
#
#
# Elastic Constant Matrix: (Units=GPa)
#
#
# Indices 1 2 3 4 5 6 
#
# 1 73.4795 22.0151 15.3775 0.0000 0.0000 0.0000
# 2 22.0151 86.3944 17.0328 0.0000 0.0000 0.0000
# 3 15.3775 17.0328 64.9669 0.0000 0.0000 0.0000
# 4 0.0000 0.0000 0.0000 24.4294 0.0000 0.0000
# 5 0.0000 0.0000 0.0000 0.0000 27.8180 0.0000
# 6 0.0000 0.0000 0.0000 0.0000 0.0000 23.0614
#
#
#
# Elastic Compliance Matrix: (Units=1/GPa)
#
#
# Indices 1 2 3 4 5 6 
#
# 1 0.015176 -0.003331 -0.002719 0.000000 0.000000 0.000000
# 2 -0.003331 0.012937 -0.002603 0.000000 0.000000 0.000000
# 3 -0.002719 -0.002603 0.016719 0.000000 0.000000 0.000000
# 4 0.000000 0.000000 0.000000 0.040934 0.000000 0.000000
# 5 0.000000 0.000000 0.000000 0.000000 0.035948 0.000000
# 6 0.000000 0.000000 0.000000 0.000000 0.000000 0.043362
#
#
# Mechanical properties :
#
#
# Convention : Reuss Voigt Hill
#
# Bulk Modulus (GPa) = 36.33045 37.07683 36.70364
# Shear Modulus (GPa) = 26.10176 26.42280 26.26228
#
# Velocity S-wave (km/s) = 3.59793 3.61999 3.60897
# Velocity P-wave (km/s) = 5.93954 5.98837 5.96400
#
# Compressibility (1/GPa) = 0.02752512
#
# Stress axis : x y z
#
# Youngs Moduli (GPa) = 65.89226 77.29814 59.81395
#
# Poissons Ratio (x) = 0.25750 0.16262
# Poissons Ratio (y) = 0.21950 0.15571
# Poissons Ratio (z) = 0.17915 0.20123
#
# Static dielectric constant tensor:
#      x y z
#    x 3.745920 0.000000 0.000000 
#    y 0.000000 3.866860 0.000000 
#    z 0.000000 0.000000 3.486220 
# 
# 
# High freq. dielectric constant tensor:
#      x y z
#    x 1.783950 0.000000 0.000000 
#    y 0.000000 1.793570 0.000000 
#    z 0.000000 0.000000 1.774710 
# 
# From -- ./inp_files/9019.got.cif
#   From: 2010.03.12/outbox.cif.g09.slc.cpg/sg44_5_cif.got.tgz:9019.got - 2010.04.14 02:36:11.
