data_PCOD8189557
_publ_section_title
;
Structure prediction by ZEFSAII (Michael W. Deem and Ramdas Pophale) SiO2 
 PCOD8189557
Probable space group: I M M 2
;
_chemical_formula_sum "Si O2"
_cell_formula_units_Z 48
_cell_length_a 8.981678
_cell_length_b 24.468141
_cell_length_c 12.367383
_cell_angle_alpha 90.000000
_cell_angle_beta 90.000000
_cell_angle_gamma 90.000000
_cell_volume 2717.917476
_symmetry_space_group_name_H-M "I M M 2"
_symmetry_group_IT_number 44
_symmetry_cell_setting 'orthorhombic'
loop_
_space_group_symop_operation_xyz
x,y,z
-x,-y,z
-x,y,z
x,-y,z
1/2+x,1/2+y,1/2+z
1/2-x,1/2-y,1/2+z
1/2-x,1/2+y,1/2+z
1/2+x,1/2-y,1/2+z
loop_
_atom_site_type_symbol
_atom_site_label
_atom_site_fract_x
_atom_site_fract_y
_atom_site_fract_z
Si Si1 0.323701 0.147877 0.585110
Si Si2 0.168024 0.755795 0.966013
Si Si3 0.673887 0.063272 0.215776
Si Si4 0.673571 0.436566 0.936283
Si Si5 0.831853 0.128332 0.028815
Si Si6 0.175486 0.664393 0.330622
O O1 0.500000 0.141659 0.575042
O O2 0.266948 0.201875 0.522443
O O3 0.244692 0.095130 0.536337
O O4 0.273973 0.152128 0.709162
O O5 0.270310 0.774093 0.863898
O O6 0.000000 0.745320 0.924365
O O7 0.167858 0.806175 0.052798
O O8 0.500000 0.074229 0.228622
O O9 0.752494 0.083621 0.325003
O O10 0.734921 0.097698 0.116718
O O11 0.709833 0.000000 0.193689
O O12 0.500000 0.423975 0.929052
O O13 0.707362 0.500000 0.956195
O O14 0.000000 0.104835 0.027818
O O15 0.756131 0.120286 0.909959
O O16 0.000000 0.659903 0.345432
#
# Coordination Sequence:
#
# PCOD8189557 Si02
#       6
#     8   8   8   8   8   8
#     4  10  20  36  57  80 109 144 182 222 269 322
#     4   8  18  34  51  77 110 142 175 219 265 314
#     4  10  20  35  57  83 110 141 180 224 269 321
#     4  10  22  38  55  79 109 140 180 226 272 324
#     4   9  18  34  54  77 110 144 176 221 267 312
#     4   9  18  33  53  78 109 143 180 222 265 315
#
# _framework density 17.660581000000001
#
# number of rings (size 3 to 8) (size 9 to 14) (size 15 to 20)
#    1.000    1.667    0.000    1.500    0.000    5.333 
#    0.000    2.500    0.000    1.000    0.000    0.000 
#    0.000    0.000    0.000    0.000    0.000    0.000 
#
# Total GULP energy -297457.688244 kJ/mol
# GULP energy per Si atom -12394.070343 kJ/mol
# Density = 1.762039 g / cm^3
# Si number density = 17.660581 Si / 1000 Ang^3
#
#
#
# Elastic Constant Matrix: (Units=GPa)
#
#
# Indices 1 2 3 4 5 6 
#
# 1 68.7310 36.4347 58.4365 0.0001 0.0000 0.0000
# 2 36.4347 66.5985 61.4034 0.0001 0.0000 0.0000
# 3 58.4365 61.4034 148.5454 -0.0004 0.0000 -0.0001
# 4 0.0001 0.0001 -0.0004 30.9328 0.0000 -0.0001
# 5 0.0000 0.0000 0.0000 0.0000 31.9456 0.0000
# 6 0.0000 0.0000 -0.0001 -0.0001 0.0000 25.9275
#
#
#
# Elastic Compliance Matrix: (Units=1/GPa)
#
#
# Indices 1 2 3 4 5 6 
#
# 1 0.023762 -0.007079 -0.006421 0.000000 0.000000 0.000000
# 2 -0.007079 0.026371 -0.008116 0.000000 0.000000 0.000000
# 3 -0.006421 -0.008116 0.012613 0.000000 0.000000 0.000000
# 4 0.000000 0.000000 0.000000 0.032328 0.000000 0.000000
# 5 0.000000 0.000000 0.000000 0.000000 0.031303 0.000000
# 6 0.000000 0.000000 0.000000 0.000000 0.000000 0.038569
#
#
# Mechanical properties :
#
#
# Convention : Reuss Voigt Hill
#
# Bulk Modulus (GPa) = 51.24853 66.26934 58.75893
# Shear Modulus (GPa) = 23.29009 26.26786 24.77898
#
# Velocity S-wave (km/s) = 3.63541 3.86083 3.74982
# Velocity P-wave (km/s) = 6.83398 7.58156 7.21745
#
# Compressibility (1/GPa) = 0.01951276
#
# Stress axis : x y z
#
# Youngs Moduli (GPa) = 42.08439 37.92038 79.28346
#
# Poissons Ratio (x) = 0.26844 0.50912
# Poissons Ratio (y) = 0.29792 0.64347
# Poissons Ratio (z) = 0.27024 0.30776
#
# Static dielectric constant tensor:
#      x y z
#    x 3.290320 0.000000 0.000000 
#    y 0.000000 3.136060 0.000000 
#    z 0.000000 0.000000 3.183580 
# 
# 
# High freq. dielectric constant tensor:
#      x y z
#    x 1.693070 0.000000 0.000000 
#    y 0.000000 1.666170 0.000000 
#    z 0.000000 0.000000 1.675090 
# 
# From -- ./inp_files/11218.got.cif
#   From: 2010.03.12/outbox.cif.g09.slc.cpg/sg44_6_cif.got.tgz:11218.got - 2010.04.14 02:36:11.
