data_PCOD8189295
_publ_section_title
;
Structure prediction by ZEFSAII (Michael W. Deem and Ramdas Pophale) SiO2 
 PCOD8189295
Probable space group: I M M 2
;
_chemical_formula_sum "Si O2"
_cell_formula_units_Z 64
_cell_length_a 9.204298
_cell_length_b 19.536523
_cell_length_c 20.171165
_cell_angle_alpha 90.000000
_cell_angle_beta 90.000000
_cell_angle_gamma 90.000000
_cell_volume 3627.178478
_symmetry_space_group_name_H-M "I M M 2"
_symmetry_group_IT_number 44
_symmetry_cell_setting 'orthorhombic'
loop_
_space_group_symop_operation_xyz
x,y,z
-x,-y,z
-x,y,z
x,-y,z
1/2+x,1/2+y,1/2+z
1/2-x,1/2-y,1/2+z
1/2-x,1/2+y,1/2+z
1/2+x,1/2-y,1/2+z
loop_
_atom_site_type_symbol
_atom_site_label
_atom_site_fract_x
_atom_site_fract_y
_atom_site_fract_z
Si Si1 0.669624 0.078547 0.595870
Si Si2 0.329622 0.078972 0.098987
Si Si3 0.668825 0.681716 0.853500
Si Si4 0.665911 0.330130 0.702813
Si Si5 0.831366 0.078536 0.966400
Si Si6 0.169179 0.326477 0.214717
Si Si7 0.328285 0.320332 0.349053
Si Si8 0.830317 0.077641 0.465872
O O1 0.500000 0.088780 0.583945
O O2 0.723880 0.122407 0.658031
O O3 0.749661 0.106158 0.530614
O O4 0.710696 0.000000 0.610110
O O5 0.500000 0.090590 0.092526
O O6 0.271713 0.124029 0.159328
O O7 0.290380 0.000000 0.113371
O O8 0.257286 0.103441 0.030510
O O9 0.500000 0.702111 0.860805
O O10 0.699271 0.654193 0.779708
O O11 0.763878 0.747662 0.871109
O O12 0.716744 0.621986 0.902944
O O13 0.500000 0.348615 0.684941
O O14 0.697761 0.250350 0.689269
O O15 0.784417 0.124033 0.904001
O O16 0.000000 0.088310 0.983266
O O17 0.794617 0.000000 0.948806
O O18 0.260451 0.344514 0.279787
O O19 0.000000 0.336710 0.232001
O O20 0.500000 0.313776 0.340897
O O21 0.000000 0.083039 0.479853
O O22 0.782213 0.000000 0.450853
#
# Coordination Sequence:
#
# PCOD8189295 Si02
#       8
#     8   8   8   8   8   8   8   8
#     4   9  18  33  52  74 101 133 167 202 243 291
#     4  10  21  35  51  74 101 127 161 207 252 292
#     4   9  19  35  53  74 101 132 165 201 244 295
#     4   9  18  33  52  72  97 131 166 201 243 293
#     4   9  19  36  54  72  98 132 167 201 241 294
#     4   9  19  35  52  72 101 134 167 202 241 291
#     4  10  20  33  52  77 101 127 163 206 248 290
#     4   9  18  33  52  74 100 130 166 206 244 286
#
# _framework density 17.644568
#
# number of rings (size 3 to 8) (size 9 to 14) (size 15 to 20)
#    0.000    2.750    0.000    1.500    0.000    6.750 
#    0.000    5.000    0.000    1.500    0.000    0.000 
#    0.000    0.000    0.000    0.000    0.000    0.000 
#
# Total GULP energy -396875.007793 kJ/mol
# GULP energy per Si atom -12402.343994 kJ/mol
# Density = 1.760441 g / cm^3
# Si number density = 17.644568 Si / 1000 Ang^3
#
#
#
# Elastic Constant Matrix: (Units=GPa)
#
#
# Indices 1 2 3 4 5 6 
#
# 1 66.0456 47.9091 65.0305 0.0000 0.0000 0.0000
# 2 47.9091 91.7970 92.3532 0.0000 0.0000 0.0000
# 3 65.0305 92.3532 152.4073 0.0000 0.0000 0.0000
# 4 0.0000 0.0000 0.0000 36.2521 0.0000 0.0000
# 5 0.0000 0.0000 0.0000 0.0000 34.4221 0.0000
# 6 0.0000 0.0000 0.0000 0.0000 0.0000 26.4769
#
#
#
# Elastic Compliance Matrix: (Units=1/GPa)
#
#
# Indices 1 2 3 4 5 6 
#
# 1 0.027563 -0.006540 -0.007798 0.000000 0.000000 0.000000
# 2 -0.006540 0.029458 -0.015060 0.000000 0.000000 0.000000
# 3 -0.007798 -0.015060 0.019014 0.000000 0.000000 0.000000
# 4 0.000000 0.000000 0.000000 0.027585 0.000000 0.000000
# 5 0.000000 0.000000 0.000000 0.000000 0.029051 0.000000
# 6 0.000000 0.000000 0.000000 0.000000 0.000000 0.037769
#
#
# Mechanical properties :
#
#
# Convention : Reuss Voigt Hill
#
# Bulk Modulus (GPa) = 58.00529 80.09283 69.04906
# Shear Modulus (GPa) = 21.27817 26.42736 23.85276
#
# Velocity S-wave (km/s) = 3.47642 3.87429 3.68074
# Velocity P-wave (km/s) = 7.00426 8.09348 7.56849
#
# Compressibility (1/GPa) = 0.01723981
#
# Stress axis : x y z
#
# Youngs Moduli (GPa) = 36.28012 33.94648 52.59220
#
# Poissons Ratio (x) = 0.22203 0.41010
# Poissons Ratio (y) = 0.23729 0.79203
# Poissons Ratio (z) = 0.28290 0.51123
#
# Static dielectric constant tensor:
#      x y z
#    x 3.219030 0.000000 0.000000 
#    y 0.000000 3.315030 0.000000 
#    z 0.000000 0.000000 3.356750 
# 
# 
# High freq. dielectric constant tensor:
#      x y z
#    x 1.680280 0.000000 0.000000 
#    y 0.000000 1.679990 0.000000 
#    z 0.000000 0.000000 1.687120 
# 
# From -- ./inp_files/20771.got.cif
#   From: 2010.03.12/outbox.cif.g09.slc.cpg/sg44_11_cif.got.tgz:20771.got - 2010.04.14 02:36:11.
