data_PCOD8189622
_publ_section_title
;
Structure prediction by ZEFSAII (Michael W. Deem and Ramdas Pophale) SiO2 
 PCOD8189622
Probable space group: I M M 2
;
_chemical_formula_sum "Si O2"
_cell_formula_units_Z 64
_cell_length_a 33.161038
_cell_length_b 8.647949
_cell_length_c 11.679935
_cell_angle_alpha 90.000000
_cell_angle_beta 90.000000
_cell_angle_gamma 90.000000
_cell_volume 3349.512956
_symmetry_space_group_name_H-M "I M M 2"
_symmetry_group_IT_number 44
_symmetry_cell_setting 'orthorhombic'
loop_
_space_group_symop_operation_xyz
x,y,z
-x,-y,z
-x,y,z
x,-y,z
1/2+x,1/2+y,1/2+z
1/2-x,1/2-y,1/2+z
1/2-x,1/2+y,1/2+z
1/2+x,1/2-y,1/2+z
loop_
_atom_site_type_symbol
_atom_site_label
_atom_site_fract_x
_atom_site_fract_y
_atom_site_fract_z
Si Si1 0.045474 0.683613 0.960960
Si Si2 0.152370 0.683785 0.569979
Si Si3 0.691032 0.679775 0.648076
Si Si4 0.814765 0.670375 0.905371
Si Si5 0.274635 0.320002 0.198807
Si Si6 0.124156 0.180815 0.333988
Si Si7 0.396041 0.829926 0.279154
Si Si8 0.545727 0.681977 0.700884
O O1 0.050856 0.500000 0.962777
O O2 0.068715 0.756849 0.850548
O O3 0.000000 0.737829 0.945171
O O4 0.061455 0.747117 0.081806
O O5 0.157284 0.500000 0.586680
O O6 0.195670 0.760119 0.597738
O O7 0.136808 0.722331 0.444642
O O8 0.119587 0.751316 0.662205
O O9 0.689280 0.500000 0.618202
O O10 0.686209 0.777783 0.534797
O O11 0.733769 0.722928 0.701749
O O12 0.655226 0.725283 0.734290
O O13 0.794387 0.500000 0.894035
O O14 0.793001 0.794069 0.824249
O O15 0.860801 0.657553 0.870935
O O16 0.265990 0.500000 0.178691
O O17 0.078437 0.228798 0.297875
O O18 0.126639 0.000000 0.363806
O O19 0.411727 0.000000 0.244029
O O20 0.500000 0.740128 0.732708
O O21 0.545668 0.500000 0.685149
#
# Coordination Sequence:
#
# PCOD8189622 Si02
#       8
#     8   8   8   8   8   8   8   8
#     4   9  16  28  51  81 110 139 175 222 275 332
#     4  10  21  38  58  78 107 146 189 234 282 336
#     4  11  23  37  55  80 110 141 181 230 279 334
#     4  10  20  36  56  78 105 138 179 223 271 324
#     4  11  23  39  58  79 107 143 182 226 281 336
#     4  10  22  38  56  81 112 149 192 235 281 337
#     4   8  16  32  52  75 104 138 173 216 269 324
#     4   9  18  34  55  80 113 149 184 228 282 334
#
# _framework density 19.107256
#
# number of rings (size 3 to 8) (size 9 to 14) (size 15 to 20)
#    0.000    2.250    0.000    3.750    1.750    1.500 
#    0.000    3.750    0.000    0.750    0.000    0.000 
#    0.000    0.000    0.000    0.000    0.000    0.000 
#
# Total GULP energy -396631.946295 kJ/mol
# GULP energy per Si atom -12394.748322 kJ/mol
# Density = 1.906377 g / cm^3
# Si number density = 19.107256 Si / 1000 Ang^3
#
#
#
# Elastic Constant Matrix: (Units=GPa)
#
#
# Indices 1 2 3 4 5 6 
#
# 1 91.2548 18.7766 45.4860 0.0000 0.0000 0.0000
# 2 18.7766 35.4337 13.6653 0.0000 0.0000 0.0000
# 3 45.4860 13.6653 81.7998 0.0000 0.0000 0.0000
# 4 0.0000 0.0000 0.0000 28.4799 0.0000 0.0000
# 5 0.0000 0.0000 0.0000 0.0000 23.0364 0.0000
# 6 0.0000 0.0000 0.0000 0.0000 0.0000 20.3613
#
#
#
# Elastic Compliance Matrix: (Units=1/GPa)
#
#
# Indices 1 2 3 4 5 6 
#
# 1 0.016079 -0.005422 -0.008035 0.000000 0.000000 0.000000
# 2 -0.005422 0.031993 -0.002330 0.000000 0.000000 0.000000
# 3 -0.008035 -0.002330 0.017082 0.000000 0.000000 0.000000
# 4 0.000000 0.000000 0.000000 0.035113 0.000000 0.000000
# 5 0.000000 0.000000 0.000000 0.000000 0.043409 0.000000
# 6 0.000000 0.000000 0.000000 0.000000 0.000000 0.049113
#
#
# Mechanical properties :
#
#
# Convention : Reuss Voigt Hill
#
# Bulk Modulus (GPa) = 29.77873 40.48265 35.13069
# Shear Modulus (GPa) = 21.22632 23.07956 22.15294
#
# Velocity S-wave (km/s) = 3.33664 3.47925 3.40869
# Velocity P-wave (km/s) = 5.51934 6.11337 5.82393
#
# Compressibility (1/GPa) = 0.03358102
#
# Stress axis : x y z
#
# Youngs Moduli (GPa) = 62.19274 31.25662 58.53995
#
# Poissons Ratio (x) = 0.16946 0.47038
# Poissons Ratio (y) = 0.33718 0.13640
# Poissons Ratio (z) = 0.49974 0.07283
#
# Static dielectric constant tensor:
#      x y z
#    x 3.756550 0.000000 0.000000 
#    y 0.000000 3.362380 0.000000 
#    z 0.000000 0.000000 3.467280 
# 
# 
# High freq. dielectric constant tensor:
#      x y z
#    x 1.745240 0.000000 0.000000 
#    y 0.000000 1.730240 0.000000 
#    z 0.000000 0.000000 1.741760 
# 
# From -- ./inp_files/15110.got.cif
#   From: 2010.03.12/outbox.cif.g09.slc.cpg/sg44_8_cif.got.tgz:15110.got - 2010.04.14 02:36:11.
