data_PCOD8189983
_publ_section_title
;
Structure prediction by ZEFSAII (Michael W. Deem and Ramdas Pophale) SiO2 
 PCOD8189983
Probable space group: I M M 2
;
_chemical_formula_sum "Si O2"
_cell_formula_units_Z 48
_cell_length_a 17.858621
_cell_length_b 15.704470
_cell_length_c 8.216599
_cell_angle_alpha 90.000000
_cell_angle_beta 90.000000
_cell_angle_gamma 90.000000
_cell_volume 2304.428816
_symmetry_space_group_name_H-M "I M M 2"
_symmetry_group_IT_number 44
_symmetry_cell_setting 'orthorhombic'
loop_
_space_group_symop_operation_xyz
x,y,z
-x,-y,z
-x,y,z
x,-y,z
1/2+x,1/2+y,1/2+z
1/2-x,1/2-y,1/2+z
1/2-x,1/2+y,1/2+z
1/2+x,1/2-y,1/2+z
loop_
_atom_site_type_symbol
_atom_site_label
_atom_site_fract_x
_atom_site_fract_y
_atom_site_fract_z
Si Si1 0.084585 0.597270 0.661760
Si Si2 0.643082 0.905495 0.507497
Si Si3 0.173751 0.285180 0.443348
Si Si4 0.218736 0.852396 0.686275
Si Si5 0.914176 0.233633 0.154714
Si Si6 0.585592 0.404028 0.386282
O O1 0.087908 0.500000 0.607132
O O2 0.138485 0.614975 0.815713
O O3 0.111116 0.649785 0.506249
O O4 0.000000 0.624271 0.709620
O O5 0.729582 0.908920 0.566562
O O6 0.598235 0.831527 0.600140
O O7 0.607876 0.000000 0.539544
O O8 0.207287 0.237050 0.597380
O O9 0.239859 0.337404 0.357502
O O10 0.134877 0.219360 0.316939
O O11 0.139056 0.895804 0.727739
O O12 0.000000 0.218623 0.198356
O O13 0.888667 0.164861 0.020412
O O14 0.500000 0.385862 0.330958
O O15 0.592765 0.500000 0.457048
#
# Coordination Sequence:
#
# PCOD8189983 Si02
#       6
#     8   8   8   8   8   8
#     4  10  21  37  58  87 123 159 193 233 286 349
#     4  10  21  37  59  88 121 156 191 230 284 348
#     4  11  22  37  57  85 116 153 196 240 290 347
#     4  11  22  38  58  84 116 154 196 244 289 343
#     4  10  21  37  60  88 116 150 191 238 292 348
#     4  10  22  41  63  85 112 151 198 247 298 346
#
# _framework density 20.829456
#
# number of rings (size 3 to 8) (size 9 to 14) (size 15 to 20)
#    0.000    1.667    0.000    5.500    0.000    7.000 
#    0.000    3.333    0.000    2.000    0.000    0.000 
#    0.000    0.000    0.000    0.000    0.000    0.000 
#
# Total GULP energy -297568.224152 kJ/mol
# GULP energy per Si atom -12398.676006 kJ/mol
# Density = 2.078205 g / cm^3
# Si number density = 20.829456 Si / 1000 Ang^3
#
#
#
# Elastic Constant Matrix: (Units=GPa)
#
#
# Indices 1 2 3 4 5 6 
#
# 1 109.1669 29.9510 56.1747 0.0000 0.0000 0.0000
# 2 29.9510 97.0963 42.9345 0.0000 0.0000 0.0000
# 3 56.1747 42.9345 98.6920 0.0000 0.0000 0.0000
# 4 0.0000 0.0000 0.0000 22.6305 0.0000 0.0000
# 5 0.0000 0.0000 0.0000 0.0000 40.9158 0.0000
# 6 0.0000 0.0000 0.0000 0.0000 0.0000 27.1235
#
#
#
# Elastic Compliance Matrix: (Units=1/GPa)
#
#
# Indices 1 2 3 4 5 6 
#
# 1 0.013020 -0.000915 -0.007013 0.000000 0.000000 0.000000
# 2 -0.000915 0.012816 -0.005055 0.000000 0.000000 0.000000
# 3 -0.007013 -0.005055 0.016323 0.000000 0.000000 0.000000
# 4 0.000000 0.000000 0.000000 0.044188 0.000000 0.000000
# 5 0.000000 0.000000 0.000000 0.000000 0.024440 0.000000
# 6 0.000000 0.000000 0.000000 0.000000 0.000000 0.036868
#
#
# Mechanical properties :
#
#
# Convention : Reuss Voigt Hill
#
# Bulk Modulus (GPa) = 61.75036 62.56396 62.15716
# Shear Modulus (GPa) = 27.92986 29.86028 28.89507
#
# Velocity S-wave (km/s) = 3.66578 3.79035 3.72858
# Velocity P-wave (km/s) = 6.90125 7.01834 6.96004
#
# Compressibility (1/GPa) = 0.01619424
#
# Stress axis : x y z
#
# Youngs Moduli (GPa) = 76.80511 78.02456 61.26313
#
# Poissons Ratio (x) = 0.07142 0.42962
# Poissons Ratio (y) = 0.07030 0.30966
# Poissons Ratio (z) = 0.53861 0.39438
#
# Static dielectric constant tensor:
#      x y z
#    x 3.903630 0.000000 0.000000 
#    y 0.000000 3.718030 0.000000 
#    z 0.000000 0.000000 3.692530 
# 
# 
# High freq. dielectric constant tensor:
#      x y z
#    x 1.823060 0.000000 0.000000 
#    y 0.000000 1.809860 0.000000 
#    z 0.000000 0.000000 1.806950 
# 
# From -- ./inp_files/7128.got.cif
#   From: 2010.03.12/outbox.cif.g09.slc.cpg/sg44_4_cif.got.tgz:7128.got - 2010.04.14 02:36:11.
