data_PCOD8189773
_publ_section_title
;
Structure prediction by ZEFSAII (Michael W. Deem and Ramdas Pophale) SiO2 
 PCOD8189773
Probable space group: I M M 2
;
_chemical_formula_sum "Si O2"
_cell_formula_units_Z 64
_cell_length_a 22.544045
_cell_length_b 22.533903
_cell_length_c 6.643765
_cell_angle_alpha 90.000000
_cell_angle_beta 90.000000
_cell_angle_gamma 90.000000
_cell_volume 3375.067986
_symmetry_space_group_name_H-M "I M M 2"
_symmetry_group_IT_number 44
_symmetry_cell_setting 'orthorhombic'
loop_
_space_group_symop_operation_xyz
x,y,z
-x,-y,z
-x,y,z
x,-y,z
1/2+x,1/2+y,1/2+z
1/2-x,1/2-y,1/2+z
1/2-x,1/2+y,1/2+z
1/2+x,1/2-y,1/2+z
loop_
_atom_site_type_symbol
_atom_site_label
_atom_site_fract_x
_atom_site_fract_y
_atom_site_fract_z
Si Si1 0.232752 0.153856 0.099450
Si Si2 0.931324 0.346362 0.838259
Si Si3 0.931389 0.786946 0.985916
Si Si4 0.346391 0.732711 0.825556
Si Si5 0.657890 0.342182 0.212503
Si Si6 0.858532 0.641562 0.462829
Si Si7 0.846414 0.568701 0.087621
Si Si8 0.713264 0.568640 0.938955
O O1 0.214515 0.214746 0.212369
O O2 0.302872 0.144750 0.113233
O O3 0.204025 0.098431 0.219992
O O4 0.212548 0.159031 0.868642
O O5 0.917976 0.278816 0.902152
O O6 0.917061 0.355760 0.601216
O O7 0.000000 0.361496 0.874122
O O8 0.892563 0.392448 0.963249
O O9 0.903515 0.835954 0.834871
O O10 0.000000 0.801027 0.006695
O O11 0.901714 0.796199 0.205061
O O12 0.341047 0.712479 0.056281
O O13 0.355828 0.802830 0.811985
O O14 0.664243 0.403606 0.090157
O O15 0.855570 0.582934 0.324814
O O16 0.861598 0.500000 0.051811
O O17 0.778969 0.582048 0.022943
O O18 0.699259 0.500000 0.917583
#
# Coordination Sequence:
#
# PCOD8189773 Si02
#       8
#     8   8   8   8   8   8   8   8
#     4  10  22  33  55  87 123 152 192 238 304 365
#     4  11  24  41  59  82 114 157 207 255 301 352
#     4  10  21  38  60  86 120 158 195 239 298 362
#     4  10  22  33  55  87 123 152 192 238 304 365
#     4  10  20  38  56  95 122 150 190 246 300 355
#     4  12  22  36  58  85 116 158 198 248 307 362
#     4  11  24  41  59  82 114 157 207 255 301 352
#     4  10  21  38  60  86 120 158 195 239 298 362
#
# _framework density 18.962581
#
# number of rings (size 3 to 8) (size 9 to 14) (size 15 to 20)
#    0.000    1.500    5.000    0.000    1.750    3.250 
#    0.000    0.000    0.000    0.375    0.000    0.000 
#    0.000    0.000    0.000    0.000    0.000    0.000 
#
# Total GULP energy -396714.852669 kJ/mol
# GULP energy per Si atom -12397.339146 kJ/mol
# Density = 1.891942 g / cm^3
# Si number density = 18.962581 Si / 1000 Ang^3
#
#
#
# Elastic Constant Matrix: (Units=GPa)
#
#
# Indices 1 2 3 4 5 6 
#
# 1 78.8598 62.7615 37.2661 0.0000 0.0000 0.0000
# 2 62.7615 77.5428 36.9987 0.0000 0.0000 0.0000
# 3 37.2661 36.9987 110.9194 0.0000 0.0000 0.0000
# 4 0.0000 0.0000 0.0000 25.1616 0.0000 0.0000
# 5 0.0000 0.0000 0.0000 0.0000 25.1879 0.0000
# 6 0.0000 0.0000 0.0000 0.0000 0.0000 24.2927
#
#
#
# Elastic Compliance Matrix: (Units=1/GPa)
#
#
# Indices 1 2 3 4 5 6 
#
# 1 0.036380 -0.028083 -0.002855 0.000000 0.000000 0.000000
# 2 -0.028083 0.037015 -0.002912 0.000000 0.000000 0.000000
# 3 -0.002855 -0.002912 0.010946 0.000000 0.000000 0.000000
# 4 0.000000 0.000000 0.000000 0.039743 0.000000 0.000000
# 5 0.000000 0.000000 0.000000 0.000000 0.039702 0.000000
# 6 0.000000 0.000000 0.000000 0.000000 0.000000 0.041165
#
#
# Mechanical properties :
#
#
# Convention : Reuss Voigt Hill
#
# Bulk Modulus (GPa) = 60.09130 60.15274 60.12202
# Shear Modulus (GPa) = 17.97280 23.61483 20.79381
#
# Velocity S-wave (km/s) = 3.08198 3.53276 3.31504
# Velocity P-wave (km/s) = 6.66506 6.95926 6.81375
#
# Compressibility (1/GPa) = 0.01664135
#
# Stress axis : x y z
#
# Youngs Moduli (GPa) = 27.48744 27.01594 91.35631
#
# Poissons Ratio (x) = 0.75869 0.26086
# Poissons Ratio (y) = 0.77193 0.26601
# Poissons Ratio (z) = 0.07849 0.07866
#
# Static dielectric constant tensor:
#      x y z
#    x 3.352290 0.000000 0.000000 
#    y 0.000000 3.352820 0.000000 
#    z 0.000000 0.000000 3.621980 
# 
# 
# High freq. dielectric constant tensor:
#      x y z
#    x 1.719950 0.000000 0.000000 
#    y 0.000000 1.719790 0.000000 
#    z 0.000000 0.000000 1.753960 
# 
# From -- ./inp_files/2842.got.cif
#   From: 2010.03.12/outbox.cif.g09.slc.cpg/sg44_2_cif.got.tgz:2842.got - 2010.04.14 02:36:11.
