data_PCOD8189836
_publ_section_title
;
Structure prediction by ZEFSAII (Michael W. Deem and Ramdas Pophale) SiO2 
 PCOD8189836
Probable space group: I M M 2
;
_chemical_formula_sum "Si O2"
_cell_formula_units_Z 64
_cell_length_a 9.193308
_cell_length_b 14.105102
_cell_length_c 28.380846
_cell_angle_alpha 90.000000
_cell_angle_beta 90.000000
_cell_angle_gamma 90.000000
_cell_volume 3680.216588
_symmetry_space_group_name_H-M "I M M 2"
_symmetry_group_IT_number 44
_symmetry_cell_setting 'orthorhombic'
loop_
_space_group_symop_operation_xyz
x,y,z
-x,-y,z
-x,y,z
x,-y,z
1/2+x,1/2+y,1/2+z
1/2-x,1/2-y,1/2+z
1/2-x,1/2+y,1/2+z
1/2+x,1/2-y,1/2+z
loop_
_atom_site_type_symbol
_atom_site_label
_atom_site_fract_x
_atom_site_fract_y
_atom_site_fract_z
Si Si1 0.172002 0.261761 0.980180
Si Si2 0.670290 0.740915 0.730213
Si Si3 0.829710 0.240915 0.873285
Si Si4 0.831186 0.888453 0.551749
Si Si5 0.170780 0.104433 0.051750
Si Si6 0.829935 0.392435 0.306916
Si Si7 0.827998 0.261762 0.123319
Si Si8 0.670065 0.107565 0.296583
O O1 0.223847 0.257436 0.926347
O O2 0.000000 0.280456 0.984847
O O3 0.255278 0.347979 0.004901
O O4 0.217069 0.163031 0.005272
O O5 0.500000 0.720228 0.731769
O O6 0.712971 0.833795 0.760240
O O7 0.723846 0.757437 0.677152
O O8 0.749045 0.648762 0.751013
O O9 0.750958 0.148762 0.852486
O O10 0.787025 0.333795 0.843259
O O11 0.000000 0.220231 0.871729
O O12 0.755278 0.847980 0.598598
O O13 0.000000 0.859725 0.551749
O O14 0.808842 0.000000 0.551749
O O15 0.217071 0.163033 0.098227
O O16 0.000000 0.090331 0.051750
O O17 0.245716 0.000000 0.051750
O O18 0.779247 0.500000 0.298592
O O19 0.000000 0.385598 0.317091
O O20 0.000000 0.280456 0.118650
O O21 0.500000 0.114402 0.286409
O O22 0.720755 0.000000 0.304906
#
# Coordination Sequence:
#
# PCOD8189836 Si02
#       8
#     8   8   8   8   8   8   8   8
#     4   9  18  32  51  73  95 125 164 202 241 283
#     4   9  18  32  50  72  96 124 163 206 242 282
#     4   9  18  32  50  72  96 124 163 206 242 282
#     4  10  21  35  50  71 100 131 161 196 240 288
#     4   8  14  26  44  67  94 119 147 190 240 284
#     4   9  18  32  48  68  97 130 161 197 244 293
#     4   9  18  32  51  73  95 125 164 202 241 283
#     4   9  18  32  48  68  97 130 161 197 244 293
#
# _framework density 17.390281000000002
#
# number of rings (size 3 to 8) (size 9 to 14) (size 15 to 20)
#    0.000    3.000    0.000    1.125    0.000    4.500 
#    0.000    5.000    0.000    6.000    0.000    0.000 
#    0.000    0.000    0.000    0.000    0.000    0.000 
#
# Total GULP energy -396784.155372 kJ/mol
# GULP energy per Si atom -12399.504855 kJ/mol
# Density = 1.735070 g / cm^3
# Si number density = 17.390281 Si / 1000 Ang^3
#
#
#
# Elastic Constant Matrix: (Units=GPa)
#
#
# Indices 1 2 3 4 5 6 
#
# 1 39.6613 42.2276 43.1185 0.0000 0.0000 0.0000
# 2 42.2276 136.0771 69.0206 0.0000 0.0000 0.0000
# 3 43.1185 69.0206 166.4611 0.0000 0.0000 0.0000
# 4 0.0000 0.0000 0.0000 9.8706 0.0000 0.0000
# 5 0.0000 0.0000 0.0000 0.0000 24.6131 0.0000
# 6 0.0000 0.0000 0.0000 0.0000 0.0000 26.3375
#
#
#
# Elastic Compliance Matrix: (Units=1/GPa)
#
#
# Indices 1 2 3 4 5 6 
#
# 1 0.043526 -0.009863 -0.007185 0.000000 0.000000 0.000000
# 2 -0.009863 0.011541 -0.002230 0.000000 0.000000 0.000000
# 3 -0.007185 -0.002230 0.008793 0.000000 0.000000 0.000000
# 4 0.000000 0.000000 0.000000 0.101311 0.000000 0.000000
# 5 0.000000 0.000000 0.000000 0.000000 0.040629 0.000000
# 6 0.000000 0.000000 0.000000 0.000000 0.000000 0.037969
#
#
# Mechanical properties :
#
#
# Convention : Reuss Voigt Hill
#
# Bulk Modulus (GPa) = 39.52022 72.32587 55.92305
# Shear Modulus (GPa) = 17.19639 24.68642 20.94140
#
# Velocity S-wave (km/s) = 3.14801 3.77178 3.47393
# Velocity P-wave (km/s) = 5.99901 7.78772 6.95114
#
# Compressibility (1/GPa) = 0.02530350
#
# Stress axis : x y z
#
# Youngs Moduli (GPa) = 22.97495 86.65027 113.72156
#
# Poissons Ratio (x) = 0.85459 0.81711
# Poissons Ratio (y) = 0.22659 0.25365
# Poissons Ratio (z) = 0.16508 0.19327
#
# Static dielectric constant tensor:
#      x y z
#    x 3.069510 0.000000 0.000000 
#    y 0.000000 3.390600 0.000000 
#    z 0.000000 0.000000 3.353870 
# 
# 
# High freq. dielectric constant tensor:
#      x y z
#    x 1.653460 0.000000 0.000000 
#    y 0.000000 1.673860 0.000000 
#    z 0.000000 0.000000 1.674710 
# 
# From -- ./inp_files/27275.got.cif
#   From: 2010.03.12/outbox.cif.g09.slc.cpg/sg44_14_cif.got.tgz:27275.got - 2010.04.14 02:36:11.
