data_PCOD8189905
_publ_section_title
;
Structure prediction by ZEFSAII (Michael W. Deem and Ramdas Pophale) SiO2 
 PCOD8189905
Probable space group: I M M 2
;
_chemical_formula_sum "Si O2"
_cell_formula_units_Z 64
_cell_length_a 9.063862
_cell_length_b 32.620417
_cell_length_c 11.726925
_cell_angle_alpha 90.000000
_cell_angle_beta 90.000000
_cell_angle_gamma 90.000000
_cell_volume 3467.264242
_symmetry_space_group_name_H-M "I M M 2"
_symmetry_group_IT_number 44
_symmetry_cell_setting 'orthorhombic'
loop_
_space_group_symop_operation_xyz
x,y,z
-x,-y,z
-x,y,z
x,-y,z
1/2+x,1/2+y,1/2+z
1/2-x,1/2-y,1/2+z
1/2-x,1/2+y,1/2+z
1/2+x,1/2-y,1/2+z
loop_
_atom_site_type_symbol
_atom_site_label
_atom_site_fract_x
_atom_site_fract_y
_atom_site_fract_z
Si Si1 0.835000 0.180254 0.465480
Si Si2 0.675347 0.125703 0.043102
Si Si3 0.828693 0.283210 0.170621
Si Si4 0.662660 0.597758 0.093540
Si Si5 0.328475 0.311533 0.708069
Si Si6 0.676645 0.648205 0.306717
Si Si7 0.839587 0.547902 0.926408
Si Si8 0.675508 0.045796 0.177022
O O1 0.723323 0.205162 0.544284
O O2 0.839119 0.133181 0.499913
O O3 0.777333 0.181748 0.337215
O O4 0.000000 0.199446 0.475614
O O5 0.500000 0.128154 0.026534
O O6 0.725475 0.160309 0.130903
O O7 0.725373 0.080508 0.087110
O O8 0.756642 0.133714 0.924939
O O9 0.797359 0.235414 0.180049
O O10 0.738683 0.307481 0.268532
O O11 0.000000 0.293967 0.185976
O O12 0.500000 0.580696 0.117270
O O13 0.728069 0.614843 0.212416
O O14 0.753672 0.561125 0.039340
O O15 0.500000 0.323095 0.688793
O O16 0.500000 0.651694 0.313503
O O17 0.858134 0.500000 0.935691
O O18 0.762726 0.557818 0.803564
O O19 0.000000 0.569386 0.931010
O O20 0.500000 0.044549 0.187008
O O21 0.732087 0.000000 0.140118
#
# Coordination Sequence:
#
# PCOD8189905 Si02
#       8
#     8   8   8   8   8   8   8   8
#     4   9  19  36  54  74 104 141 175 215 269 320
#     4  11  22  35  57  86 110 143 190 234 276 329
#     4  10  21  36  55  81 106 138 185 228 270 323
#     4   9  18  33  53  74  99 138 178 214 264 321
#     4  10  22  37  54  79 112 145 177 222 276 327
#     4  10  22  40  57  74 107 150 184 225 281 331
#     4   9  17  30  52  81 110 138 170 217 274 326
#     4   8  16  33  55  81 114 146 178 223 278 328
#
# _framework density 18.458356999999999
#
# number of rings (size 3 to 8) (size 9 to 14) (size 15 to 20)
#    0.000    2.500    0.000    3.375    1.750    4.250 
#    0.000    1.250    0.000    5.250    0.000    0.000 
#    0.000    0.000    0.000    0.000    0.000    0.000 
#
# Total GULP energy -396666.844734 kJ/mol
# GULP energy per Si atom -12395.838898 kJ/mol
# Density = 1.841634 g / cm^3
# Si number density = 18.458357 Si / 1000 Ang^3
#
#
#
# Elastic Constant Matrix: (Units=GPa)
#
#
# Indices 1 2 3 4 5 6 
#
# 1 68.8250 40.6145 44.7403 -0.0005 0.0000 0.0000
# 2 40.6145 80.9253 65.2855 -0.0026 -0.0004 -0.0001
# 3 44.7403 65.2855 134.5456 -0.0029 0.0016 -0.0005
# 4 -0.0005 -0.0026 -0.0029 24.0824 0.0003 -0.0003
# 5 0.0000 -0.0004 0.0016 0.0003 27.9264 -0.0006
# 6 0.0000 -0.0001 -0.0005 -0.0003 -0.0006 23.1182
#
#
#
# Elastic Compliance Matrix: (Units=1/GPa)
#
#
# Indices 1 2 3 4 5 6 
#
# 1 0.021418 -0.008222 -0.003132 -0.000001 0.000000 0.000000
# 2 -0.008222 0.023462 -0.008650 0.000001 0.000001 0.000000
# 3 -0.003132 -0.008650 0.012672 0.000001 -0.000001 0.000000
# 4 -0.000001 0.000001 0.000001 0.041524 0.000000 0.000000
# 5 0.000000 0.000001 -0.000001 0.000000 0.035808 0.000001
# 6 0.000000 0.000000 0.000000 0.000000 0.000001 0.043256
#
#
# Mechanical properties :
#
#
# Convention : Reuss Voigt Hill
#
# Bulk Modulus (GPa) = 57.00739 65.06406 61.03573
# Shear Modulus (GPa) = 22.32173 23.93579 23.12876
#
# Velocity S-wave (km/s) = 3.48127 3.60494 3.54365
# Velocity P-wave (km/s) = 6.86370 7.25625 7.06270
#
# Compressibility (1/GPa) = 0.01754158
#
# Stress axis : x y z
#
# Youngs Moduli (GPa) = 46.69014 42.62182 78.91692
#
# Poissons Ratio (x) = 0.35044 0.24721
# Poissons Ratio (y) = 0.38388 0.68267
# Poissons Ratio (z) = 0.14626 0.36870
#
# Static dielectric constant tensor:
#      x y z
#    x 3.423090 0.000000 0.000000 
#    y 0.000000 3.378570 0.000000 
#    z 0.000000 0.000000 3.470370 
# 
# 
# High freq. dielectric constant tensor:
#      x y z
#    x 1.705760 0.000000 0.000000 
#    y 0.000000 1.711440 0.000000 
#    z 0.000000 0.000000 1.719930 
# 
# From -- ./inp_files/11464.got.cif
#   From: 2010.03.12/outbox.cif.g09.slc.cpg/sg44_6_cif.got.tgz:11464.got - 2010.04.14 02:36:11.
