data_PCOD8189820
_publ_section_title
;
Structure prediction by ZEFSAII (Michael W. Deem and Ramdas Pophale) SiO2 
 PCOD8189820
Probable space group: I M M 2
;
_chemical_formula_sum "Si O2"
_cell_formula_units_Z 48
_cell_length_a 17.669799
_cell_length_b 23.389419
_cell_length_c 5.146079
_cell_angle_alpha 90.000000
_cell_angle_beta 90.000000
_cell_angle_gamma 90.000000
_cell_volume 2126.804116
_symmetry_space_group_name_H-M "I M M 2"
_symmetry_group_IT_number 44
_symmetry_cell_setting 'orthorhombic'
loop_
_space_group_symop_operation_xyz
x,y,z
-x,-y,z
-x,y,z
x,-y,z
1/2+x,1/2+y,1/2+z
1/2-x,1/2-y,1/2+z
1/2-x,1/2+y,1/2+z
1/2+x,1/2-y,1/2+z
loop_
_atom_site_type_symbol
_atom_site_label
_atom_site_fract_x
_atom_site_fract_y
_atom_site_fract_z
Si Si1 0.824683 0.932626 0.526390
Si Si2 0.780824 0.278028 0.412462
Si Si3 0.693297 0.126194 0.259984
Si Si4 0.416246 0.432728 0.517459
Si Si5 0.414149 0.177735 0.628914
Si Si6 0.916715 0.563060 0.430826
O O1 0.747055 0.898002 0.485427
O O2 0.881486 0.917311 0.294238
O O3 0.806718 0.000000 0.537965
O O4 0.862285 0.909272 0.789794
O O5 0.733773 0.268534 0.142503
O O6 0.870407 0.280549 0.331581
O O7 0.759058 0.340042 0.536181
O O8 0.648122 0.072517 0.144257
O O9 0.634034 0.174710 0.363006
O O10 0.500000 0.405099 0.497768
O O11 0.423458 0.500000 0.480333
O O12 0.500000 0.200070 0.588209
O O13 0.412298 0.111451 0.713187
O O14 0.903986 0.500000 0.307120
O O15 0.000000 0.566339 0.564193
#
# Coordination Sequence:
#
# PCOD8189820 Si02
#       6
#     8   8   8   8   8   8
#     4  10  21  33  55  90 124 161 204 251 307 370
#     4  11  23  44  68  93 118 159 208 270 330 382
#     4  11  22  36  62  92 128 166 209 266 313 390
#     4   9  18  34  54  77 110 157 209 253 296 353
#     4  10  22  40  66  97 129 172 221 264 315 391
#     4   9  19  34  53  86 135 184 220 253 301 363
#
# _framework density 22.569075999999999
#
# number of rings (size 3 to 8) (size 9 to 14) (size 15 to 20)
#    0.000    2.000    1.667    1.500    4.667    4.000 
#    0.000    1.667    0.000    6.000    0.000    0.000 
#    0.000    0.000    0.000    0.000    0.000    0.000 
#
# Total GULP energy -297380.719460 kJ/mol
# GULP energy per Si atom -12390.863311 kJ/mol
# Density = 2.251771 g / cm^3
# Si number density = 22.569076 Si / 1000 Ang^3
#
#
#
# Elastic Constant Matrix: (Units=GPa)
#
#
# Indices 1 2 3 4 5 6 
#
# 1 114.3826 35.9107 24.5161 0.0000 0.0000 0.0000
# 2 35.9107 58.7341 18.6482 0.0000 0.0000 0.0000
# 3 24.5161 18.6482 90.9178 0.0000 0.0000 0.0000
# 4 0.0000 0.0000 0.0000 27.0873 0.0000 0.0000
# 5 0.0000 0.0000 0.0000 0.0000 34.0928 0.0000
# 6 0.0000 0.0000 0.0000 0.0000 0.0000 27.1435
#
#
#
# Elastic Compliance Matrix: (Units=1/GPa)
#
#
# Indices 1 2 3 4 5 6 
#
# 1 0.011062 -0.006221 -0.001707 0.000000 0.000000 0.000000
# 2 -0.006221 0.021711 -0.002776 0.000000 0.000000 0.000000
# 3 -0.001707 -0.002776 0.012028 0.000000 0.000000 0.000000
# 4 0.000000 0.000000 0.000000 0.036918 0.000000 0.000000
# 5 0.000000 0.000000 0.000000 0.000000 0.029332 0.000000
# 6 0.000000 0.000000 0.000000 0.000000 0.000000 0.036841
#
#
# Mechanical properties :
#
#
# Convention : Reuss Voigt Hill
#
# Bulk Modulus (GPa) = 42.74634 46.90939 44.82786
# Shear Modulus (GPa) = 28.23317 29.99535 29.11426
#
# Velocity S-wave (km/s) = 3.54074 3.64956 3.59556
# Velocity P-wave (km/s) = 5.97471 6.21201 6.09451
#
# Compressibility (1/GPa) = 0.02339382
#
# Stress axis : x y z
#
# Youngs Moduli (GPa) = 90.40284 46.05979 83.13613
#
# Poissons Ratio (x) = 0.28655 0.14189
# Poissons Ratio (y) = 0.56242 0.23075
# Poissons Ratio (z) = 0.15429 0.12784
#
# Static dielectric constant tensor:
#      x y z
#    x 4.327100 0.000000 0.000000 
#    y 0.000000 3.754280 0.000000 
#    z 0.000000 0.000000 4.072150 
# 
# 
# High freq. dielectric constant tensor:
#      x y z
#    x 1.893120 0.000000 0.000000 
#    y 0.000000 1.849550 0.000000 
#    z 0.000000 0.000000 1.894970 
# 
# From -- ./inp_files/1577.got.cif
#   From: 2010.03.12/outbox.cif.g09.slc.cpg/sg44_1_cif.got.tgz:1577.got - 2010.04.14 02:36:11.
