data_PCOD8189989
_publ_section_title
;
Structure prediction by ZEFSAII (Michael W. Deem and Ramdas Pophale) SiO2 
 PCOD8189989
Probable space group: I M M 2
;
_chemical_formula_sum "Si O2"
_cell_formula_units_Z 24
_cell_length_a 9.082617
_cell_length_b 18.767620
_cell_length_c 7.448760
_cell_angle_alpha 90.000000
_cell_angle_beta 90.000000
_cell_angle_gamma 90.000000
_cell_volume 1269.708959
_symmetry_space_group_name_H-M "I M M 2"
_symmetry_group_IT_number 44
_symmetry_cell_setting 'orthorhombic'
loop_
_space_group_symop_operation_xyz
x,y,z
-x,-y,z
-x,y,z
x,-y,z
1/2+x,1/2+y,1/2+z
1/2-x,1/2-y,1/2+z
1/2-x,1/2+y,1/2+z
1/2+x,1/2-y,1/2+z
loop_
_atom_site_type_symbol
_atom_site_label
_atom_site_fract_x
_atom_site_fract_y
_atom_site_fract_z
Si Si1 0.327166 0.820920 0.627680
Si Si2 0.830421 0.417632 0.795517
Si Si3 0.326262 0.665473 0.497090
O O1 0.500000 0.824890 0.666732
O O2 0.279333 0.873247 0.468198
O O3 0.276500 0.741538 0.575897
O O4 0.241554 0.846676 0.802156
O O5 0.804751 0.500000 0.839508
O O6 0.732575 0.396411 0.625637
O O7 0.000000 0.400976 0.749385
O O8 0.500000 0.659920 0.480473
#
# Coordination Sequence:
#
# PCOD8189989 Si02
#       3
#     8   8   8
#     4  10  21  37  59  87 117 154 199 239 286 348
#     4  10  22  41  62  85 118 157 196 239 288 347
#     4  11  22  36  60  90 120 152 192 244 292 343
#
# _framework density 18.901971
#
# number of rings (size 3 to 8) (size 9 to 14) (size 15 to 20)
#    0.000    1.667    3.333    1.000    0.000    4.667 
#    0.000    3.333    0.000    0.000    0.000    0.000 
#    0.000    0.000    0.000    0.000    0.000    0.000 
#
# Total GULP energy -148884.579475 kJ/mol
# GULP energy per Si atom -12407.048290 kJ/mol
# Density = 1.885895 g / cm^3
# Si number density = 18.901971 Si / 1000 Ang^3
#
#
#
# Elastic Constant Matrix: (Units=GPa)
#
#
# Indices 1 2 3 4 5 6 
#
# 1 55.6956 24.7867 50.6463 -0.0004 0.0000 0.0001
# 2 24.7867 74.4628 31.9461 -0.0009 0.0003 0.0002
# 3 50.6463 31.9461 136.8959 -0.0025 0.0012 0.0009
# 4 -0.0004 -0.0009 -0.0025 32.9957 0.0002 0.0001
# 5 0.0000 0.0003 0.0012 0.0002 38.8084 -0.0001
# 6 0.0001 0.0002 0.0009 0.0001 -0.0001 27.0214
#
#
#
# Elastic Compliance Matrix: (Units=1/GPa)
#
#
# Indices 1 2 3 4 5 6 
#
# 1 0.029029 -0.005618 -0.009428 0.000000 0.000000 0.000000
# 2 -0.005618 0.016011 -0.001658 0.000000 0.000000 0.000000
# 3 -0.009428 -0.001658 0.011180 0.000001 0.000000 0.000000
# 4 0.000000 0.000000 0.000001 0.030307 0.000000 0.000000
# 5 0.000000 0.000000 0.000000 0.000000 0.025768 0.000000
# 6 0.000000 0.000000 0.000000 0.000000 0.000000 0.037008
#
#
# Mechanical properties :
#
#
# Convention : Reuss Voigt Hill
#
# Bulk Modulus (GPa) = 43.83880 53.53473 48.68677
# Shear Modulus (GPa) = 26.27241 30.41012 28.34126
#
# Velocity S-wave (km/s) = 3.73222 4.01538 3.87639
# Velocity P-wave (km/s) = 6.46651 7.06268 6.77116
#
# Compressibility (1/GPa) = 0.02281084
#
# Stress axis : x y z
#
# Youngs Moduli (GPa) = 34.44879 62.45768 89.44625
#
# Poissons Ratio (x) = 0.35088 0.84334
# Poissons Ratio (y) = 0.19353 0.14829
# Poissons Ratio (z) = 0.32480 0.10355
#
# Static dielectric constant tensor:
#      x y z
#    x 3.369230 0.000000 0.000000 
#    y 0.000000 3.466920 0.000000 
#    z 0.000000 0.000000 3.466110 
# 
# 
# High freq. dielectric constant tensor:
#      x y z
#    x 1.731110 0.000000 0.000000 
#    y 0.000000 1.733380 0.000000 
#    z 0.000000 0.000000 1.745530 
# 
# From -- ./inp_files/288.got.cif
#   From: 2010.03.12/outbox.cif.g09.slc.cpg/sg44_1_cif.got.tgz:288.got - 2010.04.14 02:36:11.
