data_PCOD8189318
_publ_section_title
;
Structure prediction by ZEFSAII (Michael W. Deem and Ramdas Pophale) SiO2 
 PCOD8189318
Probable space group: I M M 2
;
_chemical_formula_sum "Si O2"
_cell_formula_units_Z 56
_cell_length_a 9.247426
_cell_length_b 20.783321
_cell_length_c 14.143639
_cell_angle_alpha 90.000000
_cell_angle_beta 90.000000
_cell_angle_gamma 90.000000
_cell_volume 2718.297420
_symmetry_space_group_name_H-M "I M M 2"
_symmetry_group_IT_number 44
_symmetry_cell_setting 'orthorhombic'
loop_
_space_group_symop_operation_xyz
x,y,z
-x,-y,z
-x,y,z
x,-y,z
1/2+x,1/2+y,1/2+z
1/2-x,1/2-y,1/2+z
1/2-x,1/2+y,1/2+z
1/2+x,1/2-y,1/2+z
loop_
_atom_site_type_symbol
_atom_site_label
_atom_site_fract_x
_atom_site_fract_y
_atom_site_fract_z
Si Si1 0.340151 0.714416 0.431450
Si Si2 0.840041 0.928536 0.434993
Si Si3 0.665246 0.924468 0.613651
Si Si4 0.173190 0.864466 0.116339
Si Si5 0.338548 0.311337 0.812240
Si Si6 0.159506 0.500000 0.383359
Si Si7 0.336505 0.000000 0.103876
Si Si8 0.160100 0.105916 0.785997
O O1 0.500000 0.739029 0.460680
O O2 0.276326 0.673216 0.520275
O O3 0.246193 0.774097 0.395074
O O4 0.351751 0.673545 0.336393
O O5 0.721870 0.905918 0.510724
O O6 0.834791 0.885599 0.342406
O O7 0.000000 0.925878 0.482145
O O8 0.802569 0.000000 0.399700
O O9 0.500000 0.903262 0.620975
O O10 0.758186 0.883596 0.687487
O O11 0.687581 0.000000 0.636161
O O12 0.217852 0.816370 0.203570
O O13 0.250828 0.933954 0.129468
O O14 0.000000 0.876678 0.114061
O O15 0.500000 0.282353 0.812490
O O16 0.142259 0.500000 0.493375
O O17 0.246799 0.437922 0.354117
O O18 0.000000 0.500000 0.334744
O O19 0.500000 0.000000 0.149288
O O20 0.000000 0.076637 0.768981
#
# Coordination Sequence:
#
# PCOD8189318 Si02
#       8
#     8   8   8   8   8   4   4   8
#     4  10  23  41  60  86 122 161 204 251 304 371
#     4   9  19  37  59  85 115 151 198 249 303 367
#     4  10  20  33  52  82 117 153 193 241 294 348
#     4  10  22  42  66  92 124 167 214 256 312 380
#     4  10  23  41  65  91 117 159 207 255 310 368
#     4  11  21  33  53  86 123 156 197 251 310 364
#     4  11  23  37  61  98 131 162 203 263 324 366
#     4  11  21  34  56  85 118 161 204 246 303 364
#
# _framework density 20.601130999999999
#
# number of rings (size 3 to 8) (size 9 to 14) (size 15 to 20)
#    0.000    1.857    2.143    1.286    1.000    5.143 
#    0.000    2.857    0.000    0.000    0.000    0.000 
#    0.000    0.000    0.000    0.000    0.000    0.000 
#
# Total GULP energy -346971.133066 kJ/mol
# GULP energy per Si atom -12391.826181 kJ/mol
# Density = 2.055424 g / cm^3
# Si number density = 20.601131 Si / 1000 Ang^3
#
#
#
# Elastic Constant Matrix: (Units=GPa)
#
#
# Indices 1 2 3 4 5 6 
#
# 1 115.2253 32.6700 36.1421 0.0000 0.0000 0.0000
# 2 32.6700 76.0372 35.1228 0.0002 0.0000 0.0000
# 3 36.1421 35.1228 92.9709 0.0008 -0.0001 0.0000
# 4 0.0000 0.0002 0.0008 96.7536 0.0000 -0.0002
# 5 0.0000 0.0000 -0.0001 0.0000 27.5380 0.0000
# 6 0.0000 0.0000 0.0000 -0.0002 0.0000 26.5184
#
#
#
# Elastic Compliance Matrix: (Units=1/GPa)
#
#
# Indices 1 2 3 4 5 6 
#
# 1 0.010481 -0.003175 -0.002875 0.000000 0.000000 0.000000
# 2 -0.003175 0.016894 -0.005148 0.000000 0.000000 0.000000
# 3 -0.002875 -0.005148 0.013818 0.000000 0.000000 0.000000
# 4 0.000000 0.000000 0.000000 0.010336 0.000000 0.000000
# 5 0.000000 0.000000 0.000000 0.000000 0.036313 0.000000
# 6 0.000000 0.000000 0.000000 0.000000 0.000000 0.037710
#
#
# Mechanical properties :
#
#
# Convention : Reuss Voigt Hill
#
# Bulk Modulus (GPa) = 53.19973 54.67815 53.93894
# Shear Modulus (GPa) = 32.42283 42.18188 37.30236
#
# Velocity S-wave (km/s) = 3.97147 4.52990 4.25984
# Velocity P-wave (km/s) = 6.84907 7.34567 7.10172
#
# Compressibility (1/GPa) = 0.01879709
#
# Stress axis : x y z
#
# Youngs Moduli (GPa) = 95.41413 59.19430 72.36755
#
# Poissons Ratio (x) = 0.18795 0.20804
# Poissons Ratio (y) = 0.30296 0.37253
# Poissons Ratio (z) = 0.27429 0.30472
#
# Static dielectric constant tensor:
#      x y z
#    x 3.991570 0.000000 0.000000 
#    y 0.000000 3.497330 0.000000 
#    z 0.000000 0.000000 3.692870 
# 
# 
# High freq. dielectric constant tensor:
#      x y z
#    x 1.804860 0.000000 0.000000 
#    y 0.000000 1.789500 0.000000 
#    z 0.000000 0.000000 1.810420 
# 
# From -- ./inp_files/16513.got.cif
#   From: 2010.03.12/outbox.cif.g09.slc.cpg/sg44_9_cif.got.tgz:16513.got - 2010.04.14 02:36:11.
