data_PCOD8189871
_publ_section_title
;
Structure prediction by ZEFSAII (Michael W. Deem and Ramdas Pophale) SiO2 
 PCOD8189871
Probable space group: I M M 2
;
_chemical_formula_sum "Si O2"
_cell_formula_units_Z 40
_cell_length_a 28.633543
_cell_length_b 9.060285
_cell_length_c 9.223952
_cell_angle_alpha 90.000000
_cell_angle_beta 90.000000
_cell_angle_gamma 90.000000
_cell_volume 2392.951974
_symmetry_space_group_name_H-M "I M M 2"
_symmetry_group_IT_number 44
_symmetry_cell_setting 'orthorhombic'
loop_
_space_group_symop_operation_xyz
x,y,z
-x,-y,z
-x,y,z
x,-y,z
1/2+x,1/2+y,1/2+z
1/2-x,1/2-y,1/2+z
1/2-x,1/2+y,1/2+z
1/2+x,1/2-y,1/2+z
loop_
_atom_site_type_symbol
_atom_site_label
_atom_site_fract_x
_atom_site_fract_y
_atom_site_fract_z
Si Si1 0.553553 0.173588 0.296780
Si Si2 0.799413 0.326948 0.447657
Si Si3 0.370782 0.333683 0.442038
Si Si4 0.624344 0.333276 0.123544
Si Si5 0.711964 0.326579 0.646247
O O1 0.500000 0.219923 0.315682
O O2 0.582585 0.231274 0.438377
O O3 0.574488 0.251571 0.151665
O O4 0.559881 0.000000 0.281441
O O5 0.807838 0.500000 0.435046
O O6 0.846925 0.252386 0.502050
O O7 0.758151 0.287631 0.557381
O O8 0.785771 0.264137 0.292588
O O9 0.385638 0.500000 0.484209
O O10 0.348363 0.332887 0.278991
O O11 0.332866 0.271937 0.554273
O O12 0.615438 0.500000 0.068984
O O13 0.708751 0.500000 0.679149
#
# Coordination Sequence:
#
# PCOD8189871 Si02
#       5
#     8   8   8   8   8
#     4   9  17  30  52  81 108 133 168 216 265 309
#     4  11  22  34  51  76 104 137 177 216 260 307
#     4   8  17  32  51  74 102 135 172 209 251 306
#     4   9  18  33  52  74 103 136 172 211 255 306
#     4  10  21  36  51  72 104 139 174 214 258 309
#
# _framework density 16.715754
#
# number of rings (size 3 to 8) (size 9 to 14) (size 15 to 20)
#    1.200    1.400    0.000    2.400    0.000    5.600 
#    0.000    0.000    0.000    1.200    0.000    5.600 
#    0.000    0.000    0.000    0.000    0.000    0.000 
#
# Total GULP energy -247830.266253 kJ/mol
# GULP energy per Si atom -12391.513313 kJ/mol
# Density = 1.667771 g / cm^3
# Si number density = 16.715754 Si / 1000 Ang^3
#
#
#
# Elastic Constant Matrix: (Units=GPa)
#
#
# Indices 1 2 3 4 5 6 
#
# 1 90.6974 53.3549 18.2816 0.0000 0.0000 0.0000
# 2 53.3549 89.0929 37.1534 0.0000 0.0000 0.0000
# 3 18.2816 37.1534 59.6118 0.0000 0.0000 0.0000
# 4 0.0000 0.0000 0.0000 27.8571 0.0000 0.0000
# 5 0.0000 0.0000 0.0000 0.0000 27.2739 0.0000
# 6 0.0000 0.0000 0.0000 0.0000 0.0000 25.9830
#
#
#
# Elastic Compliance Matrix: (Units=1/GPa)
#
#
# Indices 1 2 3 4 5 6 
#
# 1 0.017127 -0.010899 0.001541 0.000000 0.000000 0.000000
# 2 -0.010899 0.022102 -0.010433 0.000000 0.000000 0.000000
# 3 0.001541 -0.010433 0.022805 0.000000 0.000000 0.000000
# 4 0.000000 0.000000 0.000000 0.035898 0.000000 0.000000
# 5 0.000000 0.000000 0.000000 0.000000 0.036665 0.000000
# 6 0.000000 0.000000 0.000000 0.000000 0.000000 0.038487
#
#
# Mechanical properties :
#
#
# Convention : Reuss Voigt Hill
#
# Bulk Modulus (GPa) = 44.54097 50.77577 47.65837
# Shear Modulus (GPa) = 22.71186 24.93028 23.82107
#
# Velocity S-wave (km/s) = 3.69007 3.86609 3.77910
# Velocity P-wave (km/s) = 6.69772 7.09724 6.90037
#
# Compressibility (1/GPa) = 0.02245124
#
# Stress axis : x y z
#
# Youngs Moduli (GPa) = 58.38796 45.24482 43.85010
#
# Poissons Ratio (x) = 0.49313 -0.06755
# Poissons Ratio (y) = 0.63638 0.45747
# Poissons Ratio (z) = -0.08995 0.47202
#
# Static dielectric constant tensor:
#      x y z
#    x 3.012490 0.000000 0.000000 
#    y 0.000000 3.137300 0.000000 
#    z 0.000000 0.000000 2.906160 
# 
# 
# High freq. dielectric constant tensor:
#      x y z
#    x 1.631880 0.000000 0.000000 
#    y 0.000000 1.654700 0.000000 
#    z 0.000000 0.000000 1.619390 
# 
# From -- ./inp_files/4733.got.cif
#   From: 2010.03.12/outbox.cif.g09.slc.cpg/sg44_3_cif.got.tgz:4733.got - 2010.04.14 02:36:11.
