data_PCOD8189603
_publ_section_title
;
Structure prediction by ZEFSAII (Michael W. Deem and Ramdas Pophale) SiO2 
 PCOD8189603
Probable space group: I M M 2
;
_chemical_formula_sum "Si O2"
_cell_formula_units_Z 48
_cell_length_a 8.415263
_cell_length_b 27.917170
_cell_length_c 10.116284
_cell_angle_alpha 90.000000
_cell_angle_beta 90.000000
_cell_angle_gamma 90.000000
_cell_volume 2376.621916
_symmetry_space_group_name_H-M "I M M 2"
_symmetry_group_IT_number 44
_symmetry_cell_setting 'orthorhombic'
loop_
_space_group_symop_operation_xyz
x,y,z
-x,-y,z
-x,y,z
x,-y,z
1/2+x,1/2+y,1/2+z
1/2-x,1/2-y,1/2+z
1/2-x,1/2+y,1/2+z
1/2+x,1/2-y,1/2+z
loop_
_atom_site_type_symbol
_atom_site_label
_atom_site_fract_x
_atom_site_fract_y
_atom_site_fract_z
Si Si1 0.684730 0.298861 0.107260
Si Si2 0.317951 0.851441 0.363218
Si Si3 0.182387 0.553409 0.211308
Si Si4 0.184100 0.195286 0.106104
Si Si5 0.316027 0.852474 0.856376
Si Si6 0.683924 0.553457 0.929195
O O1 0.500000 0.295338 0.142827
O O2 0.753940 0.247522 0.067384
O O3 0.778816 0.318520 0.232950
O O4 0.707387 0.332971 0.981507
O O5 0.500000 0.843267 0.402752
O O6 0.283584 0.823665 0.229284
O O7 0.281869 0.907958 0.343603
O O8 0.211060 0.500000 0.269447
O O9 0.225530 0.592310 0.322566
O O10 0.000000 0.560107 0.165438
O O11 0.292137 0.562684 0.084950
O O12 0.000000 0.196544 0.144414
O O13 0.208883 0.161010 0.980905
O O14 0.500000 0.846022 0.894166
O O15 0.500000 0.559176 0.894829
O O16 0.744425 0.500000 0.892289
#
# Coordination Sequence:
#
# PCOD8189603 Si02
#       6
#     8   8   8   8   8   8
#     4  12  24  41  64  90 120 157 203 251 300 358
#     4  12  24  41  63  90 122 160 204 251 302 359
#     4   9  18  34  59  89 120 155 196 242 292 351
#     4  12  26  43  61  85 121 162 203 251 305 361
#     4  11  22  39  62  91 124 159 200 246 296 357
#     4  10  20  35  59  91 123 155 197 248 300 354
#
# _framework density 20.196732999999998
#
# number of rings (size 3 to 8) (size 9 to 14) (size 15 to 20)
#    0.000    1.000    1.667    6.500    0.000    1.667 
#    0.000    0.833    0.000    3.000    0.000    0.000 
#    0.000    0.000    0.000    0.000    0.000    0.000 
#
# Total GULP energy -297746.470685 kJ/mol
# GULP energy per Si atom -12406.102945 kJ/mol
# Density = 2.015076 g / cm^3
# Si number density = 20.196733 Si / 1000 Ang^3
#
#
#
# Elastic Constant Matrix: (Units=GPa)
#
#
# Indices 1 2 3 4 5 6 
#
# 1 71.0689 41.7454 9.0943 0.0014 0.0000 -0.0001
# 2 41.7454 112.6660 18.5099 0.0010 -0.0003 -0.0001
# 3 9.0943 18.5099 67.8133 0.0036 -0.0002 -0.0011
# 4 0.0014 0.0010 0.0036 16.4131 -0.0004 -0.0002
# 5 0.0000 -0.0003 -0.0002 -0.0004 35.5391 0.0006
# 6 -0.0001 -0.0001 -0.0011 -0.0002 0.0006 21.2932
#
#
#
# Elastic Compliance Matrix: (Units=1/GPa)
#
#
# Indices 1 2 3 4 5 6 
#
# 1 0.018010 -0.006571 -0.000622 -0.000001 0.000000 0.000000
# 2 -0.006571 0.011690 -0.002310 0.000000 0.000000 0.000000
# 3 -0.000622 -0.002310 0.015460 -0.000003 0.000000 0.000001
# 4 -0.000001 0.000000 -0.000003 0.060927 0.000001 0.000001
# 5 0.000000 0.000000 0.000000 0.000001 0.028138 -0.000001
# 6 0.000000 0.000000 0.000001 0.000001 -0.000001 0.046963
#
#
# Mechanical properties :
#
#
# Convention : Reuss Voigt Hill
#
# Bulk Modulus (GPa) = 38.23273 43.36083 40.79678
# Shear Modulus (GPa) = 23.93353 26.79565 25.36459
#
# Velocity S-wave (km/s) = 3.44615 3.64639 3.54768
# Velocity P-wave (km/s) = 5.89965 6.26450 6.08481
#
# Compressibility (1/GPa) = 0.02615560
#
# Stress axis : x y z
#
# Youngs Moduli (GPa) = 55.52401 85.54339 64.68241
#
# Poissons Ratio (x) = 0.56211 0.04021
# Poissons Ratio (y) = 0.36485 0.14939
# Poissons Ratio (z) = 0.03452 0.19757
#
# Static dielectric constant tensor:
#      x y z
#    x 3.653150 0.000000 0.000000 
#    y 0.000000 4.032410 0.000000 
#    z 0.000000 0.000000 3.455630 
# 
# 
# High freq. dielectric constant tensor:
#      x y z
#    x 1.797390 0.000000 0.000000 
#    y 0.000000 1.808570 0.000000 
#    z 0.000000 0.000000 1.761280 
# 
# From -- ./inp_files/4919.got.cif
#   From: 2010.03.12/outbox.cif.g09.slc.cpg/sg44_3_cif.got.tgz:4919.got - 2010.04.14 02:36:11.
