data_PCOD8189038
_publ_section_title
;
Structure prediction by ZEFSAII (Michael W. Deem and Ramdas Pophale) SiO2 
 PCOD8189038
Probable space group: I M M 2
;
_chemical_formula_sum "Si O2"
_cell_formula_units_Z 64
_cell_length_a 17.917895
_cell_length_b 14.907055
_cell_length_c 11.781331
_cell_angle_alpha 90.000000
_cell_angle_beta 90.000000
_cell_angle_gamma 90.000000
_cell_volume 3146.829399
_symmetry_space_group_name_H-M "I M M 2"
_symmetry_group_IT_number 44
_symmetry_cell_setting 'orthorhombic'
loop_
_space_group_symop_operation_xyz
x,y,z
-x,-y,z
-x,y,z
x,-y,z
1/2+x,1/2+y,1/2+z
1/2-x,1/2-y,1/2+z
1/2-x,1/2+y,1/2+z
1/2+x,1/2-y,1/2+z
loop_
_atom_site_type_symbol
_atom_site_label
_atom_site_fract_x
_atom_site_fract_y
_atom_site_fract_z
Si Si1 0.197026 0.656990 0.144650
Si Si2 0.299236 0.901244 0.080274
Si Si3 0.877403 0.401861 0.351900
Si Si4 0.418836 0.703534 0.853449
Si Si5 0.710386 0.398402 0.942698
Si Si6 0.193641 0.286364 0.775620
Si Si7 0.125301 0.102538 0.126034
Si Si8 0.914565 0.756388 0.970900
O O1 0.158072 0.586056 0.227469
O O2 0.240771 0.720831 0.233784
O O3 0.134867 0.703433 0.064490
O O4 0.255659 0.604170 0.067962
O O5 0.342631 0.832409 0.163403
O O6 0.211944 0.887202 0.098287
O O7 0.325523 0.000000 0.115156
O O8 0.315746 0.882575 0.948762
O O9 0.917181 0.500000 0.375840
O O10 0.927529 0.312208 0.349951
O O11 0.500000 0.665470 0.884054
O O12 0.361591 0.666593 0.947130
O O13 0.393052 0.664436 0.733197
O O14 0.687606 0.500000 0.910666
O O15 0.769344 0.364987 0.850150
O O16 0.126734 0.242336 0.848539
O O17 0.080890 0.141467 0.017215
O O18 0.101250 0.000000 0.147636
O O19 0.000000 0.718738 0.959665
#
# Coordination Sequence:
#
# PCOD8189038 Si02
#       8
#     8   8   8   8   8   8   8   8
#     4  11  21  38  63  91 124 161 211 261 310 371
#     4  10  19  35  62  93 118 151 206 267 314 365
#     4  11  22  38  62  91 123 162 208 261 313 366
#     4  12  24  37  57  88 127 166 210 258 311 372
#     4  11  22  38  63  91 121 163 209 261 315 374
#     4  11  20  37  64  89 126 163 209 260 314 374
#     4  11  21  35  61  94 125 159 206 260 317 376
#     4  11  23  38  61  92 129 168 205 257 327 383
#
# _framework density 20.337931000000001
#
# number of rings (size 3 to 8) (size 9 to 14) (size 15 to 20)
#    0.000    1.000    5.000    3.000    0.000    2.000 
#    0.000    3.125    0.000   13.875    0.000    0.000 
#    0.000    0.000    0.000    0.000    0.000    0.000 
#
# Total GULP energy -396442.374577 kJ/mol
# GULP energy per Si atom -12388.824206 kJ/mol
# Density = 2.029164 g / cm^3
# Si number density = 20.337931 Si / 1000 Ang^3
#
#
#
# Elastic Constant Matrix: (Units=GPa)
#
#
# Indices 1 2 3 4 5 6 
#
# 1 104.4861 26.7625 38.1378 0.0000 0.0000 0.0000
# 2 26.7625 109.1323 18.1191 0.0000 0.0000 0.0000
# 3 38.1378 18.1191 88.9181 0.0000 0.0000 0.0000
# 4 0.0000 0.0000 0.0000 29.0069 0.0000 0.0000
# 5 0.0000 0.0000 0.0000 0.0000 12.2207 0.0000
# 6 0.0000 0.0000 0.0000 0.0000 0.0000 10.8154
#
#
#
# Elastic Compliance Matrix: (Units=1/GPa)
#
#
# Indices 1 2 3 4 5 6 
#
# 1 0.011805 -0.002126 -0.004630 0.000000 0.000000 0.000000
# 2 -0.002126 0.009867 -0.001099 0.000000 0.000000 0.000000
# 3 -0.004630 -0.001099 0.013456 0.000000 0.000000 0.000000
# 4 0.000000 0.000000 0.000000 0.034475 0.000000 0.000000
# 5 0.000000 0.000000 0.000000 0.000000 0.081828 0.000000
# 6 0.000000 0.000000 0.000000 0.000000 0.000000 0.092461
#
#
# Mechanical properties :
#
#
# Convention : Reuss Voigt Hill
#
# Bulk Modulus (GPa) = 51.49784 52.06393 51.78089
# Shear Modulus (GPa) = 18.79172 25.04307 21.91739
#
# Velocity S-wave (km/s) = 3.04299 3.51286 3.28634
# Velocity P-wave (km/s) = 6.14186 6.48912 6.31787
#
# Compressibility (1/GPa) = 0.01941829
#
# Stress axis : x y z
#
# Youngs Moduli (GPa) = 84.70790 101.34764 74.31583
#
# Poissons Ratio (x) = 0.21549 0.34409
# Poissons Ratio (y) = 0.18011 0.08165
# Poissons Ratio (z) = 0.39221 0.11135
#
# Static dielectric constant tensor:
#      x y z
#    x 3.543680 0.000000 0.000000 
#    y 0.000000 3.887780 0.000000 
#    z 0.000000 0.000000 3.942740 
# 
# 
# High freq. dielectric constant tensor:
#      x y z
#    x 1.765100 0.000000 0.000000 
#    y 0.000000 1.800440 0.000000 
#    z 0.000000 0.000000 1.799170 
# 
# From -- ./inp_files/14009.got.cif
#   From: 2010.03.12/outbox.cif.g09.slc.cpg/sg44_8_cif.got.tgz:14009.got - 2010.04.14 02:36:11.
