data_PCOD8189872
_publ_section_title
;
Structure prediction by ZEFSAII (Michael W. Deem and Ramdas Pophale) SiO2 
 PCOD8189872
Probable space group: I M M 2
;
_chemical_formula_sum "Si O2"
_cell_formula_units_Z 64
_cell_length_a 9.129441
_cell_length_b 14.402262
_cell_length_c 28.392009
_cell_angle_alpha 90.000000
_cell_angle_beta 90.000000
_cell_angle_gamma 90.000000
_cell_volume 3733.111981
_symmetry_space_group_name_H-M "I M M 2"
_symmetry_group_IT_number 44
_symmetry_cell_setting 'orthorhombic'
loop_
_space_group_symop_operation_xyz
x,y,z
-x,-y,z
-x,y,z
x,-y,z
1/2+x,1/2+y,1/2+z
1/2-x,1/2-y,1/2+z
1/2-x,1/2+y,1/2+z
1/2+x,1/2-y,1/2+z
loop_
_atom_site_type_symbol
_atom_site_label
_atom_site_fract_x
_atom_site_fract_y
_atom_site_fract_z
Si Si1 0.330744 0.896199 0.276290
Si Si2 0.667761 0.391894 0.869977
Si Si3 0.329619 0.710691 0.229712
Si Si4 0.826388 0.398905 0.417330
Si Si5 0.172384 0.606559 0.147126
Si Si6 0.833179 0.391238 0.311122
Si Si7 0.825796 0.213605 0.460310
Si Si8 0.169998 0.107213 0.551114
O O1 0.500000 0.898806 0.289816
O O2 0.248058 0.860549 0.322646
O O3 0.302227 0.821884 0.234666
O O4 0.277575 0.000000 0.260763
O O5 0.500000 0.362280 0.863445
O O6 0.686570 0.500000 0.879243
O O7 0.737339 0.341312 0.915279
O O8 0.500000 0.688240 0.221781
O O9 0.238832 0.674904 0.185531
O O10 0.277468 0.661086 0.277068
O O11 0.759521 0.500000 0.431130
O O12 0.780099 0.370249 0.364397
O O13 0.774738 0.321099 0.454843
O O14 0.000000 0.406686 0.417486
O O15 0.212133 0.500000 0.159797
O O16 0.238697 0.634316 0.096960
O O17 0.000000 0.621577 0.145307
O O18 0.824322 0.500000 0.300278
O O19 0.000000 0.356573 0.302825
O O20 0.765640 0.170174 0.508735
O O21 0.000000 0.203327 0.460682
O O22 0.000000 0.128400 0.561242
O O23 0.192639 0.000000 0.537061
#
# Coordination Sequence:
#
# PCOD8189872 Si02
#       8
#     8   8   8   8   8   8   8   8
#     4   9  19  34  47  63  93 128 157 188 227 268
#     4   9  16  26  43  68  94 120 153 189 223 263
#     4  11  21  31  48  71  92 119 155 192 230 272
#     4   8  14  24  39  62  92 124 156 186 215 253
#     4  10  21  36  52  70  93 119 146 181 229 282
#     4   9  17  29  45  67  97 130 159 188 225 268
#     4   9  15  24  42  66  91 119 150 186 225 262
#     4   9  17  30  48  69  92 116 144 182 228 274
#
# _framework density 17.143875000000001
#
# number of rings (size 3 to 8) (size 9 to 14) (size 15 to 20)
#    0.000    2.750    0.000    3.000    0.000    6.000 
#    0.000    0.625    0.000    4.500    0.000    3.500 
#    0.000    0.000    0.000    0.000    0.000    0.000 
#
# Total GULP energy -396688.048042 kJ/mol
# GULP energy per Si atom -12396.501501 kJ/mol
# Density = 1.710485 g / cm^3
# Si number density = 17.143875 Si / 1000 Ang^3
#
#
#
# Elastic Constant Matrix: (Units=GPa)
#
#
# Indices 1 2 3 4 5 6 
#
# 1 48.1525 35.3988 42.2755 0.0000 0.0000 0.0000
# 2 35.3988 94.7237 81.1246 0.0000 0.0000 0.0000
# 3 42.2755 81.1246 121.3530 0.0000 0.0000 0.0000
# 4 0.0000 0.0000 0.0000 30.5697 0.0000 0.0000
# 5 0.0000 0.0000 0.0000 0.0000 22.8275 0.0000
# 6 0.0000 0.0000 0.0000 0.0000 0.0000 16.6399
#
#
#
# Elastic Compliance Matrix: (Units=1/GPa)
#
#
# Indices 1 2 3 4 5 6 
#
# 1 0.031088 -0.005480 -0.007167 0.000000 0.000000 0.000000
# 2 -0.005480 0.025662 -0.015246 0.000000 0.000000 0.000000
# 3 -0.007167 -0.015246 0.020929 0.000000 0.000000 0.000000
# 4 0.000000 0.000000 0.000000 0.032712 0.000000 0.000000
# 5 0.000000 0.000000 0.000000 0.000000 0.043807 0.000000
# 6 0.000000 0.000000 0.000000 0.000000 0.000000 0.060097
#
#
# Mechanical properties :
#
#
# Convention : Reuss Voigt Hill
#
# Bulk Modulus (GPa) = 45.67536 64.64744 55.16140
# Shear Modulus (GPa) = 18.02592 21.03610 19.53101
#
# Velocity S-wave (km/s) = 3.24612 3.50670 3.37893
# Velocity P-wave (km/s) = 6.38357 7.36115 6.88972
#
# Compressibility (1/GPa) = 0.02189364
#
# Stress axis : x y z
#
# Youngs Moduli (GPa) = 32.16690 38.96767 47.78017
#
# Poissons Ratio (x) = 0.21354 0.34242
# Poissons Ratio (y) = 0.17627 0.72847
# Poissons Ratio (z) = 0.23053 0.59411
#
# Static dielectric constant tensor:
#      x y z
#    x 2.986500 0.000000 0.000000 
#    y 0.000000 3.495900 0.000000 
#    z 0.000000 0.000000 3.149220 
# 
# 
# High freq. dielectric constant tensor:
#      x y z
#    x 1.634640 0.000000 0.000000 
#    y 0.000000 1.666960 0.000000 
#    z 0.000000 0.000000 1.645180 
# 
# From -- ./inp_files/27342.got.cif
#   From: 2010.03.12/outbox.cif.g09.slc.cpg/sg44_14_cif.got.tgz:27342.got - 2010.04.14 02:36:11.
