data_PCOD8189249
_publ_section_title
;
Structure prediction by ZEFSAII (Michael W. Deem and Ramdas Pophale) SiO2 
 PCOD8189249
Probable space group: I M M 2
;
_chemical_formula_sum "Si O2"
_cell_formula_units_Z 64
_cell_length_a 9.244039
_cell_length_b 14.142327
_cell_length_c 27.845351
_cell_angle_alpha 90.000000
_cell_angle_beta 90.000000
_cell_angle_gamma 90.000000
_cell_volume 3640.284618
_symmetry_space_group_name_H-M "I M M 2"
_symmetry_group_IT_number 44
_symmetry_cell_setting 'orthorhombic'
loop_
_space_group_symop_operation_xyz
x,y,z
-x,-y,z
-x,y,z
x,-y,z
1/2+x,1/2+y,1/2+z
1/2-x,1/2-y,1/2+z
1/2-x,1/2+y,1/2+z
1/2+x,1/2-y,1/2+z
loop_
_atom_site_type_symbol
_atom_site_label
_atom_site_fract_x
_atom_site_fract_y
_atom_site_fract_z
Si Si1 0.168442 0.892073 0.870650
Si Si2 0.167511 0.108479 0.119332
Si Si3 0.330090 0.761482 0.939418
Si Si4 0.833006 0.391731 0.119682
Si Si5 0.170948 0.249969 0.684077
Si Si6 0.664457 0.249699 0.536526
Si Si7 0.669076 0.392691 0.862366
Si Si8 0.331849 0.237398 0.294187
O O1 0.256385 0.853521 0.916232
O O2 0.208523 0.832679 0.823130
O O3 0.000000 0.883203 0.883253
O O4 0.213599 0.000000 0.860858
O O5 0.263212 0.155852 0.160647
O O6 0.196745 0.157384 0.068168
O O7 0.000000 0.120765 0.133767
O O8 0.213658 0.000000 0.114724
O O9 0.500000 0.778890 0.940644
O O10 0.288218 0.668271 0.909074
O O11 0.274593 0.746584 0.992922
O O12 0.786133 0.500000 0.114933
O O13 0.735485 0.344107 0.160364
O O14 0.806315 0.343084 0.068384
O O15 0.000000 0.379941 0.134902
O O16 0.215638 0.247586 0.739606
O O17 0.000000 0.250540 0.676594
O O18 0.500000 0.251092 0.517230
O O19 0.500000 0.386727 0.851918
O O20 0.719608 0.500000 0.871639
O O21 0.748125 0.352436 0.815465
O O22 0.500000 0.214010 0.298437
#
# Coordination Sequence:
#
# PCOD8189249 Si02
#       8
#     8   8   8   8   8   8   8   8
#     4   9  18  34  54  72  94 129 169 204 240 288
#     4   9  19  36  55  73  97 133 174 211 247 293
#     4  10  20  33  50  74 103 130 159 201 250 296
#     4   9  19  36  55  75 101 133 170 209 245 289
#     4  10  20  33  51  77 107 134 162 204 256 302
#     4   9  18  33  52  74 100 130 166 205 245 292
#     4   9  19  35  52  71  98 132 167 202 242 291
#     4   9  19  34  51  74 102 130 163 204 247 291
#
# _framework density 17.581043000000001
#
# number of rings (size 3 to 8) (size 9 to 14) (size 15 to 20)
#    0.000    2.750    0.000    1.500    0.000    6.500 
#    0.000    5.000    0.000    0.000    0.000    0.000 
#    0.000    0.000    0.000    0.000    0.000    0.000 
#
# Total GULP energy -396874.177235 kJ/mol
# GULP energy per Si atom -12402.318039 kJ/mol
# Density = 1.754103 g / cm^3
# Si number density = 17.581043 Si / 1000 Ang^3
#
#
#
# Elastic Constant Matrix: (Units=GPa)
#
#
# Indices 1 2 3 4 5 6 
#
# 1 65.5858 50.5669 58.6816 0.0000 0.0000 0.0000
# 2 50.5669 157.4256 64.4570 0.0000 0.0000 0.0000
# 3 58.6816 64.4570 128.3002 0.0000 0.0000 0.0000
# 4 0.0000 0.0000 0.0000 12.7785 0.0000 0.0000
# 5 0.0000 0.0000 0.0000 0.0000 32.7878 0.0000
# 6 0.0000 0.0000 0.0000 0.0000 0.0000 25.1508
#
#
#
# Elastic Compliance Matrix: (Units=1/GPa)
#
#
# Indices 1 2 3 4 5 6 
#
# 1 0.028417 -0.004792 -0.010590 0.000000 0.000000 0.000000
# 2 -0.004792 0.008805 -0.002232 0.000000 0.000000 0.000000
# 3 -0.010590 -0.002232 0.013759 0.000000 0.000000 0.000000
# 4 0.000000 0.000000 0.000000 0.078257 0.000000 0.000000
# 5 0.000000 0.000000 0.000000 0.000000 0.030499 0.000000
# 6 0.000000 0.000000 0.000000 0.000000 0.000000 0.039760
#
#
# Mechanical properties :
#
#
# Convention : Reuss Voigt Hill
#
# Bulk Modulus (GPa) = 63.47674 77.63584 70.55629
# Shear Modulus (GPa) = 20.83545 25.98382 23.40964
#
# Velocity S-wave (km/s) = 3.44628 3.84858 3.65297
# Velocity P-wave (km/s) = 7.21244 8.00021 7.61652
#
# Compressibility (1/GPa) = 0.01575380
#
# Stress axis : x y z
#
# Youngs Moduli (GPa) = 35.19057 113.56811 72.67920
#
# Poissons Ratio (x) = 0.54420 0.76966
# Poissons Ratio (y) = 0.16863 0.16222
# Poissons Ratio (z) = 0.37266 0.25349
#
# Static dielectric constant tensor:
#      x y z
#    x 3.223350 0.000000 0.000000 
#    y 0.000000 3.455560 0.000000 
#    z 0.000000 0.000000 3.195010 
# 
# 
# High freq. dielectric constant tensor:
#      x y z
#    x 1.679140 0.000000 0.000000 
#    y 0.000000 1.683980 0.000000 
#    z 0.000000 0.000000 1.676580 
# 
# From -- ./inp_files/27358.got.cif
#   From: 2010.03.12/outbox.cif.g09.slc.cpg/sg44_14_cif.got.tgz:27358.got - 2010.04.14 02:36:11.
