data_PCOD8189272
_publ_section_title
;
Structure prediction by ZEFSAII (Michael W. Deem and Ramdas Pophale) SiO2 
 PCOD8189272
Probable space group: I M M 2
;
_chemical_formula_sum "Si O2"
_cell_formula_units_Z 64
_cell_length_a 9.772935
_cell_length_b 9.002499
_cell_length_c 41.238214
_cell_angle_alpha 90.000000
_cell_angle_beta 90.000000
_cell_angle_gamma 90.000000
_cell_volume 3628.172607
_symmetry_space_group_name_H-M "I M M 2"
_symmetry_group_IT_number 44
_symmetry_cell_setting 'orthorhombic'
loop_
_space_group_symop_operation_xyz
x,y,z
-x,-y,z
-x,y,z
x,-y,z
1/2+x,1/2+y,1/2+z
1/2-x,1/2-y,1/2+z
1/2-x,1/2+y,1/2+z
1/2+x,1/2-y,1/2+z
loop_
_atom_site_type_symbol
_atom_site_label
_atom_site_fract_x
_atom_site_fract_y
_atom_site_fract_z
Si Si1 0.653591 0.676554 0.211400
Si Si2 0.658464 0.673612 0.515725
Si Si3 0.337029 0.667403 0.833526
Si Si4 0.841405 0.825355 0.461963
Si Si5 0.157423 0.325064 0.268660
Si Si6 0.162663 0.667048 0.396700
Si Si7 0.657733 0.171899 0.582401
Si Si8 0.346584 0.676443 0.139671
O O1 0.500000 0.730477 0.219672
O O2 0.659549 0.500000 0.211585
O O3 0.757519 0.739579 0.238265
O O4 0.696203 0.734742 0.175525
O O5 0.500000 0.707546 0.507936
O O6 0.690915 0.500000 0.513852
O O7 0.752163 0.759714 0.490646
O O8 0.697158 0.732057 0.551231
O O9 0.500000 0.669649 0.834718
O O10 0.280609 0.500000 0.833894
O O11 0.285344 0.748239 0.801075
O O12 0.277115 0.752650 0.864830
O O13 0.788403 0.754989 0.428432
O O14 0.000000 0.785639 0.468294
O O15 0.818516 0.000000 0.459859
O O16 0.177218 0.500000 0.273103
O O17 0.000000 0.283619 0.262356
O O18 0.220951 0.500000 0.398207
O O19 0.000000 0.665686 0.394904
O O20 0.500000 0.190909 0.591770
O O21 0.743741 0.238057 0.612490
O O22 0.693481 0.000000 0.575217
O O23 0.500000 0.730596 0.131377
O O24 0.340539 0.500000 0.139828
#
# Coordination Sequence:
#
# PCOD8189272 Si02
#       8
#     8   8   8   8   8   8   8   8
#     4   8  14  25  41  62  89 119 148 181 226 277
#     4  10  21  36  52  70  96 131 166 198 237 286
#     4   9  16  26  41  62  90 122 153 187 230 277
#     4  10  20  33  51  76 102 127 159 199 241 285
#     4   9  16  25  40  64  89 112 145 189 230 268
#     4   9  16  27  45  69  97 126 155 191 235 279
#     4   9  17  29  46  68  92 118 151 192 236 280
#     4   8  14  25  42  65  91 117 147 185 229 276
#
# _framework density 17.639735000000002
#
# number of rings (size 3 to 8) (size 9 to 14) (size 15 to 20)
#    0.000    3.000    0.000    2.250    0.000    5.500 
#    0.000    3.750    0.000    1.875    0.000    7.000 
#    0.000    0.000    0.000    0.000    0.000    0.000 
#
# Total GULP energy -396719.952719 kJ/mol
# GULP energy per Si atom -12397.498522 kJ/mol
# Density = 1.759959 g / cm^3
# Si number density = 17.639735 Si / 1000 Ang^3
#
#
#
# Elastic Constant Matrix: (Units=GPa)
#
#
# Indices 1 2 3 4 5 6 
#
# 1 60.9384 33.0808 73.9425 0.0000 0.0000 0.0000
# 2 33.0808 74.7751 58.1248 0.0000 0.0000 0.0000
# 3 73.9425 58.1248 171.3527 0.0000 0.0000 0.0000
# 4 0.0000 0.0000 0.0000 23.6614 0.0000 0.0000
# 5 0.0000 0.0000 0.0000 0.0000 26.5062 0.0000
# 6 0.0000 0.0000 0.0000 0.0000 0.0000 13.7037
#
#
#
# Elastic Compliance Matrix: (Units=1/GPa)
#
#
# Indices 1 2 3 4 5 6 
#
# 1 0.035883 -0.005213 -0.013716 0.000000 0.000000 0.000000
# 2 -0.005213 0.018920 -0.004168 0.000000 0.000000 0.000000
# 3 -0.013716 -0.004168 0.013169 0.000000 0.000000 0.000000
# 4 0.000000 0.000000 0.000000 0.042263 0.000000 0.000000
# 5 0.000000 0.000000 0.000000 0.000000 0.037727 0.000000
# 6 0.000000 0.000000 0.000000 0.000000 0.000000 0.072973
#
#
# Mechanical properties :
#
#
# Convention : Reuss Voigt Hill
#
# Bulk Modulus (GPa) = 45.92039 70.81802 58.36921
# Shear Modulus (GPa) = 18.22244 22.23549 20.22897
#
# Velocity S-wave (km/s) = 3.21757 3.55425 3.39009
# Velocity P-wave (km/s) = 6.31606 7.55497 6.96312
#
# Compressibility (1/GPa) = 0.02177682
#
# Stress axis : x y z
#
# Youngs Moduli (GPa) = 27.86860 52.85474 75.93835
#
# Poissons Ratio (x) = 0.27552 1.04156
# Poissons Ratio (y) = 0.14528 0.31654
# Poissons Ratio (z) = 0.38224 0.22032
#
# Static dielectric constant tensor:
#      x y z
#    x 3.096090 0.000000 0.000000 
#    y 0.000000 3.117530 0.000000 
#    z 0.000000 0.000000 3.592590 
# 
# 
# High freq. dielectric constant tensor:
#      x y z
#    x 1.648650 0.000000 0.000000 
#    y 0.000000 1.661830 0.000000 
#    z 0.000000 0.000000 1.697490 
# 
# From -- ./inp_files/27198.got.cif
#   From: 2010.03.12/outbox.cif.g09.slc.cpg/sg44_14_cif.got.tgz:27198.got - 2010.04.14 02:36:11.
