data_PCOD8189324
_publ_section_title
;
Structure prediction by ZEFSAII (Michael W. Deem and Ramdas Pophale) SiO2 
 PCOD8189324
Probable space group: I M M 2
;
_chemical_formula_sum "Si O2"
_cell_formula_units_Z 64
_cell_length_a 8.894496
_cell_length_b 20.651862
_cell_length_c 19.540120
_cell_angle_alpha 90.000000
_cell_angle_beta 90.000000
_cell_angle_gamma 90.000000
_cell_volume 3589.283686
_symmetry_space_group_name_H-M "I M M 2"
_symmetry_group_IT_number 44
_symmetry_cell_setting 'orthorhombic'
loop_
_space_group_symop_operation_xyz
x,y,z
-x,-y,z
-x,y,z
x,-y,z
1/2+x,1/2+y,1/2+z
1/2-x,1/2-y,1/2+z
1/2-x,1/2+y,1/2+z
1/2+x,1/2-y,1/2+z
loop_
_atom_site_type_symbol
_atom_site_label
_atom_site_fract_x
_atom_site_fract_y
_atom_site_fract_z
Si Si1 0.825904 0.234076 0.196830
Si Si2 0.670379 0.378727 0.050523
Si Si3 0.675013 0.311702 0.844865
Si Si4 0.826368 0.131667 0.701402
Si Si5 0.826469 0.425759 0.920532
Si Si6 0.178628 0.807290 0.923050
Si Si7 0.172914 0.726074 0.558478
Si Si8 0.823697 0.070293 0.840957
O O1 0.793050 0.191011 0.263852
O O2 0.777963 0.306812 0.214203
O O3 0.733520 0.205228 0.132985
O O4 0.000000 0.233477 0.176918
O O5 0.500000 0.396459 0.029917
O O6 0.706487 0.401627 0.128014
O O7 0.696189 0.302067 0.046500
O O8 0.781994 0.414908 0.999578
O O9 0.500000 0.302752 0.861623
O O10 0.727994 0.381686 0.870427
O O11 0.761812 0.256124 0.885312
O O12 0.790633 0.080500 0.760536
O O13 0.000000 0.155654 0.703229
O O14 0.796617 0.500000 0.900437
O O15 0.000000 0.407101 0.911940
O O16 0.244901 0.871301 0.885604
O O17 0.000000 0.804985 0.920422
O O18 0.233836 0.811600 0.000918
O O19 0.000000 0.705738 0.553372
O O20 0.000000 0.068921 0.854279
O O21 0.754421 0.000000 0.861397
#
# Coordination Sequence:
#
# PCOD8189324 Si02
#       8
#     8   8   8   8   8   8   8   8
#     4  10  20  33  53  81 110 137 174 222 271 321
#     4   9  18  31  50  76 106 142 179 219 262 316
#     4  11  22  36  56  81 108 141 180 224 271 324
#     4   9  17  31  51  76 106 143 184 219 260 312
#     4  11  24  38  53  76 107 144 184 226 272 323
#     4  11  20  32  56  82 107 143 183 226 271 314
#     4  10  20  34  54  80 110 139 176 223 271 322
#     4   9  18  32  51  78 110 144 183 223 264 315
#
# _framework density 17.830857000000002
#
# number of rings (size 3 to 8) (size 9 to 14) (size 15 to 20)
#    0.000    2.000    2.500    2.625    0.000    5.000 
#    0.000    1.250    0.000    4.125    0.000    1.750 
#    0.000    0.000    0.000    0.000    0.000    0.000 
#
# Total GULP energy -396801.368444 kJ/mol
# GULP energy per Si atom -12400.042764 kJ/mol
# Density = 1.779027 g / cm^3
# Si number density = 17.830857 Si / 1000 Ang^3
#
#
#
# Elastic Constant Matrix: (Units=GPa)
#
#
# Indices 1 2 3 4 5 6 
#
# 1 74.7244 31.9455 47.6751 0.0000 0.0000 0.0000
# 2 31.9455 87.6210 55.6971 0.0000 0.0000 0.0000
# 3 47.6751 55.6971 112.8787 0.0000 0.0000 0.0000
# 4 0.0000 0.0000 0.0000 20.2223 0.0000 0.0000
# 5 0.0000 0.0000 0.0000 0.0000 29.5015 0.0000
# 6 0.0000 0.0000 0.0000 0.0000 0.0000 13.2364
#
#
#
# Elastic Compliance Matrix: (Units=1/GPa)
#
#
# Indices 1 2 3 4 5 6 
#
# 1 0.018723 -0.002622 -0.006614 0.000000 0.000000 0.000000
# 2 -0.002622 0.016995 -0.007279 0.000000 0.000000 0.000000
# 3 -0.006614 -0.007279 0.015244 0.000000 0.000000 0.000000
# 4 0.000000 0.000000 0.000000 0.049450 0.000000 0.000000
# 5 0.000000 0.000000 0.000000 0.000000 0.033897 0.000000
# 6 0.000000 0.000000 0.000000 0.000000 0.000000 0.075549
#
#
# Mechanical properties :
#
#
# Convention : Reuss Voigt Hill
#
# Bulk Modulus (GPa) = 55.76183 60.65106 58.20644
# Shear Modulus (GPa) = 20.09110 21.91912 21.00511
#
# Velocity S-wave (km/s) = 3.36037 3.50991 3.43595
# Velocity P-wave (km/s) = 6.81151 7.10735 6.96100
#
# Compressibility (1/GPa) = 0.01793341
#
# Stress axis : x y z
#
# Youngs Moduli (GPa) = 53.40928 58.83946 65.59944
#
# Poissons Ratio (x) = 0.15427 0.43389
# Poissons Ratio (y) = 0.14003 0.47747
# Poissons Ratio (z) = 0.35326 0.42827
#
# Static dielectric constant tensor:
#      x y z
#    x 3.271910 0.000000 0.000000 
#    y 0.000000 3.194640 0.000000 
#    z 0.000000 0.000000 3.533160 
# 
# 
# High freq. dielectric constant tensor:
#      x y z
#    x 1.686870 0.000000 0.000000 
#    y 0.000000 1.660870 0.000000 
#    z 0.000000 0.000000 1.698800 
# 
# From -- ./inp_files/20749.got.cif
#   From: 2010.03.12/outbox.cif.g09.slc.cpg/sg44_11_cif.got.tgz:20749.got - 2010.04.14 02:36:11.
