data_PCOD8189439
_publ_section_title
;
Structure prediction by ZEFSAII (Michael W. Deem and Ramdas Pophale) SiO2 
 PCOD8189439
Probable space group: I M M 2
;
_chemical_formula_sum "Si O2"
_cell_formula_units_Z 64
_cell_length_a 19.453529
_cell_length_b 20.699581
_cell_length_c 8.839974
_cell_angle_alpha 90.000000
_cell_angle_beta 90.000000
_cell_angle_gamma 90.000000
_cell_volume 3559.679840
_symmetry_space_group_name_H-M "I M M 2"
_symmetry_group_IT_number 44
_symmetry_cell_setting 'orthorhombic'
loop_
_space_group_symop_operation_xyz
x,y,z
-x,-y,z
-x,y,z
x,-y,z
1/2+x,1/2+y,1/2+z
1/2-x,1/2-y,1/2+z
1/2-x,1/2+y,1/2+z
1/2+x,1/2-y,1/2+z
loop_
_atom_site_type_symbol
_atom_site_label
_atom_site_fract_x
_atom_site_fract_y
_atom_site_fract_z
Si Si1 0.924013 0.364498 0.280740
Si Si2 0.289602 0.689789 0.786617
Si Si3 0.714733 0.072772 0.434440
Si Si4 0.577664 0.269093 0.932632
Si Si5 0.214733 0.572772 0.283592
Si Si6 0.575988 0.864495 0.437295
Si Si7 0.210398 0.189788 0.931414
Si Si8 0.077664 0.769096 0.785403
O O1 0.909668 0.305607 0.393308
O O2 0.867139 0.419094 0.310126
O O3 0.000000 0.394178 0.309923
O O4 0.918386 0.337885 0.109020
O O5 0.256214 0.621930 0.830774
O O6 0.368670 0.687199 0.840864
O O7 0.249998 0.750000 0.859013
O O8 0.286328 0.699008 0.609015
O O9 0.733529 0.086021 0.609016
O O10 0.632860 0.080909 0.407903
O O11 0.734445 0.000000 0.387383
O O12 0.500000 0.289860 0.888416
O O13 0.591370 0.278705 0.109016
O O14 0.234447 0.500000 0.330648
O O15 0.256211 0.621931 0.387260
O O16 0.500000 0.894173 0.408107
O O17 0.590334 0.805602 0.324734
O O18 0.131330 0.187194 0.877167
O O19 0.000000 0.789862 0.829621
#
# Coordination Sequence:
#
# PCOD8189439 Si02
#       8
#     8   8   8   8   8   8   8   8
#     4   9  17  30  50  77 110 148 186 222 263 318
#     4  12  23  36  57  82 110 146 188 232 278 325
#     4  10  21  36  54  79 113 151 188 228 276 329
#     4  10  20  34  55  83 112 141 177 226 281 332
#     4  10  21  36  54  79 113 151 188 228 276 329
#     4   9  17  30  50  77 110 148 186 222 263 318
#     4  12  23  36  57  82 110 146 188 232 278 325
#     4  10  20  34  55  83 112 141 177 226 281 332
#
# _framework density 17.979146
#
# number of rings (size 3 to 8) (size 9 to 14) (size 15 to 20)
#    0.000    1.750    2.500    3.000    0.000    2.500 
#    0.000    2.500    0.000    0.750    0.000   10.500 
#    0.000    0.000    0.000    0.000    0.000    0.000 
#
# Total GULP energy -396800.976388 kJ/mol
# GULP energy per Si atom -12400.030512 kJ/mol
# Density = 1.793822 g / cm^3
# Si number density = 17.979146 Si / 1000 Ang^3
#
#
#
# Elastic Constant Matrix: (Units=GPa)
#
#
# Indices 1 2 3 4 5 6 
#
# 1 117.8152 56.2158 59.4728 0.0000 0.0000 0.0000
# 2 56.2158 93.3566 47.4006 0.0000 0.0000 0.0000
# 3 59.4728 47.4006 108.1144 0.0000 0.0000 0.0000
# 4 0.0000 0.0000 0.0000 25.5709 0.0000 0.0000
# 5 0.0000 0.0000 0.0000 0.0000 27.8906 0.0000
# 6 0.0000 0.0000 0.0000 0.0000 0.0000 24.5638
#
#
#
# Elastic Compliance Matrix: (Units=1/GPa)
#
#
# Indices 1 2 3 4 5 6 
#
# 1 0.013778 -0.005722 -0.005070 0.000000 0.000000 0.000000
# 2 -0.005722 0.016155 -0.003935 0.000000 0.000000 0.000000
# 3 -0.005070 -0.003935 0.013764 0.000000 0.000000 0.000000
# 4 0.000000 0.000000 0.000000 0.039107 0.000000 0.000000
# 5 0.000000 0.000000 0.000000 0.000000 0.035854 0.000000
# 6 0.000000 0.000000 0.000000 0.000000 0.000000 0.040710
#
#
# Mechanical properties :
#
#
# Convention : Reuss Voigt Hill
#
# Bulk Modulus (GPa) = 70.21654 71.71829 70.96741
# Shear Modulus (GPa) = 25.83034 26.01819 25.92426
#
# Velocity S-wave (km/s) = 3.79447 3.80824 3.80136
# Velocity P-wave (km/s) = 7.63784 7.70151 7.66974
#
# Compressibility (1/GPa) = 0.01424166
#
# Stress axis : x y z
#
# Youngs Moduli (GPa) = 72.58177 61.89917 72.65360
#
# Poissons Ratio (x) = 0.35419 0.36837
# Poissons Ratio (y) = 0.41531 0.28592
# Poissons Ratio (z) = 0.36801 0.24360
#
# Static dielectric constant tensor:
#      x y z
#    x 3.670020 0.000000 0.000000 
#    y 0.000000 2.998030 0.000000 
#    z 0.000000 0.000000 3.355800 
# 
# 
# High freq. dielectric constant tensor:
#      x y z
#    x 1.707690 0.000000 0.000000 
#    y 0.000000 1.659230 0.000000 
#    z 0.000000 0.000000 1.699050 
# 
# From -- ./inp_files/8447.got.cif
#   From: 2010.03.12/outbox.cif.g09.slc.cpg/sg44_5_cif.got.tgz:8447.got - 2010.04.14 02:36:11.
