data_PCOD8189797
_publ_section_title
;
Structure prediction by ZEFSAII (Michael W. Deem and Ramdas Pophale) SiO2 
 PCOD8189797
Probable space group: I M M 2
;
_chemical_formula_sum "Si O2"
_cell_formula_units_Z 40
_cell_length_a 18.669200
_cell_length_b 11.167055
_cell_length_c 8.956812
_cell_angle_alpha 90.000000
_cell_angle_beta 90.000000
_cell_angle_gamma 90.000000
_cell_volume 1867.316015
_symmetry_space_group_name_H-M "I M M 2"
_symmetry_group_IT_number 44
_symmetry_cell_setting 'orthorhombic'
loop_
_space_group_symop_operation_xyz
x,y,z
-x,-y,z
-x,y,z
x,-y,z
1/2+x,1/2+y,1/2+z
1/2-x,1/2-y,1/2+z
1/2-x,1/2+y,1/2+z
1/2+x,1/2-y,1/2+z
loop_
_atom_site_type_symbol
_atom_site_label
_atom_site_fract_x
_atom_site_fract_y
_atom_site_fract_z
Si Si1 0.082737 0.751900 0.899890
Si Si2 0.195535 0.639605 0.698067
Si Si3 0.820305 0.215066 0.410763
Si Si4 0.414727 0.500000 0.880263
Si Si5 0.084596 0.000000 0.031717
Si Si6 0.421596 0.138540 0.707763
O O1 0.122188 0.697332 0.757755
O O2 0.114485 0.881988 0.948738
O O3 0.000000 0.763903 0.855409
O O4 0.095587 0.660523 0.035091
O O5 0.184802 0.500000 0.658350
O O6 0.214367 0.715482 0.550343
O O7 0.256655 0.652115 0.821473
O O8 0.859495 0.310893 0.308639
O O9 0.879049 0.115592 0.458517
O O10 0.500000 0.500000 0.906178
O O11 0.391993 0.500000 0.705027
O O12 0.000000 0.000000 0.027324
O O13 0.500000 0.197574 0.744183
O O14 0.425388 0.000000 0.740273
#
# Coordination Sequence:
#
# PCOD8189797 Si02
#       6
#     8   8   8   4   4   8
#     4  10  21  40  68  98 133 177 221 274 335 401
#     4  12  28  47  65  95 137 177 227 279 342 405
#     4  12  25  45  67  97 131 181 224 280 340 406
#     4  11  22  43  75 105 136 174 227 291 341 395
#     4   9  18  37  69 103 133 170 219 277 330 389
#     4  10  20  38  66  99 132 172 221 268 330 409
#
# _framework density 21.421122
#
# number of rings (size 3 to 8) (size 9 to 14) (size 15 to 20)
#    0.000    1.200    3.000    3.000    0.000    3.600 
#    5.400    1.000    0.000    0.000    0.000    0.000 
#    0.000    0.000    0.000    0.000    0.000    0.000 
#
# Total GULP energy -248039.885581 kJ/mol
# GULP energy per Si atom -12401.994279 kJ/mol
# Density = 2.137237 g / cm^3
# Si number density = 21.421122 Si / 1000 Ang^3
#
#
#
# Elastic Constant Matrix: (Units=GPa)
#
#
# Indices 1 2 3 4 5 6 
#
# 1 85.6343 37.0476 26.5955 0.0000 0.0000 0.0000
# 2 37.0476 129.0250 29.7172 0.0000 0.0000 0.0000
# 3 26.5955 29.7172 61.5400 0.0000 0.0000 0.0000
# 4 0.0000 0.0000 0.0000 33.5198 0.0000 0.0000
# 5 0.0000 0.0000 0.0000 0.0000 34.2091 0.0000
# 6 0.0000 0.0000 0.0000 0.0000 0.0000 30.0866
#
#
#
# Elastic Compliance Matrix: (Units=1/GPa)
#
#
# Indices 1 2 3 4 5 6 
#
# 1 0.014486 -0.003058 -0.004784 0.000000 0.000000 0.000000
# 2 -0.003058 0.009366 -0.003201 0.000000 0.000000 0.000000
# 3 -0.004784 -0.003201 0.019863 0.000000 0.000000 0.000000
# 4 0.000000 0.000000 0.000000 0.029833 0.000000 0.000000
# 5 0.000000 0.000000 0.000000 0.000000 0.029232 0.000000
# 6 0.000000 0.000000 0.000000 0.000000 0.000000 0.033237
#
#
# Mechanical properties :
#
#
# Convention : Reuss Voigt Hill
#
# Bulk Modulus (GPa) = 46.23381 51.43554 48.83467
# Shear Modulus (GPa) = 30.24579 31.75239 30.99909
#
# Velocity S-wave (km/s) = 3.76168 3.85423 3.80824
# Velocity P-wave (km/s) = 6.36374 6.62348 6.49491
#
# Compressibility (1/GPa) = 0.02162919
#
# Stress axis : x y z
#
# Youngs Moduli (GPa) = 69.03164 106.77261 50.34522
#
# Poissons Ratio (x) = 0.32647 0.24085
# Poissons Ratio (y) = 0.21107 0.16117
# Poissons Ratio (z) = 0.33024 0.34180
#
# Static dielectric constant tensor:
#      x y z
#    x 3.993230 0.000000 0.000000 
#    y 0.000000 4.128310 0.000000 
#    z 0.000000 0.000000 3.651670 
# 
# 
# High freq. dielectric constant tensor:
#      x y z
#    x 1.843860 0.000000 0.000000 
#    y 0.000000 1.856600 0.000000 
#    z 0.000000 0.000000 1.818950 
# 
# From -- ./inp_files/8781.got.cif
#   From: 2010.03.12/outbox.cif.g09.slc.cpg/sg44_5_cif.got.tgz:8781.got - 2010.04.14 02:36:11.
