data_PCOD8189015
_publ_section_title
;
Structure prediction by ZEFSAII (Michael W. Deem and Ramdas Pophale) SiO2 
 PCOD8189015
Probable space group: I M M 2
;
_chemical_formula_sum "Si O2"
_cell_formula_units_Z 64
_cell_length_a 24.414631
_cell_length_b 8.924134
_cell_length_c 15.206425
_cell_angle_alpha 90.000000
_cell_angle_beta 90.000000
_cell_angle_gamma 90.000000
_cell_volume 3313.167342
_symmetry_space_group_name_H-M "I M M 2"
_symmetry_group_IT_number 44
_symmetry_cell_setting 'orthorhombic'
loop_
_space_group_symop_operation_xyz
x,y,z
-x,-y,z
-x,y,z
x,-y,z
1/2+x,1/2+y,1/2+z
1/2-x,1/2-y,1/2+z
1/2-x,1/2+y,1/2+z
1/2+x,1/2-y,1/2+z
loop_
_atom_site_type_symbol
_atom_site_label
_atom_site_fract_x
_atom_site_fract_y
_atom_site_fract_z
Si Si1 0.061371 0.677838 0.058180
Si Si2 0.641345 0.824752 0.052941
Si Si3 0.236191 0.173909 0.012887
Si Si4 0.644788 0.177350 0.410849
Si Si5 0.158108 0.826278 0.734111
Si Si6 0.063705 0.170832 0.417844
Si Si7 0.603584 0.172689 0.747564
Si Si8 0.279635 0.169924 0.688812
O O1 0.061897 0.500000 0.055047
O O2 0.083820 0.730893 0.152489
O O3 0.000000 0.740439 0.043900
O O4 0.100275 0.739674 0.980651
O O5 0.633499 0.738127 0.144225
O O6 0.636787 0.000000 0.072747
O O7 0.699634 0.785409 0.008799
O O8 0.594524 0.775991 0.986401
O O9 0.205129 0.266925 0.938094
O O10 0.225475 0.000000 0.995377
O O11 0.212716 0.217220 0.108166
O O12 0.629656 0.242809 0.315518
O O13 0.644479 0.000000 0.405497
O O14 0.223469 0.797603 0.740097
O O15 0.143306 0.000000 0.738989
O O16 0.074745 0.224997 0.319225
O O17 0.000000 0.184723 0.438842
O O18 0.083931 0.000000 0.427482
O O19 0.669465 0.191210 0.754988
O O20 0.586427 0.000000 0.762997
O O21 0.279815 0.000000 0.650734
#
# Coordination Sequence:
#
# PCOD8189015 Si02
#       8
#     8   8   8   8   8   8   8   8
#     4   9  18  34  57  83 112 149 193 239 281 327
#     4  10  22  41  63  86 112 150 199 243 293 355
#     4  10  20  34  55  84 117 149 186 235 289 348
#     4  11  21  35  56  84 118 155 198 241 285 345
#     4  10  21  37  58  85 121 155 189 240 297 347
#     4  11  25  42  59  85 119 153 194 246 302 353
#     4  10  19  35  59  86 116 153 196 237 284 346
#     4   9  18  34  55  82 115 150 188 230 280 342
#
# _framework density 19.316862
#
# number of rings (size 3 to 8) (size 9 to 14) (size 15 to 20)
#    0.000    2.000    1.250    2.250    1.750    4.000 
#    0.000    0.625    0.000    4.500    0.000    0.000 
#    0.000    0.000    0.000    0.000    0.000    0.000 
#
# Total GULP energy -396896.731489 kJ/mol
# GULP energy per Si atom -12403.022859 kJ/mol
# Density = 1.927290 g / cm^3
# Si number density = 19.316862 Si / 1000 Ang^3
#
#
#
# Elastic Constant Matrix: (Units=GPa)
#
#
# Indices 1 2 3 4 5 6 
#
# 1 81.0715 28.6053 48.7698 0.0000 0.0000 0.0000
# 2 28.6053 70.3967 41.7980 0.0000 0.0000 0.0000
# 3 48.7698 41.7980 123.3856 0.0000 0.0000 0.0000
# 4 0.0000 0.0000 0.0000 36.6559 0.0000 0.0000
# 5 0.0000 0.0000 0.0000 0.0000 27.8543 0.0000
# 6 0.0000 0.0000 0.0000 0.0000 0.0000 22.9593
#
#
#
# Elastic Compliance Matrix: (Units=1/GPa)
#
#
# Indices 1 2 3 4 5 6 
#
# 1 0.016892 -0.003630 -0.005447 0.000000 0.000000 0.000000
# 2 -0.003630 0.018562 -0.004853 0.000000 0.000000 0.000000
# 3 -0.005447 -0.004853 0.011902 0.000000 0.000000 0.000000
# 4 0.000000 0.000000 0.000000 0.027281 0.000000 0.000000
# 5 0.000000 0.000000 0.000000 0.000000 0.035901 0.000000
# 6 0.000000 0.000000 0.000000 0.000000 0.000000 0.043555
#
#
# Mechanical properties :
#
#
# Convention : Reuss Voigt Hill
#
# Bulk Modulus (GPa) = 51.29427 57.02221 54.15824
# Shear Modulus (GPa) = 26.53188 27.87261 27.20225
#
# Velocity S-wave (km/s) = 3.71011 3.80269 3.75669
# Velocity P-wave (km/s) = 6.70559 6.99029 6.84942
#
# Compressibility (1/GPa) = 0.01949535
#
# Stress axis : x y z
#
# Youngs Moduli (GPa) = 59.19800 53.87414 84.02031
#
# Poissons Ratio (x) = 0.19555 0.45769
# Poissons Ratio (y) = 0.21488 0.40777
# Poissons Ratio (z) = 0.32247 0.26146
#
# Static dielectric constant tensor:
#      x y z
#    x 3.587780 0.000000 0.000000 
#    y 0.000000 3.439270 0.000000 
#    z 0.000000 0.000000 3.459460 
# 
# 
# High freq. dielectric constant tensor:
#      x y z
#    x 1.744260 0.000000 0.000000 
#    y 0.000000 1.744380 0.000000 
#    z 0.000000 0.000000 1.750370 
# 
# From -- ./inp_files/16785.got.cif
#   From: 2010.03.12/outbox.cif.g09.slc.cpg/sg44_9_cif.got.tgz:16785.got - 2010.04.14 02:36:11.
