data_PCOD8189109
_publ_section_title
;
Structure prediction by ZEFSAII (Michael W. Deem and Ramdas Pophale) SiO2 
 PCOD8189109
Probable space group: I M M 2
;
_chemical_formula_sum "Si O2"
_cell_formula_units_Z 40
_cell_length_a 7.519126
_cell_length_b 11.750983
_cell_length_c 23.353255
_cell_angle_alpha 90.000000
_cell_angle_beta 90.000000
_cell_angle_gamma 90.000000
_cell_volume 2063.426396
_symmetry_space_group_name_H-M "I M M 2"
_symmetry_group_IT_number 44
_symmetry_cell_setting 'orthorhombic'
loop_
_space_group_symop_operation_xyz
x,y,z
-x,-y,z
-x,y,z
x,-y,z
1/2+x,1/2+y,1/2+z
1/2-x,1/2-y,1/2+z
1/2-x,1/2+y,1/2+z
1/2+x,1/2-y,1/2+z
loop_
_atom_site_type_symbol
_atom_site_label
_atom_site_fract_x
_atom_site_fract_y
_atom_site_fract_z
Si Si1 0.790417 0.628266 0.695400
Si Si2 0.700483 0.209026 0.791781
Si Si3 0.286612 0.749573 0.078863
Si Si4 0.000000 0.135474 0.871539
Si Si5 0.305279 0.500000 0.090018
Si Si6 0.706786 0.000000 0.714129
Si Si7 0.500000 0.632222 0.504987
O O1 0.718450 0.500000 0.686725
O O2 0.713870 0.674706 0.755488
O O3 0.728458 0.704563 0.641456
O O4 0.000000 0.629137 0.699850
O O5 0.500000 0.192482 0.814353
O O6 0.827819 0.200489 0.846519
O O7 0.761595 0.109790 0.749594
O O8 0.500000 0.761189 0.070151
O O9 0.214692 0.619118 0.071716
O O10 0.182539 0.819402 0.031063
O O11 0.000000 0.160416 0.938372
O O12 0.000000 0.000000 0.858490
O O13 0.500000 0.500000 0.062481
O O14 0.326411 0.500000 0.158241
O O15 0.500000 0.000000 0.696984
O O16 0.500000 0.500000 0.517521
#
# Coordination Sequence:
#
# PCOD8189109 Si02
#       7
#     8   8   8   4   4   4   4
#     4  10  20  34  57  90 127 163 193 237 306 368
#     4  11  22  36  59  90 120 154 196 244 303 360
#     4  10  22  39  60  91 126 156 201 256 300 363
#     4  11  24  42  64  86 120 158 205 258 301 351
#     4  10  20  32  60  94 122 160 192 239 320 362
#     4  10  20  30  52  94 124 148 182 235 306 366
#     4  11  26  43  63  89 115 168 214 245 304 368
#
# _framework density 19.385234000000001
#
# number of rings (size 3 to 8) (size 9 to 14) (size 15 to 20)
#    0.000    1.600    4.000    0.600    4.200    2.400 
#    0.000    2.000    4.400    0.000    0.000    0.000 
#    0.000    0.000    0.000    0.000    0.000    0.000 
#
# Total GULP energy -247940.031269 kJ/mol
# GULP energy per Si atom -12397.001563 kJ/mol
# Density = 1.934111 g / cm^3
# Si number density = 19.385234 Si / 1000 Ang^3
#
#
#
# Elastic Constant Matrix: (Units=GPa)
#
#
# Indices 1 2 3 4 5 6 
#
# 1 84.1146 36.4938 52.1406 0.0000 0.0000 0.0000
# 2 36.4938 142.7808 58.2507 0.0000 0.0000 0.0000
# 3 52.1406 58.2507 114.4322 0.0000 0.0000 0.0000
# 4 0.0000 0.0000 0.0000 25.1339 0.0000 0.0000
# 5 0.0000 0.0000 0.0000 0.0000 20.3477 0.0000
# 6 0.0000 0.0000 0.0000 0.0000 0.0000 16.8915
#
#
#
# Elastic Compliance Matrix: (Units=1/GPa)
#
#
# Indices 1 2 3 4 5 6 
#
# 1 0.016812 -0.001479 -0.006907 0.000000 0.000000 0.000000
# 2 -0.001479 0.008970 -0.003892 0.000000 0.000000 0.000000
# 3 -0.006907 -0.003892 0.013867 0.000000 0.000000 0.000000
# 4 0.000000 0.000000 0.000000 0.039787 0.000000 0.000000
# 5 0.000000 0.000000 0.000000 0.000000 0.049146 0.000000
# 6 0.000000 0.000000 0.000000 0.000000 0.000000 0.059201
#
#
# Mechanical properties :
#
#
# Convention : Reuss Voigt Hill
#
# Bulk Modulus (GPa) = 66.26005 70.56642 68.41323
# Shear Modulus (GPa) = 23.00224 25.43746 24.21985
#
# Velocity S-wave (km/s) = 3.44842 3.62637 3.53852
# Velocity P-wave (km/s) = 7.07887 7.34951 7.21546
#
# Compressibility (1/GPa) = 0.01509205
#
# Stress axis : x y z
#
# Youngs Moduli (GPa) = 59.48141 111.48777 72.11187
#
# Poissons Ratio (x) = 0.16489 0.49811
# Poissons Ratio (y) = 0.08797 0.28066
# Poissons Ratio (z) = 0.41086 0.43391
#
# Static dielectric constant tensor:
#      x y z
#    x 3.448880 0.000000 0.000000 
#    y 0.000000 3.841530 0.000000 
#    z 0.000000 0.000000 3.241690 
# 
# 
# High freq. dielectric constant tensor:
#      x y z
#    x 1.760300 0.000000 0.000000 
#    y 0.000000 1.763720 0.000000 
#    z 0.000000 0.000000 1.719820 
# 
# From -- ./inp_files/22839.got.cif
#   From: 2010.03.12/outbox.cif.g09.slc.cpg/sg44_12_cif.got.tgz:22839.got - 2010.04.14 02:36:11.
