data_PCOD8189575
_publ_section_title
;
Structure prediction by ZEFSAII (Michael W. Deem and Ramdas Pophale) SiO2 
 PCOD8189575
Probable space group: I M M 2
;
_chemical_formula_sum "Si O2"
_cell_formula_units_Z 64
_cell_length_a 25.520009
_cell_length_b 14.644118
_cell_length_c 8.616539
_cell_angle_alpha 90.000000
_cell_angle_beta 90.000000
_cell_angle_gamma 90.000000
_cell_volume 3220.155922
_symmetry_space_group_name_H-M "I M M 2"
_symmetry_group_IT_number 44
_symmetry_cell_setting 'orthorhombic'
loop_
_space_group_symop_operation_xyz
x,y,z
-x,-y,z
-x,y,z
x,-y,z
1/2+x,1/2+y,1/2+z
1/2-x,1/2-y,1/2+z
1/2-x,1/2+y,1/2+z
1/2+x,1/2-y,1/2+z
loop_
_atom_site_type_symbol
_atom_site_label
_atom_site_fract_x
_atom_site_fract_y
_atom_site_fract_z
Si Si1 0.249430 0.400529 0.961900
Si Si2 0.868603 0.744177 0.330647
Si Si3 0.209135 0.853490 0.141941
Si Si4 0.115880 0.898601 0.924364
Si Si5 0.639557 0.105532 0.383816
Si Si6 0.318865 0.894105 0.047051
Si Si7 0.560789 0.768342 0.554634
Si Si8 0.144998 0.109055 0.578626
O O1 0.235787 0.500000 0.026244
O O2 0.274256 0.414764 0.789661
O O3 0.193192 0.349075 0.957960
O O4 0.293748 0.357968 0.073433
O O5 0.820497 0.765390 0.212618
O O6 0.854037 0.650493 0.414467
O O7 0.920536 0.722270 0.232050
O O8 0.883006 0.828855 0.446927
O O9 0.264322 0.835922 0.053703
O O10 0.169661 0.901780 0.022080
O O11 0.125164 0.864760 0.748323
O O12 0.092178 0.000000 0.921511
O O13 0.072197 0.834506 0.999198
O O14 0.645799 0.114412 0.200067
O O15 0.589990 0.161282 0.441566
O O16 0.632391 0.000000 0.431366
O O17 0.306525 0.000000 0.008425
O O18 0.500000 0.790624 0.544401
O O19 0.138880 0.000000 0.542200
#
# Coordination Sequence:
#
# PCOD8189575 Si02
#       8
#     8   8   8   8   8   8   8   8
#     4   8  14  28  51  81 116 146 169 200 251 319
#     4  10  22  36  55  81 113 152 191 227 273 330
#     4   9  18  31  52  83 120 153 178 208 254 322
#     4  10  20  35  57  85 114 145 183 224 271 330
#     4   9  19  37  60  84 111 144 182 224 273 329
#     4  10  20  36  58  87 122 153 181 219 271 334
#     4  11  25  42  58  76 101 140 192 247 292 328
#     4   9  18  33  56  87 120 149 177 215 267 334
#
# _framework density 19.874815000000002
#
# number of rings (size 3 to 8) (size 9 to 14) (size 15 to 20)
#    0.000    2.500    0.000    2.625    0.000   12.500 
#    0.000    3.750    0.000    1.500    0.000    0.000 
#    0.000    0.000    0.000    0.000    0.000    0.000 
#
# Total GULP energy -396461.623964 kJ/mol
# GULP energy per Si atom -12389.425749 kJ/mol
# Density = 1.982958 g / cm^3
# Si number density = 19.874815 Si / 1000 Ang^3
#
#
#
# Elastic Constant Matrix: (Units=GPa)
#
#
# Indices 1 2 3 4 5 6 
#
# 1 111.4319 22.2203 31.9825 0.0000 0.0000 0.0000
# 2 22.2203 54.0054 21.7707 0.0000 0.0000 0.0000
# 3 31.9825 21.7707 76.0716 0.0000 0.0000 0.0000
# 4 0.0000 0.0000 0.0000 28.4245 0.0000 0.0000
# 5 0.0000 0.0000 0.0000 0.0000 22.7609 0.0000
# 6 0.0000 0.0000 0.0000 0.0000 0.0000 16.4921
#
#
#
# Elastic Compliance Matrix: (Units=1/GPa)
#
#
# Indices 1 2 3 4 5 6 
#
# 1 0.010592 -0.002897 -0.003624 0.000000 0.000000 0.000000
# 2 -0.002897 0.021724 -0.004999 0.000000 0.000000 0.000000
# 3 -0.003624 -0.004999 0.016100 0.000000 0.000000 0.000000
# 4 0.000000 0.000000 0.000000 0.035181 0.000000 0.000000
# 5 0.000000 0.000000 0.000000 0.000000 0.043935 0.000000
# 6 0.000000 0.000000 0.000000 0.000000 0.000000 0.060635
#
#
# Mechanical properties :
#
#
# Convention : Reuss Voigt Hill
#
# Bulk Modulus (GPa) = 39.40845 43.71732 41.56289
# Shear Modulus (GPa) = 22.76188 24.57118 23.66653
#
# Velocity S-wave (km/s) = 3.38784 3.51992 3.45451
# Velocity P-wave (km/s) = 5.93083 6.20998 6.07201
#
# Compressibility (1/GPa) = 0.02537527
#
# Stress axis : x y z
#
# Youngs Moduli (GPa) = 94.41144 46.03225 62.11248
#
# Poissons Ratio (x) = 0.13336 0.22510
# Poissons Ratio (y) = 0.27352 0.31050
# Poissons Ratio (z) = 0.34215 0.23012
#
# Static dielectric constant tensor:
#      x y z
#    x 3.250250 0.000000 0.000000 
#    y 0.000000 3.487730 0.000000 
#    z 0.000000 0.000000 3.672410 
# 
# 
# High freq. dielectric constant tensor:
#      x y z
#    x 1.730090 0.000000 0.000000 
#    y 0.000000 1.775510 0.000000 
#    z 0.000000 0.000000 1.779990 
# 
# From -- ./inp_files/9472.got.cif
#   From: 2010.03.12/outbox.cif.g09.slc.cpg/sg44_5_cif.got.tgz:9472.got - 2010.04.14 02:36:11.
