data_PCOD8189991
_publ_section_title
;
Structure prediction by ZEFSAII (Michael W. Deem and Ramdas Pophale) SiO2 
 PCOD8189991
Probable space group: I M M 2
;
_chemical_formula_sum "Si O2"
_cell_formula_units_Z 40
_cell_length_a 9.250413
_cell_length_b 11.234202
_cell_length_c 18.561897
_cell_angle_alpha 90.000000
_cell_angle_beta 90.000000
_cell_angle_gamma 90.000000
_cell_volume 1928.971051
_symmetry_space_group_name_H-M "I M M 2"
_symmetry_group_IT_number 44
_symmetry_cell_setting 'orthorhombic'
loop_
_space_group_symop_operation_xyz
x,y,z
-x,-y,z
-x,y,z
x,-y,z
1/2+x,1/2+y,1/2+z
1/2-x,1/2-y,1/2+z
1/2-x,1/2+y,1/2+z
1/2+x,1/2-y,1/2+z
loop_
_atom_site_type_symbol
_atom_site_label
_atom_site_fract_x
_atom_site_fract_y
_atom_site_fract_z
Si Si1 0.666489 0.764069 0.165680
Si Si2 0.658645 0.861820 0.560341
Si Si3 0.326045 0.000000 0.910782
Si Si4 0.170262 0.500000 0.580586
Si Si5 0.158860 0.861505 0.432354
Si Si6 0.331903 0.280525 0.333086
O O1 0.500000 0.742552 0.145507
O O2 0.766254 0.657522 0.136885
O O3 0.723681 0.885890 0.127686
O O4 0.690408 0.750258 0.250093
O O5 0.500000 0.801789 0.556971
O O6 0.765380 0.801493 0.501896
O O7 0.641911 0.000000 0.544327
O O8 0.261620 0.112686 0.867427
O O9 0.500000 0.000000 0.904581
O O10 0.277415 0.000000 0.996097
O O11 0.000000 0.500000 0.580806
O O12 0.267970 0.839868 0.366903
O O13 0.000000 0.802004 0.421983
O O14 0.138023 0.000000 0.443744
O O15 0.500000 0.301775 0.351407
#
# Coordination Sequence:
#
# PCOD8189991 Si02
#       6
#     8   8   4   4   8   8
#     4  10  22  39  62  88 120 159 204 255 309 373
#     4  10  21  37  59  88 120 155 199 252 306 364
#     4  11  23  41  67  91 124 169 214 263 313 384
#     4   9  20  41  65  89 114 157 212 253 303 366
#     4  10  21  38  61  88 120 160 204 250 306 376
#     4  11  24  39  61  92 126 162 207 262 315 372
#
# _framework density 20.736445
#
# number of rings (size 3 to 8) (size 9 to 14) (size 15 to 20)
#    0.000    1.800    0.000    3.300    2.800    5.600 
#    0.000    1.500    0.000    0.000    0.000    0.000 
#    0.000    0.000    0.000    0.000    0.000    0.000 
#
# Total GULP energy -247780.955178 kJ/mol
# GULP energy per Si atom -12389.047759 kJ/mol
# Density = 2.068925 g / cm^3
# Si number density = 20.736445 Si / 1000 Ang^3
#
#
#
# Elastic Constant Matrix: (Units=GPa)
#
#
# Indices 1 2 3 4 5 6 
#
# 1 144.3971 37.4015 94.8871 0.0000 0.0000 0.0000
# 2 37.4015 50.8921 43.1034 0.0000 0.0000 0.0000
# 3 94.8871 43.1034 143.7915 0.0000 0.0000 0.0000
# 4 0.0000 0.0000 0.0000 37.4241 0.0000 0.0000
# 5 0.0000 0.0000 0.0000 0.0000 36.4153 0.0000
# 6 0.0000 0.0000 0.0000 0.0000 0.0000 27.7119
#
#
#
# Elastic Compliance Matrix: (Units=1/GPa)
#
#
# Indices 1 2 3 4 5 6 
#
# 1 0.012552 -0.002961 -0.007395 0.000000 0.000000 0.000000
# 2 -0.002961 0.027034 -0.006150 0.000000 0.000000 0.000000
# 3 -0.007395 -0.006150 0.013678 0.000000 0.000000 0.000000
# 4 0.000000 0.000000 0.000000 0.026721 0.000000 0.000000
# 5 0.000000 0.000000 0.000000 0.000000 0.027461 0.000000
# 6 0.000000 0.000000 0.000000 0.000000 0.000000 0.036086
#
#
# Mechanical properties :
#
#
# Convention : Reuss Voigt Hill
#
# Bulk Modulus (GPa) = 49.37844 76.65162 63.01503
# Shear Modulus (GPa) = 27.27842 31.22283 29.25063
#
# Velocity S-wave (km/s) = 3.63089 3.88454 3.75986
# Velocity P-wave (km/s) = 6.43754 7.56072 7.02162
#
# Compressibility (1/GPa) = 0.02025175
#
# Stress axis : x y z
#
# Youngs Moduli (GPa) = 79.66846 36.99013 73.10925
#
# Poissons Ratio (x) = 0.10953 0.54067
# Poissons Ratio (y) = 0.23591 0.44961
# Poissons Ratio (z) = 0.58918 0.22748
#
# Static dielectric constant tensor:
#      x y z
#    x 4.101310 0.000000 0.000000 
#    y 0.000000 3.711080 0.000000 
#    z 0.000000 0.000000 3.859550 
# 
# 
# High freq. dielectric constant tensor:
#      x y z
#    x 1.818740 0.000000 0.000000 
#    y 0.000000 1.803460 0.000000 
#    z 0.000000 0.000000 1.819220 
# 
# From -- ./inp_files/22772.got.cif
#   From: 2010.03.12/outbox.cif.g09.slc.cpg/sg44_12_cif.got.tgz:22772.got - 2010.04.14 02:36:11.
