data_PCOD8189379
_publ_section_title
;
Structure prediction by ZEFSAII (Michael W. Deem and Ramdas Pophale) SiO2 
 PCOD8189379
Probable space group: I M M 2
;
_chemical_formula_sum "Si O2"
_cell_formula_units_Z 48
_cell_length_a 9.614119
_cell_length_b 7.823470
_cell_length_c 33.914696
_cell_angle_alpha 90.000000
_cell_angle_beta 90.000000
_cell_angle_gamma 90.000000
_cell_volume 2550.920027
_symmetry_space_group_name_H-M "I M M 2"
_symmetry_group_IT_number 44
_symmetry_cell_setting 'orthorhombic'
loop_
_space_group_symop_operation_xyz
x,y,z
-x,-y,z
-x,y,z
x,-y,z
1/2+x,1/2+y,1/2+z
1/2-x,1/2-y,1/2+z
1/2-x,1/2+y,1/2+z
1/2+x,1/2-y,1/2+z
loop_
_atom_site_type_symbol
_atom_site_label
_atom_site_fract_x
_atom_site_fract_y
_atom_site_fract_z
Si Si1 0.157352 0.202372 0.096590
Si Si2 0.333731 0.000000 0.886660
Si Si3 0.841720 0.690515 0.751304
Si Si4 0.157817 0.297248 0.524943
Si Si5 0.658737 0.196261 0.682048
Si Si6 0.163539 0.000000 0.807056
Si Si7 0.335496 0.689905 0.940444
O O1 0.251592 0.274125 0.061179
O O2 0.214450 0.277944 0.137651
O O3 0.000000 0.264898 0.089085
O O4 0.166428 0.000000 0.098834
O O5 0.257212 0.000000 0.845399
O O6 0.280508 0.831943 0.910015
O O7 0.500000 0.000000 0.880416
O O8 0.827222 0.500000 0.769753
O O9 0.750188 0.694898 0.712001
O O10 0.000000 0.729413 0.738825
O O11 0.793141 0.830410 0.783021
O O12 0.164976 0.500000 0.522074
O O13 0.222159 0.222442 0.484483
O O14 0.000000 0.234548 0.531473
O O15 0.500000 0.261996 0.684639
O O16 0.671008 0.000000 0.694349
O O17 0.000000 0.000000 0.817744
O O18 0.500000 0.708593 0.942777
O O19 0.290356 0.500000 0.926165
#
# Coordination Sequence:
#
# PCOD8189379 Si02
#       7
#     8   4   8   8   8   4   8
#     4   9  18  31  46  69 104 143 178 218 269 317
#     4  10  20  36  58  82 108 138 176 222 266 320
#     4  10  21  38  60  82 107 143 182 221 270 326
#     4   9  16  29  49  71  98 135 178 221 264 311
#     4  10  20  34  53  77 108 145 184 226 273 322
#     4  10  22  40  58  82 114 142 172 220 276 328
#     4   9  17  31  53  79 106 137 174 219 269 313
#
# _framework density 18.816741
#
# number of rings (size 3 to 8) (size 9 to 14) (size 15 to 20)
#    0.000    2.500    1.667    0.500    0.000    3.667 
#    0.000    2.500    0.000    1.000    0.000    0.000 
#    0.000    0.000    0.000    0.000    0.000    0.000 
#
# Total GULP energy -297582.247751 kJ/mol
# GULP energy per Si atom -12399.260323 kJ/mol
# Density = 1.877391 g / cm^3
# Si number density = 18.816741 Si / 1000 Ang^3
#
#
#
# Elastic Constant Matrix: (Units=GPa)
#
#
# Indices 1 2 3 4 5 6 
#
# 1 56.8102 30.1791 62.0293 0.0000 0.0000 0.0000
# 2 30.1791 104.4093 66.6260 0.0000 0.0000 0.0000
# 3 62.0293 66.6260 153.1714 0.0000 0.0000 0.0000
# 4 0.0000 0.0000 0.0000 25.7130 0.0000 0.0000
# 5 0.0000 0.0000 0.0000 0.0000 36.5759 0.0000
# 6 0.0000 0.0000 0.0000 0.0000 0.0000 10.2689
#
#
#
# Elastic Compliance Matrix: (Units=1/GPa)
#
#
# Indices 1 2 3 4 5 6 
#
# 1 0.031691 -0.001344 -0.012249 0.000000 0.000000 0.000000
# 2 -0.001344 0.013315 -0.005247 0.000000 0.000000 0.000000
# 3 -0.012249 -0.005247 0.013772 0.000000 0.000000 0.000000
# 4 0.000000 0.000000 0.000000 0.038891 0.000000 0.000000
# 5 0.000000 0.000000 0.000000 0.000000 0.027340 0.000000
# 6 0.000000 0.000000 0.000000 0.000000 0.000000 0.097381
#
#
# Mechanical properties :
#
#
# Convention : Reuss Voigt Hill
#
# Bulk Modulus (GPa) = 47.40117 70.22887 58.81502
# Shear Modulus (GPa) = 18.71942 24.88200 21.80071
#
# Velocity S-wave (km/s) = 3.15751 3.64033 3.40749
# Velocity P-wave (km/s) = 6.20796 7.42112 6.84148
#
# Compressibility (1/GPa) = 0.02109652
#
# Stress axis : x y z
#
# Youngs Moduli (GPa) = 31.55483 75.10585 72.61251
#
# Poissons Ratio (x) = 0.10091 0.88946
# Poissons Ratio (y) = 0.04239 0.38103
# Poissons Ratio (z) = 0.38653 0.39411
#
# Static dielectric constant tensor:
#      x y z
#    x 3.299350 0.000000 0.000000 
#    y 0.000000 3.580010 0.000000 
#    z 0.000000 0.000000 3.397330 
# 
# 
# High freq. dielectric constant tensor:
#      x y z
#    x 1.701920 0.000000 0.000000 
#    y 0.000000 1.740010 0.000000 
#    z 0.000000 0.000000 1.726400 
# 
# From -- ./inp_files/26940.got.cif
#   From: 2010.03.12/outbox.cif.g09.slc.cpg/sg44_14_cif.got.tgz:26940.got - 2010.04.14 02:36:11.
