data_PCOD8189704
_publ_section_title
;
Structure prediction by ZEFSAII (Michael W. Deem and Ramdas Pophale) SiO2 
 PCOD8189704
Probable space group: I M M 2
;
_chemical_formula_sum "Si O2"
_cell_formula_units_Z 64
_cell_length_a 31.014679
_cell_length_b 8.733012
_cell_length_c 12.060122
_cell_angle_alpha 90.000000
_cell_angle_beta 90.000000
_cell_angle_gamma 90.000000
_cell_volume 3266.502904
_symmetry_space_group_name_H-M "I M M 2"
_symmetry_group_IT_number 44
_symmetry_cell_setting 'orthorhombic'
loop_
_space_group_symop_operation_xyz
x,y,z
-x,-y,z
-x,y,z
x,-y,z
1/2+x,1/2+y,1/2+z
1/2-x,1/2-y,1/2+z
1/2-x,1/2+y,1/2+z
1/2+x,1/2-y,1/2+z
loop_
_atom_site_type_symbol
_atom_site_label
_atom_site_fract_x
_atom_site_fract_y
_atom_site_fract_z
Si Si1 0.125948 0.819772 0.318440
Si Si2 0.332664 0.318454 0.202369
Si Si3 0.797697 0.819631 0.933593
Si Si4 0.373174 0.180352 0.576944
Si Si5 0.706229 0.320343 0.974107
Si Si6 0.571467 0.682035 0.204875
Si Si7 0.951877 0.821263 0.945364
Si Si8 0.547220 0.681143 0.966802
O O1 0.126271 0.733196 0.203150
O O2 0.170201 0.783168 0.382384
O O3 0.085412 0.754224 0.389433
O O4 0.120863 0.000000 0.297101
O O5 0.334914 0.500000 0.197763
O O6 0.307642 0.259897 0.310179
O O7 0.380464 0.250899 0.208332
O O8 0.309816 0.258001 0.092266
O O9 0.748806 0.774952 0.952990
O O10 0.803809 0.000000 0.944089
O O11 0.830277 0.744890 0.020334
O O12 0.416953 0.232514 0.517388
O O13 0.370710 0.000000 0.572189
O O14 0.716930 0.500000 0.976373
O O15 0.570963 0.500000 0.200522
O O16 0.548056 0.736368 0.317452
O O17 0.549624 0.746690 0.092697
O O18 0.000000 0.791635 0.993180
O O19 0.939704 0.000000 0.950992
O O20 0.500000 0.725793 0.918241
O O21 0.553129 0.500000 0.972111
#
# Coordination Sequence:
#
# PCOD8189704 Si02
#       8
#     8   8   8   8   8   8   8   8
#     4  10  21  38  59  84 119 157 197 244 291 345
#     4   9  17  33  59  85 116 151 183 233 295 350
#     4  11  23  40  62  88 118 153 195 242 293 351
#     4  12  26  42  59  81 116 160 203 247 296 344
#     4  10  21  38  60  89 121 154 191 238 298 356
#     4   9  14  28  55  89 121 146 178 229 290 346
#     4  10  20  36  62  92 119 151 193 240 292 354
#     4   9  16  28  53  89 121 149 186 233 286 343
#
# _framework density 19.59282
#
# number of rings (size 3 to 8) (size 9 to 14) (size 15 to 20)
#    0.000    2.000    2.500    1.875    1.750    2.750 
#    0.000    1.875    0.000    0.750    0.000    0.000 
#    0.000    0.000    0.000    0.000    0.000    0.000 
#
# Total GULP energy -396706.270752 kJ/mol
# GULP energy per Si atom -12397.070961 kJ/mol
# Density = 1.954823 g / cm^3
# Si number density = 19.592820 Si / 1000 Ang^3
#
#
#
# Elastic Constant Matrix: (Units=GPa)
#
#
# Indices 1 2 3 4 5 6 
#
# 1 153.4630 40.3925 68.4632 0.0000 0.0000 0.0000
# 2 40.3925 57.0789 44.1589 0.0000 0.0000 0.0000
# 3 68.4632 44.1589 148.7784 0.0000 0.0000 0.0000
# 4 0.0000 0.0000 0.0000 9.8378 0.0000 0.0000
# 5 0.0000 0.0000 0.0000 0.0000 24.1810 0.0000
# 6 0.0000 0.0000 0.0000 0.0000 0.0000 25.4612
#
#
#
# Elastic Compliance Matrix: (Units=1/GPa)
#
#
# Indices 1 2 3 4 5 6 
#
# 1 0.008866 -0.004047 -0.002879 0.000000 0.000000 0.000000
# 2 -0.004047 0.024589 -0.005436 0.000000 0.000000 0.000000
# 3 -0.002879 -0.005436 0.009659 0.000000 0.000000 0.000000
# 4 0.000000 0.000000 0.000000 0.101649 0.000000 0.000000
# 5 0.000000 0.000000 0.000000 0.000000 0.041355 0.000000
# 6 0.000000 0.000000 0.000000 0.000000 0.000000 0.039275
#
#
# Mechanical properties :
#
#
# Convention : Reuss Voigt Hill
#
# Bulk Modulus (GPa) = 54.37375 73.92774 64.15075
# Shear Modulus (GPa) = 19.51250 25.64971 22.58111
#
# Velocity S-wave (km/s) = 3.15921 3.62213 3.39856
# Velocity P-wave (km/s) = 6.41246 7.43687 6.94358
#
# Compressibility (1/GPa) = 0.01839123
#
# Stress axis : x y z
#
# Youngs Moduli (GPa) = 112.79606 40.66867 103.52536
#
# Poissons Ratio (x) = 0.16458 0.29800
# Poissons Ratio (y) = 0.45647 0.56276
# Poissons Ratio (z) = 0.32468 0.22108
#
# Static dielectric constant tensor:
#      x y z
#    x 3.731420 0.000000 0.000000 
#    y 0.000000 3.101070 0.000000 
#    z 0.000000 0.000000 3.817940 
# 
# 
# High freq. dielectric constant tensor:
#      x y z
#    x 1.781130 0.000000 0.000000 
#    y 0.000000 1.713170 0.000000 
#    z 0.000000 0.000000 1.774950 
# 
# From -- ./inp_files/15066.got.cif
#   From: 2010.03.12/outbox.cif.g09.slc.cpg/sg44_8_cif.got.tgz:15066.got - 2010.04.14 02:36:11.
