data_PCOD8189029
_publ_section_title
;
Structure prediction by ZEFSAII (Michael W. Deem and Ramdas Pophale) SiO2 
 PCOD8189029
Probable space group: I M M 2
;
_chemical_formula_sum "Si O2"
_cell_formula_units_Z 48
_cell_length_a 8.702175
_cell_length_b 18.143409
_cell_length_c 14.824200
_cell_angle_alpha 90.000000
_cell_angle_beta 90.000000
_cell_angle_gamma 90.000000
_cell_volume 2340.550247
_symmetry_space_group_name_H-M "I M M 2"
_symmetry_group_IT_number 44
_symmetry_cell_setting 'orthorhombic'
loop_
_space_group_symop_operation_xyz
x,y,z
-x,-y,z
-x,y,z
x,-y,z
1/2+x,1/2+y,1/2+z
1/2-x,1/2-y,1/2+z
1/2-x,1/2+y,1/2+z
1/2+x,1/2-y,1/2+z
loop_
_atom_site_type_symbol
_atom_site_label
_atom_site_fract_x
_atom_site_fract_y
_atom_site_fract_z
Si Si1 0.175137 0.500000 0.500000
Si Si2 0.820311 0.269360 0.930988
Si Si3 0.678929 0.841432 0.077859
Si Si4 0.179305 0.000000 0.811665
Si Si5 0.178418 0.235070 0.236628
Si Si6 0.673996 0.581531 0.985733
Si Si7 0.325162 0.623742 0.185017
O O1 0.210552 0.426800 0.556312
O O2 0.288120 0.500000 0.416212
O O3 0.000000 0.500000 0.465096
O O4 0.768493 0.253102 0.829458
O O5 0.000000 0.255437 0.940540
O O6 0.738922 0.213299 0.999876
O O7 0.783930 0.355104 0.948398
O O8 0.500000 0.824076 0.088909
O O9 0.761453 0.831822 0.174675
O O10 0.245000 0.926515 0.765011
O O11 0.000000 0.000000 0.790996
O O12 0.212484 0.306779 0.175832
O O13 0.000000 0.224338 0.257134
O O14 0.500000 0.598810 0.953608
O O15 0.724509 0.500000 0.950447
O O16 0.681426 0.578064 0.093375
O O17 0.500000 0.650029 0.205003
#
# Coordination Sequence:
#
# PCOD8189029 Si02
#       7
#     4   8   8   4   8   8   8
#     4  10  24  42  62  89 122 163 206 257 319 369
#     4  12  25  42  65  95 127 168 214 260 314 378
#     4  11  23  44  68  92 127 166 207 265 321 378
#     4  10  20  34  58  93 126 161 202 247 307 375
#     4  12  25  41  63  93 123 165 215 261 314 377
#     4  10  20  38  64  92 127 167 205 252 313 373
#     4  10  19  35  60  90 125 162 199 249 309 373
#
# _framework density 20.507999000000002
#
# number of rings (size 3 to 8) (size 9 to 14) (size 15 to 20)
#    0.000    1.167    2.500    4.500    0.000    5.000 
#    1.500    0.000    0.000    0.000    0.000    0.000 
#    0.000    0.000    0.000    0.000    0.000    0.000 
#
# Total GULP energy -297604.701430 kJ/mol
# GULP energy per Si atom -12400.195893 kJ/mol
# Density = 2.046132 g / cm^3
# Si number density = 20.507999 Si / 1000 Ang^3
#
#
#
# Elastic Constant Matrix: (Units=GPa)
#
#
# Indices 1 2 3 4 5 6 
#
# 1 84.4267 33.1503 17.5194 0.0000 0.0000 0.0000
# 2 33.1503 124.5366 20.4575 -0.0001 0.0000 0.0000
# 3 17.5194 20.4575 69.4177 -0.0002 0.0000 0.0000
# 4 0.0000 -0.0001 -0.0002 26.2328 0.0000 0.0000
# 5 0.0000 0.0000 0.0000 0.0000 32.8055 0.0000
# 6 0.0000 0.0000 0.0000 0.0000 0.0000 20.2821
#
#
#
# Elastic Compliance Matrix: (Units=1/GPa)
#
#
# Indices 1 2 3 4 5 6 
#
# 1 0.013625 -0.003218 -0.002490 0.000000 0.000000 0.000000
# 2 -0.003218 0.009198 -0.001899 0.000000 0.000000 0.000000
# 3 -0.002490 -0.001899 0.015594 0.000000 0.000000 0.000000
# 4 0.000000 0.000000 0.000000 0.038120 0.000000 0.000000
# 5 0.000000 0.000000 0.000000 0.000000 0.030483 0.000000
# 6 0.000000 0.000000 0.000000 0.000000 0.000000 0.049305
#
#
# Mechanical properties :
#
#
# Convention : Reuss Voigt Hill
#
# Bulk Modulus (GPa) = 43.09742 46.73725 44.91734
# Shear Modulus (GPa) = 27.89061 29.68100 28.78580
#
# Velocity S-wave (km/s) = 3.69180 3.80845 3.75058
# Velocity P-wave (km/s) = 6.26363 6.49448 6.38010
#
# Compressibility (1/GPa) = 0.02320324
#
# Stress axis : x y z
#
# Youngs Moduli (GPa) = 73.39559 108.71731 64.12894
#
# Poissons Ratio (x) = 0.34982 0.15970
# Poissons Ratio (y) = 0.23616 0.12176
# Poissons Ratio (z) = 0.18278 0.20642
#
# Static dielectric constant tensor:
#      x y z
#    x 3.631340 0.000000 0.000000 
#    y 0.000000 3.842470 0.000000 
#    z 0.000000 0.000000 3.632110 
# 
# 
# High freq. dielectric constant tensor:
#      x y z
#    x 1.793420 0.000000 0.000000 
#    y 0.000000 1.813340 0.000000 
#    z 0.000000 0.000000 1.798680 
# 
# From -- ./inp_files/16135.got.cif
#   From: 2010.03.12/outbox.cif.g09.slc.cpg/sg44_9_cif.got.tgz:16135.got - 2010.04.14 02:36:11.
