data_PCOD8189374
_publ_section_title
;
Structure prediction by ZEFSAII (Michael W. Deem and Ramdas Pophale) SiO2 
 PCOD8189374
Probable space group: I M M 2
;
_chemical_formula_sum "Si O2"
_cell_formula_units_Z 64
_cell_length_a 15.799818
_cell_length_b 9.014762
_cell_length_c 23.285952
_cell_angle_alpha 90.000000
_cell_angle_beta 90.000000
_cell_angle_gamma 90.000000
_cell_volume 3316.655376
_symmetry_space_group_name_H-M "I M M 2"
_symmetry_group_IT_number 44
_symmetry_cell_setting 'orthorhombic'
loop_
_space_group_symop_operation_xyz
x,y,z
-x,-y,z
-x,y,z
x,-y,z
1/2+x,1/2+y,1/2+z
1/2-x,1/2-y,1/2+z
1/2-x,1/2+y,1/2+z
1/2+x,1/2-y,1/2+z
loop_
_atom_site_type_symbol
_atom_site_label
_atom_site_fract_x
_atom_site_fract_y
_atom_site_fract_z
Si Si1 0.596695 0.826942 0.755840
Si Si2 0.181470 0.675221 0.051194
Si Si3 0.735758 0.675531 0.441175
Si Si4 0.159465 0.329080 0.604589
Si Si5 0.089270 0.671374 0.484382
Si Si6 0.769827 0.827424 0.811500
Si Si7 0.096494 0.837766 0.143775
Si Si8 0.595817 0.824492 0.228485
O O1 0.500000 0.777883 0.774557
O O2 0.669551 0.789475 0.802821
O O3 0.633038 0.745910 0.699375
O O4 0.594789 0.000000 0.741947
O O5 0.179637 0.500000 0.046067
O O6 0.259970 0.728923 0.089863
O O7 0.102106 0.737723 0.086558
O O8 0.176016 0.743837 0.987286
O O9 0.733270 0.500000 0.453297
O O10 0.830248 0.741915 0.452288
O O11 0.707210 0.714907 0.377055
O O12 0.188362 0.500000 0.609206
O O13 0.093058 0.308980 0.553126
O O14 0.117910 0.273532 0.663760
O O15 0.087475 0.500000 0.467359
O O16 0.000000 0.744798 0.464118
O O17 0.835019 0.740384 0.771773
O O18 0.784940 0.000000 0.799913
O O19 0.000000 0.863628 0.157300
O O20 0.140828 0.000000 0.136626
O O21 0.500000 0.769257 0.242981
O O22 0.599857 0.000000 0.233625
#
# Coordination Sequence:
#
# PCOD8189374 Si02
#       8
#     8   8   8   8   8   8   8   8
#     4   9  18  33  54  83 117 145 171 210 259 311
#     4  11  21  33  52  77 104 133 167 210 262 314
#     4   9  19  35  52  71  99 136 178 217 253 304
#     4   9  17  31  52  77 105 134 164 203 254 315
#     4   8  13  24  47  76 100 124 159 204 249 295
#     4  10  21  36  54  77 106 143 183 220 262 310
#     4  10  20  34  53  77 104 134 169 208 254 312
#     4  10  21  36  55  79 105 137 180 226 269 313
#
# _framework density 19.296547
#
# number of rings (size 3 to 8) (size 9 to 14) (size 15 to 20)
#    0.000    2.500    0.000    3.375    0.000    6.500 
#    0.000    3.125    0.000    9.750    0.000    3.500 
#    0.000    0.000    0.000    0.000    0.000    0.000 
#
# Total GULP energy -396493.095725 kJ/mol
# GULP energy per Si atom -12390.409241 kJ/mol
# Density = 1.925263 g / cm^3
# Si number density = 19.296547 Si / 1000 Ang^3
#
#
#
# Elastic Constant Matrix: (Units=GPa)
#
#
# Indices 1 2 3 4 5 6 
#
# 1 64.4601 17.4437 27.5979 0.0000 0.0000 0.0000
# 2 17.4437 68.9519 39.8747 0.0000 0.0000 0.0000
# 3 27.5979 39.8747 102.1570 0.0000 0.0000 0.0000
# 4 0.0000 0.0000 0.0000 28.0572 0.0000 0.0000
# 5 0.0000 0.0000 0.0000 0.0000 18.0105 0.0000
# 6 0.0000 0.0000 0.0000 0.0000 0.0000 21.2096
#
#
#
# Elastic Compliance Matrix: (Units=1/GPa)
#
#
# Indices 1 2 3 4 5 6 
#
# 1 0.017803 -0.002225 -0.003941 0.000000 0.000000 0.000000
# 2 -0.002225 0.019009 -0.006819 0.000000 0.000000 0.000000
# 3 -0.003941 -0.006819 0.013515 0.000000 0.000000 0.000000
# 4 0.000000 0.000000 0.000000 0.035641 0.000000 0.000000
# 5 0.000000 0.000000 0.000000 0.000000 0.055523 0.000000
# 6 0.000000 0.000000 0.000000 0.000000 0.000000 0.047148
#
#
# Mechanical properties :
#
#
# Convention : Reuss Voigt Hill
#
# Bulk Modulus (GPa) = 41.05457 45.04463 43.04960
# Shear Modulus (GPa) = 22.44888 23.49897 22.97393
#
# Velocity S-wave (km/s) = 3.41451 3.49346 3.45421
# Velocity P-wave (km/s) = 6.07182 6.29812 6.18601
#
# Compressibility (1/GPa) = 0.02435783
#
# Stress axis : x y z
#
# Youngs Moduli (GPa) = 56.17072 52.60695 73.99148
#
# Poissons Ratio (x) = 0.11703 0.29161
# Poissons Ratio (y) = 0.12496 0.50452
# Poissons Ratio (z) = 0.22138 0.35871
#
# Static dielectric constant tensor:
#      x y z
#    x 3.671210 0.000000 0.000000 
#    y 0.000000 3.438650 0.000000 
#    z 0.000000 0.000000 3.541800 
# 
# 
# High freq. dielectric constant tensor:
#      x y z
#    x 1.747860 0.000000 0.000000 
#    y 0.000000 1.724690 0.000000 
#    z 0.000000 0.000000 1.746580 
# 
# From -- ./inp_files/24372.got.cif
#   From: 2010.03.12/outbox.cif.g09.slc.cpg/sg44_13_cif.got.tgz:24372.got - 2010.04.14 02:36:11.
