data_PCOD8189775
_publ_section_title
;
Structure prediction by ZEFSAII (Michael W. Deem and Ramdas Pophale) SiO2 
 PCOD8189775
Probable space group: I M M 2
;
_chemical_formula_sum "Si O2"
_cell_formula_units_Z 40
_cell_length_a 9.215659
_cell_length_b 7.613056
_cell_length_c 29.458830
_cell_angle_alpha 90.000000
_cell_angle_beta 90.000000
_cell_angle_gamma 90.000000
_cell_volume 2066.811718
_symmetry_space_group_name_H-M "I M M 2"
_symmetry_group_IT_number 44
_symmetry_cell_setting 'orthorhombic'
loop_
_space_group_symop_operation_xyz
x,y,z
-x,-y,z
-x,y,z
x,-y,z
1/2+x,1/2+y,1/2+z
1/2-x,1/2-y,1/2+z
1/2-x,1/2+y,1/2+z
1/2+x,1/2-y,1/2+z
loop_
_atom_site_type_symbol
_atom_site_label
_atom_site_fract_x
_atom_site_fract_y
_atom_site_fract_z
Si Si1 0.825996 0.500000 0.876271
Si Si2 0.338136 0.291601 0.134985
Si Si3 0.826612 0.000000 0.472014
Si Si4 0.670675 0.804481 0.037934
Si Si5 0.840582 0.292238 0.218727
Si Si6 0.671029 0.795934 0.820266
O O1 0.765156 0.500000 0.926733
O O2 0.766931 0.676093 0.852807
O O3 0.000000 0.500000 0.875944
O O4 0.500000 0.215178 0.137517
O O5 0.338479 0.500000 0.136626
O O6 0.261621 0.230993 0.087933
O O7 0.256940 0.211005 0.178724
O O8 0.773388 0.830328 0.500243
O O9 0.000000 0.000000 0.462264
O O10 0.500000 0.775172 0.043098
O O11 0.711043 0.000000 0.021468
O O12 0.849178 0.500000 0.213658
O O13 0.780838 0.247156 0.268871
O O14 0.000000 0.210116 0.213237
O O15 0.500000 0.757878 0.827250
O O16 0.703953 0.000000 0.831068
#
# Coordination Sequence:
#
# PCOD8189775 Si02
#       6
#     4   8   4   8   8   8
#     4  12  26  40  58  88 120 150 186 240 311 360
#     4   9  15  26  47  75 108 145 179 217 269 325
#     4  10  20  38  60  78 102 142 194 240 279 334
#     4   9  17  31  53  79 105 137 181 231 274 321
#     4   8  15  29  51  79 109 144 183 223 271 325
#     4   9  19  39  64  85 111 152 200 243 280 335
#
# _framework density 19.353480999999999
#
# number of rings (size 3 to 8) (size 9 to 14) (size 15 to 20)
#    0.000    2.800    1.000    2.100    0.000    2.000 
#    1.800    5.000    0.000    1.200    0.000    0.000 
#    0.000    0.000    0.000    0.000    0.000    0.000 
#
# Total GULP energy -247878.098184 kJ/mol
# GULP energy per Si atom -12393.904909 kJ/mol
# Density = 1.930943 g / cm^3
# Si number density = 19.353481 Si / 1000 Ang^3
#
#
#
# Elastic Constant Matrix: (Units=GPa)
#
#
# Indices 1 2 3 4 5 6 
#
# 1 78.1056 41.6864 72.4510 0.0000 0.0000 0.0000
# 2 41.6864 101.4061 72.7746 0.0000 0.0000 0.0000
# 3 72.4510 72.7746 188.6318 0.0000 0.0000 0.0000
# 4 0.0000 0.0000 0.0000 -10.9716 0.0000 0.0000
# 5 0.0000 0.0000 0.0000 0.0000 33.5681 0.0000
# 6 0.0000 0.0000 0.0000 0.0000 0.0000 14.5431
#
#
#
# Elastic Compliance Matrix: (Units=1/GPa)
#
#
# Indices 1 2 3 4 5 6 
#
# 1 0.020962 -0.003926 -0.006536 0.000000 0.000000 0.000000
# 2 -0.003926 0.014372 -0.004037 0.000000 0.000000 0.000000
# 3 -0.006536 -0.004037 0.009369 0.000000 0.000000 0.000000
# 4 0.000000 0.000000 0.000000 -0.091145 0.000000 0.000000
# 5 0.000000 0.000000 0.000000 0.000000 0.029790 0.000000
# 6 0.000000 0.000000 0.000000 0.000000 0.000000 0.068761
#
#
# Mechanical properties :
#
#
# Convention : Reuss Voigt Hill
#
# Bulk Modulus (GPa) = 63.67571 82.44083 73.05827
# Shear Modulus (GPa) = 57.90760 19.51003 38.70881
#
# Velocity S-wave (km/s) = 5.47595 3.17849 4.47709
# Velocity P-wave (km/s) = 8.54132 7.49401 8.03475
#
# Compressibility (1/GPa) = 0.01570458
#
# Stress axis : x y z
#
# Youngs Moduli (GPa) = 47.70565 69.57758 106.73089
#
# Poissons Ratio (x) = 0.27317 0.69764
# Poissons Ratio (y) = 0.18730 0.43087
# Poissons Ratio (z) = 0.31183 0.28088
#
# Static dielectric constant tensor:
#      x y z
#    x 3.416390 0.000000 0.000000 
#    y 0.000000 3.427050 0.000000 
#    z 0.000000 0.000000 3.719670 
# 
# 
# High freq. dielectric constant tensor:
#      x y z
#    x 1.710070 0.000000 0.000000 
#    y 0.000000 1.751200 0.000000 
#    z 0.000000 0.000000 1.762120 
# 
# From -- ./inp_files/25952.got.cif
#   From: 2010.03.12/outbox.cif.g09.slc.cpg/sg44_13_cif.got.tgz:25952.got - 2010.04.14 02:36:11.
