data_PCOD8189970
_publ_section_title
;
Structure prediction by ZEFSAII (Michael W. Deem and Ramdas Pophale) SiO2 
 PCOD8189970
Probable space group: I M M 2
;
_chemical_formula_sum "Si O2"
_cell_formula_units_Z 64
_cell_length_a 9.146441
_cell_length_b 22.300207
_cell_length_c 15.439891
_cell_angle_alpha 90.000000
_cell_angle_beta 90.000000
_cell_angle_gamma 90.000000
_cell_volume 3149.236394
_symmetry_space_group_name_H-M "I M M 2"
_symmetry_group_IT_number 44
_symmetry_cell_setting 'orthorhombic'
loop_
_space_group_symop_operation_xyz
x,y,z
-x,-y,z
-x,y,z
x,-y,z
1/2+x,1/2+y,1/2+z
1/2-x,1/2-y,1/2+z
1/2-x,1/2+y,1/2+z
1/2+x,1/2-y,1/2+z
loop_
_atom_site_type_symbol
_atom_site_label
_atom_site_fract_x
_atom_site_fract_y
_atom_site_fract_z
Si Si1 0.171147 0.066508 0.793580
Si Si2 0.338439 0.929159 0.268837
Si Si3 0.169901 0.686661 0.338478
Si Si4 0.169033 0.674560 0.530662
Si Si5 0.336838 0.570395 0.928937
Si Si6 0.326958 0.733532 0.178437
Si Si7 0.827909 0.931782 0.097038
Si Si8 0.170701 0.893151 0.610756
O O1 0.266125 0.119007 0.835834
O O2 0.207441 0.063570 0.690960
O O3 0.000000 0.081810 0.808247
O O4 0.207824 0.000000 0.831785
O O5 0.500000 0.900687 0.257621
O O6 0.263799 0.901061 0.354069
O O7 0.239943 0.911238 0.187896
O O8 0.351173 0.000000 0.277599
O O9 0.191197 0.708611 0.438407
O O10 0.249516 0.733652 0.273233
O O11 0.000000 0.684200 0.313239
O O12 0.222568 0.713827 0.613136
O O13 0.262411 0.613100 0.525766
O O14 0.000000 0.657488 0.542598
O O15 0.500000 0.598280 0.921229
O O16 0.348013 0.500000 0.915264
O O17 0.258457 0.584232 0.020993
O O18 0.500000 0.734143 0.194289
O O19 0.273419 0.673181 0.131935
O O20 0.000000 0.924559 0.102631
O O21 0.784402 0.000000 0.073011
O O22 0.000000 0.893281 0.593018
#
# Coordination Sequence:
#
# PCOD8189970 Si02
#       8
#     8   8   8   8   8   8   8   8
#     4   9  17  31  53  80 111 150 193 233 279 337
#     4   9  17  30  47  68 102 144 178 215 270 331
#     4  10  21  37  57  84 118 151 186 234 286 335
#     4  10  22  40  61  84 114 151 187 227 282 341
#     4   9  15  24  42  70 103 138 182 232 276 323
#     4   9  19  39  61  79 107 148 190 233 278 331
#     4  10  21  37  58  84 111 140 181 232 280 331
#     4   8  14  27  49  74 101 138 184 232 277 324
#
# _framework density 20.322386999999999
#
# number of rings (size 3 to 8) (size 9 to 14) (size 15 to 20)
#    0.000    2.750    0.000    2.250    0.000    6.000 
#    2.250    5.000    0.000    3.000    0.000    0.000 
#    0.000    0.000    0.000    0.000    0.000    0.000 
#
# Total GULP energy -396559.539563 kJ/mol
# GULP energy per Si atom -12392.485611 kJ/mol
# Density = 2.027613 g / cm^3
# Si number density = 20.322387 Si / 1000 Ang^3
#
#
#
# Elastic Constant Matrix: (Units=GPa)
#
#
# Indices 1 2 3 4 5 6 
#
# 1 78.7449 30.5231 44.8297 0.0000 0.0000 0.0000
# 2 30.5231 64.1494 28.4069 -0.0001 0.0000 0.0000
# 3 44.8297 28.4069 115.5161 -0.0003 0.0001 0.0001
# 4 0.0000 -0.0001 -0.0003 20.5529 0.0000 0.0000
# 5 0.0000 0.0000 0.0001 0.0000 29.2957 0.0000
# 6 0.0000 0.0000 0.0001 0.0000 0.0000 20.7884
#
#
#
# Elastic Compliance Matrix: (Units=1/GPa)
#
#
# Indices 1 2 3 4 5 6 
#
# 1 0.018283 -0.006236 -0.005562 0.000000 0.000000 0.000000
# 2 -0.006236 0.019621 -0.002405 0.000000 0.000000 0.000000
# 3 -0.005562 -0.002405 0.011407 0.000000 0.000000 0.000000
# 4 0.000000 0.000000 0.000000 0.048655 0.000000 0.000000
# 5 0.000000 0.000000 0.000000 0.000000 0.034135 0.000000
# 6 0.000000 0.000000 0.000000 0.000000 0.000000 0.048104
#
#
# Mechanical properties :
#
#
# Convention : Reuss Voigt Hill
#
# Bulk Modulus (GPa) = 47.83633 51.76999 49.80316
# Shear Modulus (GPa) = 23.19352 24.43745 23.81548
#
# Velocity S-wave (km/s) = 3.38195 3.47145 3.42699
# Velocity P-wave (km/s) = 6.23217 6.44963 6.34183
#
# Compressibility (1/GPa) = 0.02090461
#
# Stress axis : x y z
#
# Youngs Moduli (GPa) = 54.69611 50.96618 87.66894
#
# Poissons Ratio (x) = 0.31784 0.48758
# Poissons Ratio (y) = 0.34111 0.21083
# Poissons Ratio (z) = 0.30420 0.12256
#
# Static dielectric constant tensor:
#      x y z
#    x 3.570400 0.000000 0.000000 
#    y 0.000000 3.867490 0.000000 
#    z 0.000000 0.000000 3.948380 
# 
# 
# High freq. dielectric constant tensor:
#      x y z
#    x 1.771650 0.000000 0.000000 
#    y 0.000000 1.769640 0.000000 
#    z 0.000000 0.000000 1.804220 
# 
# From -- ./inp_files/16841.got.cif
#   From: 2010.03.12/outbox.cif.g09.slc.cpg/sg44_9_cif.got.tgz:16841.got - 2010.04.14 02:36:11.
