data_PCOD8189816
_publ_section_title
;
Structure prediction by ZEFSAII (Michael W. Deem and Ramdas Pophale) SiO2 
 PCOD8189816
Probable space group: I M M 2
;
_chemical_formula_sum "Si O2"
_cell_formula_units_Z 48
_cell_length_a 26.186965
_cell_length_b 12.467127
_cell_length_c 7.668522
_cell_angle_alpha 90.000000
_cell_angle_beta 90.000000
_cell_angle_gamma 90.000000
_cell_volume 2503.590063
_symmetry_space_group_name_H-M "I M M 2"
_symmetry_group_IT_number 44
_symmetry_cell_setting 'orthorhombic'
loop_
_space_group_symop_operation_xyz
x,y,z
-x,-y,z
-x,y,z
x,-y,z
1/2+x,1/2+y,1/2+z
1/2-x,1/2-y,1/2+z
1/2-x,1/2+y,1/2+z
1/2+x,1/2-y,1/2+z
loop_
_atom_site_type_symbol
_atom_site_label
_atom_site_fract_x
_atom_site_fract_y
_atom_site_fract_z
Si Si1 0.766760 0.877114 0.162120
Si Si2 0.940128 0.126107 0.923616
Si Si3 0.696119 0.127834 0.851397
Si Si4 0.623586 0.294819 0.728119
Si Si5 0.116977 0.875942 0.585167
Si Si6 0.730401 0.625533 0.053377
O O1 0.826921 0.853039 0.146011
O O2 0.748891 0.854067 0.358880
O O3 0.760762 0.000000 0.110544
O O4 0.726814 0.823333 0.021581
O O5 0.917664 0.171495 0.740332
O O6 0.000000 0.144533 0.916302
O O7 0.927239 0.000000 0.958155
O O8 0.917701 0.204365 0.073737
O O9 0.640515 0.179066 0.812001
O O10 0.729625 0.176019 0.689839
O O11 0.689482 0.000000 0.854984
O O12 0.595893 0.355826 0.889620
O O13 0.173990 0.826035 0.584518
O O14 0.119023 0.000000 0.622453
O O15 0.728318 0.500000 0.094938
#
# Coordination Sequence:
#
# PCOD8189816 Si02
#       6
#     8   8   8   8   8   8
#     4   9  18  31  47  71 105 142 178 215 256 308
#     4  10  21  37  57  81 108 136 171 223 282 331
#     4  10  21  33  47  73 109 146 180 218 256 300
#     4  11  21  31  55  79 106 143 184 219 260 318
#     4   9  18  33  52  77 106 137 173 216 265 322
#     4   8  15  29  47  67  98 137 175 209 248 299
#
# _framework density 19.172467999999999
#
# number of rings (size 3 to 8) (size 9 to 14) (size 15 to 20)
#    0.000    2.500    0.000    3.500    4.667    4.667 
#    0.000    1.667    0.000    0.500    0.000    0.000 
#    0.000    0.000    0.000    0.000    0.000    0.000 
#
# Total GULP energy -297363.305006 kJ/mol
# GULP energy per Si atom -12390.137709 kJ/mol
# Density = 1.912883 g / cm^3
# Si number density = 19.172468 Si / 1000 Ang^3
#
#
#
# Elastic Constant Matrix: (Units=GPa)
#
#
# Indices 1 2 3 4 5 6 
#
# 1 76.3885 30.9190 70.9185 0.0000 0.0000 0.0000
# 2 30.9190 40.9910 35.4837 0.0000 0.0000 0.0000
# 3 70.9185 35.4837 140.4753 0.0000 0.0000 0.0000
# 4 0.0000 0.0000 0.0000 27.6914 0.0000 0.0000
# 5 0.0000 0.0000 0.0000 0.0000 28.6153 0.0000
# 6 0.0000 0.0000 0.0000 0.0000 0.0000 20.4048
#
#
#
# Elastic Compliance Matrix: (Units=1/GPa)
#
#
# Indices 1 2 3 4 5 6 
#
# 1 0.028325 -0.011501 -0.011394 0.000000 0.000000 0.000000
# 2 -0.011501 0.035893 -0.003260 0.000000 0.000000 0.000000
# 3 -0.011394 -0.003260 0.013695 0.000000 0.000000 0.000000
# 4 0.000000 0.000000 0.000000 0.036112 0.000000 0.000000
# 5 0.000000 0.000000 0.000000 0.000000 0.034946 0.000000
# 6 0.000000 0.000000 0.000000 0.000000 0.000000 0.049008
#
#
# Mechanical properties :
#
#
# Convention : Reuss Voigt Hill
#
# Bulk Modulus (GPa) = 39.06162 59.16635 49.11399
# Shear Modulus (GPa) = 19.31811 23.37787 21.34799
#
# Velocity S-wave (km/s) = 3.17771 3.49570 3.34049
# Velocity P-wave (km/s) = 5.82081 6.87170 6.36797
#
# Compressibility (1/GPa) = 0.02560058
#
# Stress axis : x y z
#
# Youngs Moduli (GPa) = 35.30476 27.86060 73.02151
#
# Poissons Ratio (x) = 0.32044 0.83204
# Poissons Ratio (y) = 0.40606 0.23805
# Poissons Ratio (z) = 0.40228 0.09083
#
# Static dielectric constant tensor:
#      x y z
#    x 3.251330 0.000000 0.000000 
#    y 0.000000 3.547190 0.000000 
#    z 0.000000 0.000000 3.794470 
# 
# 
# High freq. dielectric constant tensor:
#      x y z
#    x 1.699450 0.000000 0.000000 
#    y 0.000000 1.746890 0.000000 
#    z 0.000000 0.000000 1.768290 
# 
# From -- ./inp_files/8856.got.cif
#   From: 2010.03.12/outbox.cif.g09.slc.cpg/sg44_5_cif.got.tgz:8856.got - 2010.04.14 02:36:11.
