data_PCOD8189126
_publ_section_title
;
Structure prediction by ZEFSAII (Michael W. Deem and Ramdas Pophale) SiO2 
 PCOD8189126
Probable space group: I M M 2
;
_chemical_formula_sum "Si O2"
_cell_formula_units_Z 48
_cell_length_a 7.553831
_cell_length_b 9.186387
_cell_length_c 34.206684
_cell_angle_alpha 90.000000
_cell_angle_beta 90.000000
_cell_angle_gamma 90.000000
_cell_volume 2373.684408
_symmetry_space_group_name_H-M "I M M 2"
_symmetry_group_IT_number 44
_symmetry_cell_setting 'orthorhombic'
loop_
_space_group_symop_operation_xyz
x,y,z
-x,-y,z
-x,y,z
x,-y,z
1/2+x,1/2+y,1/2+z
1/2-x,1/2-y,1/2+z
1/2-x,1/2+y,1/2+z
1/2+x,1/2-y,1/2+z
loop_
_atom_site_type_symbol
_atom_site_label
_atom_site_fract_x
_atom_site_fract_y
_atom_site_fract_z
Si Si1 0.205592 0.330248 0.195180
Si Si2 0.794270 0.171069 0.014137
Si Si3 0.298550 0.843139 0.356571
Si Si4 0.500000 0.325243 0.063325
Si Si5 0.209312 0.840459 0.926607
Si Si6 0.500000 0.174470 0.146645
Si Si7 0.706859 0.838523 0.784004
O O1 0.251649 0.500000 0.187778
O O2 0.323332 0.225306 0.168809
O O3 0.247933 0.287677 0.239967
O O4 0.000000 0.301543 0.185411
O O5 0.676994 0.271138 0.041929
O O6 0.000000 0.201001 0.023601
O O7 0.751389 0.000000 0.020146
O O8 0.747054 0.219810 0.969816
O O9 0.500000 0.864843 0.369042
O O10 0.204378 0.756435 0.392082
O O11 0.297619 0.766467 0.314740
O O12 0.204165 0.000000 0.352663
O O13 0.500000 0.500000 0.066241
O O14 0.500000 0.252901 0.105402
O O15 0.000000 0.852305 0.921640
O O16 0.293783 0.000000 0.921960
O O17 0.500000 0.000000 0.142266
O O18 0.500000 0.838179 0.791821
O O19 0.783964 0.000000 0.790451
#
# Coordination Sequence:
#
# PCOD8189126 Si02
#       7
#     8   8   8   4   8   4   8
#     4   9  20  41  66  90 118 154 199 249 299 356
#     4   9  19  39  66  91 118 155 199 249 302 355
#     4  10  20  31  47  77 115 150 188 236 286 337
#     4  12  26  42  62  92 126 158 198 244 296 364
#     4   8  15  31  55  80 107 146 195 238 284 343
#     4  12  26  42  64  92 124 158 196 244 300 364
#     4   9  19  36  56  78 106 145 193 237 283 341
#
# _framework density 20.221727999999999
#
# number of rings (size 3 to 8) (size 9 to 14) (size 15 to 20)
#    0.000    2.500    0.000    4.000    1.167    4.000 
#    1.500    3.333    0.000    0.000    0.000    0.000 
#    0.000    0.000    0.000    0.000    0.000    0.000 
#
# Total GULP energy -297479.776363 kJ/mol
# GULP energy per Si atom -12394.990682 kJ/mol
# Density = 2.017570 g / cm^3
# Si number density = 20.221728 Si / 1000 Ang^3
#
#
#
# Elastic Constant Matrix: (Units=GPa)
#
#
# Indices 1 2 3 4 5 6 
#
# 1 74.6742 50.2383 51.1699 0.0000 0.0000 0.0000
# 2 50.2383 145.9013 92.1444 0.0000 0.0000 0.0000
# 3 51.1699 92.1444 156.1167 0.0000 0.0000 0.0000
# 4 0.0000 0.0000 0.0000 34.0834 0.0000 0.0000
# 5 0.0000 0.0000 0.0000 0.0000 48.2415 0.0000
# 6 0.0000 0.0000 0.0000 0.0000 0.0000 25.6602
#
#
#
# Elastic Compliance Matrix: (Units=1/GPa)
#
#
# Indices 1 2 3 4 5 6 
#
# 1 0.018686 -0.004091 -0.003710 0.000000 0.000000 0.000000
# 2 -0.004091 0.011823 -0.005637 0.000000 0.000000 0.000000
# 3 -0.003710 -0.005637 0.010949 0.000000 0.000000 0.000000
# 4 0.000000 0.000000 0.000000 0.029340 0.000000 0.000000
# 5 0.000000 0.000000 0.000000 0.000000 0.020729 0.000000
# 6 0.000000 0.000000 0.000000 0.000000 0.000000 0.038971
#
#
# Mechanical properties :
#
#
# Convention : Reuss Voigt Hill
#
# Bulk Modulus (GPa) = 68.58254 84.86638 76.72446
# Shear Modulus (GPa) = 30.81957 33.80632 32.31295
#
# Velocity S-wave (km/s) = 3.90818 4.09318 4.00175
# Velocity P-wave (km/s) = 7.37252 8.02483 7.70558
#
# Compressibility (1/GPa) = 0.01458097
#
# Stress axis : x y z
#
# Youngs Moduli (GPa) = 53.51560 84.58182 91.33480
#
# Poissons Ratio (x) = 0.34604 0.33885
# Poissons Ratio (y) = 0.21894 0.51488
# Poissons Ratio (z) = 0.19854 0.47681
#
# Static dielectric constant tensor:
#      x y z
#    x 3.455990 0.000000 0.000000 
#    y 0.000000 3.925840 0.000000 
#    z 0.000000 0.000000 3.780650 
# 
# 
# High freq. dielectric constant tensor:
#      x y z
#    x 1.782560 0.000000 0.000000 
#    y 0.000000 1.781140 0.000000 
#    z 0.000000 0.000000 1.794210 
# 
# From -- ./inp_files/26967.got.cif
#   From: 2010.03.12/outbox.cif.g09.slc.cpg/sg44_14_cif.got.tgz:26967.got - 2010.04.14 02:36:11.
