data_PCOD8189917
_publ_section_title
;
Structure prediction by ZEFSAII (Michael W. Deem and Ramdas Pophale) SiO2 
 PCOD8189917
Probable space group: I M M 2
;
_chemical_formula_sum "Si O2"
_cell_formula_units_Z 40
_cell_length_a 7.902691
_cell_length_b 28.839128
_cell_length_c 8.821340
_cell_angle_alpha 90.000000
_cell_angle_beta 90.000000
_cell_angle_gamma 90.000000
_cell_volume 2010.442642
_symmetry_space_group_name_H-M "I M M 2"
_symmetry_group_IT_number 44
_symmetry_cell_setting 'orthorhombic'
loop_
_space_group_symop_operation_xyz
x,y,z
-x,-y,z
-x,y,z
x,-y,z
1/2+x,1/2+y,1/2+z
1/2-x,1/2-y,1/2+z
1/2-x,1/2+y,1/2+z
1/2+x,1/2-y,1/2+z
loop_
_atom_site_type_symbol
_atom_site_label
_atom_site_fract_x
_atom_site_fract_y
_atom_site_fract_z
Si Si1 0.500000 0.554253 0.333390
Si Si2 0.200931 0.210432 0.832144
Si Si3 0.306617 0.697721 0.673982
Si Si4 0.500000 0.445870 0.686866
Si Si5 0.686483 0.107276 0.324307
Si Si6 0.686936 0.377630 0.145933
O O1 0.500000 0.500000 0.298350
O O2 0.500000 0.566006 0.510134
O O3 0.332910 0.577986 0.259128
O O4 0.294012 0.254722 0.765109
O O5 0.262882 0.165561 0.738706
O O6 0.000000 0.216987 0.823870
O O7 0.262862 0.204548 0.004423
O O8 0.500000 0.680625 0.669806
O O9 0.198460 0.658776 0.757527
O O10 0.500000 0.500000 0.718710
O O11 0.669739 0.426109 0.760525
O O12 0.500000 0.087560 0.283011
O O13 0.694229 0.109714 0.506489
O O14 0.500000 0.363966 0.081886
#
# Coordination Sequence:
#
# PCOD8189917 Si02
#       6
#     4   8   8   4   8   8
#     4   9  19  39  71  95 119 171 213 259 326 385
#     4  10  21  36  56  84 123 170 218 262 316 376
#     4  11  22  37  58  84 124 169 214 262 318 375
#     4  11  23  45  71  95 129 165 211 267 326 381
#     4  12  24  40  65  96 129 167 212 261 319 386
#     4   9  19  37  61  89 126 163 208 260 314 376
#
# _framework density 19.896115999999999
#
# number of rings (size 3 to 8) (size 9 to 14) (size 15 to 20)
#    0.600    1.000    2.000    3.000    0.000    7.600 
#    0.000    3.000    0.000    1.200    0.000    0.000 
#    0.000    0.000    0.000    0.000    0.000    0.000 
#
# Total GULP energy -248006.954035 kJ/mol
# GULP energy per Si atom -12400.347702 kJ/mol
# Density = 1.985083 g / cm^3
# Si number density = 19.896116 Si / 1000 Ang^3
#
#
#
# Elastic Constant Matrix: (Units=GPa)
#
#
# Indices 1 2 3 4 5 6 
#
# 1 100.6823 41.9293 47.6571 0.0000 0.0000 0.0000
# 2 41.9293 117.8294 68.2462 0.0011 -0.0002 -0.0001
# 3 47.6571 68.2462 153.4935 0.0007 -0.0004 -0.0002
# 4 0.0000 0.0011 0.0007 37.7368 -0.0002 -0.0001
# 5 0.0000 -0.0002 -0.0004 -0.0002 16.3251 -0.0001
# 6 0.0000 -0.0001 -0.0002 -0.0001 -0.0001 24.1417
#
#
#
# Elastic Compliance Matrix: (Units=1/GPa)
#
#
# Indices 1 2 3 4 5 6 
#
# 1 0.012350 -0.002928 -0.002533 0.000000 0.000000 0.000000
# 2 -0.002928 0.012125 -0.004482 0.000000 0.000000 0.000000
# 3 -0.002533 -0.004482 0.009294 0.000000 0.000000 0.000000
# 4 0.000000 0.000000 0.000000 0.026499 0.000000 0.000000
# 5 0.000000 0.000000 0.000000 0.000000 0.061255 0.000000
# 6 0.000000 0.000000 0.000000 0.000000 0.000000 0.041422
#
#
# Mechanical properties :
#
#
# Convention : Reuss Voigt Hill
#
# Bulk Modulus (GPa) = 72.02486 76.40784 74.21635
# Shear Modulus (GPa) = 26.67257 29.91889 28.29573
#
# Velocity S-wave (km/s) = 3.66538 3.88204 3.77526
# Velocity P-wave (km/s) = 7.36155 7.65378 7.50909
#
# Compressibility (1/GPa) = 0.01388409
#
# Stress axis : x y z
#
# Youngs Moduli (GPa) = 80.96877 82.47741 107.59626
#
# Poissons Ratio (x) = 0.24148 0.27252
# Poissons Ratio (y) = 0.23707 0.48222
# Poissons Ratio (z) = 0.20508 0.36964
#
# Static dielectric constant tensor:
#      x y z
#    x 3.399670 0.000000 0.000000 
#    y 0.000000 3.509760 0.000000 
#    z 0.000000 0.000000 3.737060 
# 
# 
# High freq. dielectric constant tensor:
#      x y z
#    x 1.755000 0.000000 0.000000 
#    y 0.000000 1.772520 0.000000 
#    z 0.000000 0.000000 1.791550 
# 
# From -- ./inp_files/4666.got.cif
#   From: 2010.03.12/outbox.cif.g09.slc.cpg/sg44_3_cif.got.tgz:4666.got - 2010.04.14 02:36:11.
