data_PCOD8189881
_publ_section_title
;
Structure prediction by ZEFSAII (Michael W. Deem and Ramdas Pophale) SiO2 
 PCOD8189881
Probable space group: I M M 2
;
_chemical_formula_sum "Si O2"
_cell_formula_units_Z 64
_cell_length_a 9.116796
_cell_length_b 19.837374
_cell_length_c 20.060399
_cell_angle_alpha 90.000000
_cell_angle_beta 90.000000
_cell_angle_gamma 90.000000
_cell_volume 3627.989197
_symmetry_space_group_name_H-M "I M M 2"
_symmetry_group_IT_number 44
_symmetry_cell_setting 'orthorhombic'
loop_
_space_group_symop_operation_xyz
x,y,z
-x,-y,z
-x,y,z
x,-y,z
1/2+x,1/2+y,1/2+z
1/2-x,1/2-y,1/2+z
1/2-x,1/2+y,1/2+z
1/2+x,1/2-y,1/2+z
loop_
_atom_site_type_symbol
_atom_site_label
_atom_site_fract_x
_atom_site_fract_y
_atom_site_fract_z
Si Si1 0.325511 0.575080 0.371300
Si Si2 0.173423 0.924929 0.019753
Si Si3 0.328875 0.330432 0.115538
Si Si4 0.174560 0.178945 0.764791
Si Si5 0.827944 0.421919 0.008668
Si Si6 0.328984 0.578220 0.873206
Si Si7 0.833852 0.674722 0.614789
Si Si8 0.669971 0.170418 0.269526
O O1 0.500000 0.578419 0.368168
O O2 0.271941 0.500000 0.352424
O O3 0.270935 0.594086 0.445442
O O4 0.257275 0.627269 0.318333
O O5 0.228348 0.870867 0.071668
O O6 0.000000 0.924050 0.020843
O O7 0.229915 0.000000 0.038525
O O8 0.500000 0.348585 0.107062
O O9 0.273654 0.342992 0.191136
O O10 0.233287 0.377757 0.068772
O O11 0.299958 0.252421 0.098320
O O12 0.226369 0.253891 0.784751
O O13 0.000000 0.179392 0.764059
O O14 0.791833 0.500000 0.023462
O O15 0.000000 0.409228 0.001402
O O16 0.752009 0.398145 0.940340
O O17 0.500000 0.593269 0.882144
O O18 0.297857 0.500000 0.858969
O O19 0.268231 0.618835 0.810480
O O20 0.806378 0.656634 0.691574
O O21 0.000000 0.657816 0.595228
O O22 0.500000 0.161039 0.289392
#
# Coordination Sequence:
#
# PCOD8189881 Si02
#       8
#     8   8   8   8   8   8   8   8
#     4   8  14  26  45  70  97 122 153 195 238 280
#     4   9  18  31  47  70  99 128 163 209 250 286
#     4   9  18  33  52  75 102 129 162 206 249 291
#     4   8  15  29  49  73 100 129 161 197 240 292
#     4  10  21  36  53  74 101 133 168 205 248 301
#     4  10  21  36  53  74 100 129 164 208 253 297
#     4   9  19  34  50  71 101 134 166 203 248 298
#     4   9  18  33  51  72 100 130 161 201 246 293
#
# _framework density 17.640626000000001
#
# number of rings (size 3 to 8) (size 9 to 14) (size 15 to 20)
#    0.000    3.000    0.000    3.000    0.000    4.750 
#    0.000    6.875    0.000    0.750    0.000    0.000 
#    0.000    0.000    0.000    0.000    0.000    0.000 
#
# Total GULP energy -396724.642916 kJ/mol
# GULP energy per Si atom -12397.645091 kJ/mol
# Density = 1.760048 g / cm^3
# Si number density = 17.640626 Si / 1000 Ang^3
#
#
#
# Elastic Constant Matrix: (Units=GPa)
#
#
# Indices 1 2 3 4 5 6 
#
# 1 56.2165 39.5183 42.4286 0.0000 0.0000 0.0000
# 2 39.5183 96.5150 76.0389 0.0000 0.0000 0.0000
# 3 42.4286 76.0389 107.6495 0.0000 0.0000 0.0000
# 4 0.0000 0.0000 0.0000 103.2133 0.0000 0.0000
# 5 0.0000 0.0000 0.0000 0.0000 29.0206 0.0000
# 6 0.0000 0.0000 0.0000 0.0000 0.0000 28.3717
#
#
#
# Elastic Compliance Matrix: (Units=1/GPa)
#
#
# Indices 1 2 3 4 5 6 
#
# 1 0.026764 -0.005970 -0.006331 0.000000 0.000000 0.000000
# 2 -0.005970 0.024694 -0.015090 0.000000 0.000000 0.000000
# 3 -0.006331 -0.015090 0.022443 0.000000 0.000000 0.000000
# 4 0.000000 0.000000 0.000000 0.009689 0.000000 0.000000
# 5 0.000000 0.000000 0.000000 0.000000 0.034458 0.000000
# 6 0.000000 0.000000 0.000000 0.000000 0.000000 0.035246
#
#
# Mechanical properties :
#
#
# Convention : Reuss Voigt Hill
#
# Bulk Modulus (GPa) = 52.30518 64.03918 58.17218
# Shear Modulus (GPa) = 23.31541 38.94745 31.13143
#
# Velocity S-wave (km/s) = 3.63945 4.70385 4.20546
# Velocity P-wave (km/s) = 6.88299 8.11680 7.52523
#
# Compressibility (1/GPa) = 0.01911856
#
# Stress axis : x y z
#
# Youngs Moduli (GPa) = 37.36376 40.49572 44.55634
#
# Poissons Ratio (x) = 0.24178 0.28210
# Poissons Ratio (y) = 0.22308 0.67234
# Poissons Ratio (z) = 0.23657 0.61106
#
# Static dielectric constant tensor:
#      x y z
#    x 2.974750 0.000000 0.000000 
#    y 0.000000 1.829390 0.000000 
#    z 0.000000 0.000000 3.386860 
# 
# 
# High freq. dielectric constant tensor:
#      x y z
#    x 1.654930 0.000000 0.000000 
#    y 0.000000 1.685520 0.000000 
#    z 0.000000 0.000000 1.688360 
# 
# From -- ./inp_files/20789.got.cif
#   From: 2010.03.12/outbox.cif.g09.slc.cpg/sg44_11_cif.got.tgz:20789.got - 2010.04.14 02:36:11.
