data_PCOD8189469
_publ_section_title
;
Structure prediction by ZEFSAII (Michael W. Deem and Ramdas Pophale) SiO2 
 PCOD8189469
Probable space group: I M M 2
;
_chemical_formula_sum "Si O2"
_cell_formula_units_Z 40
_cell_length_a 14.437582
_cell_length_b 9.074250
_cell_length_c 14.744982
_cell_angle_alpha 90.000000
_cell_angle_beta 90.000000
_cell_angle_gamma 90.000000
_cell_volume 1931.743461
_symmetry_space_group_name_H-M "I M M 2"
_symmetry_group_IT_number 44
_symmetry_cell_setting 'orthorhombic'
loop_
_space_group_symop_operation_xyz
x,y,z
-x,-y,z
-x,y,z
x,-y,z
1/2+x,1/2+y,1/2+z
1/2-x,1/2-y,1/2+z
1/2-x,1/2+y,1/2+z
1/2+x,1/2-y,1/2+z
loop_
_atom_site_type_symbol
_atom_site_label
_atom_site_fract_x
_atom_site_fract_y
_atom_site_fract_z
Si Si1 0.000000 0.322557 0.573850
Si Si2 0.604255 0.659776 0.542811
Si Si3 0.603655 0.839959 0.382381
Si Si4 0.640081 0.673578 0.205252
Si Si5 0.855704 0.671892 0.218943
Si Si6 0.000000 0.326896 0.366928
O O1 0.907105 0.257448 0.620594
O O2 0.000000 0.500000 0.582859
O O3 0.000000 0.264661 0.469548
O O4 0.500000 0.632663 0.509332
O O5 0.654470 0.500000 0.551147
O O6 0.656728 0.757134 0.465526
O O7 0.598282 0.740406 0.638025
O O8 0.500000 0.872486 0.415267
O O9 0.595627 0.735229 0.296051
O O10 0.651530 0.000000 0.362557
O O11 0.620924 0.500000 0.195682
O O12 0.747880 0.710923 0.216330
O O13 0.873464 0.500000 0.202880
O O14 0.906873 0.722718 0.312152
O O15 0.000000 0.500000 0.376621
#
# Coordination Sequence:
#
# PCOD8189469 Si02
#       6
#     4   8   8   8   8   4
#     4  11  23  41  64  89 122 169 213 254 314 381
#     4  10  20  34  56  87 119 151 190 242 302 357
#     4  10  20  35  58  85 114 152 195 239 296 365
#     4  11  23  38  60  91 124 158 203 260 316 370
#     4  10  21  39  63  89 119 159 206 257 312 368
#     4   9  20  41  66  87 116 161 213 258 302 371
#
# _framework density 20.706683000000002
#
# number of rings (size 3 to 8) (size 9 to 14) (size 15 to 20)
#    0.000    1.800    2.000    2.100    0.000    4.800 
#    0.000    4.000    0.000    0.000    0.000    0.000 
#    0.000    0.000    0.000    0.000    0.000    0.000 
#
# Total GULP energy -247822.276306 kJ/mol
# GULP energy per Si atom -12391.113815 kJ/mol
# Density = 2.065955 g / cm^3
# Si number density = 20.706683 Si / 1000 Ang^3
#
#
#
# Elastic Constant Matrix: (Units=GPa)
#
#
# Indices 1 2 3 4 5 6 
#
# 1 100.6933 39.2817 44.6009 0.0000 0.0000 0.0000
# 2 39.2817 114.4633 67.8395 0.0000 0.0000 0.0000
# 3 44.6009 67.8395 187.2055 0.0000 0.0000 0.0000
# 4 0.0000 0.0000 0.0000 23.4202 0.0000 0.0000
# 5 0.0000 0.0000 0.0000 0.0000 3.9436 0.0000
# 6 0.0000 0.0000 0.0000 0.0000 0.0000 21.3015
#
#
#
# Elastic Compliance Matrix: (Units=1/GPa)
#
#
# Indices 1 2 3 4 5 6 
#
# 1 0.011888 -0.003058 -0.001724 0.000000 0.000000 0.000000
# 2 -0.003058 0.011913 -0.003588 0.000000 0.000000 0.000000
# 3 -0.001724 -0.003588 0.007053 0.000000 0.000000 0.000000
# 4 0.000000 0.000000 0.000000 0.042698 0.000000 0.000000
# 5 0.000000 0.000000 0.000000 0.000000 0.253573 0.000000
# 6 0.000000 0.000000 0.000000 0.000000 0.000000 0.046945
#
#
# Mechanical properties :
#
#
# Convention : Reuss Voigt Hill
#
# Bulk Modulus (GPa) = 70.85897 78.42291 74.64094
# Shear Modulus (GPa) = 12.64176 26.44240 19.54208
#
# Velocity S-wave (km/s) = 2.47354 3.57739 3.07540
# Velocity P-wave (km/s) = 6.51556 7.41748 6.98110
#
# Compressibility (1/GPa) = 0.01411254
#
# Stress axis : x y z
#
# Youngs Moduli (GPa) = 84.12044 83.94519 141.78708
#
# Poissons Ratio (x) = 0.25669 0.24446
# Poissons Ratio (y) = 0.25722 0.50878
# Poissons Ratio (z) = 0.14503 0.30122
#
# Static dielectric constant tensor:
#      x y z
#    x 4.023340 0.000000 0.000000 
#    y 0.000000 4.107620 0.000000 
#    z 0.000000 0.000000 3.829080 
# 
# 
# High freq. dielectric constant tensor:
#      x y z
#    x 1.783250 0.000000 0.000000 
#    y 0.000000 1.817430 0.000000 
#    z 0.000000 0.000000 1.814390 
# 
# From -- ./inp_files/15811.got.cif
#   From: 2010.03.12/outbox.cif.g09.slc.cpg/sg44_8_cif.got.tgz:15811.got - 2010.04.14 02:36:11.
