data_PCOD8189280
_publ_section_title
;
Structure prediction by ZEFSAII (Michael W. Deem and Ramdas Pophale) SiO2 
 PCOD8189280
Probable space group: I M M 2
;
_chemical_formula_sum "Si O2"
_cell_formula_units_Z 64
_cell_length_a 9.244215
_cell_length_b 15.362175
_cell_length_c 23.294229
_cell_angle_alpha 90.000000
_cell_angle_beta 90.000000
_cell_angle_gamma 90.000000
_cell_volume 3308.042545
_symmetry_space_group_name_H-M "I M M 2"
_symmetry_group_IT_number 44
_symmetry_cell_setting 'orthorhombic'
loop_
_space_group_symop_operation_xyz
x,y,z
-x,-y,z
-x,y,z
x,-y,z
1/2+x,1/2+y,1/2+z
1/2-x,1/2-y,1/2+z
1/2-x,1/2+y,1/2+z
1/2+x,1/2-y,1/2+z
loop_
_atom_site_type_symbol
_atom_site_label
_atom_site_fract_x
_atom_site_fract_y
_atom_site_fract_z
Si Si1 0.168153 0.900251 0.073070
Si Si2 0.335374 0.141751 0.957522
Si Si3 0.842985 0.599140 0.998698
Si Si4 0.163109 0.903477 0.848145
Si Si5 0.833710 0.742254 0.292153
Si Si6 0.829678 0.898453 0.607917
Si Si7 0.661157 0.670066 0.906032
Si Si8 0.166767 0.246521 0.163085
O O1 0.215929 0.835227 0.124364
O O2 0.000000 0.887200 0.057812
O O3 0.197657 0.000000 0.092442
O O4 0.262320 0.877213 0.018064
O O5 0.500000 0.107278 0.958920
O O6 0.248318 0.092535 0.908020
O O7 0.330922 0.243533 0.944345
O O8 0.870373 0.500000 0.013055
O O9 0.735788 0.635430 0.047441
O O10 0.000000 0.647478 0.000565
O O11 0.772935 0.604609 0.935511
O O12 0.237755 0.843419 0.800497
O O13 0.000000 0.870119 0.859647
O O14 0.161411 0.000000 0.821710
O O15 0.789754 0.813280 0.340380
O O16 0.810233 0.782364 0.229248
O O17 0.000000 0.714964 0.303188
O O18 0.760351 0.834245 0.654766
O O19 0.000000 0.883747 0.605429
O O20 0.793598 0.000000 0.621513
O O21 0.500000 0.630034 0.907488
O O22 0.000000 0.270649 0.151258
#
# Coordination Sequence:
#
# PCOD8189280 Si02
#       8
#     8   8   8   8   8   8   8   8
#     4  10  21  36  54  78 108 141 178 221 268 316
#     4  10  20  33  52  79 108 136 169 211 259 313
#     4  10  20  33  51  77 106 134 168 211 259 313
#     4  10  20  33  51  77 107 137 169 206 253 311
#     4   9  20  37  54  74 100 133 176 218 256 305
#     4  10  21  36  55  81 112 143 175 214 263 319
#     4   9  18  33  52  75 103 133 167 211 262 313
#     4  10  21  38  58  78 104 141 183 224 264 309
#
# _framework density 19.346788
#
# number of rings (size 3 to 8) (size 9 to 14) (size 15 to 20)
#    0.000    2.250    0.000    3.375    0.000   10.250 
#    0.000    3.125    0.000    2.250    0.000    0.000 
#    0.000    0.000    0.000    0.000    0.000    0.000 
#
# Total GULP energy -396714.059006 kJ/mol
# GULP energy per Si atom -12397.314344 kJ/mol
# Density = 1.930275 g / cm^3
# Si number density = 19.346788 Si / 1000 Ang^3
#
#
#
# Elastic Constant Matrix: (Units=GPa)
#
#
# Indices 1 2 3 4 5 6 
#
# 1 97.9639 28.4076 43.1019 0.0000 0.0000 0.0000
# 2 28.4076 51.9385 36.3372 0.0000 0.0000 0.0000
# 3 43.1019 36.3372 115.4093 0.0000 0.0000 0.0000
# 4 0.0000 0.0000 0.0000 17.0559 0.0000 0.0000
# 5 0.0000 0.0000 0.0000 0.0000 28.3938 0.0000
# 6 0.0000 0.0000 0.0000 0.0000 0.0000 25.6987
#
#
#
# Elastic Compliance Matrix: (Units=1/GPa)
#
#
# Indices 1 2 3 4 5 6 
#
# 1 0.013084 -0.004793 -0.003377 0.000000 0.000000 0.000000
# 2 -0.004793 0.026449 -0.006537 0.000000 0.000000 0.000000
# 3 -0.003377 -0.006537 0.011984 0.000000 0.000000 0.000000
# 4 0.000000 0.000000 0.000000 0.058631 0.000000 0.000000
# 5 0.000000 0.000000 0.000000 0.000000 0.035219 0.000000
# 6 0.000000 0.000000 0.000000 0.000000 0.000000 0.038912
#
#
# Mechanical properties :
#
#
# Convention : Reuss Voigt Hill
#
# Bulk Modulus (GPa) = 45.24638 53.44503 49.34570
# Shear Modulus (GPa) = 22.61807 24.72735 23.67271
#
# Velocity S-wave (km/s) = 3.42290 3.57895 3.50179
# Velocity P-wave (km/s) = 6.24976 6.69053 6.47390
#
# Compressibility (1/GPa) = 0.02210121
#
# Stress axis : x y z
#
# Youngs Moduli (GPa) = 76.43096 37.80863 83.44168
#
# Poissons Ratio (x) = 0.18123 0.28180
# Poissons Ratio (y) = 0.36636 0.54549
# Poissons Ratio (z) = 0.25812 0.24717
#
# Static dielectric constant tensor:
#      x y z
#    x 3.690170 0.000000 0.000000 
#    y 0.000000 3.397900 0.000000 
#    z 0.000000 0.000000 3.487120 
# 
# 
# High freq. dielectric constant tensor:
#      x y z
#    x 1.759810 0.000000 0.000000 
#    y 0.000000 1.735840 0.000000 
#    z 0.000000 0.000000 1.745750 
# 
# From -- ./inp_files/23286.got.cif
#   From: 2010.03.12/outbox.cif.g09.slc.cpg/sg44_12_cif.got.tgz:23286.got - 2010.04.14 02:36:11.
