data_PCOD8189763
_publ_section_title
;
Structure prediction by ZEFSAII (Michael W. Deem and Ramdas Pophale) SiO2 
 PCOD8189763
Probable space group: I M M 2
;
_chemical_formula_sum "Si O2"
_cell_formula_units_Z 64
_cell_length_a 8.665395
_cell_length_b 23.785590
_cell_length_c 15.249160
_cell_angle_alpha 90.000000
_cell_angle_beta 90.000000
_cell_angle_gamma 90.000000
_cell_volume 3143.027739
_symmetry_space_group_name_H-M "I M M 2"
_symmetry_group_IT_number 44
_symmetry_cell_setting 'orthorhombic'
loop_
_space_group_symop_operation_xyz
x,y,z
-x,-y,z
-x,y,z
x,-y,z
1/2+x,1/2+y,1/2+z
1/2-x,1/2-y,1/2+z
1/2-x,1/2+y,1/2+z
1/2+x,1/2-y,1/2+z
loop_
_atom_site_type_symbol
_atom_site_label
_atom_site_fract_x
_atom_site_fract_y
_atom_site_fract_z
Si Si1 0.678709 0.934726 0.785170
Si Si2 0.318124 0.141074 0.452526
Si Si3 0.321892 0.751849 0.693026
Si Si4 0.179241 0.135399 0.631188
Si Si5 0.322591 0.371902 0.441645
Si Si6 0.677987 0.370979 0.640852
Si Si7 0.682005 0.937292 0.296326
Si Si8 0.821896 0.744152 0.398380
O O1 0.500000 0.923220 0.765341
O O2 0.779211 0.903633 0.712815
O O3 0.716733 0.910601 0.880850
O O4 0.720190 0.000000 0.783346
O O5 0.500000 0.150138 0.443679
O O6 0.275226 0.114292 0.546541
O O7 0.253389 0.100488 0.376082
O O8 0.232324 0.200472 0.448419
O O9 0.500000 0.765420 0.671114
O O10 0.216828 0.800159 0.652710
O O11 0.266915 0.693436 0.650386
O O12 0.293268 0.747520 0.795977
O O13 0.000000 0.129393 0.610441
O O14 0.500000 0.379813 0.414091
O O15 0.295565 0.391287 0.541568
O O16 0.280301 0.306830 0.432841
O O17 0.500000 0.374986 0.669239
O O18 0.774909 0.411392 0.702930
O O19 0.500000 0.940301 0.303510
O O20 0.752595 0.000000 0.303944
O O21 0.000000 0.732103 0.419589
#
# Coordination Sequence:
#
# PCOD8189763 Si02
#       8
#     8   8   8   8   8   8   8   8
#     4  11  25  45  66  87 118 163 210 258 312 366
#     4  11  23  40  63  90 126 165 205 252 307 367
#     4  10  20  37  62  91 127 163 199 245 304 369
#     4  12  25  40  64  95 126 159 203 253 309 372
#     4  11  23  39  63  93 126 163 203 250 307 371
#     4  10  22  40  62  90 123 161 200 245 302 359
#     4  10  23  42  63  88 118 157 205 253 299 354
#     4  11  21  36  63  94 126 162 203 250 306 368
#
# _framework density 20.362531000000001
#
# number of rings (size 3 to 8) (size 9 to 14) (size 15 to 20)
#    0.000    1.250    2.500    3.375    0.000    5.750 
#    0.000    3.750    0.000    0.000    0.000    0.000 
#    0.000    0.000    0.000    0.000    0.000    0.000 
#
# Total GULP energy -397005.068979 kJ/mol
# GULP energy per Si atom -12406.408406 kJ/mol
# Density = 2.031619 g / cm^3
# Si number density = 20.362531 Si / 1000 Ang^3
#
#
#
# Elastic Constant Matrix: (Units=GPa)
#
#
# Indices 1 2 3 4 5 6 
#
# 1 42.3474 23.1470 22.1703 0.0000 0.0000 0.0000
# 2 23.1470 113.0528 36.5942 0.0000 0.0000 0.0000
# 3 22.1703 36.5942 109.6909 0.0002 0.0001 0.0000
# 4 0.0000 0.0000 0.0002 4.7036 0.0000 0.0000
# 5 0.0000 0.0000 0.0001 0.0000 33.5419 0.0000
# 6 0.0000 0.0000 0.0000 0.0000 0.0000 28.3688
#
#
#
# Elastic Compliance Matrix: (Units=1/GPa)
#
#
# Indices 1 2 3 4 5 6 
#
# 1 0.028244 -0.004411 -0.004237 0.000000 0.000000 0.000000
# 2 -0.004411 0.010605 -0.002646 0.000000 0.000000 0.000000
# 3 -0.004237 -0.002646 0.010856 0.000000 0.000000 0.000000
# 4 0.000000 0.000000 0.000000 0.212602 0.000000 0.000000
# 5 0.000000 0.000000 0.000000 0.000000 0.029813 0.000000
# 6 0.000000 0.000000 0.000000 0.000000 0.000000 0.035250
#
#
# Mechanical properties :
#
#
# Convention : Reuss Voigt Hill
#
# Bulk Modulus (GPa) = 36.87939 47.65711 42.26825
# Shear Modulus (GPa) = 13.92769 25.53484 19.73126
#
# Velocity S-wave (km/s) = 2.61815 3.54504 3.11625
# Velocity P-wave (km/s) = 5.22401 6.34126 5.80956
#
# Compressibility (1/GPa) = 0.02711541
#
# Stress axis : x y z
#
# Youngs Moduli (GPa) = 35.40632 94.29300 92.11716
#
# Poissons Ratio (x) = 0.41596 0.39028
# Poissons Ratio (y) = 0.15619 0.24378
# Poissons Ratio (z) = 0.15001 0.24954
#
# Static dielectric constant tensor:
#      x y z
#    x 3.621930 0.000000 0.000000 
#    y 0.000000 3.734670 0.000000 
#    z 0.000000 0.000000 3.834950 
# 
# 
# High freq. dielectric constant tensor:
#      x y z
#    x 1.793420 0.000000 0.000000 
#    y 0.000000 1.791700 0.000000 
#    z 0.000000 0.000000 1.811680 
# 
# From -- ./inp_files/16826.got.cif
#   From: 2010.03.12/outbox.cif.g09.slc.cpg/sg44_9_cif.got.tgz:16826.got - 2010.04.14 02:36:11.
