data_PCOD8189258
_publ_section_title
;
Structure prediction by ZEFSAII (Michael W. Deem and Ramdas Pophale) SiO2 
 PCOD8189258
Probable space group: I M M 2
;
_chemical_formula_sum "Si O2"
_cell_formula_units_Z 64
_cell_length_a 14.292664
_cell_length_b 8.638038
_cell_length_c 28.005000
_cell_angle_alpha 90.000000
_cell_angle_beta 90.000000
_cell_angle_gamma 90.000000
_cell_volume 3457.513396
_symmetry_space_group_name_H-M "I M M 2"
_symmetry_group_IT_number 44
_symmetry_cell_setting 'orthorhombic'
loop_
_space_group_symop_operation_xyz
x,y,z
-x,-y,z
-x,y,z
x,-y,z
1/2+x,1/2+y,1/2+z
1/2-x,1/2-y,1/2+z
1/2-x,1/2+y,1/2+z
1/2+x,1/2-y,1/2+z
loop_
_atom_site_type_symbol
_atom_site_label
_atom_site_fract_x
_atom_site_fract_y
_atom_site_fract_z
Si Si1 0.892154 0.179547 0.478640
Si Si2 0.282376 0.179694 0.894200
Si Si3 0.782228 0.680707 0.671669
Si Si4 0.606908 0.678669 0.257825
Si Si5 0.607002 0.178648 0.078473
Si Si6 0.892762 0.822047 0.308064
Si Si7 0.893450 0.680865 0.208435
Si Si8 0.106505 0.681114 0.857601
O O1 0.826371 0.281715 0.445221
O O2 0.866339 0.217448 0.533149
O O3 0.000000 0.223409 0.468474
O O4 0.873405 0.000000 0.468526
O O5 0.331848 0.279095 0.853454
O O6 0.172880 0.226607 0.894375
O O7 0.295193 0.000000 0.883272
O O8 0.798405 0.500000 0.680741
O O9 0.830139 0.777792 0.713247
O O10 0.826014 0.731590 0.621360
O O11 0.672356 0.724574 0.671862
O O12 0.500000 0.713680 0.243828
O O13 0.622435 0.500000 0.271068
O O14 0.636924 0.779778 0.303458
O O15 0.500000 0.207461 0.094390
O O16 0.623120 0.000000 0.064894
O O17 0.863734 0.718641 0.262784
O O18 0.000000 0.791905 0.322263
O O19 0.874973 0.000000 0.294348
O O20 0.881013 0.500000 0.199297
O O21 0.000000 0.734809 0.199236
O O22 0.118119 0.500000 0.866408
O O23 0.000000 0.735729 0.866768
#
# Coordination Sequence:
#
# PCOD8189258 Si02
#       8
#     8   8   8   8   8   8   8   8
#     4  10  21  37  57  81 108 136 168 209 256 306
#     4  12  23  34  53  78 106 139 173 211 256 309
#     4  11  21  33  53  78 105 138 175 214 257 308
#     4  10  20  33  50  75 108 142 176 214 255 303
#     4   9  19  36  56  79 107 136 166 204 255 312
#     4  10  20  34  52  75 105 139 176 217 258 304
#     4  10  21  36  52  72 102 139 178 219 261 305
#     4  10  21  37  55  74 101 138 178 219 260 302
#
# _framework density 18.510411999999999
#
# number of rings (size 3 to 8) (size 9 to 14) (size 15 to 20)
#    0.000    1.750    0.000    4.875    0.000    6.750 
#    0.000    1.250    0.000    0.750    0.000    3.500 
#    0.000    0.000    0.000    0.000    0.000    0.000 
#
# Total GULP energy -396970.872407 kJ/mol
# GULP energy per Si atom -12405.339763 kJ/mol
# Density = 1.846828 g / cm^3
# Si number density = 18.510412 Si / 1000 Ang^3
#
#
#
# Elastic Constant Matrix: (Units=GPa)
#
#
# Indices 1 2 3 4 5 6 
#
# 1 93.1309 26.5277 58.1043 0.0000 0.0000 0.0000
# 2 26.5277 57.7405 19.6211 0.0000 0.0000 0.0000
# 3 58.1043 19.6211 82.0970 0.0000 0.0000 0.0000
# 4 0.0000 0.0000 0.0000 29.7678 0.0000 0.0000
# 5 0.0000 0.0000 0.0000 0.0000 32.2366 0.0000
# 6 0.0000 0.0000 0.0000 0.0000 0.0000 30.0496
#
#
#
# Elastic Compliance Matrix: (Units=1/GPa)
#
#
# Indices 1 2 3 4 5 6 
#
# 1 0.020410 -0.004863 -0.013283 0.000000 0.000000 0.000000
# 2 -0.004863 0.020009 -0.001340 0.000000 0.000000 0.000000
# 3 -0.013283 -0.001340 0.021902 0.000000 0.000000 0.000000
# 4 0.000000 0.000000 0.000000 0.033593 0.000000 0.000000
# 5 0.000000 0.000000 0.000000 0.000000 0.031021 0.000000
# 6 0.000000 0.000000 0.000000 0.000000 0.000000 0.033278
#
#
# Mechanical properties :
#
#
# Convention : Reuss Voigt Hill
#
# Bulk Modulus (GPa) = 42.82997 49.05274 45.94136
# Shear Modulus (GPa) = 24.15832 26.99183 25.57507
#
# Velocity S-wave (km/s) = 3.61656 3.82278 3.72110
# Velocity P-wave (km/s) = 6.37400 6.78546 6.58295
#
# Compressibility (1/GPa) = 0.02334814
#
# Stress axis : x y z
#
# Youngs Moduli (GPa) = 48.99547 49.97861 45.65792
#
# Poissons Ratio (x) = 0.24306 0.60647
# Poissons Ratio (y) = 0.23828 0.06118
# Poissons Ratio (z) = 0.65080 0.06697
#
# Static dielectric constant tensor:
#      x y z
#    x 3.669140 0.000000 0.000000 
#    y 0.000000 3.400390 0.000000 
#    z 0.000000 0.000000 3.193360 
# 
# 
# High freq. dielectric constant tensor:
#      x y z
#    x 1.722960 0.000000 0.000000 
#    y 0.000000 1.728530 0.000000 
#    z 0.000000 0.000000 1.692200 
# 
# From -- ./inp_files/25193.got.cif
#   From: 2010.03.12/outbox.cif.g09.slc.cpg/sg44_13_cif.got.tgz:25193.got - 2010.04.14 02:36:11.
