data_PCOD8189922
_publ_section_title
;
Structure prediction by ZEFSAII (Michael W. Deem and Ramdas Pophale) SiO2 
 PCOD8189922
Probable space group: I M M 2
;
_chemical_formula_sum "Si O2"
_cell_formula_units_Z 40
_cell_length_a 13.591480
_cell_length_b 14.787761
_cell_length_c 10.115396
_cell_angle_alpha 90.000000
_cell_angle_beta 90.000000
_cell_angle_gamma 90.000000
_cell_volume 2033.068739
_symmetry_space_group_name_H-M "I M M 2"
_symmetry_group_IT_number 44
_symmetry_cell_setting 'orthorhombic'
loop_
_space_group_symop_operation_xyz
x,y,z
-x,-y,z
-x,y,z
x,-y,z
1/2+x,1/2+y,1/2+z
1/2-x,1/2-y,1/2+z
1/2-x,1/2+y,1/2+z
1/2+x,1/2-y,1/2+z
loop_
_atom_site_type_symbol
_atom_site_label
_atom_site_fract_x
_atom_site_fract_y
_atom_site_fract_z
Si Si1 0.802538 0.225173 0.293560
Si Si2 0.301970 0.600895 0.033373
Si Si3 0.113028 0.898689 0.075511
Si Si4 0.111952 0.397880 0.188179
Si Si5 0.111077 0.177527 0.791177
O O1 0.837680 0.169380 0.420497
O O2 0.824499 0.173061 0.158009
O O3 0.857859 0.322781 0.297452
O O4 0.684827 0.237522 0.295048
O O5 0.321697 0.500000 0.980936
O O6 0.185684 0.614519 0.064246
O O7 0.366117 0.615631 0.164468
O O8 0.000000 0.885428 0.115933
O O9 0.148649 0.000000 0.108943
O O10 0.128123 0.883424 0.920108
O O11 0.123127 0.500000 0.247103
O O12 0.000000 0.381049 0.140054
O O13 0.000000 0.214804 0.784194
#
# Coordination Sequence:
#
# PCOD8189922 Si02
#       5
#     8   8   8   8   8
#     4  11  21  35  56  85 115 141 178 229 278 321
#     4  10  21  36  57  85 112 140 178 229 281 320
#     4  10  21  38  60  83 109 145 185 224 271 328
#     4   9  19  37  58  79 107 146 188 223 263 326
#     4  10  21  37  56  78 109 150 188 220 264 325
#
# _framework density 19.674690999999999
#
# number of rings (size 3 to 8) (size 9 to 14) (size 15 to 20)
#    0.000    2.000    0.000    4.200    0.000    6.000 
#    0.000    0.000    0.000    1.800    0.000    0.000 
#    0.000    0.000    0.000    0.000    0.000    0.000 
#
# Total GULP energy -247973.446161 kJ/mol
# GULP energy per Si atom -12398.672308 kJ/mol
# Density = 1.962991 g / cm^3
# Si number density = 19.674691 Si / 1000 Ang^3
#
#
#
# Elastic Constant Matrix: (Units=GPa)
#
#
# Indices 1 2 3 4 5 6 
#
# 1 102.3731 38.4956 33.3440 0.0000 0.0000 0.0000
# 2 38.4956 141.6422 61.8117 0.0000 0.0000 0.0000
# 3 33.3440 61.8117 101.9264 0.0000 0.0000 0.0000
# 4 0.0000 0.0000 0.0000 34.2943 0.0000 0.0000
# 5 0.0000 0.0000 0.0000 0.0000 19.3308 0.0000
# 6 0.0000 0.0000 0.0000 0.0000 0.0000 26.0806
#
#
#
# Elastic Compliance Matrix: (Units=1/GPa)
#
#
# Indices 1 2 3 4 5 6 
#
# 1 0.011330 -0.001988 -0.002501 0.000000 0.000000 0.000000
# 2 -0.001988 0.009950 -0.005383 0.000000 0.000000 0.000000
# 3 -0.002501 -0.005383 0.013894 0.000000 0.000000 0.000000
# 4 0.000000 0.000000 0.000000 0.029159 0.000000 0.000000
# 5 0.000000 0.000000 0.000000 0.000000 0.051731 0.000000
# 6 0.000000 0.000000 0.000000 0.000000 0.000000 0.038343
#
#
# Mechanical properties :
#
#
# Convention : Reuss Voigt Hill
#
# Bulk Modulus (GPa) = 64.81302 68.13825 66.47564
# Shear Modulus (GPa) = 27.88703 30.09382 28.99043
#
# Velocity S-wave (km/s) = 3.76893 3.91522 3.84277
# Velocity P-wave (km/s) = 7.20789 7.42605 7.31778
#
# Compressibility (1/GPa) = 0.01542900
#
# Stress axis : x y z
#
# Youngs Moduli (GPa) = 88.25870 100.50628 71.97399
#
# Poissons Ratio (x) = 0.19980 0.18001
# Poissons Ratio (y) = 0.17545 0.38747
# Poissons Ratio (z) = 0.22074 0.54107
#
# Static dielectric constant tensor:
#      x y z
#    x 3.763900 0.000000 0.000000 
#    y 0.000000 3.706050 0.000000 
#    z 0.000000 0.000000 3.342580 
# 
# 
# High freq. dielectric constant tensor:
#      x y z
#    x 1.766340 0.000000 0.000000 
#    y 0.000000 1.774740 0.000000 
#    z 0.000000 0.000000 1.748560 
# 
# From -- ./inp_files/6809.got.cif
#   From: 2010.03.12/outbox.cif.g09.slc.cpg/sg44_4_cif.got.tgz:6809.got - 2010.04.14 02:36:11.
