data_PCOD8189389
_publ_section_title
;
Structure prediction by ZEFSAII (Michael W. Deem and Ramdas Pophale) SiO2 
 PCOD8189389
Probable space group: I M M 2
;
_chemical_formula_sum "Si O2"
_cell_formula_units_Z 56
_cell_length_a 8.551403
_cell_length_b 20.489075
_cell_length_c 15.266223
_cell_angle_alpha 90.000000
_cell_angle_beta 90.000000
_cell_angle_gamma 90.000000
_cell_volume 2674.800083
_symmetry_space_group_name_H-M "I M M 2"
_symmetry_group_IT_number 44
_symmetry_cell_setting 'orthorhombic'
loop_
_space_group_symop_operation_xyz
x,y,z
-x,-y,z
-x,y,z
x,-y,z
1/2+x,1/2+y,1/2+z
1/2-x,1/2-y,1/2+z
1/2-x,1/2+y,1/2+z
1/2+x,1/2-y,1/2+z
loop_
_atom_site_type_symbol
_atom_site_label
_atom_site_fract_x
_atom_site_fract_y
_atom_site_fract_z
Si Si1 0.318479 0.254789 0.678000
Si Si2 0.821383 0.129812 0.736231
Si Si3 0.676904 0.572946 0.898891
Si Si4 0.680371 0.197334 0.335105
Si Si5 0.684502 0.789814 0.988263
Si Si6 0.328368 0.928520 0.575190
Si Si7 0.318143 0.074011 0.907877
O O1 0.500000 0.236363 0.672721
O O2 0.215981 0.206223 0.743235
O O3 0.282615 0.313407 0.744708
O O4 0.256142 0.265825 0.580200
O O5 0.712160 0.119732 0.652548
O O6 0.775484 0.086553 0.818958
O O7 0.000000 0.114489 0.714942
O O8 0.500000 0.594064 0.875519
O O9 0.713200 0.500000 0.862779
O O10 0.806975 0.623275 0.867750
O O11 0.693088 0.573613 0.003648
O O12 0.500000 0.214936 0.318523
O O13 0.748195 0.247509 0.408442
O O14 0.500000 0.778942 0.991945
O O15 0.725568 0.867551 0.975799
O O16 0.500000 0.909551 0.537005
O O17 0.334038 0.000000 0.617953
O O18 0.500000 0.078381 0.885020
O O19 0.276816 0.000000 0.942645
#
# Coordination Sequence:
#
# PCOD8189389 Si02
#       7
#     8   8   8   8   8   8   8
#     4  12  25  42  64  90 123 164 214 269 321 383
#     4  12  23  36  57  88 123 159 206 261 321 384
#     4  10  21  38  60  87 121 161 205 254 313 378
#     4  12  24  41  65  94 127 163 209 263 320 386
#     4  11  23  42  67  95 130 171 216 269 326 391
#     4  10  20  34  53  80 117 159 201 245 301 369
#     4  10  22  41  65  92 127 172 217 265 327 395
#
# _framework density 20.936143000000001
#
# number of rings (size 3 to 8) (size 9 to 14) (size 15 to 20)
#    0.000    1.000    1.429    6.429    0.000    4.286 
#    0.000    0.714    0.000    2.571    0.000    0.000 
#    0.000    0.000    0.000    0.000    0.000    0.000 
#
# Total GULP energy -346869.038772 kJ/mol
# GULP energy per Si atom -12388.179956 kJ/mol
# Density = 2.088849 g / cm^3
# Si number density = 20.936143 Si / 1000 Ang^3
#
#
#
# Elastic Constant Matrix: (Units=GPa)
#
#
# Indices 1 2 3 4 5 6 
#
# 1 115.6329 37.5935 42.0378 0.0000 0.0000 0.0000
# 2 37.5935 95.5973 27.9989 0.0000 0.0000 0.0000
# 3 42.0378 27.9989 109.2553 -0.0002 0.0001 0.0000
# 4 0.0000 0.0000 -0.0002 26.0360 0.0000 0.0000
# 5 0.0000 0.0000 0.0001 0.0000 35.2978 0.0000
# 6 0.0000 0.0000 0.0000 0.0000 0.0000 21.6859
#
#
#
# Elastic Compliance Matrix: (Units=1/GPa)
#
#
# Indices 1 2 3 4 5 6 
#
# 1 0.010950 -0.003321 -0.003362 0.000000 0.000000 0.000000
# 2 -0.003321 0.012317 -0.001878 0.000000 0.000000 0.000000
# 3 -0.003362 -0.001878 0.010928 0.000000 0.000000 0.000000
# 4 0.000000 0.000000 0.000000 0.038408 0.000000 0.000000
# 5 0.000000 0.000000 0.000000 0.000000 0.028330 0.000000
# 6 0.000000 0.000000 0.000000 0.000000 0.000000 0.046113
#
#
# Mechanical properties :
#
#
# Convention : Reuss Voigt Hill
#
# Bulk Modulus (GPa) = 58.57903 59.52732 59.05317
# Shear Modulus (GPa) = 29.43586 30.79429 30.11508
#
# Velocity S-wave (km/s) = 3.75371 3.83935 3.79677
# Velocity P-wave (km/s) = 6.84308 6.93892 6.89117
#
# Compressibility (1/GPa) = 0.01707096
#
# Stress axis : x y z
#
# Youngs Moduli (GPa) = 91.32289 81.18946 91.50911
#
# Poissons Ratio (x) = 0.26967 0.30766
# Poissons Ratio (y) = 0.30332 0.17190
# Poissons Ratio (z) = 0.30703 0.15251
#
# Static dielectric constant tensor:
#      x y z
#    x 3.697730 0.000000 0.000000 
#    y 0.000000 4.241310 0.000000 
#    z 0.000000 0.000000 3.623400 
# 
# 
# High freq. dielectric constant tensor:
#      x y z
#    x 1.828770 0.000000 0.000000 
#    y 0.000000 1.832090 0.000000 
#    z 0.000000 0.000000 1.803860 
# 
# From -- ./inp_files/16459.got.cif
#   From: 2010.03.12/outbox.cif.g09.slc.cpg/sg44_9_cif.got.tgz:16459.got - 2010.04.14 02:36:11.
