data_PCOD8189886
_publ_section_title
;
Structure prediction by ZEFSAII (Michael W. Deem and Ramdas Pophale) SiO2 
 PCOD8189886
Probable space group: I M M 2
;
_chemical_formula_sum "Si O2"
_cell_formula_units_Z 56
_cell_length_a 23.498485
_cell_length_b 9.124752
_cell_length_c 13.781845
_cell_angle_alpha 90.000000
_cell_angle_beta 90.000000
_cell_angle_gamma 90.000000
_cell_volume 2955.073546
_symmetry_space_group_name_H-M "I M M 2"
_symmetry_group_IT_number 44
_symmetry_cell_setting 'orthorhombic'
loop_
_space_group_symop_operation_xyz
x,y,z
-x,-y,z
-x,y,z
x,-y,z
1/2+x,1/2+y,1/2+z
1/2-x,1/2-y,1/2+z
1/2-x,1/2+y,1/2+z
1/2+x,1/2-y,1/2+z
loop_
_atom_site_type_symbol
_atom_site_label
_atom_site_fract_x
_atom_site_fract_y
_atom_site_fract_z
Si Si1 0.326802 0.327484 0.765520
Si Si2 0.938443 0.171279 0.365410
Si Si3 0.934757 0.671949 0.939821
Si Si4 0.129607 0.171118 0.551833
Si Si5 0.434818 0.329099 0.243011
Si Si6 0.160357 0.831104 0.047905
Si Si7 0.274389 0.829143 0.940063
O O1 0.320723 0.500000 0.787235
O O2 0.390355 0.270054 0.791901
O O3 0.315375 0.287679 0.653920
O O4 0.282197 0.244587 0.834724
O O5 0.920209 0.205686 0.475393
O O6 0.000000 0.246754 0.345341
O O7 0.945087 0.000000 0.349653
O O8 0.925787 0.500000 0.932974
O O9 0.915984 0.740826 0.837669
O O10 0.000000 0.713065 0.964254
O O11 0.895040 0.735615 0.024263
O O12 0.106571 0.221569 0.656359
O O13 0.185785 0.260366 0.523286
O O14 0.145393 0.000000 0.550795
O O15 0.500000 0.294126 0.214333
O O16 0.427032 0.500000 0.265466
O O17 0.141293 0.000000 0.048712
O O18 0.209317 0.801169 0.969712
O O19 0.288536 0.000000 0.932695
#
# Coordination Sequence:
#
# PCOD8189886 Si02
#       7
#     8   8   8   8   8   8   8
#     4   9  19  36  56  78 104 135 175 220 263 312
#     4   8  13  24  46  75 102 128 164 211 258 303
#     4  10  22  38  55  79 110 140 172 214 265 319
#     4   9  17  30  50  76 106 141 180 220 263 312
#     4   9  17  31  53  80 110 145 184 223 260 305
#     4  10  22  39  58  79 103 137 180 220 260 312
#     4  10  21  36  53  77 109 140 175 221 269 316
#
# _framework density 18.950458999999999
#
# number of rings (size 3 to 8) (size 9 to 14) (size 15 to 20)
#    0.000    2.714    0.000    2.143    0.000    6.571 
#    0.000    4.286    0.000   10.286    0.000    0.000 
#    0.000    0.000    0.000    0.000    0.000    0.000 
#
# Total GULP energy -347169.013095 kJ/mol
# GULP energy per Si atom -12398.893325 kJ/mol
# Density = 1.890733 g / cm^3
# Si number density = 18.950459 Si / 1000 Ang^3
#
#
#
# Elastic Constant Matrix: (Units=GPa)
#
#
# Indices 1 2 3 4 5 6 
#
# 1 81.7563 42.4529 49.2801 0.0000 0.0000 0.0000
# 2 42.4529 67.9399 50.4442 0.0000 0.0000 0.0000
# 3 49.2801 50.4442 118.5782 0.0000 0.0000 0.0000
# 4 0.0000 0.0000 0.0000 27.6119 0.0000 0.0000
# 5 0.0000 0.0000 0.0000 0.0000 26.8093 0.0000
# 6 0.0000 0.0000 0.0000 0.0000 0.0000 26.4508
#
#
#
# Elastic Compliance Matrix: (Units=1/GPa)
#
#
# Indices 1 2 3 4 5 6 
#
# 1 0.019478 -0.009005 -0.004264 0.000000 0.000000 0.000000
# 2 -0.009005 0.025677 -0.007181 0.000000 0.000000 0.000000
# 3 -0.004264 -0.007181 0.013260 0.000000 0.000000 0.000000
# 4 0.000000 0.000000 0.000000 0.036216 0.000000 0.000000
# 5 0.000000 0.000000 0.000000 0.000000 0.037301 0.000000
# 6 0.000000 0.000000 0.000000 0.000000 0.000000 0.037806
#
#
# Mechanical properties :
#
#
# Convention : Reuss Voigt Hill
#
# Bulk Modulus (GPa) = 57.09238 61.40320 59.24779
# Shear Modulus (GPa) = 23.09723 24.58088 23.83906
#
# Velocity S-wave (km/s) = 3.49495 3.60545 3.55063
# Velocity P-wave (km/s) = 6.81754 7.05724 6.93843
#
# Compressibility (1/GPa) = 0.01751547
#
# Stress axis : x y z
#
# Youngs Moduli (GPa) = 51.34125 38.94471 75.41346
#
# Poissons Ratio (x) = 0.35069 0.32156
# Poissons Ratio (y) = 0.46232 0.54155
# Poissons Ratio (z) = 0.21892 0.27967
#
# Static dielectric constant tensor:
#      x y z
#    x 3.520530 0.000000 0.000000 
#    y 0.000000 3.260560 0.000000 
#    z 0.000000 0.000000 3.498620 
# 
# 
# High freq. dielectric constant tensor:
#      x y z
#    x 1.735360 0.000000 0.000000 
#    y 0.000000 1.714390 0.000000 
#    z 0.000000 0.000000 1.736490 
# 
# From -- ./inp_files/19181.got.cif
#   From: 2010.03.12/outbox.cif.g09.slc.cpg/sg44_10_cif.got.tgz:19181.got - 2010.04.14 02:36:11.
