data_PCOD8189000
_publ_section_title
;
Structure prediction by ZEFSAII (Michael W. Deem and Ramdas Pophale) SiO2 
 PCOD8189000
Probable space group: I M M 2
;
_chemical_formula_sum "Si O2"
_cell_formula_units_Z 56
_cell_length_a 9.482811
_cell_length_b 20.094048
_cell_length_c 15.603818
_cell_angle_alpha 90.000000
_cell_angle_beta 90.000000
_cell_angle_gamma 90.000000
_cell_volume 2973.277239
_symmetry_space_group_name_H-M "I M M 2"
_symmetry_group_IT_number 44
_symmetry_cell_setting 'orthorhombic'
loop_
_space_group_symop_operation_xyz
x,y,z
-x,-y,z
-x,y,z
x,-y,z
1/2+x,1/2+y,1/2+z
1/2-x,1/2-y,1/2+z
1/2-x,1/2+y,1/2+z
1/2+x,1/2-y,1/2+z
loop_
_atom_site_type_symbol
_atom_site_label
_atom_site_fract_x
_atom_site_fract_y
_atom_site_fract_z
Si Si1 0.838901 0.107928 0.622400
Si Si2 0.838892 0.201029 0.219622
Si Si3 0.347208 0.073931 0.473410
Si Si4 0.841796 0.924470 0.324712
Si Si5 0.662386 0.791041 0.875273
Si Si6 0.839012 0.576145 0.285765
Si Si7 0.660891 0.241618 0.062887
O O1 0.741617 0.065512 0.559840
O O2 0.773224 0.098882 0.715578
O O3 0.829347 0.181879 0.587197
O O4 0.000000 0.082180 0.623990
O O5 0.828813 0.123407 0.243660
O O6 0.773710 0.248938 0.294772
O O7 0.751461 0.202813 0.132578
O O8 0.000000 0.222885 0.201170
O O9 0.500000 0.109921 0.487095
O O10 0.256436 0.108207 0.398419
O O11 0.376031 0.000000 0.440466
O O12 0.000000 0.922722 0.362450
O O13 0.801640 0.000000 0.297695
O O14 0.500000 0.769812 0.878866
O O15 0.682220 0.870831 0.862781
O O16 0.727437 0.770816 0.967876
O O17 0.809259 0.500000 0.316527
O O18 0.000000 0.581716 0.250607
O O19 0.500000 0.215662 0.066648
#
# Coordination Sequence:
#
# PCOD8189000 Si02
#       7
#     8   8   8   8   8   8   8
#     4  11  21  33  51  77 109 142 178 225 283 336
#     4  10  19  35  58  80 106 143 181 223 277 330
#     4  10  20  32  48  74 107 141 178 218 263 321
#     4   9  18  33  53  77 106 141 180 220 269 330
#     4   9  18  35  56  77 107 144 182 225 275 328
#     4  10  20  35  56  79 106 144 189 234 278 328
#     4  10  21  36  55  80 108 140 183 232 276 328
#
# _framework density 18.834434999999999
#
# number of rings (size 3 to 8) (size 9 to 14) (size 15 to 20)
#    0.000    2.143    1.429    2.143    0.000    6.286 
#    0.000    2.143    0.000    0.857    0.000    0.000 
#    0.000    0.000    0.000    0.000    0.000    0.000 
#
# Total GULP energy -346974.802505 kJ/mol
# GULP energy per Si atom -12391.957232 kJ/mol
# Density = 1.879157 g / cm^3
# Si number density = 18.834435 Si / 1000 Ang^3
#
#
#
# Elastic Constant Matrix: (Units=GPa)
#
#
# Indices 1 2 3 4 5 6 
#
# 1 94.1165 25.4155 44.2222 0.0000 0.0000 0.0000
# 2 25.4155 92.1802 35.5144 0.0001 0.0000 0.0000
# 3 44.2222 35.5144 107.8157 0.0002 0.0000 0.0000
# 4 0.0000 0.0001 0.0002 27.4767 0.0000 0.0000
# 5 0.0000 0.0000 0.0000 0.0000 32.4267 0.0000
# 6 0.0000 0.0000 0.0000 0.0000 0.0000 17.4863
#
#
#
# Elastic Compliance Matrix: (Units=1/GPa)
#
#
# Indices 1 2 3 4 5 6 
#
# 1 0.013420 -0.001809 -0.004909 0.000000 0.000000 0.000000
# 2 -0.001809 0.012669 -0.003431 0.000000 0.000000 0.000000
# 3 -0.004909 -0.003431 0.012419 0.000000 0.000000 0.000000
# 4 0.000000 0.000000 0.000000 0.036394 0.000000 0.000000
# 5 0.000000 0.000000 0.000000 0.000000 0.030839 0.000000
# 6 0.000000 0.000000 0.000000 0.000000 0.000000 0.057188
#
#
# Mechanical properties :
#
#
# Convention : Reuss Voigt Hill
#
# Bulk Modulus (GPa) = 54.91415 56.04628 55.48022
# Shear Modulus (GPa) = 26.41366 28.07531 27.24449
#
# Velocity S-wave (km/s) = 3.74894 3.86507 3.80745
# Velocity P-wave (km/s) = 6.92524 7.05268 6.98925
#
# Compressibility (1/GPa) = 0.01821024
#
# Stress axis : x y z
#
# Youngs Moduli (GPa) = 74.51575 78.93277 80.52430
#
# Poissons Ratio (x) = 0.14279 0.39526
# Poissons Ratio (y) = 0.13480 0.27629
# Poissons Ratio (z) = 0.36576 0.27083
#
# Static dielectric constant tensor:
#      x y z
#    x 3.621740 0.000000 0.000000 
#    y 0.000000 3.480730 0.000000 
#    z 0.000000 0.000000 3.336390 
# 
# 
# High freq. dielectric constant tensor:
#      x y z
#    x 1.720440 0.000000 0.000000 
#    y 0.000000 1.730080 0.000000 
#    z 0.000000 0.000000 1.712390 
# 
# From -- ./inp_files/16417.got.cif
#   From: 2010.03.12/outbox.cif.g09.slc.cpg/sg44_9_cif.got.tgz:16417.got - 2010.04.14 02:36:11.
