data_PCOD8189091
_publ_section_title
;
Structure prediction by ZEFSAII (Michael W. Deem and Ramdas Pophale) SiO2 
 PCOD8189091
Probable space group: I M M 2
;
_chemical_formula_sum "Si O2"
_cell_formula_units_Z 48
_cell_length_a 8.971245
_cell_length_b 14.358565
_cell_length_c 20.220108
_cell_angle_alpha 90.000000
_cell_angle_beta 90.000000
_cell_angle_gamma 90.000000
_cell_volume 2604.637126
_symmetry_space_group_name_H-M "I M M 2"
_symmetry_group_IT_number 44
_symmetry_cell_setting 'orthorhombic'
loop_
_space_group_symop_operation_xyz
x,y,z
-x,-y,z
-x,y,z
x,-y,z
1/2+x,1/2+y,1/2+z
1/2-x,1/2-y,1/2+z
1/2-x,1/2+y,1/2+z
1/2+x,1/2-y,1/2+z
loop_
_atom_site_type_symbol
_atom_site_label
_atom_site_fract_x
_atom_site_fract_y
_atom_site_fract_z
Si Si1 0.826599 0.317513 0.269780
Si Si2 0.172039 0.807632 0.902548
Si Si3 0.176556 0.000000 0.716748
Si Si4 0.323758 0.000000 0.111068
Si Si5 0.173298 0.685150 0.028962
Si Si6 0.326735 0.500000 0.470124
Si Si7 0.176084 0.000000 0.566123
Si Si8 0.673687 0.314864 0.649011
O O1 0.774896 0.279834 0.340905
O O2 0.735145 0.409639 0.253720
O O3 0.791351 0.237399 0.217074
O O4 0.000000 0.342758 0.270222
O O5 0.000000 0.803485 0.881118
O O6 0.214541 0.910593 0.926924
O O7 0.206795 0.734682 0.960013
O O8 0.235009 0.000000 0.641479
O O9 0.000000 0.000000 0.720640
O O10 0.265415 0.090092 0.149912
O O11 0.500000 0.000000 0.112023
O O12 0.268866 0.000000 0.036095
O O13 0.264410 0.590105 0.028442
O O14 0.229082 0.751072 0.088305
O O15 0.000000 0.662014 0.038595
O O16 0.500000 0.500000 0.491128
O O17 0.000000 0.000000 0.563557
O O18 0.500000 0.338631 0.640446
#
# Coordination Sequence:
#
# PCOD8189091 Si02
#       8
#     8   8   4   4   8   4   4   8
#     4  11  23  38  60  88 118 154 194 242 290 341
#     4  10  21  37  60  87 118 157 192 234 290 349
#     4  11  22  36  57  87 124 158 187 233 294 350
#     4  12  24  35  58  93 120 146 190 249 292 330
#     4  10  20  38  63  85 112 155 200 236 280 350
#     4  10  19  37  60  84 118 158 193 226 285 356
#     4  11  23  36  57  90 122 150 188 248 297 328
#     4  10  21  40  62  83 114 155 196 235 286 350
#
# _framework density 18.42867
#
# number of rings (size 3 to 8) (size 9 to 14) (size 15 to 20)
#    0.000    1.500    3.333    2.250    0.000    4.667 
#    0.000    0.833    0.000    0.000    0.000    0.000 
#    0.000    0.000    0.000    0.000    0.000    0.000 
#
# Total GULP energy -297754.253181 kJ/mol
# GULP energy per Si atom -12406.427216 kJ/mol
# Density = 1.838673 g / cm^3
# Si number density = 18.428670 Si / 1000 Ang^3
#
#
#
# Elastic Constant Matrix: (Units=GPa)
#
#
# Indices 1 2 3 4 5 6 
#
# 1 79.1902 56.9489 52.5284 0.0000 0.0000 0.0000
# 2 56.9489 133.2031 59.9152 0.0000 0.0000 0.0000
# 3 52.5284 59.9152 124.3601 0.0000 0.0000 0.0000
# 4 0.0000 0.0000 0.0000 20.5537 0.0000 0.0000
# 5 0.0000 0.0000 0.0000 0.0000 33.8003 0.0000
# 6 0.0000 0.0000 0.0000 0.0000 0.0000 13.6980
#
#
#
# Elastic Compliance Matrix: (Units=1/GPa)
#
#
# Indices 1 2 3 4 5 6 
#
# 1 0.021094 -0.006397 -0.005828 0.000000 0.000000 0.000000
# 2 -0.006397 0.011524 -0.002850 0.000000 0.000000 0.000000
# 3 -0.005828 -0.002850 0.011876 0.000000 0.000000 0.000000
# 4 0.000000 0.000000 0.000000 0.048653 0.000000 0.000000
# 5 0.000000 0.000000 0.000000 0.000000 0.029586 0.000000
# 6 0.000000 0.000000 0.000000 0.000000 0.000000 0.073003
#
#
# Mechanical properties :
#
#
# Convention : Reuss Voigt Hill
#
# Bulk Modulus (GPa) = 69.71540 75.05984 72.38762
# Shear Modulus (GPa) = 21.67620 24.76778 23.22199
#
# Velocity S-wave (km/s) = 3.43333 3.67001 3.55364
# Velocity P-wave (km/s) = 7.32318 7.66662 7.49687
#
# Compressibility (1/GPa) = 0.01434403
#
# Stress axis : x y z
#
# Youngs Moduli (GPa) = 47.40706 86.77298 84.20332
#
# Poissons Ratio (x) = 0.55509 0.49072
# Poissons Ratio (y) = 0.30326 0.24000
# Poissons Ratio (z) = 0.27628 0.24733
#
# Static dielectric constant tensor:
#      x y z
#    x 3.320090 0.000000 0.000000 
#    y 0.000000 3.338000 0.000000 
#    z 0.000000 0.000000 3.427550 
# 
# 
# High freq. dielectric constant tensor:
#      x y z
#    x 1.712120 0.000000 0.000000 
#    y 0.000000 1.717700 0.000000 
#    z 0.000000 0.000000 1.716950 
# 
# From -- ./inp_files/20361.got.cif
#   From: 2010.03.12/outbox.cif.g09.slc.cpg/sg44_11_cif.got.tgz:20361.got - 2010.04.14 02:36:11.
