data_PCOD8189646
_publ_section_title
;
Structure prediction by ZEFSAII (Michael W. Deem and Ramdas Pophale) SiO2 
 PCOD8189646
Probable space group: I M M 2
;
_chemical_formula_sum "Si O2"
_cell_formula_units_Z 48
_cell_length_a 8.793263
_cell_length_b 18.432456
_cell_length_c 15.192414
_cell_angle_alpha 90.000000
_cell_angle_beta 90.000000
_cell_angle_gamma 90.000000
_cell_volume 2462.408237
_symmetry_space_group_name_H-M "I M M 2"
_symmetry_group_IT_number 44
_symmetry_cell_setting 'orthorhombic'
loop_
_space_group_symop_operation_xyz
x,y,z
-x,-y,z
-x,y,z
x,-y,z
1/2+x,1/2+y,1/2+z
1/2-x,1/2-y,1/2+z
1/2-x,1/2+y,1/2+z
1/2+x,1/2-y,1/2+z
loop_
_atom_site_type_symbol
_atom_site_label
_atom_site_fract_x
_atom_site_fract_y
_atom_site_fract_z
Si Si1 0.824926 0.579217 0.676090
Si Si2 0.180337 0.844563 0.615873
Si Si3 0.323256 0.739576 0.948617
Si Si4 0.320314 0.500000 0.370547
Si Si5 0.181631 0.000000 0.675481
Si Si6 0.178275 0.119207 0.003835
Si Si7 0.178999 0.728442 0.759310
O O1 0.807587 0.500000 0.723738
O O2 0.716049 0.575477 0.591835
O O3 0.770466 0.646074 0.736661
O O4 0.000000 0.591507 0.647495
O O5 0.226678 0.824708 0.515532
O O6 0.243249 0.926297 0.630163
O O7 0.246511 0.787362 0.689108
O O8 0.000000 0.842509 0.625937
O O9 0.500000 0.735407 0.926707
O O10 0.234171 0.742141 0.857724
O O11 0.283021 0.810345 0.004605
O O12 0.500000 0.500000 0.366154
O O13 0.250085 0.500000 0.273692
O O14 0.267763 0.427975 0.420665
O O15 0.000000 0.000000 0.675512
O O16 0.000000 0.138403 0.999804
O O17 0.000000 0.736667 0.760366
#
# Coordination Sequence:
#
# PCOD8189646 Si02
#       7
#     8   8   8   4   4   8   8
#     4  10  20  36  58  82 114 153 189 231 288 347
#     4   9  18  34  56  78 109 145 181 228 282 339
#     4  11  22  37  55  83 113 148 193 237 284 339
#     4   9  18  30  51  84 111 134 180 235 281 336
#     4   9  16  30  52  76 103 140 182 223 275 332
#     4  11  20  33  55  84 115 147 185 233 288 344
#     4  10  20  38  59  81 110 150 192 232 283 346
#
# _framework density 19.493110999999999
#
# number of rings (size 3 to 8) (size 9 to 14) (size 15 to 20)
#    0.000    2.000    2.500    2.000    0.000    3.333 
#    1.500    0.000    0.000    0.000    0.000    2.333 
#    0.000    0.000    0.000    0.000    0.000    0.000 
#
# Total GULP energy -297451.248989 kJ/mol
# GULP energy per Si atom -12393.802041 kJ/mol
# Density = 1.944874 g / cm^3
# Si number density = 19.493111 Si / 1000 Ang^3
#
#
#
# Elastic Constant Matrix: (Units=GPa)
#
#
# Indices 1 2 3 4 5 6 
#
# 1 12.1678 14.7247 10.9136 0.0000 0.0000 0.0000
# 2 14.7247 149.1804 40.2436 0.0000 0.0000 0.0000
# 3 10.9136 40.2436 85.1622 0.0000 0.0000 0.0000
# 4 0.0000 0.0000 0.0000 33.2310 0.0000 0.0000
# 5 0.0000 0.0000 0.0000 0.0000 27.8237 0.0000
# 6 0.0000 0.0000 0.0000 0.0000 0.0000 15.9103
#
#
#
# Elastic Compliance Matrix: (Units=1/GPa)
#
#
# Indices 1 2 3 4 5 6 
#
# 1 0.099344 -0.007302 -0.009280 0.000000 0.000000 0.000000
# 2 -0.007302 0.008219 -0.002948 0.000000 0.000000 0.000000
# 3 -0.009280 -0.002948 0.014325 0.000000 0.000000 0.000000
# 4 0.000000 0.000000 0.000000 0.030092 0.000000 0.000000
# 5 0.000000 0.000000 0.000000 0.000000 0.035941 0.000000
# 6 0.000000 0.000000 0.000000 0.000000 0.000000 0.062852
#
#
# Mechanical properties :
#
#
# Convention : Reuss Voigt Hill
#
# Bulk Modulus (GPa) = 12.07337 42.03046 27.05191
# Shear Modulus (GPa) = 15.75077 27.43490 21.59283
#
# Velocity S-wave (km/s) = 2.84565 3.75562 3.33185
# Velocity P-wave (km/s) = 4.12360 6.35726 5.35812
#
# Compressibility (1/GPa) = 0.08282695
#
# Stress axis : x y z
#
# Youngs Moduli (GPa) = 10.06598 121.66341 69.80886
#
# Poissons Ratio (x) = 0.88840 0.64786
# Poissons Ratio (y) = 0.07350 0.20582
# Poissons Ratio (z) = 0.09342 0.35870
#
# Static dielectric constant tensor:
#      x y z
#    x 3.116950 0.000000 0.000000 
#    y 0.000000 3.961450 0.000000 
#    z 0.000000 0.000000 3.604350 
# 
# 
# High freq. dielectric constant tensor:
#      x y z
#    x 1.719100 0.000000 0.000000 
#    y 0.000000 1.774770 0.000000 
#    z 0.000000 0.000000 1.753090 
# 
# From -- ./inp_files/16152.got.cif
#   From: 2010.03.12/outbox.cif.g09.slc.cpg/sg44_9_cif.got.tgz:16152.got - 2010.04.14 02:36:11.
