data_PCOD8189607
_publ_section_title
;
Structure prediction by ZEFSAII (Michael W. Deem and Ramdas Pophale) SiO2 
 PCOD8189607
Probable space group: I M M 2
;
_chemical_formula_sum "Si O2"
_cell_formula_units_Z 48
_cell_length_a 8.649639
_cell_length_b 18.028881
_cell_length_c 14.831959
_cell_angle_alpha 90.000000
_cell_angle_beta 90.000000
_cell_angle_gamma 90.000000
_cell_volume 2312.944813
_symmetry_space_group_name_H-M "I M M 2"
_symmetry_group_IT_number 44
_symmetry_cell_setting 'orthorhombic'
loop_
_space_group_symop_operation_xyz
x,y,z
-x,-y,z
-x,y,z
x,-y,z
1/2+x,1/2+y,1/2+z
1/2-x,1/2-y,1/2+z
1/2-x,1/2+y,1/2+z
1/2+x,1/2-y,1/2+z
loop_
_atom_site_type_symbol
_atom_site_label
_atom_site_fract_x
_atom_site_fract_y
_atom_site_fract_z
Si Si1 0.317225 0.345502 0.266510
Si Si2 0.676940 0.917645 0.184626
Si Si3 0.323111 0.500000 0.019058
Si Si4 0.819385 0.769134 0.122308
Si Si5 0.324555 0.231099 0.929541
Si Si6 0.172146 0.107899 0.363989
Si Si7 0.179888 0.500000 0.205858
O O1 0.500000 0.343627 0.265410
O O2 0.261146 0.285521 0.193206
O O3 0.258355 0.330026 0.367925
O O4 0.259083 0.427248 0.245095
O O5 0.500000 0.895679 0.166370
O O6 0.785531 0.855782 0.140605
O O7 0.705172 0.920743 0.291707
O O8 0.711936 0.000000 0.144504
O O9 0.500000 0.500000 0.055743
O O10 0.201135 0.500000 0.098824
O O11 0.289196 0.426711 0.960871
O O12 0.000000 0.754522 0.130386
O O13 0.764407 0.752297 0.021597
O O14 0.500000 0.206293 0.951240
O O15 0.321195 0.304177 0.868894
O O16 0.000000 0.082207 0.334337
O O17 0.000000 0.500000 0.230212
#
# Coordination Sequence:
#
# PCOD8189607 Si02
#       7
#     8   8   4   8   8   8   4
#     4  12  25  45  70  97 133 174 219 273 331 392
#     4  11  23  39  62  93 130 169 212 264 324 383
#     4  10  20  36  60  95 132 169 210 262 328 390
#     4  12  25  43  68  98 131 173 222 271 327 390
#     4  11  23  41  66  98 131 170 218 270 330 391
#     4  10  20  35  61  92 127 165 206 257 322 388
#     4  12  26  44  66  95 130 171 220 272 328 390
#
# _framework density 20.752763999999999
#
# number of rings (size 3 to 8) (size 9 to 14) (size 15 to 20)
#    0.000    0.833    2.500    5.750    0.000    3.667 
#    1.500    0.000    0.000    0.000    0.000    0.000 
#    0.000    0.000    0.000    0.000    0.000    0.000 
#
# Total GULP energy -297651.548248 kJ/mol
# GULP energy per Si atom -12402.147844 kJ/mol
# Density = 2.070553 g / cm^3
# Si number density = 20.752764 Si / 1000 Ang^3
#
#
#
# Elastic Constant Matrix: (Units=GPa)
#
#
# Indices 1 2 3 4 5 6 
#
# 1 124.5098 42.6392 23.0829 0.0000 0.0000 0.0000
# 2 42.6392 116.5370 23.2071 0.0000 0.0000 0.0000
# 3 23.0829 23.2071 72.7690 0.0001 0.0000 0.0000
# 4 0.0000 0.0000 0.0001 31.1294 0.0000 0.0000
# 5 0.0000 0.0000 0.0000 0.0000 38.8050 0.0000
# 6 0.0000 0.0000 0.0000 0.0000 0.0000 31.5781
#
#
#
# Elastic Compliance Matrix: (Units=1/GPa)
#
#
# Indices 1 2 3 4 5 6 
#
# 1 0.009453 -0.003056 -0.002024 0.000000 0.000000 0.000000
# 2 -0.003056 0.010151 -0.002268 0.000000 0.000000 0.000000
# 3 -0.002024 -0.002268 0.015107 0.000000 0.000000 0.000000
# 4 0.000000 0.000000 0.000000 0.032124 0.000000 0.000000
# 5 0.000000 0.000000 0.000000 0.000000 0.025770 0.000000
# 6 0.000000 0.000000 0.000000 0.000000 0.000000 0.031668
#
#
# Mechanical properties :
#
#
# Convention : Reuss Voigt Hill
#
# Bulk Modulus (GPa) = 49.96042 54.63047 52.29545
# Shear Modulus (GPa) = 34.33121 35.29493 34.81307
#
# Velocity S-wave (km/s) = 4.07172 4.12847 4.10019
# Velocity P-wave (km/s) = 6.79938 7.00766 6.90430
#
# Compressibility (1/GPa) = 0.02001584
#
# Stress axis : x y z
#
# Youngs Moduli (GPa) = 105.78436 98.51602 66.19250
#
# Poissons Ratio (x) = 0.30104 0.13398
# Poissons Ratio (y) = 0.32325 0.15012
# Poissons Ratio (z) = 0.21412 0.22342
#
# Static dielectric constant tensor:
#      x y z
#    x 3.865960 0.000000 0.000000 
#    y 0.000000 3.982250 0.000000 
#    z 0.000000 0.000000 3.672220 
# 
# 
# High freq. dielectric constant tensor:
#      x y z
#    x 1.818710 0.000000 0.000000 
#    y 0.000000 1.824860 0.000000 
#    z 0.000000 0.000000 1.805710 
# 
# From -- ./inp_files/16122.got.cif
#   From: 2010.03.12/outbox.cif.g09.slc.cpg/sg44_9_cif.got.tgz:16122.got - 2010.04.14 02:36:11.
