data_PCOD8189798
_publ_section_title
;
Structure prediction by ZEFSAII (Michael W. Deem and Ramdas Pophale) SiO2 
 PCOD8189798
Probable space group: I M M 2
;
_chemical_formula_sum "Si O2"
_cell_formula_units_Z 42
_cell_length_a 11.287811
_cell_length_b 15.091793
_cell_length_c 11.569903
_cell_angle_alpha 90.000000
_cell_angle_beta 90.000000
_cell_angle_gamma 90.000000
_cell_volume 1970.971238
_symmetry_space_group_name_H-M "I M M 2"
_symmetry_group_IT_number 44
_symmetry_cell_setting 'orthorhombic'
loop_
_space_group_symop_operation_xyz
x,y,z
-x,-y,z
-x,y,z
x,-y,z
1/2+x,1/2+y,1/2+z
1/2-x,1/2-y,1/2+z
1/2-x,1/2+y,1/2+z
1/2+x,1/2-y,1/2+z
loop_
_atom_site_type_symbol
_atom_site_label
_atom_site_fract_x
_atom_site_fract_y
_atom_site_fract_z
Si Si1 0.856636 0.000000 0.269620
Si Si2 0.271588 0.854665 0.419303
Si Si3 0.366780 0.397336 0.128858
Si Si4 0.245434 0.000000 0.018853
Si Si5 0.500000 0.165974 0.800235
Si Si6 0.246040 0.832647 0.856336
Si Si7 0.000000 0.500000 0.459606
Si Si8 0.500000 0.904330 0.553132
O O1 0.792245 0.087437 0.319769
O O2 0.834532 0.000000 0.132368
O O3 0.000000 0.000000 0.293249
O O4 0.175069 0.839600 0.520465
O O5 0.323396 0.758700 0.379208
O O6 0.385645 0.901914 0.471451
O O7 0.500000 0.371144 0.162831
O O8 0.356567 0.500000 0.092960
O O9 0.282926 0.377785 0.235656
O O10 0.217871 0.908769 0.950176
O O11 0.386463 0.000000 0.044503
O O12 0.620985 0.209206 0.846686
O O13 0.500000 0.074017 0.864475
O O14 0.500000 0.164580 0.659652
O O15 0.500000 0.000000 0.613883
#
# Coordination Sequence:
#
# PCOD8189798 Si02
#       8
#     4   8   8   4   4   8   2   4
#     4  12  28  48  69  94 140 189 224 272 341 410
#     4  12  27  44  67 105 135 177 228 278 341 403
#     4  11  23  44  71  95 131 179 230 283 331 391
#     4  10  24  45  67  98 140 181 225 271 338 408
#     4  10  20  38  71  99 130 173 224 280 337 393
#     4  11  25  44  68 103 137 176 228 280 336 400
#     4   8  18  38  68  96 126 170 224 274 332 392
#     4  12  22  43  74 101 134 173 226 288 338 402
#
# _framework density 21.309291000000002
#
# number of rings (size 3 to 8) (size 9 to 14) (size 15 to 20)
#    0.000    0.952    5.238    0.571    6.667    1.524 
#    0.000    0.000    0.000    0.000    0.000    0.000 
#    0.000    0.000    0.000    0.000    0.000    0.000 
#
# Total GULP energy -260198.871536 kJ/mol
# GULP energy per Si atom -12390.422454 kJ/mol
# Density = 2.126079 g / cm^3
# Si number density = 21.309291 Si / 1000 Ang^3
#
#
#
# Elastic Constant Matrix: (Units=GPa)
#
#
# Indices 1 2 3 4 5 6 
#
# 1 79.7545 9.7699 24.0547 0.0000 0.0000 0.0000
# 2 9.7699 109.7714 30.5798 0.0000 0.0000 0.0000
# 3 24.0547 30.5798 114.5764 0.0001 0.0000 -0.0001
# 4 0.0000 0.0000 0.0001 28.2629 0.0000 -0.0001
# 5 0.0000 0.0000 0.0000 0.0000 29.0463 0.0000
# 6 0.0000 0.0000 -0.0001 -0.0001 0.0000 10.3349
#
#
#
# Elastic Compliance Matrix: (Units=1/GPa)
#
#
# Indices 1 2 3 4 5 6 
#
# 1 0.013406 -0.000442 -0.002697 0.000000 0.000000 0.000000
# 2 -0.000442 0.009856 -0.002538 0.000000 0.000000 0.000000
# 3 -0.002697 -0.002538 0.009971 0.000000 0.000000 0.000000
# 4 0.000000 0.000000 0.000000 0.035382 0.000000 0.000000
# 5 0.000000 0.000000 0.000000 0.000000 0.034428 0.000000
# 6 0.000000 0.000000 0.000000 0.000000 0.000000 0.096760
#
#
# Mechanical properties :
#
#
# Convention : Reuss Voigt Hill
#
# Bulk Modulus (GPa) = 45.70223 48.10123 46.90173
# Shear Modulus (GPa) = 22.88862 29.50867 26.19865
#
# Velocity S-wave (km/s) = 3.28092 3.72530 3.51015
# Velocity P-wave (km/s) = 5.98718 6.41293 6.20371
#
# Compressibility (1/GPa) = 0.02188077
#
# Stress axis : x y z
#
# Youngs Moduli (GPa) = 74.59387 101.45963 100.28844
#
# Poissons Ratio (x) = 0.04484 0.27043
# Poissons Ratio (y) = 0.03297 0.25451
# Poissons Ratio (z) = 0.20115 0.25748
#
# Static dielectric constant tensor:
#      x y z
#    x 4.504090 0.000000 0.000000 
#    y 0.000000 3.432960 0.000000 
#    z 0.000000 0.000000 3.650480 
# 
# 
# High freq. dielectric constant tensor:
#      x y z
#    x 1.845680 0.000000 0.000000 
#    y 0.000000 1.831300 0.000000 
#    z 0.000000 0.000000 1.831660 
# 
# From -- ./inp_files/12263.got.cif
#   From: 2010.03.12/outbox.cif.g09.slc.cpg/sg44_7_cif.got.tgz:12263.got - 2010.04.14 02:36:11.
