data_PCOD8189010
_publ_section_title
;
Structure prediction by ZEFSAII (Michael W. Deem and Ramdas Pophale) SiO2 
 PCOD8189010
Probable space group: I M M 2
;
_chemical_formula_sum "Si O2"
_cell_formula_units_Z 64
_cell_length_a 8.986263
_cell_length_b 28.659581
_cell_length_c 12.779575
_cell_angle_alpha 90.000000
_cell_angle_beta 90.000000
_cell_angle_gamma 90.000000
_cell_volume 3291.284108
_symmetry_space_group_name_H-M "I M M 2"
_symmetry_group_IT_number 44
_symmetry_cell_setting 'orthorhombic'
loop_
_space_group_symop_operation_xyz
x,y,z
-x,-y,z
-x,y,z
x,-y,z
1/2+x,1/2+y,1/2+z
1/2-x,1/2-y,1/2+z
1/2-x,1/2+y,1/2+z
1/2+x,1/2-y,1/2+z
loop_
_atom_site_type_symbol
_atom_site_label
_atom_site_fract_x
_atom_site_fract_y
_atom_site_fract_z
Si Si1 0.324654 0.200939 0.011410
Si Si2 0.175267 0.945221 0.740965
Si Si3 0.822660 0.400667 0.443069
Si Si4 0.334758 0.679720 0.712038
Si Si5 0.675309 0.393467 0.031048
Si Si6 0.666656 0.051597 0.349812
Si Si7 0.676444 0.700887 0.939366
Si Si8 0.333614 0.426233 0.648254
O O1 0.500000 0.202132 0.008933
O O2 0.273999 0.204296 0.130946
O O3 0.269897 0.153723 0.952772
O O4 0.255953 0.247814 0.960578
O O5 0.263393 0.922293 0.836143
O O6 0.231819 0.917922 0.637323
O O7 0.000000 0.937915 0.758638
O O8 0.214395 0.000000 0.730385
O O9 0.753407 0.430276 0.538336
O O10 0.000000 0.404835 0.447400
O O11 0.500000 0.702161 0.705209
O O12 0.262897 0.685619 0.826233
O O13 0.344652 0.626028 0.686538
O O14 0.500000 0.400217 0.021377
O O15 0.743351 0.416645 0.928900
O O16 0.721127 0.338386 0.026255
O O17 0.500000 0.071887 0.335417
O O18 0.744265 0.046433 0.236914
O O19 0.660749 0.000000 0.398743
O O20 0.500000 0.703754 0.936172
O O21 0.500000 0.447146 0.633887
#
# Coordination Sequence:
#
# PCOD8189010 Si02
#       8
#     8   8   8   8   8   8   8   8
#     4   9  19  34  53  80 113 149 185 228 282 338
#     4  10  22  39  59  83 112 150 197 247 292 342
#     4  10  21  37  57  82 115 153 190 233 289 346
#     4   9  17  32  53  76 105 140 179 226 276 327
#     4  10  20  38  61  83 109 148 195 238 283 339
#     4  11  23  36  53  82 117 146 176 224 286 346
#     4   9  17  33  56  81 110 146 186 231 283 335
#     4  10  19  35  59  82 105 142 187 231 280 335
#
# _framework density 19.445297
#
# number of rings (size 3 to 8) (size 9 to 14) (size 15 to 20)
#    0.000    2.250    1.250    1.500    0.000    4.750 
#    0.000    1.250    0.000    0.000    0.000    0.000 
#    0.000    0.000    0.000    0.000    0.000    0.000 
#
# Total GULP energy -396641.144885 kJ/mol
# GULP energy per Si atom -12395.035778 kJ/mol
# Density = 1.940104 g / cm^3
# Si number density = 19.445297 Si / 1000 Ang^3
#
#
#
# Elastic Constant Matrix: (Units=GPa)
#
#
# Indices 1 2 3 4 5 6 
#
# 1 46.5165 27.0270 35.0121 -0.0001 0.0000 0.0000
# 2 27.0270 96.7208 58.5587 -0.0001 0.0000 -0.0001
# 3 35.0121 58.5587 136.5613 -0.0004 0.0002 -0.0001
# 4 -0.0001 -0.0001 -0.0004 24.6360 0.0001 -0.0001
# 5 0.0000 0.0000 0.0002 0.0001 29.7623 0.0000
# 6 0.0000 -0.0001 -0.0001 -0.0001 0.0000 17.4138
#
#
#
# Elastic Compliance Matrix: (Units=1/GPa)
#
#
# Indices 1 2 3 4 5 6 
#
# 1 0.028150 -0.004722 -0.005192 0.000000 0.000000 0.000000
# 2 -0.004722 0.014757 -0.005117 0.000000 0.000000 0.000000
# 3 -0.005192 -0.005117 0.010848 0.000000 0.000000 0.000000
# 4 0.000000 0.000000 0.000000 0.040591 0.000000 0.000000
# 5 0.000000 0.000000 0.000000 0.000000 0.033600 0.000000
# 6 0.000000 0.000000 0.000000 0.000000 0.000000 0.057426
#
#
# Mechanical properties :
#
#
# Convention : Reuss Voigt Hill
#
# Bulk Modulus (GPa) = 42.20962 57.88825 50.04894
# Shear Modulus (GPa) = 22.38829 24.97580 23.68205
#
# Velocity S-wave (km/s) = 3.39683 3.58776 3.49360
# Velocity P-wave (km/s) = 6.09414 6.85544 6.48597
#
# Compressibility (1/GPa) = 0.02369128
#
# Stress axis : x y z
#
# Youngs Moduli (GPa) = 35.52450 67.76568 92.18188
#
# Poissons Ratio (x) = 0.32002 0.47861
# Poissons Ratio (y) = 0.16776 0.47170
# Poissons Ratio (z) = 0.18445 0.34676
#
# Static dielectric constant tensor:
#      x y z
#    x 3.503810 0.000000 0.000000 
#    y 0.000000 3.848610 0.000000 
#    z 0.000000 0.000000 3.662450 
# 
# 
# High freq. dielectric constant tensor:
#      x y z
#    x 1.741680 0.000000 0.000000 
#    y 0.000000 1.760520 0.000000 
#    z 0.000000 0.000000 1.757090 
# 
# From -- ./inp_files/11522.got.cif
#   From: 2010.03.12/outbox.cif.g09.slc.cpg/sg44_6_cif.got.tgz:11522.got - 2010.04.14 02:36:11.
