data_PCOD8189118
_publ_section_title
;
Structure prediction by ZEFSAII (Michael W. Deem and Ramdas Pophale) SiO2 
 PCOD8189118
Probable space group: I M M 2
;
_chemical_formula_sum "Si O2"
_cell_formula_units_Z 48
_cell_length_a 9.448475
_cell_length_b 7.785585
_cell_length_c 34.390529
_cell_angle_alpha 90.000000
_cell_angle_beta 90.000000
_cell_angle_gamma 90.000000
_cell_volume 2529.832835
_symmetry_space_group_name_H-M "I M M 2"
_symmetry_group_IT_number 44
_symmetry_cell_setting 'orthorhombic'
loop_
_space_group_symop_operation_xyz
x,y,z
-x,-y,z
-x,y,z
x,-y,z
1/2+x,1/2+y,1/2+z
1/2-x,1/2-y,1/2+z
1/2-x,1/2+y,1/2+z
1/2+x,1/2-y,1/2+z
loop_
_atom_site_type_symbol
_atom_site_label
_atom_site_fract_x
_atom_site_fract_y
_atom_site_fract_z
Si Si1 0.831118 0.000000 0.925400
Si Si2 0.840984 0.298596 0.784911
Si Si3 0.831810 0.809143 0.559896
Si Si4 0.344557 0.197572 0.714355
Si Si5 0.656948 0.296656 0.145729
Si Si6 0.168611 0.500000 0.505694
Si Si7 0.332031 0.810004 0.371712
O O1 0.778659 0.831301 0.902240
O O2 0.750800 0.000000 0.965681
O O3 0.000000 0.000000 0.931600
O O4 0.842111 0.500000 0.777420
O O5 0.736196 0.210023 0.754997
O O6 0.783129 0.258002 0.828270
O O7 0.000000 0.224508 0.779353
O O8 0.779089 0.754088 0.603000
O O9 0.780118 0.669410 0.528778
O O10 0.000000 0.815074 0.561500
O O11 0.774132 0.000000 0.548571
O O12 0.500000 0.284848 0.717522
O O13 0.256755 0.285371 0.679087
O O14 0.364055 0.000000 0.703917
O O15 0.500000 0.215954 0.150576
O O16 0.645563 0.500000 0.150613
O O17 0.000000 0.500000 0.498966
O O18 0.500000 0.817514 0.371317
O O19 0.272758 0.000000 0.383081
#
# Coordination Sequence:
#
# PCOD8189118 Si02
#       7
#     4   8   8   8   8   4   8
#     4  10  20  34  54  78 104 134 164 204 260 312
#     4   9  18  33  52  73  95 125 172 220 255 295
#     4   8  15  30  52  74  98 131 169 211 257 297
#     4  10  20  31  45  71 106 139 167 202 253 311
#     4   8  14  28  49  69  91 126 172 213 247 290
#     4  10  20  34  52  78 106 130 164 212 256 306
#     4   8  16  32  53  76 100 128 168 214 254 297
#
# _framework density 18.973586000000001
#
# number of rings (size 3 to 8) (size 9 to 14) (size 15 to 20)
#    0.000    3.167    0.000    2.500    1.167    2.000 
#    1.500    1.667    0.000    2.000    0.000    0.000 
#    0.000    0.000    0.000    0.000    0.000    0.000 
#
# Total GULP energy -297436.794105 kJ/mol
# GULP energy per Si atom -12393.199754 kJ/mol
# Density = 1.893040 g / cm^3
# Si number density = 18.973586 Si / 1000 Ang^3
#
#
#
# Elastic Constant Matrix: (Units=GPa)
#
#
# Indices 1 2 3 4 5 6 
#
# 1 72.3100 28.4195 57.9384 0.0000 0.0000 0.0000
# 2 28.4195 86.5305 70.4227 0.0000 0.0000 0.0000
# 3 57.9384 70.4227 170.1498 0.0000 0.0000 0.0000
# 4 0.0000 0.0000 0.0000 0.0871 0.0000 0.0000
# 5 0.0000 0.0000 0.0000 0.0000 28.5183 0.0000
# 6 0.0000 0.0000 0.0000 0.0000 0.0000 10.3396
#
#
#
# Elastic Compliance Matrix: (Units=1/GPa)
#
#
# Indices 1 2 3 4 5 6 
#
# 1 0.019143 -0.001481 -0.005906 -0.000001 0.000000 0.000000
# 2 -0.001481 0.017541 -0.006756 0.000004 0.000000 0.000000
# 3 -0.005906 -0.006756 0.010684 -0.000001 0.000000 0.000000
# 4 -0.000001 0.000004 -0.000001 11.480016 0.000001 0.000003
# 5 0.000000 0.000000 0.000000 0.000001 0.035065 0.000000
# 6 0.000000 0.000000 0.000000 0.000003 0.000000 0.096715
#
#
# Mechanical properties :
#
#
# Convention : Reuss Voigt Hill
#
# Bulk Modulus (GPa) = 52.40009 71.39460 61.89735
# Shear Modulus (GPa) = 0.42758 19.26966 9.84862
#
# Velocity S-wave (km/s) = 0.47523 3.19031 2.28078
# Velocity P-wave (km/s) = 5.28947 7.16107 6.29521
#
# Compressibility (1/GPa) = 0.01908394
#
# Stress axis : x y z
#
# Youngs Moduli (GPa) = 52.23775 57.00869 93.59620
#
# Poissons Ratio (x) = 0.08443 0.55274
# Poissons Ratio (y) = 0.07737 0.63231
# Poissons Ratio (z) = 0.30849 0.38514
#
# Static dielectric constant tensor:
#      x y z
#    x 3.343010 0.000000 0.000000 
#    y 0.000000 3.712430 0.000000 
#    z 0.000000 0.000000 3.580420 
# 
# 
# High freq. dielectric constant tensor:
#      x y z
#    x 1.692690 0.000000 0.000000 
#    y 0.000000 1.730240 0.000000 
#    z 0.000000 0.000000 1.739950 
# 
# From -- ./inp_files/26915.got.cif
#   From: 2010.03.12/outbox.cif.g09.slc.cpg/sg44_14_cif.got.tgz:26915.got - 2010.04.14 02:36:11.
