data_PCOD8189648
_publ_section_title
;
Structure prediction by ZEFSAII (Michael W. Deem and Ramdas Pophale) SiO2 
 PCOD8189648
Probable space group: I M M 2
;
_chemical_formula_sum "Si O2"
_cell_formula_units_Z 48
_cell_length_a 8.803789
_cell_length_b 18.556283
_cell_length_c 15.030785
_cell_angle_alpha 90.000000
_cell_angle_beta 90.000000
_cell_angle_gamma 90.000000
_cell_volume 2455.513212
_symmetry_space_group_name_H-M "I M M 2"
_symmetry_group_IT_number 44
_symmetry_cell_setting 'orthorhombic'
loop_
_space_group_symop_operation_xyz
x,y,z
-x,-y,z
-x,y,z
x,-y,z
1/2+x,1/2+y,1/2+z
1/2-x,1/2-y,1/2+z
1/2-x,1/2+y,1/2+z
1/2+x,1/2-y,1/2+z
loop_
_atom_site_type_symbol
_atom_site_label
_atom_site_fract_x
_atom_site_fract_y
_atom_site_fract_z
Si Si1 0.820584 0.726593 0.625000
Si Si2 0.324389 0.500000 0.233799
Si Si3 0.325317 0.076826 0.057731
Si Si4 0.678370 0.000000 0.546439
Si Si5 0.175167 0.747152 0.829496
Si Si6 0.172248 0.391366 0.357358
Si Si7 0.823061 0.344655 0.996125
O O1 0.747150 0.649679 0.594537
O O2 0.777790 0.731405 0.728481
O O3 0.753354 0.792363 0.568674
O O4 0.000000 0.727816 0.608682
O O5 0.500000 0.500000 0.206272
O O6 0.218471 0.500000 0.149074
O O7 0.287220 0.428456 0.289107
O O8 0.500000 0.080116 0.087193
O O9 0.256010 0.000000 0.093958
O O10 0.309916 0.071983 0.952144
O O11 0.744370 0.926071 0.503199
O O12 0.500000 0.000000 0.532736
O O13 0.284003 0.808468 0.867276
O O14 0.000000 0.771426 0.835150
O O15 0.205529 0.679283 0.894171
O O16 0.000000 0.399400 0.322365
O O17 0.000000 0.343945 0.020080
#
# Coordination Sequence:
#
# PCOD8189648 Si02
#       7
#     8   4   8   4   8   8   8
#     4  10  20  36  58  83 110 145 188 232 282 343
#     4  12  24  36  54  85 118 146 183 240 299 342
#     4   9  17  32  54  80 107 138 179 226 269 325
#     4  10  22  40  58  79 112 154 197 234 283 348
#     4  10  21  36  55  84 116 146 187 239 291 338
#     4  11  20  34  57  82 111 148 189 227 277 348
#     4  10  21  38  58  81 114 151 189 239 289 339
#
# _framework density 19.547847999999998
#
# number of rings (size 3 to 8) (size 9 to 14) (size 15 to 20)
#    0.000    1.833    2.500    2.250    0.000    4.000 
#    1.500    0.000    0.000    0.000    0.000    0.000 
#    0.000    0.000    0.000    0.000    0.000    0.000 
#
# Total GULP energy -297477.029776 kJ/mol
# GULP energy per Si atom -12394.876241 kJ/mol
# Density = 1.950336 g / cm^3
# Si number density = 19.547848 Si / 1000 Ang^3
#
#
#
# Elastic Constant Matrix: (Units=GPa)
#
#
# Indices 1 2 3 4 5 6 
#
# 1 23.9256 27.6549 19.9506 0.0000 0.0000 0.0000
# 2 27.6549 190.1060 58.5879 0.0000 0.0000 0.0000
# 3 19.9506 58.5879 97.7071 0.0001 0.0000 0.0000
# 4 0.0000 0.0000 0.0001 30.2235 0.0000 0.0000
# 5 0.0000 0.0000 0.0000 0.0000 20.3673 0.0000
# 6 0.0000 0.0000 0.0000 0.0000 0.0000 24.4820
#
#
#
# Elastic Compliance Matrix: (Units=1/GPa)
#
#
# Indices 1 2 3 4 5 6 
#
# 1 0.054755 -0.005544 -0.007856 0.000000 0.000000 0.000000
# 2 -0.005544 0.007014 -0.003074 0.000000 0.000000 0.000000
# 3 -0.007856 -0.003074 0.013682 0.000000 0.000000 0.000000
# 4 0.000000 0.000000 0.000000 0.033087 0.000000 0.000000
# 5 0.000000 0.000000 0.000000 0.000000 0.049098 0.000000
# 6 0.000000 0.000000 0.000000 0.000000 0.000000 0.040846
#
#
# Mechanical properties :
#
#
# Convention : Reuss Voigt Hill
#
# Bulk Modulus (GPa) = 23.52750 58.23617 40.88184
# Shear Modulus (GPa) = 20.35845 28.71756 24.53800
#
# Velocity S-wave (km/s) = 3.23068 3.83703 3.54684
# Velocity P-wave (km/s) = 5.09690 7.03468 6.14268
#
# Compressibility (1/GPa) = 0.04250345
#
# Stress axis : x y z
#
# Youngs Moduli (GPa) = 18.26308 142.57121 73.08952
#
# Poissons Ratio (x) = 0.79045 0.57418
# Poissons Ratio (y) = 0.10126 0.22466
# Poissons Ratio (z) = 0.14347 0.43823
#
# Static dielectric constant tensor:
#      x y z
#    x 3.294340 0.000000 0.000000 
#    y 0.000000 3.936400 0.000000 
#    z 0.000000 0.000000 3.502000 
# 
# 
# High freq. dielectric constant tensor:
#      x y z
#    x 1.730730 0.000000 0.000000 
#    y 0.000000 1.781490 0.000000 
#    z 0.000000 0.000000 1.753910 
# 
# From -- ./inp_files/16109.got.cif
#   From: 2010.03.12/outbox.cif.g09.slc.cpg/sg44_9_cif.got.tgz:16109.got - 2010.04.14 02:36:11.
