data_PCOD8189099
_publ_section_title
;
Structure prediction by ZEFSAII (Michael W. Deem and Ramdas Pophale) SiO2 
 PCOD8189099
Probable space group: I M M 2
;
_chemical_formula_sum "Si O2"
_cell_formula_units_Z 40
_cell_length_a 8.589216
_cell_length_b 9.691756
_cell_length_c 25.809553
_cell_angle_alpha 90.000000
_cell_angle_beta 90.000000
_cell_angle_gamma 90.000000
_cell_volume 2148.505547
_symmetry_space_group_name_H-M "I M M 2"
_symmetry_group_IT_number 44
_symmetry_cell_setting 'orthorhombic'
loop_
_space_group_symop_operation_xyz
x,y,z
-x,-y,z
-x,y,z
x,-y,z
1/2+x,1/2+y,1/2+z
1/2-x,1/2-y,1/2+z
1/2-x,1/2+y,1/2+z
1/2+x,1/2-y,1/2+z
loop_
_atom_site_type_symbol
_atom_site_label
_atom_site_fract_x
_atom_site_fract_y
_atom_site_fract_z
Si Si1 0.814173 0.000000 0.949950
Si Si2 0.816397 0.000000 0.675246
Si Si3 0.184413 0.500000 0.845157
Si Si4 0.684833 0.500000 0.293847
Si Si5 0.683595 0.000000 0.225848
Si Si6 0.683846 0.500000 0.566250
Si Si7 0.315273 0.787999 0.871689
Si Si8 0.684144 0.714956 0.649585
O O1 0.750108 0.136661 0.922475
O O2 0.000000 0.000000 0.947462
O O3 0.747176 0.000000 0.008480
O O4 0.759869 0.000000 0.734618
O O5 0.750349 0.132049 0.645621
O O6 0.000000 0.000000 0.671729
O O7 0.235408 0.500000 0.785360
O O8 0.256075 0.632093 0.873508
O O9 0.000000 0.500000 0.851619
O O10 0.500000 0.500000 0.299475
O O11 0.751417 0.362548 0.320245
O O12 0.750323 0.861722 0.200164
O O13 0.500000 0.000000 0.219714
O O14 0.500000 0.500000 0.562440
O O15 0.739479 0.635217 0.597764
O O16 0.500000 0.794749 0.871653
O O17 0.500000 0.717418 0.654342
#
# Coordination Sequence:
#
# PCOD8189099 Si02
#       8
#     4   4   4   4   4   4   8   8
#     4  10  19  38  63  79  99 136 177 214 262 321
#     4  11  22  34  50  78 113 145 178 216 259 306
#     4  11  22  36  53  76 109 147 180 210 255 314
#     4  10  20  35  53  74 107 150 186 211 247 310
#     4  10  20  34  53  78 109 144 180 215 253 306
#     4   8  18  37  60  81  99 130 177 220 258 315
#     4  11  22  35  53  81 110 135 174 223 266 307
#     4  10  20  35  55  80 108 139 178 218 259 309
#
# _framework density 18.617591000000001
#
# number of rings (size 3 to 8) (size 9 to 14) (size 15 to 20)
#    0.000    1.800    0.000    6.900    0.000    8.000 
#    0.000    7.000    0.000    2.400    0.000    0.000 
#    0.000    0.000    0.000    0.000    0.000    0.000 
#
# Total GULP energy -248070.837994 kJ/mol
# GULP energy per Si atom -12403.541900 kJ/mol
# Density = 1.857522 g / cm^3
# Si number density = 18.617591 Si / 1000 Ang^3
#
#
#
# Elastic Constant Matrix: (Units=GPa)
#
#
# Indices 1 2 3 4 5 6 
#
# 1 95.5176 45.9020 46.8131 0.0000 0.0000 0.0000
# 2 45.9020 180.3780 74.6235 0.0000 0.0000 0.0000
# 3 46.8131 74.6235 140.7404 0.0000 0.0000 0.0000
# 4 0.0000 0.0000 0.0000 12.3196 0.0000 0.0000
# 5 0.0000 0.0000 0.0000 0.0000 22.3083 0.0000
# 6 0.0000 0.0000 0.0000 0.0000 0.0000 37.1276
#
#
#
# Elastic Compliance Matrix: (Units=1/GPa)
#
#
# Indices 1 2 3 4 5 6 
#
# 1 0.013022 -0.001950 -0.003298 0.000000 0.000000 0.000000
# 2 -0.001950 0.007394 -0.003272 0.000000 0.000000 0.000000
# 3 -0.003298 -0.003272 0.009937 0.000000 0.000000 0.000000
# 4 0.000000 0.000000 0.000000 0.081171 0.000000 0.000000
# 5 0.000000 0.000000 0.000000 0.000000 0.044826 0.000000
# 6 0.000000 0.000000 0.000000 0.000000 0.000000 0.026934
#
#
# Mechanical properties :
#
#
# Convention : Reuss Voigt Hill
#
# Bulk Modulus (GPa) = 75.10521 83.47924 79.29223
# Shear Modulus (GPa) = 24.41869 30.97094 27.69482
#
# Velocity S-wave (km/s) = 3.62552 4.08307 3.86108
# Velocity P-wave (km/s) = 7.61278 8.19541 7.90946
#
# Compressibility (1/GPa) = 0.01331465
#
# Stress axis : x y z
#
# Youngs Moduli (GPa) = 76.79062 135.25248 100.63445
#
# Poissons Ratio (x) = 0.26368 0.33187
# Poissons Ratio (y) = 0.14971 0.32925
# Poissons Ratio (z) = 0.25324 0.44251
#
# Static dielectric constant tensor:
#      x y z
#    x 3.437230 0.000000 0.000000 
#    y 0.000000 3.495090 0.000000 
#    z 0.000000 0.000000 3.541740 
# 
# 
# High freq. dielectric constant tensor:
#      x y z
#    x 1.731680 0.000000 0.000000 
#    y 0.000000 1.731360 0.000000 
#    z 0.000000 0.000000 1.707700 
# 
# From -- ./inp_files/26006.got.cif
#   From: 2010.03.12/outbox.cif.g09.slc.cpg/sg44_14_cif.got.tgz:26006.got - 2010.04.14 02:36:11.
