data_PCOD8189448
_publ_section_title
;
Structure prediction by ZEFSAII (Michael W. Deem and Ramdas Pophale) SiO2 
 PCOD8189448
Probable space group: I M M 2
;
_chemical_formula_sum "Si O2"
_cell_formula_units_Z 56
_cell_length_a 8.803560
_cell_length_b 14.175099
_cell_length_c 22.799775
_cell_angle_alpha 90.000000
_cell_angle_beta 90.000000
_cell_angle_gamma 90.000000
_cell_volume 2845.214350
_symmetry_space_group_name_H-M "I M M 2"
_symmetry_group_IT_number 44
_symmetry_cell_setting 'orthorhombic'
loop_
_space_group_symop_operation_xyz
x,y,z
-x,-y,z
-x,y,z
x,-y,z
1/2+x,1/2+y,1/2+z
1/2-x,1/2-y,1/2+z
1/2-x,1/2+y,1/2+z
1/2+x,1/2-y,1/2+z
loop_
_atom_site_type_symbol
_atom_site_label
_atom_site_fract_x
_atom_site_fract_y
_atom_site_fract_z
Si Si1 0.667419 0.640839 0.721930
Si Si2 0.825415 0.395861 0.838654
Si Si3 0.821612 0.109512 0.993814
Si Si4 0.180503 0.302285 0.608194
Si Si5 0.821969 0.899153 0.647090
Si Si6 0.665267 0.146694 0.759710
Si Si7 0.319914 0.211277 0.883946
O O1 0.500000 0.593451 0.717122
O O2 0.766180 0.591909 0.772203
O O3 0.752583 0.631893 0.659616
O O4 0.646179 0.747965 0.738419
O O5 0.810475 0.500000 0.868077
O O6 0.729297 0.320458 0.876075
O O7 0.000000 0.362296 0.836956
O O8 0.771367 0.164664 0.936283
O O9 0.000000 0.122014 0.003638
O O10 0.775916 0.000000 0.988373
O O11 0.733154 0.156531 0.047055
O O12 0.244138 0.193700 0.614560
O O13 0.000000 0.304487 0.612333
O O14 0.780086 0.904834 0.716137
O O15 0.000000 0.892226 0.643183
O O16 0.767006 0.000000 0.618851
O O17 0.500000 0.096760 0.757140
O O18 0.724839 0.149365 0.826664
O O19 0.500000 0.209253 0.895521
#
# Coordination Sequence:
#
# PCOD8189448 Si02
#       7
#     8   8   8   8   8   8   8
#     4   9  17  31  52  78 110 146 183 225 272 322
#     4  10  20  34  55  85 119 152 186 226 274 331
#     4  11  25  43  61  80 104 139 184 234 286 339
#     4  10  20  36  58  81 109 146 186 231 280 331
#     4   9  18  32  52  81 114 145 177 214 262 322
#     4   8  16  30  49  76 107 139 175 214 259 309
#     4  10  21  38  59  82 111 147 186 231 279 330
#
# _framework density 19.682172000000001
#
# number of rings (size 3 to 8) (size 9 to 14) (size 15 to 20)
#    0.000    2.429    0.000    3.000    0.000    8.286 
#    0.000    3.571    0.000    2.571    0.000    0.000 
#    0.000    0.000    0.000    0.000    0.000    0.000 
#
# Total GULP energy -346970.350028 kJ/mol
# GULP energy per Si atom -12391.798215 kJ/mol
# Density = 1.963737 g / cm^3
# Si number density = 19.682172 Si / 1000 Ang^3
#
#
#
# Elastic Constant Matrix: (Units=GPa)
#
#
# Indices 1 2 3 4 5 6 
#
# 1 48.5838 15.6264 2.0015 0.0000 0.0000 0.0000
# 2 15.6264 101.2456 25.6768 0.0000 0.0000 0.0000
# 3 2.0015 25.6768 87.9789 0.0000 0.0000 0.0000
# 4 0.0000 0.0000 0.0000 15.6096 0.0000 0.0000
# 5 0.0000 0.0000 0.0000 0.0000 34.6039 0.0000
# 6 0.0000 0.0000 0.0000 0.0000 0.0000 13.4533
#
#
#
# Elastic Compliance Matrix: (Units=1/GPa)
#
#
# Indices 1 2 3 4 5 6 
#
# 1 0.021680 -0.003479 0.000522 0.000000 0.000000 0.000000
# 2 -0.003479 0.011225 -0.003197 0.000000 0.000000 0.000000
# 3 0.000522 -0.003197 0.012287 0.000000 0.000000 0.000000
# 4 0.000000 0.000000 0.000000 0.064063 0.000000 0.000000
# 5 0.000000 0.000000 0.000000 0.000000 0.028898 0.000000
# 6 0.000000 0.000000 0.000000 0.000000 0.000000 0.074331
#
#
# Mechanical properties :
#
#
# Convention : Reuss Voigt Hill
#
# Bulk Modulus (GPa) = 30.40834 36.04642 33.22738
# Shear Modulus (GPa) = 21.20856 25.70026 23.45441
#
# Velocity S-wave (km/s) = 3.28617 3.61746 3.45578
# Velocity P-wave (km/s) = 5.46642 5.98348 5.73078
#
# Compressibility (1/GPa) = 0.03288571
#
# Stress axis : x y z
#
# Youngs Moduli (GPa) = 46.12471 89.09010 81.38374
#
# Poissons Ratio (x) = 0.30991 -0.04248
# Poissons Ratio (y) = 0.16045 0.26017
# Poissons Ratio (z) = -0.02408 0.28480
#
# Static dielectric constant tensor:
#      x y z
#    x 3.735670 0.000000 0.000000 
#    y 0.000000 3.960430 0.000000 
#    z 0.000000 0.000000 3.562860 
# 
# 
# High freq. dielectric constant tensor:
#      x y z
#    x 1.771820 0.000000 0.000000 
#    y 0.000000 1.773830 0.000000 
#    z 0.000000 0.000000 1.745040 
# 
# From -- ./inp_files/23000.got.cif
#   From: 2010.03.12/outbox.cif.g09.slc.cpg/sg44_12_cif.got.tgz:23000.got - 2010.04.14 02:36:11.
