data_PCOD8189703
_publ_section_title
;
Structure prediction by ZEFSAII (Michael W. Deem and Ramdas Pophale) SiO2 
 PCOD8189703
Probable space group: I M M 2
;
_chemical_formula_sum "Si O2"
_cell_formula_units_Z 48
_cell_length_a 14.378274
_cell_length_b 8.927091
_cell_length_c 20.204785
_cell_angle_alpha 90.000000
_cell_angle_beta 90.000000
_cell_angle_gamma 90.000000
_cell_volume 2593.408625
_symmetry_space_group_name_H-M "I M M 2"
_symmetry_group_IT_number 44
_symmetry_cell_setting 'orthorhombic'
loop_
_space_group_symop_operation_xyz
x,y,z
-x,-y,z
-x,y,z
x,-y,z
1/2+x,1/2+y,1/2+z
1/2-x,1/2-y,1/2+z
1/2-x,1/2+y,1/2+z
1/2+x,1/2-y,1/2+z
loop_
_atom_site_type_symbol
_atom_site_label
_atom_site_fract_x
_atom_site_fract_y
_atom_site_fract_z
Si Si1 0.500000 0.177490 0.390530
Si Si2 0.698537 0.327076 0.946284
Si Si3 0.000000 0.172888 0.499521
Si Si4 0.000000 0.675868 0.639857
Si Si5 0.000000 0.176537 0.033759
Si Si6 0.319628 0.671266 0.189919
Si Si7 0.682412 0.174544 0.575476
Si Si8 0.682077 0.671963 0.340308
O O1 0.500000 0.242282 0.463707
O O2 0.409392 0.229880 0.351504
O O3 0.500000 0.000000 0.395844
O O4 0.714026 0.500000 0.927744
O O5 0.590201 0.289438 0.955944
O O6 0.733988 0.225817 0.886368
O O7 0.753830 0.285984 0.012712
O O8 0.000000 0.270124 0.564939
O O9 0.000000 0.000000 0.521898
O O10 0.910123 0.730028 0.679107
O O11 0.000000 0.500000 0.639775
O O12 0.090262 0.225686 0.074720
O O13 0.000000 0.000000 0.022881
O O14 0.346897 0.500000 0.174043
O O15 0.237092 0.722309 0.141499
O O16 0.284493 0.691126 0.264880
O O17 0.655104 0.000000 0.575938
O O18 0.658158 0.500000 0.356750
#
# Coordination Sequence:
#
# PCOD8189703 Si02
#       8
#     4   8   4   4   4   8   8   8
#     4  12  23  37  58  84 119 157 192 232 285 350
#     4  10  20  36  62  86 113 154 195 235 280 338
#     4  10  20  39  62  85 114 155 198 231 276 346
#     4  12  23  33  56  92 123 149 182 242 297 334
#     4  12  24  37  58  89 120 147 188 245 294 334
#     4  10  22  41  61  82 115 159 196 230 281 350
#     4  10  20  38  63  85 111 153 199 234 277 342
#     4  11  23  38  59  87 119 152 190 239 291 338
#
# _framework density 18.508459999999999
#
# number of rings (size 3 to 8) (size 9 to 14) (size 15 to 20)
#    0.000    1.333    3.333    3.250    0.000    4.667 
#    0.000    0.833    0.000    3.000    0.000    0.000 
#    0.000    0.000    0.000    0.000    0.000    0.000 
#
# Total GULP energy -297736.241085 kJ/mol
# GULP energy per Si atom -12405.676712 kJ/mol
# Density = 1.846633 g / cm^3
# Si number density = 18.508460 Si / 1000 Ang^3
#
#
#
# Elastic Constant Matrix: (Units=GPa)
#
#
# Indices 1 2 3 4 5 6 
#
# 1 138.4407 60.9425 62.8095 0.0000 0.0000 0.0000
# 2 60.9425 113.7137 58.8703 0.0000 0.0000 0.0000
# 3 62.8095 58.8703 129.7918 0.0000 0.0000 0.0000
# 4 0.0000 0.0000 0.0000 28.7323 0.0000 0.0000
# 5 0.0000 0.0000 0.0000 0.0000 45.1951 0.0000
# 6 0.0000 0.0000 0.0000 0.0000 0.0000 16.6089
#
#
#
# Elastic Compliance Matrix: (Units=1/GPa)
#
#
# Indices 1 2 3 4 5 6 
#
# 1 0.010423 -0.003888 -0.003281 0.000000 0.000000 0.000000
# 2 -0.003888 0.012943 -0.003989 0.000000 0.000000 0.000000
# 3 -0.003281 -0.003989 0.011102 0.000000 0.000000 0.000000
# 4 0.000000 0.000000 0.000000 0.034804 0.000000 0.000000
# 5 0.000000 0.000000 0.000000 0.000000 0.022126 0.000000
# 6 0.000000 0.000000 0.000000 0.000000 0.000000 0.060209
#
#
# Mechanical properties :
#
#
# Convention : Reuss Voigt Hill
#
# Bulk Modulus (GPa) = 82.28742 83.02116 82.65429
# Shear Modulus (GPa) = 28.09427 31.39551 29.74489
#
# Velocity S-wave (km/s) = 3.90027 4.12306 4.01321
# Velocity P-wave (km/s) = 8.05225 8.22310 8.13812
#
# Compressibility (1/GPa) = 0.01215253
#
# Stress axis : x y z
#
# Youngs Moduli (GPa) = 95.94098 77.26350 90.07682
#
# Poissons Ratio (x) = 0.30037 0.29551
# Poissons Ratio (y) = 0.37298 0.35933
# Poissons Ratio (z) = 0.31475 0.30822
#
# Static dielectric constant tensor:
#      x y z
#    x 3.498410 0.000000 0.000000 
#    y 0.000000 3.416330 0.000000 
#    z 0.000000 0.000000 3.406650 
# 
# 
# High freq. dielectric constant tensor:
#      x y z
#    x 1.719800 0.000000 0.000000 
#    y 0.000000 1.718000 0.000000 
#    z 0.000000 0.000000 1.717000 
# 
# From -- ./inp_files/21742.got.cif
#   From: 2010.03.12/outbox.cif.g09.slc.cpg/sg44_11_cif.got.tgz:21742.got - 2010.04.14 02:36:11.
