data_PCOD8189966
_publ_section_title
;
Structure prediction by ZEFSAII (Michael W. Deem and Ramdas Pophale) SiO2 
 PCOD8189966
Probable space group: I M M 2
;
_chemical_formula_sum "Si O2"
_cell_formula_units_Z 48
_cell_length_a 8.945001
_cell_length_b 30.176651
_cell_length_c 9.052760
_cell_angle_alpha 90.000000
_cell_angle_beta 90.000000
_cell_angle_gamma 90.000000
_cell_volume 2443.613076
_symmetry_space_group_name_H-M "I M M 2"
_symmetry_group_IT_number 44
_symmetry_cell_setting 'orthorhombic'
loop_
_space_group_symop_operation_xyz
x,y,z
-x,-y,z
-x,y,z
x,-y,z
1/2+x,1/2+y,1/2+z
1/2-x,1/2-y,1/2+z
1/2-x,1/2+y,1/2+z
1/2+x,1/2-y,1/2+z
loop_
_atom_site_type_symbol
_atom_site_label
_atom_site_fract_x
_atom_site_fract_y
_atom_site_fract_z
Si Si1 0.328265 0.950104 0.321440
Si Si2 0.173237 0.367388 0.630590
Si Si3 0.675980 0.873979 0.792790
Si Si4 0.325987 0.448856 0.122036
Si Si5 0.673366 0.706589 0.133831
Si Si6 0.673310 0.711878 0.788309
O O1 0.500000 0.947639 0.372111
O O2 0.296994 0.917532 0.184792
O O3 0.230108 0.934676 0.460209
O O4 0.285525 0.000000 0.270920
O O5 0.221671 0.363740 0.460720
O O6 0.276613 0.335177 0.725005
O O7 0.000000 0.353999 0.651596
O O8 0.500000 0.876596 0.774506
O O9 0.743894 0.921085 0.747982
O O10 0.737049 0.835994 0.687100
O O11 0.500000 0.438418 0.129616
O O12 0.288773 0.500000 0.152657
O O13 0.500000 0.699195 0.169018
O O14 0.728481 0.750008 0.216533
O O15 0.703211 0.712900 0.961682
O O16 0.500000 0.720032 0.751359
#
# Coordination Sequence:
#
# PCOD8189966 Si02
#       6
#     8   8   8   8   8   8
#     4   9  18  35  59  84 111 147 190 235 285 338
#     4  10  22  38  57  84 116 149 188 234 282 334
#     4  11  23  38  58  85 116 150 190 233 279 334
#     4  10  21  37  57  83 115 150 190 235 282 334
#     4  11  24  41  61  86 116 148 186 232 280 333
#     4  11  24  40  60  86 114 147 188 231 278 334
#
# _framework density 19.643042999999999
#
# number of rings (size 3 to 8) (size 9 to 14) (size 15 to 20)
#    0.000    1.667    0.000    4.000    0.000   13.000 
#    0.000    1.667    0.000    2.000    0.000    0.000 
#    0.000    0.000    0.000    0.000    0.000    0.000 
#
# Total GULP energy -297742.294028 kJ/mol
# GULP energy per Si atom -12405.928918 kJ/mol
# Density = 1.959833 g / cm^3
# Si number density = 19.643043 Si / 1000 Ang^3
#
#
#
# Elastic Constant Matrix: (Units=GPa)
#
#
# Indices 1 2 3 4 5 6 
#
# 1 75.0311 36.9628 53.6936 0.0029 0.0016 0.0018
# 2 36.9628 95.4967 41.1817 0.0068 0.0039 0.0033
# 3 53.6936 41.1817 93.5823 0.0161 0.0048 0.0037
# 4 0.0029 0.0068 0.0161 38.0200 0.0029 0.0026
# 5 0.0016 0.0039 0.0048 0.0029 28.1149 0.0049
# 6 0.0018 0.0033 0.0037 0.0026 0.0049 35.1223
#
#
#
# Elastic Compliance Matrix: (Units=1/GPa)
#
#
# Indices 1 2 3 4 5 6 
#
# 1 0.023852 -0.004111 -0.011876 0.000004 0.000001 0.000000
# 2 -0.004111 0.013633 -0.003641 -0.000001 -0.000001 -0.000001
# 3 -0.011876 -0.003641 0.019102 -0.000007 -0.000002 -0.000001
# 4 0.000004 -0.000001 -0.000007 0.026302 -0.000003 -0.000002
# 5 0.000001 -0.000001 -0.000002 -0.000003 0.035568 -0.000005
# 6 0.000000 -0.000001 -0.000001 -0.000002 -0.000005 0.028472
#
#
# Mechanical properties :
#
#
# Convention : Reuss Voigt Hill
#
# Bulk Modulus (GPa) = 57.69892 58.64295 58.17093
# Shear Modulus (GPa) = 26.04707 29.06958 27.55832
#
# Velocity S-wave (km/s) = 3.64541 3.85111 3.74967
# Velocity P-wave (km/s) = 6.86703 7.04939 6.95881
#
# Compressibility (1/GPa) = 0.01733135
#
# Stress axis : x y z
#
# Youngs Moduli (GPa) = 41.92591 73.35373 52.35067
#
# Poissons Ratio (x) = 0.30152 0.62173
# Poissons Ratio (y) = 0.17234 0.19059
# Poissons Ratio (z) = 0.49792 0.26706
#
# Static dielectric constant tensor:
#      x y z
#    x 3.667190 0.000010 0.000000 
#    y 0.000010 3.753570 -0.000010 
#    z 0.000000 -0.000010 3.615090 
# 
# 
# High freq. dielectric constant tensor:
#      x y z
#    x 1.772720 0.000000 0.000000 
#    y 0.000000 1.779620 0.000000 
#    z 0.000000 0.000000 1.767890 
# 
# From -- ./inp_files/4859.got.cif
#   From: 2010.03.12/outbox.cif.g09.slc.cpg/sg44_3_cif.got.tgz:4859.got - 2010.04.14 02:36:11.
