data_PCOD8189353
_publ_section_title
;
Structure prediction by ZEFSAII (Michael W. Deem and Ramdas Pophale) SiO2 
 PCOD8189353
Probable space group: I M M 2
;
_chemical_formula_sum "Si O2"
_cell_formula_units_Z 64
_cell_length_a 18.248421
_cell_length_b 9.190875
_cell_length_c 20.674906
_cell_angle_alpha 90.000000
_cell_angle_beta 90.000000
_cell_angle_gamma 90.000000
_cell_volume 3467.573657
_symmetry_space_group_name_H-M "I M M 2"
_symmetry_group_IT_number 44
_symmetry_cell_setting 'orthorhombic'
loop_
_space_group_symop_operation_xyz
x,y,z
-x,-y,z
-x,y,z
x,-y,z
1/2+x,1/2+y,1/2+z
1/2-x,1/2-y,1/2+z
1/2-x,1/2+y,1/2+z
1/2+x,1/2-y,1/2+z
loop_
_atom_site_type_symbol
_atom_site_label
_atom_site_fract_x
_atom_site_fract_y
_atom_site_fract_z
Si Si1 0.584281 0.669365 0.853250
Si Si2 0.587199 0.835842 0.978588
Si Si3 0.587143 0.338010 0.487540
Si Si4 0.918414 0.827129 0.845253
Si Si5 0.179551 0.171048 0.727665
Si Si6 0.915951 0.168116 0.603182
Si Si7 0.667220 0.327777 0.723686
Si Si8 0.087106 0.664974 0.110528
O O1 0.500000 0.711459 0.839467
O O2 0.591877 0.500000 0.868785
O O3 0.616701 0.755597 0.914633
O O4 0.631270 0.716519 0.791596
O O5 0.500000 0.827808 0.978862
O O6 0.616664 0.000000 0.977733
O O7 0.617101 0.758206 0.043078
O O8 0.500000 0.345778 0.488640
O O9 0.618904 0.500000 0.500710
O O10 0.611321 0.280751 0.416384
O O11 0.616566 0.228563 0.542327
O O12 0.862554 0.769801 0.791093
O O13 0.000000 0.762458 0.832688
O O14 0.923737 0.000000 0.841633
O O15 0.129442 0.207111 0.666475
O O16 0.252806 0.261257 0.719908
O O17 0.197252 0.000000 0.732641
O O18 0.000000 0.210531 0.617362
O O19 0.909149 0.000000 0.584483
O O20 0.670670 0.500000 0.714726
O O21 0.617261 0.262816 0.667734
O O22 0.115978 0.500000 0.117053
O O23 0.000000 0.671146 0.113323
#
# Coordination Sequence:
#
# PCOD8189353 Si02
#       8
#     8   8   8   8   8   8   8   8
#     4   9  18  34  55  75  95 125 167 210 251 300
#     4   9  17  29  49  78 106 129 159 205 255 299
#     4   8  14  27  50  78 104 130 164 207 253 301
#     4   8  14  28  53  81 104 130 168 210 250 297
#     4  10  20  34  52  75 104 136 172 213 253 294
#     4   9  17  31  53  78 103 134 170 207 250 301
#     4  11  23  37  52  72 102 138 173 208 251 304
#     4  10  20  34  54  79 104 131 167 211 255 299
#
# _framework density 18.456709
#
# number of rings (size 3 to 8) (size 9 to 14) (size 15 to 20)
#    0.000    2.750    0.000    2.625    0.000    5.750 
#    0.000    3.125    0.000    4.875    0.000    0.000 
#    0.000    0.000    0.000    0.000    0.000    0.000 
#
# Total GULP energy -396764.861727 kJ/mol
# GULP energy per Si atom -12398.901929 kJ/mol
# Density = 1.841470 g / cm^3
# Si number density = 18.456709 Si / 1000 Ang^3
#
#
#
# Elastic Constant Matrix: (Units=GPa)
#
#
# Indices 1 2 3 4 5 6 
#
# 1 46.1855 34.8495 40.7492 0.0000 0.0000 0.0000
# 2 34.8495 83.6565 74.7081 0.0000 0.0000 0.0000
# 3 40.7492 74.7081 168.6607 0.0000 0.0000 0.0000
# 4 0.0000 0.0000 0.0000 17.9717 0.0000 0.0000
# 5 0.0000 0.0000 0.0000 0.0000 1.1615 0.0000
# 6 0.0000 0.0000 0.0000 0.0000 0.0000 20.6264
#
#
#
# Elastic Compliance Matrix: (Units=1/GPa)
#
#
# Indices 1 2 3 4 5 6 
#
# 1 0.032511 -0.010802 -0.003070 0.000000 0.000000 0.000000
# 2 -0.010802 0.023365 -0.007740 0.000000 0.000000 0.000000
# 3 -0.003070 -0.007740 0.010099 0.000000 0.000000 0.000000
# 4 0.000000 0.000000 0.000000 0.055643 0.000000 0.000000
# 5 0.000000 0.000000 0.000000 0.000000 0.860925 0.000000
# 6 0.000000 0.000000 0.000000 0.000000 0.000000 0.048482
#
#
# Mechanical properties :
#
#
# Convention : Reuss Voigt Hill
#
# Bulk Modulus (GPa) = 43.95194 66.56848 55.26021
# Shear Modulus (GPa) = 4.62178 17.83166 11.22672
#
# Velocity S-wave (km/s) = 1.58416 3.11164 2.46899
# Velocity P-wave (km/s) = 5.21645 7.00396 6.17522
#
# Compressibility (1/GPa) = 0.02275213
#
# Stress axis : x y z
#
# Youngs Moduli (GPa) = 30.75880 42.79834 99.01695
#
# Poissons Ratio (x) = 0.46229 0.30401
# Poissons Ratio (y) = 0.33224 0.76639
# Poissons Ratio (z) = 0.09444 0.33126
#
# Static dielectric constant tensor:
#      x y z
#    x 3.115460 0.000000 0.000000 
#    y 0.000000 3.361560 0.000000 
#    z 0.000000 0.000000 3.742730 
# 
# 
# High freq. dielectric constant tensor:
#      x y z
#    x 1.682240 0.000000 0.000000 
#    y 0.000000 1.702550 0.000000 
#    z 0.000000 0.000000 1.734970 
# 
# From -- ./inp_files/24357.got.cif
#   From: 2010.03.12/outbox.cif.g09.slc.cpg/sg44_13_cif.got.tgz:24357.got - 2010.04.14 02:36:11.
