data_PCOD8189835
_publ_section_title
;
Structure prediction by ZEFSAII (Michael W. Deem and Ramdas Pophale) SiO2 
 PCOD8189835
Probable space group: I M M 2
;
_chemical_formula_sum "Si O2"
_cell_formula_units_Z 40
_cell_length_a 26.265493
_cell_length_b 9.517405
_cell_length_c 9.056724
_cell_angle_alpha 90.000000
_cell_angle_beta 90.000000
_cell_angle_gamma 90.000000
_cell_volume 2263.993837
_symmetry_space_group_name_H-M "I M M 2"
_symmetry_group_IT_number 44
_symmetry_cell_setting 'orthorhombic'
loop_
_space_group_symop_operation_xyz
x,y,z
-x,-y,z
-x,y,z
x,-y,z
1/2+x,1/2+y,1/2+z
1/2-x,1/2-y,1/2+z
1/2-x,1/2+y,1/2+z
1/2+x,1/2-y,1/2+z
loop_
_atom_site_type_symbol
_atom_site_label
_atom_site_fract_x
_atom_site_fract_y
_atom_site_fract_z
Si Si1 0.000000 0.839732 0.079121
Si Si2 0.798187 0.663088 0.578511
Si Si3 0.000000 0.657352 0.363584
Si Si4 0.202324 0.163110 0.873350
Si Si5 0.610133 0.664571 0.574396
Si Si6 0.889495 0.662685 0.375619
O O1 0.000000 0.760808 0.230317
O O2 0.945991 0.805802 0.998817
O O3 0.000000 0.000000 0.125941
O O4 0.801925 0.500000 0.620939
O O5 0.790981 0.750250 0.725661
O O6 0.750477 0.694105 0.475010
O O7 0.849094 0.715748 0.495705
O O8 0.946330 0.681713 0.449378
O O9 0.000000 0.500000 0.298977
O O10 0.198161 0.000000 0.831644
O O11 0.151810 0.216131 0.957639
O O12 0.617931 0.500000 0.610439
O O13 0.616619 0.748940 0.726201
O O14 0.878715 0.500000 0.335858
#
# Coordination Sequence:
#
# PCOD8189835 Si02
#       6
#     4   8   4   8   8   8
#     4   8  14  26  45  68  94 122 152 188 227 268
#     4  10  21  35  50  70  95 123 156 193 234 279
#     4   8  14  26  45  68  94 122 152 188 227 268
#     4  10  21  35  50  70  95 123 156 193 234 279
#     4   9  17  30  49  72  96 123 156 192 230 273
#     4   9  17  30  49  72  96 123 156 192 230 273
#
# _framework density 17.667892999999999
#
# number of rings (size 3 to 8) (size 9 to 14) (size 15 to 20)
#    0.000    2.800    0.000    1.200    0.000    2.400 
#    0.000    1.000    0.000    0.000    0.000    0.000 
#    0.000    0.000    0.000    0.000    0.000    0.000 
#
# Total GULP energy -247784.610354 kJ/mol
# GULP energy per Si atom -12389.230518 kJ/mol
# Density = 1.762768 g / cm^3
# Si number density = 17.667893 Si / 1000 Ang^3
#
#
#
# Elastic Constant Matrix: (Units=GPa)
#
#
# Indices 1 2 3 4 5 6 
#
# 1 167.5539 38.7981 64.3234 0.0000 0.0000 0.0000
# 2 38.7981 41.1630 49.6735 0.0000 0.0000 0.0000
# 3 64.3234 49.6735 96.7222 0.0000 0.0000 0.0000
# 4 0.0000 0.0000 0.0000 28.2746 0.0000 0.0000
# 5 0.0000 0.0000 0.0000 0.0000 24.9904 0.0000
# 6 0.0000 0.0000 0.0000 0.0000 0.0000 4.0250
#
#
#
# Elastic Compliance Matrix: (Units=1/GPa)
#
#
# Indices 1 2 3 4 5 6 
#
# 1 0.008153 -0.003002 -0.003880 0.000000 0.000000 0.000000
# 2 -0.003002 0.064994 -0.031382 0.000000 0.000000 0.000000
# 3 -0.003880 -0.031382 0.029036 0.000000 0.000000 0.000000
# 4 0.000000 0.000000 0.000000 0.035367 0.000000 0.000000
# 5 0.000000 0.000000 0.000000 0.000000 0.040015 0.000000
# 6 0.000000 0.000000 0.000000 0.000000 0.000000 0.248449
#
#
# Mechanical properties :
#
#
# Convention : Reuss Voigt Hill
#
# Bulk Modulus (GPa) = 38.98041 67.89212 53.43627
# Shear Modulus (GPa) = 9.78289 21.63426 15.70858
#
# Velocity S-wave (km/s) = 2.35566 3.50308 2.98502
# Velocity P-wave (km/s) = 5.43227 7.40758 6.49546
#
# Compressibility (1/GPa) = 0.02565391
#
# Stress axis : x y z
#
# Youngs Moduli (GPa) = 122.65433 15.38605 34.43962
#
# Poissons Ratio (x) = 0.04619 0.13363
# Poissons Ratio (y) = 0.36823 1.08079
# Poissons Ratio (z) = 0.47592 0.48285
#
# Static dielectric constant tensor:
#      x y z
#    x 4.171250 0.000000 0.000000 
#    y 0.000000 3.497520 0.000000 
#    z 0.000000 0.000000 3.007270 
# 
# 
# High freq. dielectric constant tensor:
#      x y z
#    x 1.719030 0.000000 0.000000 
#    y 0.000000 1.682700 0.000000 
#    z 0.000000 0.000000 1.639150 
# 
# From -- ./inp_files/4618.got.cif
#   From: 2010.03.12/outbox.cif.g09.slc.cpg/sg44_3_cif.got.tgz:4618.got - 2010.04.14 02:36:11.
