data_PCOD8189339
_publ_section_title
;
Structure prediction by ZEFSAII (Michael W. Deem and Ramdas Pophale) SiO2 
 PCOD8189339
Probable space group: I M M 2
;
_chemical_formula_sum "Si O2"
_cell_formula_units_Z 56
_cell_length_a 7.693774
_cell_length_b 13.644586
_cell_length_c 32.679022
_cell_angle_alpha 90.000000
_cell_angle_beta 90.000000
_cell_angle_gamma 90.000000
_cell_volume 3430.590169
_symmetry_space_group_name_H-M "I M M 2"
_symmetry_group_IT_number 44
_symmetry_cell_setting 'orthorhombic'
loop_
_space_group_symop_operation_xyz
x,y,z
-x,-y,z
-x,y,z
x,-y,z
1/2+x,1/2+y,1/2+z
1/2-x,1/2-y,1/2+z
1/2-x,1/2+y,1/2+z
1/2+x,1/2-y,1/2+z
loop_
_atom_site_type_symbol
_atom_site_label
_atom_site_fract_x
_atom_site_fract_y
_atom_site_fract_z
Si Si1 0.306069 0.882934 0.746810
Si Si2 0.000000 0.117070 0.596714
Si Si3 0.800330 0.701972 0.043007
Si Si4 0.205093 0.391428 0.957793
Si Si5 0.301110 0.204498 0.916883
Si Si6 0.500000 0.616088 0.190655
Si Si7 0.793314 0.388980 0.499649
Si Si8 0.293236 0.891005 0.836387
O O1 0.500000 0.842338 0.736993
O O2 0.239530 0.848108 0.791877
O O3 0.172675 0.841961 0.712889
O O4 0.311870 0.000000 0.747091
O O5 0.824991 0.164372 0.578662
O O6 0.000000 0.148861 0.643893
O O7 0.000000 0.000000 0.590613
O O8 0.781719 0.818817 0.035297
O O9 0.000000 0.677055 0.054612
O O10 0.737075 0.645662 0.002366
O O11 0.281095 0.500000 0.950800
O O12 0.282040 0.321089 0.922877
O O13 0.000000 0.390605 0.954469
O O14 0.500000 0.172998 0.914783
O O15 0.214486 0.174213 0.873580
O O16 0.217235 0.147133 0.955664
O O17 0.500000 0.500000 0.194522
O O18 0.730801 0.500000 0.507951
O O19 0.000000 0.380905 0.499891
O O20 0.500000 0.893760 0.837465
O O21 0.217520 0.000000 0.842368
#
# Coordination Sequence:
#
# PCOD8189339 Si02
#       8
#     8   4   8   8   8   4   8   8
#     4   8  14  26  43  61  85 118 148 175 218 273
#     4  11  22  34  49  69  93 121 160 204 241 277
#     4  10  20  34  49  68  92 121 160 197 234 282
#     4   9  18  31  43  56  82 120 156 192 231 267
#     4   9  16  25  40  65  90 115 154 194 222 259
#     4   9  18  30  44  65  89 113 149 192 228 275
#     4   9  16  28  47  69  96 128 157 189 233 278
#     4   8  13  23  40  61  88 120 148 175 213 264
#
# _framework density 16.323722
#
# number of rings (size 3 to 8) (size 9 to 14) (size 15 to 20)
#    0.000    3.000    0.714    1.714    1.000    3.714 
#    1.286    1.429    0.000    0.857    0.000    0.000 
#    0.000    2.286    0.000    4.143    0.000    0.000 
#
# Total GULP energy -347013.322752 kJ/mol
# GULP energy per Si atom -12393.332955 kJ/mol
# Density = 1.628657 g / cm^3
# Si number density = 16.323722 Si / 1000 Ang^3
#
#
#
# Elastic Constant Matrix: (Units=GPa)
#
#
# Indices 1 2 3 4 5 6 
#
# 1 63.7356 20.8238 48.6232 0.0000 0.0000 0.0000
# 2 20.8238 89.6024 49.1524 0.0000 0.0000 0.0000
# 3 48.6232 49.1524 131.4129 0.0000 0.0000 0.0000
# 4 0.0000 0.0000 0.0000 19.0080 0.0000 0.0000
# 5 0.0000 0.0000 0.0000 0.0000 15.0653 0.0000
# 6 0.0000 0.0000 0.0000 0.0000 0.0000 13.0576
#
#
#
# Elastic Compliance Matrix: (Units=1/GPa)
#
#
# Indices 1 2 3 4 5 6 
#
# 1 0.021907 -0.000811 -0.007802 0.000000 0.000000 0.000000
# 2 -0.000811 0.014071 -0.004963 0.000000 0.000000 0.000000
# 3 -0.007802 -0.004963 0.012353 0.000000 0.000000 0.000000
# 4 0.000000 0.000000 0.000000 0.052610 0.000000 0.000000
# 5 0.000000 0.000000 0.000000 0.000000 0.066378 0.000000
# 6 0.000000 0.000000 0.000000 0.000000 0.000000 0.076584
#
#
# Mechanical properties :
#
#
# Convention : Reuss Voigt Hill
#
# Bulk Modulus (GPa) = 47.21802 57.99441 52.60621
# Shear Modulus (GPa) = 17.97818 20.50294 19.24056
#
# Velocity S-wave (km/s) = 3.32226 3.54788 3.43693
# Velocity P-wave (km/s) = 6.61101 7.23796 6.93158
#
# Compressibility (1/GPa) = 0.02117836
#
# Stress axis : x y z
#
# Youngs Moduli (GPa) = 45.64716 71.06586 80.95337
#
# Poissons Ratio (x) = 0.05765 0.63162
# Poissons Ratio (y) = 0.03703 0.40177
# Poissons Ratio (z) = 0.35615 0.35270
#
# Static dielectric constant tensor:
#      x y z
#    x 3.030310 0.000000 0.000000 
#    y 0.000000 2.974380 0.000000 
#    z 0.000000 0.000000 3.142490 
# 
# 
# High freq. dielectric constant tensor:
#      x y z
#    x 1.628150 0.000000 0.000000 
#    y 0.000000 1.590360 0.000000 
#    z 0.000000 0.000000 1.608460 
# 
# From -- ./inp_files/27255.got.cif
#   From: 2010.03.12/outbox.cif.g09.slc.cpg/sg44_14_cif.got.tgz:27255.got - 2010.04.14 02:36:11.
