data_PCOD8189716
_publ_section_title
;
Structure prediction by ZEFSAII (Michael W. Deem and Ramdas Pophale) SiO2 
 PCOD8189716
Probable space group: I M M 2
;
_chemical_formula_sum "Si O2"
_cell_formula_units_Z 64
_cell_length_a 8.882246
_cell_length_b 28.776531
_cell_length_c 12.659010
_cell_angle_alpha 90.000000
_cell_angle_beta 90.000000
_cell_angle_gamma 90.000000
_cell_volume 3235.645834
_symmetry_space_group_name_H-M "I M M 2"
_symmetry_group_IT_number 44
_symmetry_cell_setting 'orthorhombic'
loop_
_space_group_symop_operation_xyz
x,y,z
-x,-y,z
-x,y,z
x,-y,z
1/2+x,1/2+y,1/2+z
1/2-x,1/2-y,1/2+z
1/2-x,1/2+y,1/2+z
1/2+x,1/2-y,1/2+z
loop_
_atom_site_type_symbol
_atom_site_label
_atom_site_fract_x
_atom_site_fract_y
_atom_site_fract_z
Si Si1 0.675686 0.554332 0.107000
Si Si2 0.331185 0.748159 0.728345
Si Si3 0.325520 0.945908 0.823909
Si Si4 0.334761 0.207050 0.947381
Si Si5 0.822700 0.143368 0.225686
Si Si6 0.173780 0.883220 0.992359
Si Si7 0.821478 0.378235 0.941226
Si Si8 0.172022 0.202812 0.565870
O O1 0.500000 0.566124 0.103768
O O2 0.708743 0.500000 0.093463
O O3 0.739246 0.572392 0.219462
O O4 0.756961 0.579750 0.010645
O O5 0.500000 0.749327 0.681015
O O6 0.329484 0.757152 0.851736
O O7 0.263251 0.696238 0.712632
O O8 0.239337 0.793158 0.683458
O O9 0.500000 0.934898 0.806541
O O10 0.269418 0.921342 0.930221
O O11 0.293663 0.000000 0.840349
O O12 0.500000 0.183083 0.954871
O O13 0.208615 0.167671 0.945423
O O14 0.307970 0.242359 0.042693
O O15 0.738106 0.117441 0.321377
O O16 0.000000 0.143665 0.251094
O O17 0.786554 0.115597 0.117268
O O18 0.000000 0.894115 0.973171
O O19 0.000000 0.381118 0.940884
O O20 0.769498 0.329529 0.990527
O O21 0.000000 0.185330 0.563580
#
# Coordination Sequence:
#
# PCOD8189716 Si02
#       8
#     8   8   8   8   8   8   8   8
#     4  10  22  43  70  95 120 151 191 242 299 359
#     4  10  20  37  55  77 114 158 202 250 297 342
#     4  10  22  42  67  93 123 155 190 241 301 358
#     4  10  21  36  55  79 115 158 200 248 295 345
#     4  10  21  40  60  83 120 162 204 249 296 347
#     4  11  23  38  61  89 120 159 201 248 297 355
#     4  12  25  39  61  90 121 159 201 246 298 359
#     4  11  22  37  56  82 117 158 202 247 293 349
#
# _framework density 19.779667
#
# number of rings (size 3 to 8) (size 9 to 14) (size 15 to 20)
#    0.000    1.500    2.500    2.625    1.750    4.000 
#    0.000    0.625    0.000    0.750    0.000    0.000 
#    0.000    0.000    0.000    0.000    0.000    0.000 
#
# Total GULP energy -396738.564448 kJ/mol
# GULP energy per Si atom -12398.080139 kJ/mol
# Density = 1.973465 g / cm^3
# Si number density = 19.779667 Si / 1000 Ang^3
#
#
#
# Elastic Constant Matrix: (Units=GPa)
#
#
# Indices 1 2 3 4 5 6 
#
# 1 113.8999 46.3000 61.2420 0.0001 0.0000 0.0000
# 2 46.3000 68.3448 52.5512 0.0001 -0.0001 0.0000
# 3 61.2420 52.5512 118.1701 0.0004 -0.0001 0.0000
# 4 0.0001 0.0001 0.0004 32.1009 0.0000 0.0000
# 5 0.0000 -0.0001 -0.0001 0.0000 33.2395 0.0000
# 6 0.0000 0.0000 0.0000 0.0000 0.0000 31.8346
#
#
#
# Elastic Compliance Matrix: (Units=1/GPa)
#
#
# Indices 1 2 3 4 5 6 
#
# 1 0.013499 -0.005722 -0.004451 0.000000 0.000000 0.000000
# 2 -0.005722 0.024660 -0.008001 0.000000 0.000000 0.000000
# 3 -0.004451 -0.008001 0.014327 0.000000 0.000000 0.000000
# 4 0.000000 0.000000 0.000000 0.031152 0.000000 0.000000
# 5 0.000000 0.000000 0.000000 0.000000 0.030085 0.000000
# 6 0.000000 0.000000 0.000000 0.000000 0.000000 0.031412
#
#
# Mechanical properties :
#
#
# Convention : Reuss Voigt Hill
#
# Bulk Modulus (GPa) = 61.96679 68.95569 65.46124
# Shear Modulus (GPa) = 26.75742 28.78975 27.77359
#
# Velocity S-wave (km/s) = 3.68200 3.81927 3.75126
# Velocity P-wave (km/s) = 7.03368 7.37473 7.20623
#
# Compressibility (1/GPa) = 0.01613768
#
# Stress axis : x y z
#
# Youngs Moduli (GPa) = 74.07909 40.55083 69.79669
#
# Poissons Ratio (x) = 0.23205 0.31068
# Poissons Ratio (y) = 0.42391 0.55845
# Poissons Ratio (z) = 0.32974 0.32445
#
# Static dielectric constant tensor:
#      x y z
#    x 3.680090 0.000000 0.000000 
#    y 0.000000 3.366600 0.000000 
#    z 0.000000 0.000000 3.687940 
# 
# 
# High freq. dielectric constant tensor:
#      x y z
#    x 1.775390 0.000000 0.000000 
#    y 0.000000 1.754030 0.000000 
#    z 0.000000 0.000000 1.783120 
# 
# From -- ./inp_files/11434.got.cif
#   From: 2010.03.12/outbox.cif.g09.slc.cpg/sg44_6_cif.got.tgz:11434.got - 2010.04.14 02:36:11.
