data_PCOD8189021
_publ_section_title
;
Structure prediction by ZEFSAII (Michael W. Deem and Ramdas Pophale) SiO2 
 PCOD8189021
Probable space group: I M M 2
;
_chemical_formula_sum "Si O2"
_cell_formula_units_Z 48
_cell_length_a 14.581957
_cell_length_b 8.926101
_cell_length_c 20.294634
_cell_angle_alpha 90.000000
_cell_angle_beta 90.000000
_cell_angle_gamma 90.000000
_cell_volume 2641.549987
_symmetry_space_group_name_H-M "I M M 2"
_symmetry_group_IT_number 44
_symmetry_cell_setting 'orthorhombic'
loop_
_space_group_symop_operation_xyz
x,y,z
-x,-y,z
-x,y,z
x,-y,z
1/2+x,1/2+y,1/2+z
1/2-x,1/2-y,1/2+z
1/2-x,1/2+y,1/2+z
1/2+x,1/2-y,1/2+z
loop_
_atom_site_type_symbol
_atom_site_label
_atom_site_fract_x
_atom_site_fract_y
_atom_site_fract_z
Si Si1 0.500000 0.821833 0.278201
Si Si2 0.694575 0.822273 0.317340
Si Si3 0.821578 0.172983 0.432827
Si Si4 0.184028 0.172817 0.582642
Si Si5 0.500000 0.177650 0.127796
Si Si6 0.000000 0.173041 0.240814
Si Si7 0.196481 0.824799 0.189352
Si Si8 0.500000 0.176610 0.881552
O O1 0.590884 0.757896 0.314089
O O2 0.500000 0.767252 0.202993
O O3 0.500000 0.000000 0.280087
O O4 0.742230 0.765494 0.384201
O O5 0.751686 0.764807 0.254357
O O6 0.691815 0.000000 0.315630
O O7 0.785667 0.193133 0.506930
O O8 0.912521 0.267175 0.421456
O O9 0.844168 0.000000 0.416747
O O10 0.266458 0.237204 0.626230
O O11 0.089878 0.260621 0.592665
O O12 0.167801 0.000000 0.600416
O O13 0.500000 0.000000 0.122101
O O14 0.088748 0.210252 0.196797
O O15 0.000000 0.268725 0.306730
O O16 0.000000 0.000000 0.262911
O O17 0.215627 0.000000 0.178724
O O18 0.500000 0.000000 0.881310
#
# Coordination Sequence:
#
# PCOD8189021 Si02
#       8
#     4   8   8   8   4   4   8   4
#     4   9  16  28  53  86 103 120 173 236 270 297
#     4   9  16  31  56  80 102 136 185 229 261 314
#     4  10  21  38  56  76 110 154 189 217 270 347
#     4  11  23  36  53  82 118 150 180 229 290 336
#     4  11  20  34  57  83 110 143 186 227 271 340
#     4  10  20  37  60  83 109 149 195 232 275 340
#     4  10  19  35  60  82 105 146 192 232 271 328
#     4  12  23  33  54  88 116 140 178 241 296 327
#
# _framework density 18.171147999999999
#
# number of rings (size 3 to 8) (size 9 to 14) (size 15 to 20)
#    0.000    1.833    3.333    2.000    0.000    4.000 
#    0.000    0.833    0.000    2.000    0.000    0.000 
#    0.000    0.000    0.000    0.000    0.000    0.000 
#
# Total GULP energy -297633.261673 kJ/mol
# GULP energy per Si atom -12401.385903 kJ/mol
# Density = 1.812979 g / cm^3
# Si number density = 18.171148 Si / 1000 Ang^3
#
#
#
# Elastic Constant Matrix: (Units=GPa)
#
#
# Indices 1 2 3 4 5 6 
#
# 1 154.9599 36.4411 72.0004 0.0000 0.0000 0.0000
# 2 36.4411 68.4029 45.8898 0.0000 0.0000 0.0000
# 3 72.0004 45.8898 132.0558 0.0000 0.0000 0.0000
# 4 0.0000 0.0000 0.0000 26.4888 0.0000 0.0000
# 5 0.0000 0.0000 0.0000 0.0000 9.5247 0.0000
# 6 0.0000 0.0000 0.0000 0.0000 0.0000 17.4704
#
#
#
# Elastic Compliance Matrix: (Units=1/GPa)
#
#
# Indices 1 2 3 4 5 6 
#
# 1 0.008833 -0.001923 -0.004148 0.000000 0.000000 0.000000
# 2 -0.001923 0.019482 -0.005722 0.000000 0.000000 0.000000
# 3 -0.004148 -0.005722 0.011822 0.000000 0.000000 0.000000
# 4 0.000000 0.000000 0.000000 0.037752 0.000000 0.000000
# 5 0.000000 0.000000 0.000000 0.000000 0.104991 0.000000
# 6 0.000000 0.000000 0.000000 0.000000 0.000000 0.057240
#
#
# Mechanical properties :
#
#
# Convention : Reuss Voigt Hill
#
# Bulk Modulus (GPa) = 60.41330 73.78679 67.10004
# Shear Modulus (GPa) = 18.57211 24.10261 21.33736
#
# Velocity S-wave (km/s) = 3.20044 3.64596 3.43044
# Velocity P-wave (km/s) = 6.85391 7.64322 7.25930
#
# Compressibility (1/GPa) = 0.01655265
#
# Stress axis : x y z
#
# Youngs Moduli (GPa) = 113.21686 51.32874 84.58678
#
# Poissons Ratio (x) = 0.09871 0.35082
# Poissons Ratio (y) = 0.21772 0.48398
# Poissons Ratio (z) = 0.46957 0.29369
#
# Static dielectric constant tensor:
#      x y z
#    x 3.626540 0.000000 0.000000 
#    y 0.000000 3.126220 0.000000 
#    z 0.000000 0.000000 3.396170 
# 
# 
# High freq. dielectric constant tensor:
#      x y z
#    x 1.710170 0.000000 0.000000 
#    y 0.000000 1.678310 0.000000 
#    z 0.000000 0.000000 1.703170 
# 
# From -- ./inp_files/20398.got.cif
#   From: 2010.03.12/outbox.cif.g09.slc.cpg/sg44_11_cif.got.tgz:20398.got - 2010.04.14 02:36:11.
