data_PCOD8189847
_publ_section_title
;
Structure prediction by ZEFSAII (Michael W. Deem and Ramdas Pophale) SiO2 
 PCOD8189847
Probable space group: I M M 2
;
_chemical_formula_sum "Si O2"
_cell_formula_units_Z 64
_cell_length_a 8.941776
_cell_length_b 28.588768
_cell_length_c 12.836062
_cell_angle_alpha 90.000000
_cell_angle_beta 90.000000
_cell_angle_gamma 90.000000
_cell_volume 3281.338489
_symmetry_space_group_name_H-M "I M M 2"
_symmetry_group_IT_number 44
_symmetry_cell_setting 'orthorhombic'
loop_
_space_group_symop_operation_xyz
x,y,z
-x,-y,z
-x,y,z
x,-y,z
1/2+x,1/2+y,1/2+z
1/2-x,1/2-y,1/2+z
1/2-x,1/2+y,1/2+z
1/2+x,1/2-y,1/2+z
loop_
_atom_site_type_symbol
_atom_site_label
_atom_site_fract_x
_atom_site_fract_y
_atom_site_fract_z
Si Si1 0.677411 0.396598 0.015680
Si Si2 0.663775 0.678218 0.728787
Si Si3 0.820925 0.612358 0.415060
Si Si4 0.177217 0.945245 0.728296
Si Si5 0.321453 0.300832 0.505448
Si Si6 0.833988 0.551202 0.602625
Si Si7 0.663967 0.573216 0.798189
Si Si8 0.820818 0.794896 0.449094
O O1 0.500000 0.398044 0.005731
O O2 0.733123 0.422860 0.119077
O O3 0.739933 0.424229 0.913340
O O4 0.726355 0.341944 0.012374
O O5 0.500000 0.700704 0.714668
O O6 0.746857 0.685675 0.619103
O O7 0.649620 0.624171 0.750989
O O8 0.738263 0.702286 0.829467
O O9 0.759208 0.584150 0.316781
O O10 0.755040 0.665056 0.419617
O O11 0.759415 0.586213 0.519134
O O12 0.000000 0.613317 0.408364
O O13 0.000000 0.939392 0.741092
O O14 0.222804 0.000000 0.732388
O O15 0.500000 0.305974 0.495254
O O16 0.270533 0.247765 0.494855
O O17 0.833989 0.500000 0.549724
O O18 0.757999 0.544613 0.714799
O O19 0.000000 0.569659 0.624542
O O20 0.500000 0.549974 0.806486
O O21 0.000000 0.787573 0.454480
#
# Coordination Sequence:
#
# PCOD8189847 Si02
#       8
#     8   8   8   8   8   8   8   8
#     4   8  17  35  59  84 115 150 188 234 284 338
#     4   8  16  32  53  74 105 141 174 220 273 328
#     4  11  23  39  57  78 109 152 196 238 287 346
#     4  10  21  38  60  86 118 156 198 247 296 342
#     4  11  21  35  56  83 112 143 188 243 292 341
#     4  10  21  35  51  76 110 141 173 223 281 332
#     4   9  16  32  57  81 104 139 180 220 271 331
#     4   9  18  35  56  80 111 151 190 228 283 347
#
# _framework density 19.504235999999999
#
# number of rings (size 3 to 8) (size 9 to 14) (size 15 to 20)
#    0.000    2.500    1.250    2.625    0.000    3.000 
#    0.000    8.750    0.000    0.000    0.000    0.000 
#    0.000    0.000    0.000    0.000    0.000    0.000 
#
# Total GULP energy -396465.709195 kJ/mol
# GULP energy per Si atom -12389.553412 kJ/mol
# Density = 1.945984 g / cm^3
# Si number density = 19.504236 Si / 1000 Ang^3
#
#
#
# Elastic Constant Matrix: (Units=GPa)
#
#
# Indices 1 2 3 4 5 6 
#
# 1 48.4368 24.6821 33.9637 -0.0001 0.0003 -0.0001
# 2 24.6821 91.7339 56.6064 -0.0001 0.0003 -0.0002
# 3 33.9637 56.6064 135.2431 0.0007 -0.0005 0.0000
# 4 -0.0001 -0.0001 0.0007 26.9017 -0.0002 -0.0001
# 5 0.0003 0.0003 -0.0005 -0.0002 10.7850 0.0001
# 6 -0.0001 -0.0002 0.0000 -0.0001 0.0001 21.9261
#
#
#
# Elastic Compliance Matrix: (Units=1/GPa)
#
#
# Indices 1 2 3 4 5 6 
#
# 1 0.026111 -0.004017 -0.004876 0.000000 -0.000001 0.000000
# 2 -0.004017 0.015315 -0.005401 0.000000 -0.000001 0.000000
# 3 -0.004876 -0.005401 0.010879 0.000000 0.000001 0.000000
# 4 0.000000 0.000000 0.000000 0.037172 0.000001 0.000000
# 5 -0.000001 -0.000001 0.000001 0.000001 0.092722 -0.000001
# 6 0.000000 0.000000 0.000000 0.000000 -0.000001 0.045608
#
#
# Mechanical properties :
#
#
# Convention : Reuss Voigt Hill
#
# Bulk Modulus (GPa) = 42.16337 56.21314 49.18826
# Shear Modulus (GPa) = 18.91778 22.59999 20.75889
#
# Velocity S-wave (km/s) = 3.11775 3.40769 3.26594
# Velocity P-wave (km/s) = 5.88430 6.66084 6.28457
#
# Compressibility (1/GPa) = 0.02371727
#
# Stress axis : x y z
#
# Youngs Moduli (GPa) = 38.29745 65.29605 91.91656
#
# Poissons Ratio (x) = 0.26227 0.44821
# Poissons Ratio (y) = 0.15383 0.49648
# Poissons Ratio (z) = 0.18675 0.35269
#
# Static dielectric constant tensor:
#      x y z
#    x 3.332370 0.000000 0.000000 
#    y 0.000000 3.529790 0.000000 
#    z 0.000000 0.000000 3.922580 
# 
# 
# High freq. dielectric constant tensor:
#      x y z
#    x 1.723790 0.000000 0.000000 
#    y 0.000000 1.763350 0.000000 
#    z 0.000000 0.000000 1.766850 
# 
# From -- ./inp_files/11559.got.cif
#   From: 2010.03.12/outbox.cif.g09.slc.cpg/sg44_6_cif.got.tgz:11559.got - 2010.04.14 02:36:11.
