data_PCOD8189479
_publ_section_title
;
Structure prediction by ZEFSAII (Michael W. Deem and Ramdas Pophale) SiO2 
 PCOD8189479
Probable space group: I M M 2
;
_chemical_formula_sum "Si O2"
_cell_formula_units_Z 56
_cell_length_a 8.614017
_cell_length_b 18.516347
_cell_length_c 16.908433
_cell_angle_alpha 90.000000
_cell_angle_beta 90.000000
_cell_angle_gamma 90.000000
_cell_volume 2696.897225
_symmetry_space_group_name_H-M "I M M 2"
_symmetry_group_IT_number 44
_symmetry_cell_setting 'orthorhombic'
loop_
_space_group_symop_operation_xyz
x,y,z
-x,-y,z
-x,y,z
x,-y,z
1/2+x,1/2+y,1/2+z
1/2-x,1/2-y,1/2+z
1/2-x,1/2+y,1/2+z
1/2+x,1/2-y,1/2+z
loop_
_atom_site_type_symbol
_atom_site_label
_atom_site_fract_x
_atom_site_fract_y
_atom_site_fract_z
Si Si1 0.818000 0.083292 0.861070
Si Si2 0.316971 0.917178 0.475556
Si Si3 0.183954 0.667712 0.819139
Si Si4 0.316836 0.079990 0.168753
Si Si5 0.318567 0.805374 0.751746
Si Si6 0.318105 0.661410 0.521686
Si Si7 0.318024 0.697606 0.079964
O O1 0.726046 0.116561 0.786842
O O2 0.000000 0.091940 0.845020
O O3 0.769862 0.000000 0.869989
O O4 0.766855 0.125581 0.939659
O O5 0.500000 0.911893 0.488713
O O6 0.264172 0.874973 0.397102
O O7 0.231260 0.881949 0.550837
O O8 0.263305 0.000000 0.468391
O O9 0.246803 0.621884 0.744979
O O10 0.266676 0.745471 0.815953
O O11 0.000000 0.679818 0.817322
O O12 0.500000 0.074830 0.174958
O O13 0.272613 0.121174 0.090146
O O14 0.243134 0.000000 0.167532
O O15 0.500000 0.801485 0.734302
O O16 0.228052 0.790968 0.670674
O O17 0.500000 0.652779 0.535734
O O18 0.270714 0.745391 0.523390
O O19 0.500000 0.709847 0.071678
#
# Coordination Sequence:
#
# PCOD8189479 Si02
#       7
#     8   8   8   8   8   8   8
#     4  10  23  43  65  90 124 165 205 250 309 372
#     4  10  22  41  65  93 126 164 206 253 306 366
#     4  10  20  38  63  91 126 165 204 248 303 367
#     4  10  20  34  57  90 127 167 206 246 299 363
#     4  12  25  41  64  93 123 160 208 260 310 365
#     4  11  22  39  63  92 125 162 207 255 305 364
#     4  12  25  42  64  90 123 165 210 257 311 370
#
# _framework density 20.764602
#
# number of rings (size 3 to 8) (size 9 to 14) (size 15 to 20)
#    0.000    1.286    1.429    4.714    0.000    8.857 
#    0.000    0.000    0.000    2.571    0.000    0.000 
#    0.000    0.000    0.000    0.000    0.000    0.000 
#
# Total GULP energy -347375.802754 kJ/mol
# GULP energy per Si atom -12406.278670 kJ/mol
# Density = 2.071734 g / cm^3
# Si number density = 20.764602 Si / 1000 Ang^3
#
#
#
# Elastic Constant Matrix: (Units=GPa)
#
#
# Indices 1 2 3 4 5 6 
#
# 1 24.5432 16.1789 17.1296 0.0000 0.0000 0.0000
# 2 16.1789 132.2139 48.7187 0.0000 0.0000 0.0000
# 3 17.1296 48.7187 67.9944 0.0000 0.0000 0.0000
# 4 0.0000 0.0000 0.0000 30.2521 0.0000 0.0000
# 5 0.0000 0.0000 0.0000 0.0000 30.3791 0.0000
# 6 0.0000 0.0000 0.0000 0.0000 0.0000 29.3976
#
#
#
# Elastic Compliance Matrix: (Units=1/GPa)
#
#
# Indices 1 2 3 4 5 6 
#
# 1 0.049823 -0.002000 -0.011119 0.000000 0.000000 0.000000
# 2 -0.002000 0.010357 -0.006917 0.000000 0.000000 0.000000
# 3 -0.011119 -0.006917 0.022465 0.000000 0.000000 0.000000
# 4 0.000000 0.000000 0.000000 0.033056 0.000000 0.000000
# 5 0.000000 0.000000 0.000000 0.000000 0.032917 0.000000
# 6 0.000000 0.000000 0.000000 0.000000 0.000000 0.034016
#
#
# Mechanical properties :
#
#
# Convention : Reuss Voigt Hill
#
# Bulk Modulus (GPa) = 23.48908 43.20064 33.34486
# Shear Modulus (GPa) = 21.10626 27.52070 24.31348
#
# Velocity S-wave (km/s) = 3.19165 3.64451 3.42557
# Velocity P-wave (km/s) = 4.99187 6.20967 5.63377
#
# Compressibility (1/GPa) = 0.04257297
#
# Stress axis : x y z
#
# Youngs Moduli (GPa) = 20.07105 96.55236 44.51461
#
# Poissons Ratio (x) = 0.19307 0.49496
# Poissons Ratio (y) = 0.04013 0.30792
# Poissons Ratio (z) = 0.22317 0.66787
#
# Static dielectric constant tensor:
#      x y z
#    x 3.530060 0.000000 0.000000 
#    y 0.000000 4.062900 0.000000 
#    z 0.000000 0.000000 3.771540 
# 
# 
# High freq. dielectric constant tensor:
#      x y z
#    x 1.798620 0.000000 0.000000 
#    y 0.000000 1.827320 0.000000 
#    z 0.000000 0.000000 1.818960 
# 
# From -- ./inp_files/16462.got.cif
#   From: 2010.03.12/outbox.cif.g09.slc.cpg/sg44_9_cif.got.tgz:16462.got - 2010.04.14 02:36:11.
