data_PCOD8189637
_publ_section_title
;
Structure prediction by ZEFSAII (Michael W. Deem and Ramdas Pophale) SiO2 
 PCOD8189637
Probable space group: I M M 2
;
_chemical_formula_sum "Si O2"
_cell_formula_units_Z 48
_cell_length_a 8.825119
_cell_length_b 17.037807
_cell_length_c 16.879947
_cell_angle_alpha 90.000000
_cell_angle_beta 90.000000
_cell_angle_gamma 90.000000
_cell_volume 2538.080213
_symmetry_space_group_name_H-M "I M M 2"
_symmetry_group_IT_number 44
_symmetry_cell_setting 'orthorhombic'
loop_
_space_group_symop_operation_xyz
x,y,z
-x,-y,z
-x,y,z
x,-y,z
1/2+x,1/2+y,1/2+z
1/2-x,1/2-y,1/2+z
1/2-x,1/2+y,1/2+z
1/2+x,1/2-y,1/2+z
loop_
_atom_site_type_symbol
_atom_site_label
_atom_site_fract_x
_atom_site_fract_y
_atom_site_fract_z
Si Si1 0.677473 0.321901 0.141620
Si Si2 0.677484 0.147913 0.169730
Si Si3 0.820705 0.685814 0.842849
Si Si4 0.323744 0.591670 0.982842
Si Si5 0.179968 0.500000 0.397613
Si Si6 0.181746 0.500000 0.575892
Si Si7 0.820551 0.653619 0.307281
O O1 0.500000 0.332846 0.159112
O O2 0.717026 0.230323 0.127331
O O3 0.767546 0.354183 0.216824
O O4 0.730093 0.370072 0.065094
O O5 0.500000 0.134112 0.171789
O O6 0.738141 0.148544 0.260049
O O7 0.749948 0.076475 0.120397
O O8 0.772550 0.628590 0.912655
O O9 0.747957 0.771503 0.852694
O O10 0.000000 0.696146 0.842030
O O11 0.500000 0.608964 0.967643
O O12 0.288288 0.500000 0.986957
O O13 0.244614 0.500000 0.486729
O O14 0.239874 0.422917 0.352919
O O15 0.000000 0.500000 0.398705
O O16 0.000000 0.500000 0.575682
O O17 0.000000 0.660438 0.310000
#
# Coordination Sequence:
#
# PCOD8189637 Si02
#       7
#     8   8   8   8   4   4   8
#     4   9  19  36  56  80 108 145 188 230 278 339
#     4   8  16  30  51  77 104 134 175 223 273 325
#     4  10  21  37  56  82 111 146 189 233 284 339
#     4  10  22  37  56  83 113 149 191 234 287 343
#     4   9  20  32  51  84 113 140 182 225 275 335
#     4   9  16  28  50  78 103 132 174 225 269 319
#     4  10  20  36  57  83 113 146 184 231 283 338
#
# _framework density 18.911933000000001
#
# number of rings (size 3 to 8) (size 9 to 14) (size 15 to 20)
#    0.000    2.667    0.000    2.000    4.667    1.000 
#    0.000    1.250    0.000    0.000    0.000    0.000 
#    0.000    0.000    0.000    0.000    0.000    0.000 
#
# Total GULP energy -297595.600930 kJ/mol
# GULP energy per Si atom -12399.816705 kJ/mol
# Density = 1.886889 g / cm^3
# Si number density = 18.911933 Si / 1000 Ang^3
#
#
#
# Elastic Constant Matrix: (Units=GPa)
#
#
# Indices 1 2 3 4 5 6 
#
# 1 42.9818 33.2073 30.7848 0.0000 0.0000 0.0000
# 2 33.2073 163.0296 94.8727 0.0000 0.0000 0.0000
# 3 30.7848 94.8727 126.6811 0.0000 0.0000 0.0000
# 4 0.0000 0.0000 0.0000 37.6467 0.0000 0.0000
# 5 0.0000 0.0000 0.0000 0.0000 28.5703 0.0000
# 6 0.0000 0.0000 0.0000 0.0000 0.0000 22.3529
#
#
#
# Elastic Compliance Matrix: (Units=1/GPa)
#
#
# Indices 1 2 3 4 5 6 
#
# 1 0.029086 -0.003210 -0.004664 0.000000 0.000000 0.000000
# 2 -0.003210 0.011226 -0.007627 0.000000 0.000000 0.000000
# 3 -0.004664 -0.007627 0.014739 0.000000 0.000000 0.000000
# 4 0.000000 0.000000 0.000000 0.026563 0.000000 0.000000
# 5 0.000000 0.000000 0.000000 0.000000 0.035001 0.000000
# 6 0.000000 0.000000 0.000000 0.000000 0.000000 0.044737
#
#
# Mechanical properties :
#
#
# Convention : Reuss Voigt Hill
#
# Bulk Modulus (GPa) = 41.58227 72.26912 56.92569
# Shear Modulus (GPa) = 24.95340 29.30248 27.12794
#
# Velocity S-wave (km/s) = 3.63637 3.94053 3.79150
# Velocity P-wave (km/s) = 6.29809 7.68116 7.02375
#
# Compressibility (1/GPa) = 0.02404871
#
# Stress axis : x y z
#
# Youngs Moduli (GPa) = 34.38023 89.07519 67.84498
#
# Poissons Ratio (x) = 0.28597 0.31643
# Poissons Ratio (y) = 0.11038 0.51748
# Poissons Ratio (z) = 0.16035 0.67942
#
# Static dielectric constant tensor:
#      x y z
#    x 3.109260 0.000000 0.000000 
#    y 0.000000 3.691990 0.000000 
#    z 0.000000 0.000000 3.630210 
# 
# 
# High freq. dielectric constant tensor:
#      x y z
#    x 1.700070 0.000000 0.000000 
#    y 0.000000 1.747310 0.000000 
#    z 0.000000 0.000000 1.742360 
# 
# From -- ./inp_files/16168.got.cif
#   From: 2010.03.12/outbox.cif.g09.slc.cpg/sg44_9_cif.got.tgz:16168.got - 2010.04.14 02:36:11.
