data_PCOD8189219
_publ_section_title
;
Structure prediction by ZEFSAII (Michael W. Deem and Ramdas Pophale) SiO2 
 PCOD8189219
Probable space group: I M M 2
;
_chemical_formula_sum "Si O2"
_cell_formula_units_Z 64
_cell_length_a 19.608506
_cell_length_b 9.012696
_cell_length_c 20.454586
_cell_angle_alpha 90.000000
_cell_angle_beta 90.000000
_cell_angle_gamma 90.000000
_cell_volume 3614.847012
_symmetry_space_group_name_H-M "I M M 2"
_symmetry_group_IT_number 44
_symmetry_cell_setting 'orthorhombic'
loop_
_space_group_symop_operation_xyz
x,y,z
-x,-y,z
-x,y,z
x,-y,z
1/2+x,1/2+y,1/2+z
1/2-x,1/2-y,1/2+z
1/2-x,1/2+y,1/2+z
1/2+x,1/2-y,1/2+z
loop_
_atom_site_type_symbol
_atom_site_label
_atom_site_fract_x
_atom_site_fract_y
_atom_site_fract_z
Si Si1 0.921352 0.672441 0.831170
Si Si2 0.331141 0.825033 0.575666
Si Si3 0.829525 0.327145 0.711215
Si Si4 0.827320 0.174083 0.209332
Si Si5 0.076169 0.823702 0.322616
Si Si6 0.576332 0.676448 0.967300
Si Si7 0.920823 0.173413 0.965492
Si Si8 0.825238 0.825302 0.578485
O O1 0.907199 0.500000 0.845895
O O2 0.875300 0.730385 0.771285
O O3 0.899770 0.764447 0.894803
O O4 0.000000 0.700510 0.812648
O O5 0.353361 0.759076 0.645275
O O6 0.376796 0.754826 0.519730
O O7 0.252545 0.781480 0.562987
O O8 0.342516 0.000000 0.576144
O O9 0.841776 0.500000 0.699687
O O10 0.750891 0.290873 0.726535
O O11 0.852393 0.244376 0.645637
O O12 0.871076 0.238695 0.269531
O O13 0.839414 0.000000 0.197799
O O14 0.096339 0.765033 0.394911
O O15 0.000000 0.769635 0.304521
O O16 0.078903 0.000000 0.322807
O O17 0.500000 0.729679 0.985317
O O18 0.579597 0.500000 0.967708
O O19 0.629213 0.741628 0.019880
O O20 0.000000 0.206928 0.979622
O O21 0.904749 0.000000 0.967345
O O22 0.833887 0.000000 0.585076
#
# Coordination Sequence:
#
# PCOD8189219 Si02
#       8
#     8   8   8   8   8   8   8   8
#     4   9  18  33  51  71  97 128 161 198 243 294
#     4  10  20  33  49  70  98 129 159 195 240 289
#     4   9  18  31  47  68  95 127 160 194 234 281
#     4   9  17  30  48  69  94 124 159 197 234 277
#     4   8  14  25  43  67  91 114 145 188 232 270
#     4   8  14  26  45  70  97 122 153 195 237 275
#     4  10  21  36  53  73  96 123 159 203 247 293
#     4   9  18  31  48  71  98 128 162 199 237 280
#
# _framework density 17.70476
#
# number of rings (size 3 to 8) (size 9 to 14) (size 15 to 20)
#    0.000    3.000    0.000    1.500    0.000    3.750 
#    0.000    5.000    0.000    0.750    0.000    1.750 
#    0.000    0.000    0.000    0.000    0.000    0.000 
#
# Total GULP energy -396762.811946 kJ/mol
# GULP energy per Si atom -12398.837873 kJ/mol
# Density = 1.766446 g / cm^3
# Si number density = 17.704760 Si / 1000 Ang^3
#
#
#
# Elastic Constant Matrix: (Units=GPa)
#
#
# Indices 1 2 3 4 5 6 
#
# 1 96.1117 33.1536 103.4950 0.0000 0.0000 0.0000
# 2 33.1536 43.4815 49.4631 0.0000 0.0000 0.0000
# 3 103.4950 49.4631 183.1801 0.0000 0.0000 0.0000
# 4 0.0000 0.0000 0.0000 30.0608 0.0000 0.0000
# 5 0.0000 0.0000 0.0000 0.0000 43.9829 0.0000
# 6 0.0000 0.0000 0.0000 0.0000 0.0000 17.8318
#
#
#
# Elastic Compliance Matrix: (Units=1/GPa)
#
#
# Indices 1 2 3 4 5 6 
#
# 1 0.027220 -0.004705 -0.014108 0.000000 0.000000 0.000000
# 2 -0.004705 0.034008 -0.006525 0.000000 0.000000 0.000000
# 3 -0.014108 -0.006525 0.015192 0.000000 0.000000 0.000000
# 4 0.000000 0.000000 0.000000 0.033266 0.000000 0.000000
# 5 0.000000 0.000000 0.000000 0.000000 0.022736 0.000000
# 6 0.000000 0.000000 0.000000 0.000000 0.000000 0.056080
#
#
# Mechanical properties :
#
#
# Convention : Reuss Voigt Hill
#
# Bulk Modulus (GPa) = 38.84479 77.22187 58.03333
# Shear Modulus (GPa) = 20.18088 27.48587 23.83337
#
# Velocity S-wave (km/s) = 3.37984 3.94440 3.67298
# Velocity P-wave (km/s) = 6.10074 8.02842 7.13002
#
# Compressibility (1/GPa) = 0.02574348
#
# Stress axis : x y z
#
# Youngs Moduli (GPa) = 36.73785 29.40479 65.82381
#
# Poissons Ratio (x) = 0.13835 0.92867
# Poissons Ratio (y) = 0.17286 0.42948
# Poissons Ratio (z) = 0.51831 0.19186
#
# Static dielectric constant tensor:
#      x y z
#    x 3.419360 0.000000 0.000000 
#    y 0.000000 3.023440 0.000000 
#    z 0.000000 0.000000 3.548930 
# 
# 
# High freq. dielectric constant tensor:
#      x y z
#    x 1.684060 0.000000 0.000000 
#    y 0.000000 1.656760 0.000000 
#    z 0.000000 0.000000 1.694420 
# 
# From -- ./inp_files/20790.got.cif
#   From: 2010.03.12/outbox.cif.g09.slc.cpg/sg44_11_cif.got.tgz:20790.got - 2010.04.14 02:36:11.
