data_PCOD8189013
_publ_section_title
;
Structure prediction by ZEFSAII (Michael W. Deem and Ramdas Pophale) SiO2 
 PCOD8189013
Probable space group: I M M 2
;
_chemical_formula_sum "Si O2"
_cell_formula_units_Z 48
_cell_length_a 15.670239
_cell_length_b 16.449799
_cell_length_c 8.984698
_cell_angle_alpha 90.000000
_cell_angle_beta 90.000000
_cell_angle_gamma 90.000000
_cell_volume 2316.006105
_symmetry_space_group_name_H-M "I M M 2"
_symmetry_group_IT_number 44
_symmetry_cell_setting 'orthorhombic'
loop_
_space_group_symop_operation_xyz
x,y,z
-x,-y,z
-x,y,z
x,-y,z
1/2+x,1/2+y,1/2+z
1/2-x,1/2-y,1/2+z
1/2-x,1/2+y,1/2+z
1/2+x,1/2-y,1/2+z
loop_
_atom_site_type_symbol
_atom_site_label
_atom_site_fract_x
_atom_site_fract_y
_atom_site_fract_z
Si Si1 0.500000 0.830254 0.154280
Si Si2 0.500000 0.095136 0.473776
Si Si3 0.186137 0.091694 0.154959
Si Si4 0.678321 0.352273 0.982111
Si Si5 0.500000 0.653006 0.028907
Si Si6 0.163614 0.664186 0.479804
Si Si7 0.833968 0.406060 0.159066
Si Si8 0.000000 0.905459 0.211454
O O1 0.500000 0.849519 0.328163
O O2 0.500000 0.734473 0.125497
O O3 0.413955 0.867547 0.083108
O O4 0.581581 0.119267 0.571076
O O5 0.500000 0.000000 0.430519
O O6 0.203053 0.101704 0.331187
O O7 0.245806 0.150608 0.060012
O O8 0.086372 0.110127 0.116054
O O9 0.210234 0.000000 0.111093
O O10 0.591706 0.391175 0.058952
O O11 0.655512 0.259148 0.943090
O O12 0.754663 0.354903 0.098084
O O13 0.500000 0.659109 0.847092
O O14 0.155005 0.612653 0.331120
O O15 0.813032 0.500000 0.136018
O O16 0.000000 0.000000 0.268285
#
# Coordination Sequence:
#
# PCOD8189013 Si02
#       8
#     4   4   8   8   4   8   8   4
#     4  10  21  37  59  83 111 147 190 234 279 336
#     4  10  23  40  59  82 112 150 191 230 281 343
#     4  10  19  35  59  85 110 146 192 235 278 335
#     4  10  20  37  58  82 114 151 188 230 281 342
#     4   8  18  35  56  82 111 141 184 232 276 323
#     4  11  22  37  58  86 116 148 188 238 285 329
#     4  11  23  39  57  83 117 152 188 234 286 335
#     4   8  16  32  58  87 116 148 185 228 280 338
#
# _framework density 20.725335999999999
#
# number of rings (size 3 to 8) (size 9 to 14) (size 15 to 20)
#    0.000    2.000    0.000    3.500    0.000    4.667 
#    0.000    3.333    0.000    0.000    0.000    0.000 
#    0.000    0.000    0.000    0.000    0.000    0.000 
#
# Total GULP energy -297472.664105 kJ/mol
# GULP energy per Si atom -12394.694338 kJ/mol
# Density = 2.067816 g / cm^3
# Si number density = 20.725336 Si / 1000 Ang^3
#
#
#
# Elastic Constant Matrix: (Units=GPa)
#
#
# Indices 1 2 3 4 5 6 
#
# 1 182.3598 29.4151 67.0125 0.0000 0.0000 0.0000
# 2 29.4151 44.9708 18.0548 0.0000 0.0000 0.0000
# 3 67.0125 18.0548 110.6872 0.0000 0.0000 0.0000
# 4 0.0000 0.0000 0.0000 33.1260 0.0000 0.0000
# 5 0.0000 0.0000 0.0000 0.0000 32.3317 0.0000
# 6 0.0000 0.0000 0.0000 0.0000 0.0000 27.3012
#
#
#
# Elastic Compliance Matrix: (Units=1/GPa)
#
#
# Indices 1 2 3 4 5 6 
#
# 1 0.007482 -0.003291 -0.003993 0.000000 0.000000 0.000000
# 2 -0.003291 0.025242 -0.002125 0.000000 0.000000 0.000000
# 3 -0.003993 -0.002125 0.011798 0.000000 0.000000 0.000000
# 4 0.000000 0.000000 0.000000 0.030188 0.000000 0.000000
# 5 0.000000 0.000000 0.000000 0.000000 0.030929 0.000000
# 6 0.000000 0.000000 0.000000 0.000000 0.000000 0.036628
#
#
# Mechanical properties :
#
#
# Convention : Reuss Voigt Hill
#
# Bulk Modulus (GPa) = 38.90281 62.99807 50.95044
# Shear Modulus (GPa) = 29.47180 33.45416 31.46298
#
# Velocity S-wave (km/s) = 3.77506 4.02203 3.90050
# Velocity P-wave (km/s) = 6.14921 7.21329 6.70240
#
# Compressibility (1/GPa) = 0.02570509
#
# Stress axis : x y z
#
# Youngs Moduli (GPa) = 133.65901 39.61609 84.75682
#
# Poissons Ratio (x) = 0.13037 0.33842
# Poissons Ratio (y) = 0.43983 0.18012
# Poissons Ratio (z) = 0.53368 0.08419
#
# Static dielectric constant tensor:
#      x y z
#    x 4.265930 0.000000 0.000000 
#    y 0.000000 3.514760 0.000000 
#    z 0.000000 0.000000 3.381610 
# 
# 
# High freq. dielectric constant tensor:
#      x y z
#    x 1.842720 0.000000 0.000000 
#    y 0.000000 1.797170 0.000000 
#    z 0.000000 0.000000 1.785560 
# 
# From -- ./inp_files/7172.got.cif
#   From: 2010.03.12/outbox.cif.g09.slc.cpg/sg44_4_cif.got.tgz:7172.got - 2010.04.14 02:36:11.
