data_PCOD8189815
_publ_section_title
;
Structure prediction by ZEFSAII (Michael W. Deem and Ramdas Pophale) SiO2 
 PCOD8189815
Probable space group: I M M 2
;
_chemical_formula_sum "Si O2"
_cell_formula_units_Z 30
_cell_length_a 15.461080
_cell_length_b 10.624945
_cell_length_c 8.313326
_cell_angle_alpha 90.000000
_cell_angle_beta 90.000000
_cell_angle_gamma 90.000000
_cell_volume 1365.656038
_symmetry_space_group_name_H-M "I M M 2"
_symmetry_group_IT_number 44
_symmetry_cell_setting 'orthorhombic'
loop_
_space_group_symop_operation_xyz
x,y,z
-x,-y,z
-x,y,z
x,-y,z
1/2+x,1/2+y,1/2+z
1/2-x,1/2-y,1/2+z
1/2-x,1/2+y,1/2+z
1/2+x,1/2-y,1/2+z
loop_
_atom_site_type_symbol
_atom_site_label
_atom_site_fract_x
_atom_site_fract_y
_atom_site_fract_z
Si Si1 0.000000 0.237525 0.494591
Si Si2 0.828636 0.854089 0.330638
Si Si3 0.093766 0.500000 0.004789
Si Si4 0.000000 0.139899 0.829308
Si Si5 0.833418 0.245944 0.994900
Si Si6 0.000000 0.500000 0.684739
O O1 0.917531 0.209729 0.384511
O O2 0.000000 0.378004 0.569647
O O3 0.000000 0.135954 0.637247
O O4 0.823038 0.854757 0.136858
O O5 0.753897 0.761309 0.393722
O O6 0.819289 0.000000 0.387874
O O7 0.000000 0.500000 0.088564
O O8 0.083645 0.500000 0.806549
O O9 0.146052 0.618490 0.070776
O O10 0.086288 0.211043 0.881982
O O11 0.000000 0.000000 0.900750
#
# Coordination Sequence:
#
# PCOD8189815 Si02
#       6
#     4   8   4   4   8   2
#     4  12  25  46  70  99 139 183 222 286 348 394
#     4  12  28  46  68 101 141 178 232 286 338 409
#     4  10  20  43  74  96 137 170 222 293 338 396
#     4  12  23  44  72 103 138 179 225 274 348 414
#     4  12  24  45  72  98 137 183 224 283 345 397
#     4  10  22  44  76  96 134 174 230 288 334 412
#
# _framework density 21.967462000000001
#
# number of rings (size 3 to 8) (size 9 to 14) (size 15 to 20)
#    0.400    0.000    5.333    4.400    0.000    1.067 
#    7.200    0.000    0.000    0.000    0.000    0.000 
#    0.000    0.000    0.000    0.000    0.000    0.000 
#
# Total GULP energy -185970.192361 kJ/mol
# GULP energy per Si atom -12398.012824 kJ/mol
# Density = 2.191746 g / cm^3
# Si number density = 21.967462 Si / 1000 Ang^3
#
#
#
# Elastic Constant Matrix: (Units=GPa)
#
#
# Indices 1 2 3 4 5 6 
#
# 1 175.6736 27.3252 43.0581 0.0000 0.0000 0.0000
# 2 27.3252 116.4501 9.3624 0.0000 0.0000 0.0000
# 3 43.0581 9.3624 91.0339 0.0000 0.0000 0.0000
# 4 0.0000 0.0000 0.0000 37.3939 0.0000 0.0000
# 5 0.0000 0.0000 0.0000 0.0000 26.9728 0.0000
# 6 0.0000 0.0000 0.0000 0.0000 0.0000 -297.7471
#
#
#
# Elastic Compliance Matrix: (Units=1/GPa)
#
#
# Indices 1 2 3 4 5 6 
#
# 1 0.006633 -0.001315 -0.003002 0.000000 0.000000 0.000000
# 2 -0.001315 0.008920 -0.000295 0.000000 0.000000 0.000000
# 3 -0.003002 -0.000295 0.012435 0.000000 0.000000 0.000000
# 4 0.000000 0.000000 0.000000 0.026742 0.000000 0.000000
# 5 0.000000 0.000000 0.000000 0.000000 0.037074 0.000000
# 6 0.000000 0.000000 0.000000 0.000000 0.000000 -0.003359
#
#
# Mechanical properties :
#
#
# Convention : Reuss Voigt Hill
#
# Bulk Modulus (GPa) = 53.29663 60.29434 56.79549
# Shear Modulus (GPa) = 48.11174 -26.44862 10.83156
#
# Velocity S-wave (km/s) = 4.68497 -3.47362 2.22293
# Velocity P-wave (km/s) = 7.31980 3.37915 5.70080
#
# Compressibility (1/GPa) = 0.01876291
#
# Stress axis : x y z
#
# Youngs Moduli (GPa) = 150.76790 112.11159 80.41697
#
# Poissons Ratio (x) = 0.14743 0.24141
# Poissons Ratio (y) = 0.19826 0.02375
# Poissons Ratio (z) = 0.45260 0.03311
#
# Static dielectric constant tensor:
#      x y z
#    x 3.987420 0.000000 0.000000 
#    y 0.000000 4.048340 0.000000 
#    z 0.000000 0.000000 3.729030 
# 
# 
# High freq. dielectric constant tensor:
#      x y z
#    x 1.874170 0.000000 0.000000 
#    y 0.000000 1.874670 0.000000 
#    z 0.000000 0.000000 1.846790 
# 
# From -- ./inp_files/6561.got.cif
#   From: 2010.03.12/outbox.cif.g09.slc.cpg/sg44_4_cif.got.tgz:6561.got - 2010.04.14 02:36:11.
