data_PCOD8189667
_publ_section_title
;
Structure prediction by ZEFSAII (Michael W. Deem and Ramdas Pophale) SiO2 
 PCOD8189667
Probable space group: I M M 2
;
_chemical_formula_sum "Si O2"
_cell_formula_units_Z 48
_cell_length_a 8.915933
_cell_length_b 15.147235
_cell_length_c 18.853926
_cell_angle_alpha 90.000000
_cell_angle_beta 90.000000
_cell_angle_gamma 90.000000
_cell_volume 2546.255369
_symmetry_space_group_name_H-M "I M M 2"
_symmetry_group_IT_number 44
_symmetry_cell_setting 'orthorhombic'
loop_
_space_group_symop_operation_xyz
x,y,z
-x,-y,z
-x,y,z
x,-y,z
1/2+x,1/2+y,1/2+z
1/2-x,1/2-y,1/2+z
1/2-x,1/2+y,1/2+z
1/2+x,1/2-y,1/2+z
loop_
_atom_site_type_symbol
_atom_site_label
_atom_site_fract_x
_atom_site_fract_y
_atom_site_fract_z
Si Si1 0.171573 0.649114 0.856140
Si Si2 0.824017 0.000000 0.444812
Si Si3 0.324160 0.162539 0.194073
Si Si4 0.675533 0.648094 0.350473
Si Si5 0.822472 0.500000 0.602871
Si Si6 0.326261 0.000000 0.595912
Si Si7 0.824100 0.655488 0.201949
Si Si8 0.822053 0.500000 0.441764
O O1 0.272862 0.588205 0.904942
O O2 0.206603 0.629875 0.773939
O O3 0.207396 0.751153 0.872662
O O4 0.000000 0.626398 0.873658
O O5 0.767870 0.000000 0.524750
O O6 0.000000 0.000000 0.446282
O O7 0.500000 0.183818 0.184138
O O8 0.230791 0.249518 0.175179
O O9 0.262251 0.087366 0.141811
O O10 0.500000 0.626778 0.349977
O O11 0.738301 0.626615 0.272845
O O12 0.758553 0.587976 0.407021
O O13 0.766199 0.500000 0.522625
O O14 0.000000 0.500000 0.608918
O O15 0.284297 0.913667 0.640840
O O16 0.500000 0.000000 0.575109
O O17 0.000000 0.657153 0.218818
O O18 0.000000 0.500000 0.435514
#
# Coordination Sequence:
#
# PCOD8189667 Si02
#       8
#     8   4   8   8   4   4   8   4
#     4   9  19  37  60  81 107 144 184 226 275 329
#     4  12  25  36  54  83 112 144 185 232 276 320
#     4   9  18  36  60  83 107 142 184 223 267 326
#     4  10  21  38  60  83 108 146 189 226 267 326
#     4   9  19  35  55  79 111 149 184 217 266 328
#     4  10  23  40  55  75 111 152 181 212 272 340
#     4  10  20  36  59  85 109 138 179 230 280 323
#     4  11  22  35  54  83 118 151 180 225 278 318
#
# _framework density 18.851213000000001
#
# number of rings (size 3 to 8) (size 9 to 14) (size 15 to 20)
#    0.000    2.167    0.000    4.000    0.000    8.000 
#    0.000    5.417    0.000    0.000    0.000    0.000 
#    0.000    0.000    0.000    0.000    0.000    0.000 
#
# Total GULP energy -297678.692052 kJ/mol
# GULP energy per Si atom -12403.278836 kJ/mol
# Density = 1.880831 g / cm^3
# Si number density = 18.851213 Si / 1000 Ang^3
#
#
#
# Elastic Constant Matrix: (Units=GPa)
#
#
# Indices 1 2 3 4 5 6 
#
# 1 103.0141 65.3332 72.9378 0.0000 0.0000 0.0000
# 2 65.3332 138.8176 100.9060 0.0000 0.0000 0.0000
# 3 72.9378 100.9060 149.6808 0.0000 0.0000 0.0000
# 4 0.0000 0.0000 0.0000 10.2559 0.0000 0.0000
# 5 0.0000 0.0000 0.0000 0.0000 28.3025 0.0000
# 6 0.0000 0.0000 0.0000 0.0000 0.0000 34.6786
#
#
#
# Elastic Compliance Matrix: (Units=1/GPa)
#
#
# Indices 1 2 3 4 5 6 
#
# 1 0.015678 -0.003580 -0.005227 0.000000 0.000000 0.000000
# 2 -0.003580 0.014943 -0.008329 0.000000 0.000000 0.000000
# 3 -0.005227 -0.008329 0.014843 0.000000 0.000000 0.000000
# 4 0.000000 0.000000 0.000000 0.097504 0.000000 0.000000
# 5 0.000000 0.000000 0.000000 0.000000 0.035333 0.000000
# 6 0.000000 0.000000 0.000000 0.000000 0.000000 0.028836
#
#
# Mechanical properties :
#
#
# Convention : Reuss Voigt Hill
#
# Bulk Modulus (GPa) = 89.34219 96.65183 92.99701
# Shear Modulus (GPa) = 20.39650 24.80310 22.59980
#
# Velocity S-wave (km/s) = 3.29290 3.63123 3.46620
# Velocity P-wave (km/s) = 7.87108 8.30442 8.09065
#
# Compressibility (1/GPa) = 0.01119292
#
# Stress axis : x y z
#
# Youngs Moduli (GPa) = 63.78215 66.92096 67.37169
#
# Poissons Ratio (x) = 0.23955 0.35214
# Poissons Ratio (y) = 0.22831 0.56117
# Poissons Ratio (z) = 0.33337 0.55741
#
# Static dielectric constant tensor:
#      x y z
#    x 3.385900 0.000000 0.000000 
#    y 0.000000 3.594750 0.000000 
#    z 0.000000 0.000000 3.449000 
# 
# 
# High freq. dielectric constant tensor:
#      x y z
#    x 1.727350 0.000000 0.000000 
#    y 0.000000 1.747110 0.000000 
#    z 0.000000 0.000000 1.730630 
# 
# From -- ./inp_files/20400.got.cif
#   From: 2010.03.12/outbox.cif.g09.slc.cpg/sg44_11_cif.got.tgz:20400.got - 2010.04.14 02:36:11.
