data_PCOD8189102
_publ_section_title
;
Structure prediction by ZEFSAII (Michael W. Deem and Ramdas Pophale) SiO2 
 PCOD8189102
Probable space group: I M M 2
;
_chemical_formula_sum "Si O2"
_cell_formula_units_Z 64
_cell_length_a 9.540977
_cell_length_b 25.741613
_cell_length_c 18.324126
_cell_angle_alpha 90.000000
_cell_angle_beta 90.000000
_cell_angle_gamma 90.000000
_cell_volume 4500.407867
_symmetry_space_group_name_H-M "I M M 2"
_symmetry_group_IT_number 44
_symmetry_cell_setting 'orthorhombic'
loop_
_space_group_symop_operation_xyz
x,y,z
-x,-y,z
-x,y,z
x,-y,z
1/2+x,1/2+y,1/2+z
1/2-x,1/2-y,1/2+z
1/2-x,1/2+y,1/2+z
1/2+x,1/2-y,1/2+z
loop_
_atom_site_type_symbol
_atom_site_label
_atom_site_fract_x
_atom_site_fract_y
_atom_site_fract_z
Si Si1 0.154596 0.699674 0.781230
Si Si2 0.656088 0.694591 0.371157
Si Si3 0.160986 0.559586 0.146927
Si Si4 0.338891 0.148205 0.755621
Si Si5 0.662429 0.439386 0.005296
Si Si6 0.663486 0.251265 0.667510
Si Si7 0.333253 0.242761 0.503941
Si Si8 0.665174 0.140448 0.422004
O O1 0.152949 0.752858 0.825465
O O2 0.261947 0.703330 0.713908
O O3 0.197112 0.654107 0.837418
O O4 0.000000 0.688789 0.749192
O O5 0.500000 0.670960 0.377344
O O6 0.752638 0.652326 0.330899
O O7 0.716954 0.709907 0.451246
O O8 0.182172 0.500000 0.170275
O O9 0.201409 0.594429 0.216465
O O10 0.262444 0.575130 0.081090
O O11 0.000000 0.570565 0.122915
O O12 0.500000 0.149765 0.778486
O O13 0.302911 0.194814 0.700309
O O14 0.500000 0.422681 0.009836
O O15 0.677808 0.500000 0.988296
O O16 0.742079 0.409736 0.940446
O O17 0.500000 0.263757 0.668685
O O18 0.724038 0.252253 0.585312
O O19 0.500000 0.241386 0.502197
O O20 0.281188 0.187105 0.474287
O O21 0.500000 0.129211 0.433472
#
# Coordination Sequence:
#
# PCOD8189102 Si02
#       8
#     8   8   8   8   8   8   8   8
#     4   8  15  26  38  54  75  98 126 158 187 218
#     4   8  14  25  39  53  73 101 128 154 186 224
#     4   9  17  29  43  56  73 102 136 163 188 223
#     4   9  16  25  38  56  76  98 127 160 190 221
#     4  10  20  30  39  56  81 102 124 161 199 224
#     4   9  15  23  37  55  76 101 126 154 188 225
#     4   8  14  25  40  57  76 101 133 161 185 221
#     4   9  16  28  44  56  72 103 136 160 185 223
#
# _framework density 14.220933
#
# number of rings (size 3 to 8) (size 9 to 14) (size 15 to 20)
#    0.000    3.250    0.000    2.625    0.000    3.750 
#    0.000    5.625    0.000    0.000    0.000    0.000 
#    0.000    1.000    0.000    7.000    0.000    4.000 
#
# Total GULP energy -396647.485705 kJ/mol
# GULP energy per Si atom -12395.233928 kJ/mol
# Density = 1.418857 g / cm^3
# Si number density = 14.220933 Si / 1000 Ang^3
#
#
#
# Elastic Constant Matrix: (Units=GPa)
#
#
# Indices 1 2 3 4 5 6 
#
# 1 62.9203 36.0342 44.2397 0.0000 0.0000 0.0000
# 2 36.0342 53.9159 38.3055 0.0000 0.0000 0.0000
# 3 44.2397 38.3055 95.4975 0.0001 0.0000 0.0000
# 4 0.0000 0.0000 0.0001 24.9790 0.0000 0.0000
# 5 0.0000 0.0000 0.0000 0.0000 23.6676 0.0000
# 6 0.0000 0.0000 0.0000 0.0000 0.0000 19.1679
#
#
#
# Elastic Compliance Matrix: (Units=1/GPa)
#
#
# Indices 1 2 3 4 5 6 
#
# 1 0.029630 -0.014057 -0.008088 0.000000 0.000000 0.000000
# 2 -0.014057 0.032608 -0.006568 0.000000 0.000000 0.000000
# 3 -0.008088 -0.006568 0.016853 0.000000 0.000000 0.000000
# 4 0.000000 0.000000 0.000000 0.040034 0.000000 0.000000
# 5 0.000000 0.000000 0.000000 0.000000 0.042252 0.000000
# 6 0.000000 0.000000 0.000000 0.000000 0.000000 0.052171
#
#
# Mechanical properties :
#
#
# Convention : Reuss Voigt Hill
#
# Bulk Modulus (GPa) = 46.15506 49.94360 48.04933
# Shear Modulus (GPa) = 17.97306 19.81319 18.89312
#
# Velocity S-wave (km/s) = 3.55892 3.73666 3.64887
# Velocity P-wave (km/s) = 7.02951 7.33573 7.18425
#
# Compressibility (1/GPa) = 0.02166609
#
# Stress axis : x y z
#
# Youngs Moduli (GPa) = 33.74953 30.66699 59.33773
#
# Poissons Ratio (x) = 0.43108 0.47992
# Poissons Ratio (y) = 0.47441 0.38972
# Poissons Ratio (z) = 0.27296 0.20141
#
# Static dielectric constant tensor:
#      x y z
#    x 2.819130 0.000000 0.000000 
#    y 0.000000 2.602260 0.000000 
#    z 0.000000 0.000000 2.934460 
# 
# 
# High freq. dielectric constant tensor:
#      x y z
#    x 1.536680 0.000000 0.000000 
#    y 0.000000 1.509220 0.000000 
#    z 0.000000 0.000000 1.532280 
# 
# From -- ./inp_files/20908.got.cif
#   From: 2010.03.12/outbox.cif.g09.slc.cpg/sg44_11_cif.got.tgz:20908.got - 2010.04.14 02:36:11.
