data_PCOD8189063
_publ_section_title
;
Structure prediction by ZEFSAII (Michael W. Deem and Ramdas Pophale) SiO2 
 PCOD8189063
Probable space group: I M M 2
;
_chemical_formula_sum "Si O2"
_cell_formula_units_Z 56
_cell_length_a 9.284841
_cell_length_b 16.540009
_cell_length_c 19.595936
_cell_angle_alpha 90.000000
_cell_angle_beta 90.000000
_cell_angle_gamma 90.000000
_cell_volume 3009.374419
_symmetry_space_group_name_H-M "I M M 2"
_symmetry_group_IT_number 44
_symmetry_cell_setting 'orthorhombic'
loop_
_space_group_symop_operation_xyz
x,y,z
-x,-y,z
-x,y,z
x,-y,z
1/2+x,1/2+y,1/2+z
1/2-x,1/2-y,1/2+z
1/2-x,1/2+y,1/2+z
1/2+x,1/2-y,1/2+z
loop_
_atom_site_type_symbol
_atom_site_label
_atom_site_fract_x
_atom_site_fract_y
_atom_site_fract_z
Si Si1 0.674509 0.500000 0.431800
Si Si2 0.662626 0.170599 0.128385
Si Si3 0.166800 0.588930 0.972234
Si Si4 0.660834 0.734567 0.994956
Si Si5 0.837227 0.089127 0.334413
Si Si6 0.328263 0.000000 0.078734
Si Si7 0.169194 0.346948 0.370838
Si Si8 0.667415 0.261649 0.746001
O O1 0.500000 0.500000 0.434797
O O2 0.739604 0.500000 0.507877
O O3 0.730140 0.577664 0.389441
O O4 0.500000 0.175976 0.155029
O O5 0.677900 0.195742 0.049980
O O6 0.714633 0.077175 0.125627
O O7 0.751537 0.234662 0.173829
O O8 0.195997 0.500000 0.004491
O O9 0.232071 0.594288 0.897571
O O10 0.000000 0.607019 0.966591
O O11 0.238488 0.659397 0.016816
O O12 0.500000 0.700042 0.992921
O O13 0.702213 0.772712 0.921872
O O14 0.786138 0.153568 0.279347
O O15 0.000000 0.109338 0.358995
O O16 0.829409 0.000000 0.301117
O O17 0.500000 0.000000 0.061194
O O18 0.209162 0.314146 0.294752
O O19 0.000000 0.371319 0.375574
O O20 0.500000 0.257733 0.729719
#
# Coordination Sequence:
#
# PCOD8189063 Si02
#       8
#     4   8   8   8   8   4   8   8
#     4  12  24  36  60  96 120 143 190 259 308 335
#     4  10  22  37  57  82 114 154 192 234 286 348
#     4  10  20  32  50  80 112 139 174 228 282 323
#     4  10  19  36  60  81 106 147 193 232 277 343
#     4   9  17  31  50  74 107 145 181 212 250 313
#     4  10  20  40  60  82 122 169 200 227 286 369
#     4  10  20  39  62  83 113 154 196 234 288 360
#     4  10  21  36  56  82 112 151 190 230 281 338
#
# _framework density 18.608518
#
# number of rings (size 3 to 8) (size 9 to 14) (size 15 to 20)
#    0.000    2.000    2.857    1.071    1.000    3.714 
#    0.000    0.000    1.571    0.000    0.000    0.000 
#    0.000    0.000    0.000    0.000    0.000    0.000 
#
# Total GULP energy -347049.724283 kJ/mol
# GULP energy per Si atom -12394.633010 kJ/mol
# Density = 1.856616 g / cm^3
# Si number density = 18.608518 Si / 1000 Ang^3
#
#
#
# Elastic Constant Matrix: (Units=GPa)
#
#
# Indices 1 2 3 4 5 6 
#
# 1 85.1270 57.0362 29.4379 0.0000 0.0000 0.0000
# 2 57.0362 93.9663 22.9157 0.0000 0.0000 0.0000
# 3 29.4379 22.9157 68.9181 0.0000 0.0000 0.0000
# 4 0.0000 0.0000 0.0000 23.3215 0.0000 0.0000
# 5 0.0000 0.0000 0.0000 0.0000 19.9484 0.0000
# 6 0.0000 0.0000 0.0000 0.0000 0.0000 30.0412
#
#
#
# Elastic Compliance Matrix: (Units=1/GPa)
#
#
# Indices 1 2 3 4 5 6 
#
# 1 0.021414 -0.011717 -0.005251 0.000000 0.000000 0.000000
# 2 -0.011717 0.017993 -0.000978 0.000000 0.000000 0.000000
# 3 -0.005251 -0.000978 0.017078 0.000000 0.000000 0.000000
# 4 0.000000 0.000000 0.000000 0.042879 0.000000 0.000000
# 5 0.000000 0.000000 0.000000 0.000000 0.050129 0.000000
# 6 0.000000 0.000000 0.000000 0.000000 0.000000 0.033288
#
#
# Mechanical properties :
#
#
# Convention : Reuss Voigt Hill
#
# Bulk Modulus (GPa) = 48.56031 51.86567 50.21299
# Shear Modulus (GPa) = 22.16944 23.90366 23.03655
#
# Velocity S-wave (km/s) = 3.45535 3.58796 3.52228
# Velocity P-wave (km/s) = 6.48627 6.71544 6.60185
#
# Compressibility (1/GPa) = 0.02059295
#
# Stress axis : x y z
#
# Youngs Moduli (GPa) = 46.69929 55.57787 58.55537
#
# Poissons Ratio (x) = 0.65122 0.30745
# Poissons Ratio (y) = 0.54719 0.05725
# Poissons Ratio (z) = 0.24520 0.05434
#
# Static dielectric constant tensor:
#      x y z
#    x 3.595270 0.000000 0.000000 
#    y 0.000000 3.691760 0.000000 
#    z 0.000000 0.000000 3.158090 
# 
# 
# High freq. dielectric constant tensor:
#      x y z
#    x 1.714570 0.000000 0.000000 
#    y 0.000000 1.730500 0.000000 
#    z 0.000000 0.000000 1.696540 
# 
# From -- ./inp_files/23110.got.cif
#   From: 2010.03.12/outbox.cif.g09.slc.cpg/sg44_12_cif.got.tgz:23110.got - 2010.04.14 02:36:11.
