data_PCOD8189351
_publ_section_title
;
Structure prediction by ZEFSAII (Michael W. Deem and Ramdas Pophale) SiO2 
 PCOD8189351
Probable space group: I M M 2
;
_chemical_formula_sum "Si O2"
_cell_formula_units_Z 64
_cell_length_a 22.962341
_cell_length_b 8.710922
_cell_length_c 18.965614
_cell_angle_alpha 90.000000
_cell_angle_beta 90.000000
_cell_angle_gamma 90.000000
_cell_volume 3793.562070
_symmetry_space_group_name_H-M "I M M 2"
_symmetry_group_IT_number 44
_symmetry_cell_setting 'orthorhombic'
loop_
_space_group_symop_operation_xyz
x,y,z
-x,-y,z
-x,y,z
x,-y,z
1/2+x,1/2+y,1/2+z
1/2-x,1/2-y,1/2+z
1/2-x,1/2+y,1/2+z
1/2+x,1/2-y,1/2+z
loop_
_atom_site_type_symbol
_atom_site_label
_atom_site_fract_x
_atom_site_fract_y
_atom_site_fract_z
Si Si1 0.752537 0.176781 0.503500
Si Si2 0.221775 0.823450 0.864424
Si Si3 0.660035 0.179065 0.238063
Si Si4 0.932601 0.823193 0.645968
Si Si5 0.878224 0.320984 0.510749
Si Si6 0.234999 0.322950 0.160300
Si Si7 0.658618 0.175482 0.786736
Si Si8 0.066610 0.823788 0.377184
O O1 0.716918 0.272041 0.445451
O O2 0.819116 0.225932 0.509560
O O3 0.720639 0.204765 0.578416
O O4 0.750850 0.000000 0.481241
O O5 0.176964 0.727261 0.817164
O O6 0.287659 0.793687 0.839337
O O7 0.204429 0.000000 0.857189
O O8 0.602266 0.269591 0.215075
O O9 0.711274 0.217297 0.182960
O O10 0.646972 0.000000 0.235722
O O11 0.915208 0.720590 0.579319
O O12 0.000000 0.798245 0.662881
O O13 0.918435 0.000000 0.628572
O O14 0.862752 0.500000 0.510930
O O15 0.916336 0.283362 0.442321
O O16 0.253117 0.500000 0.175128
O O17 0.178136 0.282569 0.206939
O O18 0.605386 0.283791 0.808788
O O19 0.637940 0.000000 0.792073
O O20 0.000000 0.792414 0.356562
O O21 0.076645 0.000000 0.398824
#
# Coordination Sequence:
#
# PCOD8189351 Si02
#       8
#     8   8   8   8   8   8   8   8
#     4  11  20  32  53  77 104 138 170 205 256 309
#     4  10  20  34  52  74 104 134 168 212 256 303
#     4  11  21  33  52  76 102 133 172 213 255 306
#     4  11  23  38  54  72 100 139 178 216 259 303
#     4  12  23  34  49  73 103 137 177 214 250 300
#     4   9  19  34  52  73 103 134 165 208 258 310
#     4   9  18  33  51  72  98 131 169 210 253 298
#     4  11  23  36  50  70  99 137 177 215 256 301
#
# _framework density 16.870688000000001
#
# number of rings (size 3 to 8) (size 9 to 14) (size 15 to 20)
#    0.000    1.500    2.500    4.875    0.000    6.000 
#    0.000    0.000    0.000    0.000    0.000    0.875 
#    0.000    5.000    0.000    0.000    0.000    0.000 
#
# Total GULP energy -396927.435414 kJ/mol
# GULP energy per Si atom -12403.982357 kJ/mol
# Density = 1.683229 g / cm^3
# Si number density = 16.870688 Si / 1000 Ang^3
#
#
#
# Elastic Constant Matrix: (Units=GPa)
#
#
# Indices 1 2 3 4 5 6 
#
# 1 67.8979 17.9126 41.8655 0.0000 0.0000 0.0000
# 2 17.9126 50.8570 27.2486 0.0000 0.0000 0.0000
# 3 41.8655 27.2486 110.0543 0.0000 0.0000 0.0000
# 4 0.0000 0.0000 0.0000 28.7183 0.0000 0.0000
# 5 0.0000 0.0000 0.0000 0.0000 21.8987 0.0000
# 6 0.0000 0.0000 0.0000 0.0000 0.0000 23.2549
#
#
#
# Elastic Compliance Matrix: (Units=1/GPa)
#
#
# Indices 1 2 3 4 5 6 
#
# 1 0.019731 -0.003376 -0.006670 0.000000 0.000000 0.000000
# 2 -0.003376 0.023248 -0.004472 0.000000 0.000000 0.000000
# 3 -0.006670 -0.004472 0.012731 0.000000 0.000000 0.000000
# 4 0.000000 0.000000 0.000000 0.034821 0.000000 0.000000
# 5 0.000000 0.000000 0.000000 0.000000 0.045665 0.000000
# 6 0.000000 0.000000 0.000000 0.000000 0.000000 0.043002
#
#
# Mechanical properties :
#
#
# Convention : Reuss Voigt Hill
#
# Bulk Modulus (GPa) = 37.48878 44.76252 41.12565
# Shear Modulus (GPa) = 23.02820 24.22653 23.62737
#
# Velocity S-wave (km/s) = 3.69858 3.79359 3.74638
# Velocity P-wave (km/s) = 6.36465 6.76600 6.56839
#
# Compressibility (1/GPa) = 0.02667465
#
# Stress axis : x y z
#
# Youngs Moduli (GPa) = 50.68066 43.01449 78.54864
#
# Poissons Ratio (x) = 0.14521 0.52393
# Poissons Ratio (y) = 0.17109 0.35125
# Poissons Ratio (z) = 0.33805 0.19235
#
# Static dielectric constant tensor:
#      x y z
#    x 2.956690 0.000000 0.000000 
#    y 0.000000 3.238480 0.000000 
#    z 0.000000 0.000000 3.286510 
# 
# 
# High freq. dielectric constant tensor:
#      x y z
#    x 1.617050 0.000000 0.000000 
#    y 0.000000 1.663970 0.000000 
#    z 0.000000 0.000000 1.648420 
# 
# From -- ./inp_files/20761.got.cif
#   From: 2010.03.12/outbox.cif.g09.slc.cpg/sg44_11_cif.got.tgz:20761.got - 2010.04.14 02:36:11.
