data_PCOD8189074
_publ_section_title
;
Structure prediction by ZEFSAII (Michael W. Deem and Ramdas Pophale) SiO2 
 PCOD8189074
Probable space group: I M M 2
;
_chemical_formula_sum "Si O2"
_cell_formula_units_Z 48
_cell_length_a 10.060511
_cell_length_b 9.035649
_cell_length_c 27.838763
_cell_angle_alpha 90.000000
_cell_angle_beta 90.000000
_cell_angle_gamma 90.000000
_cell_volume 2530.633926
_symmetry_space_group_name_H-M "I M M 2"
_symmetry_group_IT_number 44
_symmetry_cell_setting 'orthorhombic'
loop_
_space_group_symop_operation_xyz
x,y,z
-x,-y,z
-x,y,z
x,-y,z
1/2+x,1/2+y,1/2+z
1/2-x,1/2-y,1/2+z
1/2-x,1/2+y,1/2+z
1/2+x,1/2-y,1/2+z
loop_
_atom_site_type_symbol
_atom_site_label
_atom_site_fract_x
_atom_site_fract_y
_atom_site_fract_z
Si Si1 0.268368 0.175301 0.372900
Si Si2 0.500000 0.163623 0.522795
Si Si3 0.347615 0.675859 0.684753
Si Si4 0.000000 0.827311 0.928544
Si Si5 0.748467 0.831040 0.590581
Si Si6 0.500000 0.324950 0.922513
Si Si7 0.849085 0.324364 0.767400
Si Si8 0.500000 0.323899 0.031253
O O1 0.370738 0.254115 0.407071
O O2 0.292776 0.229271 0.318593
O O3 0.125446 0.228641 0.391567
O O4 0.287030 0.000000 0.377247
O O5 0.500000 0.295159 0.484924
O O6 0.373502 0.181973 0.555473
O O7 0.500000 0.000000 0.498207
O O8 0.500000 0.735074 0.690182
O O9 0.349217 0.500000 0.684181
O O10 0.278598 0.731396 0.636584
O O11 0.254743 0.736570 0.727925
O O12 0.000000 0.000000 0.918374
O O13 0.873254 0.767188 0.561046
O O14 0.772512 0.000000 0.607295
O O15 0.500000 0.500000 0.926991
O O16 0.500000 0.257998 0.976800
O O17 0.853300 0.500000 0.765444
O O18 0.000000 0.263098 0.759237
O O19 0.500000 0.500000 0.027550
#
# Coordination Sequence:
#
# PCOD8189074 Si02
#       8
#     8   4   8   4   8   4   8   4
#     4  10  19  36  61  86 112 147 191 238 280 332
#     4  10  20  36  59  80 104 145 191 234 279 334
#     4  10  21  35  54  81 114 145 180 229 281 330
#     4  12  24  36  55  84 117 151 186 232 291 350
#     4  10  20  36  57  79 108 144 185 229 274 328
#     4   9  18  32  58  89 111 137 186 237 280 327
#     4   9  18  33  55  83 111 143 184 227 273 329
#     4   9  18  32  50  79 112 137 171 227 278 317
#
# _framework density 18.967580000000002
#
# number of rings (size 3 to 8) (size 9 to 14) (size 15 to 20)
#    0.000    2.167    1.667    1.750    2.333    3.333 
#    0.000    1.250    0.000    1.000    0.000    0.000 
#    0.000    0.000    0.000    0.000    0.000    0.000 
#
# Total GULP energy -297555.694644 kJ/mol
# GULP energy per Si atom -12398.153944 kJ/mol
# Density = 1.892441 g / cm^3
# Si number density = 18.967580 Si / 1000 Ang^3
#
#
#
# Elastic Constant Matrix: (Units=GPa)
#
#
# Indices 1 2 3 4 5 6 
#
# 1 181.3285 19.1670 80.9929 0.0000 0.0000 0.0000
# 2 19.1670 20.8122 18.0238 0.0000 0.0000 0.0000
# 3 80.9929 18.0238 138.7067 0.0000 0.0000 0.0000
# 4 0.0000 0.0000 0.0000 25.3076 0.0000 0.0000
# 5 0.0000 0.0000 0.0000 0.0000 -29.5126 0.0000
# 6 0.0000 0.0000 0.0000 0.0000 0.0000 19.2704
#
#
#
# Elastic Compliance Matrix: (Units=1/GPa)
#
#
# Indices 1 2 3 4 5 6 
#
# 1 0.007693 -0.003600 -0.004024 0.000000 0.000000 0.000000
# 2 -0.003600 0.055826 -0.005152 0.000000 0.000000 0.000000
# 3 -0.004024 -0.005152 0.010229 0.000000 0.000000 0.000000
# 4 0.000000 0.000000 0.000000 0.039514 0.000000 0.000000
# 5 0.000000 0.000000 0.000000 0.000000 -0.033884 0.000000
# 6 0.000000 0.000000 0.000000 0.000000 0.000000 0.051893
#
#
# Mechanical properties :
#
#
# Convention : Reuss Voigt Hill
#
# Bulk Modulus (GPa) = 20.74892 64.13497 42.44195
# Shear Modulus (GPa) = 28.92050 17.85732 23.38891
#
# Velocity S-wave (km/s) = 3.90902 3.07166 3.51536
# Velocity P-wave (km/s) = 5.59793 6.81663 6.23712
#
# Compressibility (1/GPa) = 0.04819528
#
# Stress axis : x y z
#
# Youngs Moduli (GPa) = 129.99143 17.91284 97.76381
#
# Poissons Ratio (x) = 0.06448 0.39342
# Poissons Ratio (y) = 0.46792 0.50370
# Poissons Ratio (z) = 0.52311 0.09229
#
# Static dielectric constant tensor:
#      x y z
#    x 3.770020 0.000000 0.000000 
#    y 0.000000 3.079750 0.000000 
#    z 0.000000 0.000000 3.676190 
# 
# 
# High freq. dielectric constant tensor:
#      x y z
#    x 1.758950 0.000000 0.000000 
#    y 0.000000 1.685360 0.000000 
#    z 0.000000 0.000000 1.749530 
# 
# From -- ./inp_files/27025.got.cif
#   From: 2010.03.12/outbox.cif.g09.slc.cpg/sg44_14_cif.got.tgz:27025.got - 2010.04.14 02:36:11.
