data_PCOD8189621
_publ_section_title
;
Structure prediction by ZEFSAII (Michael W. Deem and Ramdas Pophale) SiO2 
 PCOD8189621
Probable space group: I M M 2
;
_chemical_formula_sum "Si O2"
_cell_formula_units_Z 40
_cell_length_a 7.658623
_cell_length_b 9.334427
_cell_length_c 29.283148
_cell_angle_alpha 90.000000
_cell_angle_beta 90.000000
_cell_angle_gamma 90.000000
_cell_volume 2093.418789
_symmetry_space_group_name_H-M "I M M 2"
_symmetry_group_IT_number 44
_symmetry_cell_setting 'orthorhombic'
loop_
_space_group_symop_operation_xyz
x,y,z
-x,-y,z
-x,y,z
x,-y,z
1/2+x,1/2+y,1/2+z
1/2-x,1/2-y,1/2+z
1/2-x,1/2+y,1/2+z
1/2+x,1/2-y,1/2+z
loop_
_atom_site_type_symbol
_atom_site_label
_atom_site_fract_x
_atom_site_fract_y
_atom_site_fract_z
Si Si1 0.000000 0.165462 0.723680
Si Si2 0.700127 0.165734 0.793937
Si Si3 0.207340 0.160828 0.382205
Si Si4 0.792783 0.661439 0.467446
Si Si5 0.693920 0.669241 0.565999
Si Si6 0.500000 0.829255 0.130032
O O1 0.174945 0.202617 0.751723
O O2 0.000000 0.264477 0.679884
O O3 0.000000 0.000000 0.708911
O O4 0.500000 0.203783 0.780512
O O5 0.767487 0.257492 0.836720
O O6 0.716462 0.000000 0.807998
O O7 0.283416 0.242018 0.426502
O O8 0.000000 0.159482 0.384766
O O9 0.283005 0.000000 0.381111
O O10 0.720292 0.500000 0.461241
O O11 0.729259 0.730385 0.515280
O O12 0.000000 0.659763 0.466914
O O13 0.500000 0.712841 0.582215
O O14 0.719050 0.500000 0.562799
O O15 0.830578 0.729277 0.602882
O O16 0.500000 0.000000 0.134429
#
# Coordination Sequence:
#
# PCOD8189621 Si02
#       6
#     4   8   8   8   8   4
#     4  10  22  38  56  80 104 132 174 218 263 312
#     4   9  18  35  56  75 100 135 174 214 252 301
#     4   9  17  29  48  76 108 140 171 207 257 309
#     4   9  15  27  49  73 100 138 178 212 249 297
#     4   9  17  31  52  77 103 133 173 217 254 298
#     4  10  20  36  56  78 104 134 172 218 265 308
#
# _framework density 19.107500000000002
#
# number of rings (size 3 to 8) (size 9 to 14) (size 15 to 20)
#    0.000    2.800    1.000    0.600    0.000    4.000 
#    1.800    1.000    0.000    1.200    0.000    0.000 
#    0.000    0.000    0.000    0.000    0.000    0.000 
#
# Total GULP energy -247966.857170 kJ/mol
# GULP energy per Si atom -12398.342858 kJ/mol
# Density = 1.906401 g / cm^3
# Si number density = 19.107500 Si / 1000 Ang^3
#
#
#
# Elastic Constant Matrix: (Units=GPa)
#
#
# Indices 1 2 3 4 5 6 
#
# 1 97.6749 32.5427 67.8590 0.0000 0.0000 0.0000
# 2 32.5427 77.4415 69.5938 0.0000 0.0000 0.0000
# 3 67.8590 69.5938 170.9711 0.0000 0.0000 0.0000
# 4 0.0000 0.0000 0.0000 34.0023 0.0000 0.0000
# 5 0.0000 0.0000 0.0000 0.0000 8.0663 0.0000
# 6 0.0000 0.0000 0.0000 0.0000 0.0000 7.7167
#
#
#
# Elastic Compliance Matrix: (Units=1/GPa)
#
#
# Indices 1 2 3 4 5 6 
#
# 1 0.014235 -0.001426 -0.005069 0.000000 0.000000 0.000000
# 2 -0.001426 0.020504 -0.007780 0.000000 0.000000 0.000000
# 3 -0.005069 -0.007780 0.011028 0.000000 0.000000 0.000000
# 4 0.000000 0.000000 0.000000 0.029410 0.000000 0.000000
# 5 0.000000 0.000000 0.000000 0.000000 0.123972 0.000000
# 6 0.000000 0.000000 0.000000 0.000000 0.000000 0.129589
#
#
# Mechanical properties :
#
#
# Convention : Reuss Voigt Hill
#
# Bulk Modulus (GPa) = 58.08697 76.23092 67.15894
# Shear Modulus (GPa) = 13.77304 21.69655 17.73479
#
# Velocity S-wave (km/s) = 2.68772 3.37337 3.04987
# Velocity P-wave (km/s) = 6.33229 7.42666 6.90120
#
# Compressibility (1/GPa) = 0.01721557
#
# Stress axis : x y z
#
# Youngs Moduli (GPa) = 70.24842 48.77112 90.67915
#
# Poissons Ratio (x) = 0.06956 0.45969
# Poissons Ratio (y) = 0.10019 0.70549
# Poissons Ratio (z) = 0.35612 0.37944
#
# Static dielectric constant tensor:
#      x y z
#    x 3.517920 0.000000 0.000000 
#    y 0.000000 3.364650 0.000000 
#    z 0.000000 0.000000 3.465250 
# 
# 
# High freq. dielectric constant tensor:
#      x y z
#    x 1.741040 0.000000 0.000000 
#    y 0.000000 1.711530 0.000000 
#    z 0.000000 0.000000 1.741280 
# 
# From -- ./inp_files/25935.got.cif
#   From: 2010.03.12/outbox.cif.g09.slc.cpg/sg44_13_cif.got.tgz:25935.got - 2010.04.14 02:36:11.
