data_PCOD8189462
_publ_section_title
;
Structure prediction by ZEFSAII (Michael W. Deem and Ramdas Pophale) SiO2 
 PCOD8189462
Probable space group: I M M 2
;
_chemical_formula_sum "Si O2"
_cell_formula_units_Z 64
_cell_length_a 28.622472
_cell_length_b 8.626726
_cell_length_c 12.798798
_cell_angle_alpha 90.000000
_cell_angle_beta 90.000000
_cell_angle_gamma 90.000000
_cell_volume 3160.256464
_symmetry_space_group_name_H-M "I M M 2"
_symmetry_group_IT_number 44
_symmetry_cell_setting 'orthorhombic'
loop_
_space_group_symop_operation_xyz
x,y,z
-x,-y,z
-x,y,z
x,-y,z
1/2+x,1/2+y,1/2+z
1/2-x,1/2-y,1/2+z
1/2-x,1/2+y,1/2+z
1/2+x,1/2-y,1/2+z
loop_
_atom_site_type_symbol
_atom_site_label
_atom_site_fract_x
_atom_site_fract_y
_atom_site_fract_z
Si Si1 0.423522 0.820210 0.745030
Si Si2 0.796029 0.684695 0.964471
Si Si3 0.173031 0.182531 0.182942
Si Si4 0.099731 0.317798 0.468345
Si Si5 0.446616 0.317027 0.172762
Si Si6 0.201907 0.683004 0.386276
Si Si7 0.949560 0.827047 0.045888
Si Si8 0.884052 0.814311 0.866447
O O1 0.372352 0.780986 0.706851
O O2 0.429805 0.764692 0.865215
O O3 0.457707 0.747469 0.659746
O O4 0.432298 0.000000 0.742663
O O5 0.794189 0.500000 0.967598
O O6 0.745112 0.756553 0.951796
O O7 0.832363 0.739506 0.873475
O O8 0.809624 0.758157 0.073398
O O9 0.207925 0.225482 0.276764
O O10 0.163310 0.000000 0.178804
O O11 0.094530 0.500000 0.489087
O O12 0.078141 0.227060 0.564857
O O13 0.154191 0.274830 0.448741
O O14 0.500000 0.249695 0.179870
O O15 0.449570 0.500000 0.180828
O O16 0.413138 0.253997 0.265811
O O17 0.204427 0.500000 0.365829
O O18 0.000000 0.823183 0.988940
O O19 0.932042 0.000000 0.066213
O O20 0.911855 0.750110 0.968681
O O21 0.880233 0.000000 0.864868
#
# Coordination Sequence:
#
# PCOD8189462 Si02
#       8
#     8   8   8   8   8   8   8   8
#     4  10  20  36  57  83 115 152 194 245 303 362
#     4  12  24  38  60  91 124 161 207 254 308 377
#     4  11  21  37  60  85 116 154 194 245 307 366
#     4   9  21  40  61  85 118 158 201 251 307 364
#     4  10  22  40  63  90 122 164 212 260 310 371
#     4  10  22  41  62  88 121 160 207 259 314 372
#     4  10  20  34  56  85 115 151 195 243 302 368
#     4  10  21  39  60  84 119 161 205 257 312 364
#
# _framework density 20.251522000000001
#
# number of rings (size 3 to 8) (size 9 to 14) (size 15 to 20)
#    0.000    1.750    1.250    4.125    0.000    7.000 
#    0.000    5.000    0.000    2.250    0.000    0.000 
#    0.000    0.000    0.000    0.000    0.000    0.000 
#
# Total GULP energy -396550.532798 kJ/mol
# GULP energy per Si atom -12392.204150 kJ/mol
# Density = 2.020543 g / cm^3
# Si number density = 20.251522 Si / 1000 Ang^3
#
#
#
# Elastic Constant Matrix: (Units=GPa)
#
#
# Indices 1 2 3 4 5 6 
#
# 1 74.8630 17.4646 32.3706 0.0000 0.0000 0.0000
# 2 17.4646 19.3936 11.4763 0.0000 0.0000 0.0000
# 3 32.3706 11.4763 116.5567 0.0000 0.0000 0.0000
# 4 0.0000 0.0000 0.0000 34.2821 0.0000 0.0000
# 5 0.0000 0.0000 0.0000 0.0000 -0.4588 0.0000
# 6 0.0000 0.0000 0.0000 0.0000 0.0000 23.0777
#
#
#
# Elastic Compliance Matrix: (Units=1/GPa)
#
#
# Indices 1 2 3 4 5 6 
#
# 1 0.018278 -0.014288 -0.003669 0.000000 0.000000 0.000000
# 2 -0.014288 0.065923 -0.002523 0.000000 0.000000 0.000000
# 3 -0.003669 -0.002523 0.009847 0.000000 0.000000 0.000000
# 4 0.000000 0.000000 0.000000 0.029170 0.000000 0.000000
# 5 0.000000 0.000000 0.000000 0.000000 -2.179586 0.000000
# 6 0.000000 0.000000 0.000000 0.000000 0.000000 0.043332
#
#
# Mechanical properties :
#
#
# Convention : Reuss Voigt Hill
#
# Bulk Modulus (GPa) = 18.83687 37.04848 27.94267
# Shear Modulus (GPa) = -2.55836 21.34698 9.39431
#
# Velocity S-wave (km/s) = -1.12518 3.25020 2.15613
# Velocity P-wave (km/s) = 2.76290 5.69377 4.47507
#
# Compressibility (1/GPa) = 0.05308739
#
# Stress axis : x y z
#
# Youngs Moduli (GPa) = 54.71174 15.16911 101.55426
#
# Poissons Ratio (x) = 0.21674 0.37263
# Poissons Ratio (y) = 0.78174 0.25619
# Poissons Ratio (z) = 0.20075 0.03827
#
# Static dielectric constant tensor:
#      x y z
#    x 3.982890 0.000000 0.000000 
#    y 0.000000 3.663460 0.000000 
#    z 0.000000 0.000000 4.150020 
# 
# 
# High freq. dielectric constant tensor:
#      x y z
#    x 1.796780 0.000000 0.000000 
#    y 0.000000 1.781320 0.000000 
#    z 0.000000 0.000000 1.798620 
# 
# From -- ./inp_files/15067.got.cif
#   From: 2010.03.12/outbox.cif.g09.slc.cpg/sg44_8_cif.got.tgz:15067.got - 2010.04.14 02:36:11.
