data_PCOD8189657
_publ_section_title
;
Structure prediction by ZEFSAII (Michael W. Deem and Ramdas Pophale) SiO2 
 PCOD8189657
Probable space group: I M M 2
;
_chemical_formula_sum "Si O2"
_cell_formula_units_Z 64
_cell_length_a 24.592903
_cell_length_b 8.655110
_cell_length_c 15.042691
_cell_angle_alpha 90.000000
_cell_angle_beta 90.000000
_cell_angle_gamma 90.000000
_cell_volume 3201.901172
_symmetry_space_group_name_H-M "I M M 2"
_symmetry_group_IT_number 44
_symmetry_cell_setting 'orthorhombic'
loop_
_space_group_symop_operation_xyz
x,y,z
-x,-y,z
-x,y,z
x,-y,z
1/2+x,1/2+y,1/2+z
1/2-x,1/2-y,1/2+z
1/2-x,1/2+y,1/2+z
1/2+x,1/2-y,1/2+z
loop_
_atom_site_type_symbol
_atom_site_label
_atom_site_fract_x
_atom_site_fract_y
_atom_site_fract_z
Si Si1 0.144047 0.320581 0.116720
Si Si2 0.436533 0.320237 0.753330
Si Si3 0.937524 0.676864 0.619463
Si Si4 0.285737 0.821569 0.906886
Si Si5 0.762710 0.180297 0.220927
Si Si6 0.150822 0.180662 0.740315
Si Si7 0.163019 0.178668 0.940530
Si Si8 0.605491 0.319654 0.946103
O O1 0.156681 0.500000 0.127405
O O2 0.092709 0.276848 0.176938
O O3 0.197429 0.220530 0.140131
O O4 0.131108 0.279460 0.013829
O O5 0.500000 0.285031 0.746810
O O6 0.423248 0.500000 0.738911
O O7 0.414943 0.266340 0.849334
O O8 0.919118 0.500000 0.629873
O O9 0.903247 0.782481 0.686261
O O10 0.929581 0.728646 0.518175
O O11 0.000000 0.699037 0.645877
O O12 0.284919 0.776453 0.803890
O O13 0.227412 0.789017 0.950260
O O14 0.330882 0.720933 0.957996
O O15 0.302099 0.000000 0.914563
O O16 0.701233 0.227764 0.196552
O O17 0.765544 0.000000 0.242930
O O18 0.143080 0.231649 0.842895
O O19 0.164526 0.000000 0.735735
O O20 0.149292 0.000000 0.956140
O O21 0.596112 0.500000 0.961574
#
# Coordination Sequence:
#
# PCOD8189657 Si02
#       8
#     8   8   8   8   8   8   8   8
#     4  12  24  37  59  90 124 161 205 252 301 360
#     4  10  22  41  63  87 120 162 206 251 302 361
#     4  11  25  43  63  89 123 163 206 255 310 368
#     4  10  20  36  58  88 124 160 201 245 299 362
#     4  11  21  36  59  87 123 162 199 242 300 365
#     4  10  22  42  66  91 119 155 204 259 311 364
#     4   9  21  40  61  86 122 161 199 249 307 365
#     4  11  22  37  61  91 123 163 205 250 304 363
#
# _framework density 19.988123999999999
#
# number of rings (size 3 to 8) (size 9 to 14) (size 15 to 20)
#    0.000    1.500    1.250    4.875    1.750    5.250 
#    0.000    0.625    0.000    0.750    0.000    0.000 
#    0.000    0.000    0.000    0.000    0.000    0.000 
#
# Total GULP energy -396970.496717 kJ/mol
# GULP energy per Si atom -12405.328022 kJ/mol
# Density = 1.994263 g / cm^3
# Si number density = 19.988124 Si / 1000 Ang^3
#
#
#
# Elastic Constant Matrix: (Units=GPa)
#
#
# Indices 1 2 3 4 5 6 
#
# 1 89.2884 30.9571 46.4092 0.0000 0.0000 0.0000
# 2 30.9571 60.5691 27.1631 0.0000 0.0000 0.0000
# 3 46.4092 27.1631 97.5828 0.0000 0.0000 0.0000
# 4 0.0000 0.0000 0.0000 30.1003 0.0000 0.0000
# 5 0.0000 0.0000 0.0000 0.0000 29.7774 0.0000
# 6 0.0000 0.0000 0.0000 0.0000 0.0000 29.5574
#
#
#
# Elastic Compliance Matrix: (Units=1/GPa)
#
#
# Indices 1 2 3 4 5 6 
#
# 1 0.016372 -0.005572 -0.006236 0.000000 0.000000 0.000000
# 2 -0.005572 0.020761 -0.003129 0.000000 0.000000 0.000000
# 3 -0.006236 -0.003129 0.014084 0.000000 0.000000 0.000000
# 4 0.000000 0.000000 0.000000 0.033222 0.000000 0.000000
# 5 0.000000 0.000000 0.000000 0.000000 0.033582 0.000000
# 6 0.000000 0.000000 0.000000 0.000000 0.000000 0.033832
#
#
# Mechanical properties :
#
#
# Convention : Reuss Voigt Hill
#
# Bulk Modulus (GPa) = 46.84951 50.72213 48.78582
# Shear Modulus (GPa) = 26.47701 27.41443 26.94572
#
# Velocity S-wave (km/s) = 3.64351 3.70744 3.67561
# Velocity P-wave (km/s) = 6.41792 6.61499 6.51720
#
# Compressibility (1/GPa) = 0.02134494
#
# Stress axis : x y z
#
# Youngs Moduli (GPa) = 61.07810 48.16706 71.00071
#
# Poissons Ratio (x) = 0.26837 0.44274
# Poissons Ratio (y) = 0.34030 0.22218
# Poissons Ratio (z) = 0.38086 0.15073
#
# Static dielectric constant tensor:
#      x y z
#    x 3.560970 0.000000 0.000000 
#    y 0.000000 3.584420 0.000000 
#    z 0.000000 0.000000 3.613400 
# 
# 
# High freq. dielectric constant tensor:
#      x y z
#    x 1.769520 0.000000 0.000000 
#    y 0.000000 1.784530 0.000000 
#    z 0.000000 0.000000 1.781250 
# 
# From -- ./inp_files/19485.got.cif
#   From: 2010.03.12/outbox.cif.g09.slc.cpg/sg44_10_cif.got.tgz:19485.got - 2010.04.14 02:36:11.
