data_PCOD8189138
_publ_section_title
;
Structure prediction by ZEFSAII (Michael W. Deem and Ramdas Pophale) SiO2 
 PCOD8189138
Probable space group: I M M 2
;
_chemical_formula_sum "Si O2"
_cell_formula_units_Z 48
_cell_length_a 9.142975
_cell_length_b 31.693885
_cell_length_c 8.976616
_cell_angle_alpha 90.000000
_cell_angle_beta 90.000000
_cell_angle_gamma 90.000000
_cell_volume 2601.211453
_symmetry_space_group_name_H-M "I M M 2"
_symmetry_group_IT_number 44
_symmetry_cell_setting 'orthorhombic'
loop_
_space_group_symop_operation_xyz
x,y,z
-x,-y,z
-x,y,z
x,-y,z
1/2+x,1/2+y,1/2+z
1/2-x,1/2-y,1/2+z
1/2-x,1/2+y,1/2+z
1/2+x,1/2-y,1/2+z
loop_
_atom_site_type_symbol
_atom_site_label
_atom_site_fract_x
_atom_site_fract_y
_atom_site_fract_z
Si Si1 0.168153 0.209144 0.141110
Si Si2 0.165071 0.373300 0.634045
Si Si3 0.832994 0.785587 0.789389
Si Si4 0.832462 0.545047 0.308558
Si Si5 0.330153 0.546364 0.613001
Si Si6 0.337519 0.865787 0.779180
O O1 0.249149 0.167101 0.197989
O O2 0.236850 0.248824 0.222391
O O3 0.000000 0.205480 0.187621
O O4 0.186604 0.215401 0.965668
O O5 0.239976 0.416406 0.695184
O O6 0.171573 0.372334 0.456137
O O7 0.000000 0.371432 0.694563
O O8 0.776490 0.830541 0.724980
O O9 0.000000 0.779922 0.739501
O O10 0.816226 0.500000 0.219901
O O11 0.719243 0.543672 0.442772
O O12 0.800742 0.587446 0.209855
O O13 0.000000 0.549137 0.369687
O O14 0.500000 0.558661 0.617359
O O15 0.303466 0.500000 0.687679
O O16 0.500000 0.850785 0.732173
#
# Coordination Sequence:
#
# PCOD8189138 Si02
#       6
#     8   8   8   8   8   8
#     4  10  20  33  49  68  91 119 151 188 228 269
#     4   9  16  26  40  57  80 111 145 180 219 264
#     4  10  20  32  47  67  90 118 152 187 224 268
#     4   8  13  21  33  50  74 106 142 176 213 260
#     4   9  15  21  31  50  77 108 141 176 214 258
#     4   8  14  24  38  56  80 111 143 177 218 260
#
# _framework density 18.452940999999999
#
# number of rings (size 3 to 8) (size 9 to 14) (size 15 to 20)
#    0.000    3.000    0.000    3.000    0.000    7.000 
#    0.000    0.000    0.000    0.000    0.000    0.000 
#    0.000    1.333    0.000   11.000    0.000   18.500 
#
# Total GULP energy -297320.505478 kJ/mol
# GULP energy per Si atom -12388.354395 kJ/mol
# Density = 1.841094 g / cm^3
# Si number density = 18.452941 Si / 1000 Ang^3
#
#
#
# Elastic Constant Matrix: (Units=GPa)
#
#
# Indices 1 2 3 4 5 6 
#
# 1 145.6615 97.5524 16.0223 0.0001 -0.0002 -0.0002
# 2 97.5524 204.5710 15.4564 0.0035 0.0005 0.0001
# 3 16.0223 15.4564 5.4025 0.0084 0.0006 -0.0003
# 4 0.0001 0.0035 0.0084 13.5593 0.0006 0.0002
# 5 -0.0002 0.0005 0.0006 0.0006 12.9749 0.0008
# 6 -0.0002 0.0001 -0.0003 0.0002 0.0008 37.4659
#
#
#
# Elastic Compliance Matrix: (Units=1/GPa)
#
#
# Indices 1 2 3 4 5 6 
#
# 1 0.012275 -0.003959 -0.025079 0.000017 0.000001 0.000000
# 2 -0.003959 0.007513 -0.009754 0.000004 0.000000 0.000000
# 3 -0.025079 -0.009754 0.287384 -0.000175 -0.000013 0.000002
# 4 0.000017 0.000004 -0.000175 0.073750 -0.000003 0.000000
# 5 0.000001 0.000000 -0.000013 -0.000003 0.077072 -0.000002
# 6 0.000000 0.000000 0.000002 0.000000 -0.000002 0.026691
#
#
# Mechanical properties :
#
#
# Convention : Reuss Voigt Hill
#
# Bulk Modulus (GPa) = 4.35561 68.18856 36.27209
# Shear Modulus (GPa) = 7.82721 27.90696 17.86708
#
# Velocity S-wave (km/s) = 2.06178 3.89309 3.11505
# Velocity P-wave (km/s) = 2.83433 7.56578 5.71290
#
# Compressibility (1/GPa) = 0.22958873
#
# Stress axis : x y z
#
# Youngs Moduli (GPa) = 81.46638 133.10249 3.47967
#
# Poissons Ratio (x) = 0.52691 0.08727
# Poissons Ratio (y) = 0.32250 0.03394
# Poissons Ratio (z) = 2.04306 1.29831
#
# Static dielectric constant tensor:
#      x y z
#    x 3.560880 0.000000 0.000000 
#    y 0.000000 4.167400 0.000000 
#    z 0.000000 0.000000 2.554270 
# 
# 
# High freq. dielectric constant tensor:
#      x y z
#    x 1.728350 0.000000 0.000000 
#    y 0.000000 1.753200 0.000000 
#    z 0.000000 0.000000 1.611660 
# 
# From -- ./inp_files/4889.got.cif
#   From: 2010.03.12/outbox.cif.g09.slc.cpg/sg44_3_cif.got.tgz:4889.got - 2010.04.14 02:36:11.
