data_PCOD8189450
_publ_section_title
;
Structure prediction by ZEFSAII (Michael W. Deem and Ramdas Pophale) SiO2 
 PCOD8189450
Probable space group: I M M 2
;
_chemical_formula_sum "Si O2"
_cell_formula_units_Z 64
_cell_length_a 8.862553
_cell_length_b 24.459561
_cell_length_c 15.149633
_cell_angle_alpha 90.000000
_cell_angle_beta 90.000000
_cell_angle_gamma 90.000000
_cell_volume 3284.048903
_symmetry_space_group_name_H-M "I M M 2"
_symmetry_group_IT_number 44
_symmetry_cell_setting 'orthorhombic'
loop_
_space_group_symop_operation_xyz
x,y,z
-x,-y,z
-x,y,z
x,-y,z
1/2+x,1/2+y,1/2+z
1/2-x,1/2-y,1/2+z
1/2-x,1/2+y,1/2+z
1/2+x,1/2-y,1/2+z
loop_
_atom_site_type_symbol
_atom_site_label
_atom_site_fract_x
_atom_site_fract_y
_atom_site_fract_z
Si Si1 0.672005 0.063093 0.537110
Si Si2 0.324221 0.643362 0.166896
Si Si3 0.674715 0.718495 0.806522
Si Si4 0.675109 0.158817 0.848892
Si Si5 0.825148 0.614601 0.853678
Si Si6 0.823793 0.735291 0.626079
Si Si7 0.322818 0.063052 0.168357
Si Si8 0.322018 0.641942 0.526402
O O1 0.500000 0.079749 0.559271
O O2 0.784931 0.095984 0.599105
O O3 0.707996 0.074456 0.434901
O O4 0.701170 0.000000 0.556082
O O5 0.500000 0.642642 0.190208
O O6 0.233130 0.634242 0.256936
O O7 0.279122 0.701000 0.121817
O O8 0.500000 0.713270 0.779832
O O9 0.706215 0.776134 0.853402
O O10 0.725730 0.669252 0.870223
O O11 0.777520 0.710871 0.720330
O O12 0.500000 0.145075 0.857945
O O13 0.762500 0.129071 0.928203
O O14 0.773223 0.583776 0.764941
O O15 0.000000 0.631168 0.849308
O O16 0.734774 0.702684 0.551028
O O17 0.000000 0.725429 0.610634
O O18 0.500000 0.071267 0.154465
O O19 0.237634 0.096643 0.093469
O O20 0.275825 0.000000 0.159413
O O21 0.500000 0.640550 0.526705
#
# Coordination Sequence:
#
# PCOD8189450 Si02
#       8
#     8   8   8   8   8   8   8   8
#     4  10  22  40  61  87 119 158 205 249 295 356
#     4  10  22  40  62  88 118 153 199 252 304 353
#     4  10  20  34  55  86 120 154 193 239 293 350
#     4  10  22  40  61  85 120 159 197 244 300 363
#     4  10  20  35  58  87 120 159 199 241 288 350
#     4  10  20  36  57  83 118 158 195 236 291 355
#     4  10  21  39  62  86 118 162 205 245 295 354
#     4  12  24  37  58  89 123 158 200 248 297 350
#
# _framework density 19.488137999999999
#
# number of rings (size 3 to 8) (size 9 to 14) (size 15 to 20)
#    0.000    1.750    1.250    3.000    1.750    5.500 
#    0.000    0.625    0.000    6.000    0.000    0.000 
#    0.000    0.000    0.000    0.000    0.000    0.000 
#
# Total GULP energy -396940.975525 kJ/mol
# GULP energy per Si atom -12404.405485 kJ/mol
# Density = 1.944378 g / cm^3
# Si number density = 19.488138 Si / 1000 Ang^3
#
#
#
# Elastic Constant Matrix: (Units=GPa)
#
#
# Indices 1 2 3 4 5 6 
#
# 1 80.4825 42.3123 50.9795 -0.0004 0.0000 0.0000
# 2 42.3123 88.4590 54.5484 0.0000 0.0000 0.0000
# 3 50.9795 54.5484 118.5831 -0.0007 0.0003 0.0002
# 4 -0.0004 0.0000 -0.0007 28.7201 0.0001 0.0000
# 5 0.0000 0.0000 0.0003 0.0001 31.3695 -0.0001
# 6 0.0000 0.0000 0.0002 0.0000 -0.0001 28.7803
#
#
#
# Elastic Compliance Matrix: (Units=1/GPa)
#
#
# Indices 1 2 3 4 5 6 
#
# 1 0.018885 -0.005621 -0.005533 0.000000 0.000000 0.000000
# 2 -0.005621 0.017454 -0.005612 0.000000 0.000000 0.000000
# 3 -0.005533 -0.005612 0.013393 0.000000 0.000000 0.000000
# 4 0.000000 0.000000 0.000000 0.034819 0.000000 0.000000
# 5 0.000000 0.000000 0.000000 0.000000 0.031878 0.000000
# 6 0.000000 0.000000 0.000000 0.000000 0.000000 0.034746
#
#
# Mechanical properties :
#
#
# Convention : Reuss Voigt Hill
#
# Bulk Modulus (GPa) = 61.73090 64.80055 63.26572
# Shear Modulus (GPa) = 26.30072 27.08628 26.69350
#
# Velocity S-wave (km/s) = 3.67764 3.73216 3.70500
# Velocity P-wave (km/s) = 7.05537 7.20385 7.13000
#
# Compressibility (1/GPa) = 0.01619934
#
# Stress axis : x y z
#
# Youngs Moduli (GPa) = 52.95180 57.29218 74.66423
#
# Poissons Ratio (x) = 0.32206 0.41312
# Poissons Ratio (y) = 0.29766 0.41905
# Poissons Ratio (z) = 0.29298 0.32155
#
# Static dielectric constant tensor:
#      x y z
#    x 3.500730 0.000000 0.000000 
#    y 0.000000 3.491480 0.000000 
#    z 0.000000 0.000000 3.508710 
# 
# 
# High freq. dielectric constant tensor:
#      x y z
#    x 1.760270 0.000000 0.000000 
#    y 0.000000 1.750660 0.000000 
#    z 0.000000 0.000000 1.759100 
# 
# From -- ./inp_files/16811.got.cif
#   From: 2010.03.12/outbox.cif.g09.slc.cpg/sg44_9_cif.got.tgz:16811.got - 2010.04.14 02:36:11.
