data_PCOD8189518
_publ_section_title
;
Structure prediction by ZEFSAII (Michael W. Deem and Ramdas Pophale) SiO2 
 PCOD8189518
Probable space group: I M M 2
;
_chemical_formula_sum "Si O2"
_cell_formula_units_Z 64
_cell_length_a 27.956780
_cell_length_b 9.303083
_cell_length_c 14.365132
_cell_angle_alpha 90.000000
_cell_angle_beta 90.000000
_cell_angle_gamma 90.000000
_cell_volume 3736.144507
_symmetry_space_group_name_H-M "I M M 2"
_symmetry_group_IT_number 44
_symmetry_cell_setting 'orthorhombic'
loop_
_space_group_symop_operation_xyz
x,y,z
-x,-y,z
-x,y,z
x,-y,z
1/2+x,1/2+y,1/2+z
1/2-x,1/2-y,1/2+z
1/2-x,1/2+y,1/2+z
1/2+x,1/2-y,1/2+z
loop_
_atom_site_type_symbol
_atom_site_label
_atom_site_fract_x
_atom_site_fract_y
_atom_site_fract_z
Si Si1 0.054599 0.661893 0.007110
Si Si2 0.795185 0.330797 0.556282
Si Si3 0.618805 0.335938 0.998989
Si Si4 0.880924 0.167997 0.891827
Si Si5 0.814265 0.832556 0.061695
Si Si6 0.848676 0.163182 0.693029
Si Si7 0.944216 0.330355 0.360460
Si Si8 0.616866 0.832181 0.681447
O O1 0.067933 0.500000 0.980229
O O2 0.079996 0.709698 0.101294
O O3 0.000000 0.683434 0.029215
O O4 0.069159 0.760178 0.920178
O O5 0.805510 0.500000 0.550272
O O6 0.830272 0.248545 0.482075
O O7 0.740202 0.293091 0.537824
O O8 0.806114 0.269096 0.659912
O O9 0.622709 0.500000 0.961819
O O10 0.574514 0.254888 0.950841
O O11 0.610374 0.335339 0.111630
O O12 0.867618 0.226003 0.789942
O O13 0.888887 0.000000 0.888748
O O14 0.841650 0.214768 0.967978
O O15 0.834016 0.750831 0.154281
O O16 0.820461 0.000000 0.082978
O O17 0.829201 0.000000 0.706234
O O18 0.939948 0.500000 0.378133
O O19 0.909037 0.281811 0.276448
O O20 0.000000 0.290060 0.340922
O O21 0.628811 0.000000 0.686179
#
# Coordination Sequence:
#
# PCOD8189518 Si02
#       8
#     8   8   8   8   8   8   8   8
#     4   9  17  30  48  72 101 130 161 202 250 297
#     4   9  17  32  52  72 100 133 167 209 254 299
#     4   9  19  35  52  72  99 131 169 213 257 304
#     4   9  17  32  51  71  98 131 166 204 245 297
#     4   9  18  32  51  76 106 135 167 209 255 303
#     4   8  17  33  51  70  96 129 166 204 246 295
#     4  10  20  35  55  78 103 137 180 220 262 312
#     4   9  18  32  51  74 103 137 171 209 252 305
#
# _framework density 17.129958999999999
#
# number of rings (size 3 to 8) (size 9 to 14) (size 15 to 20)
#    0.750    2.250    0.000    0.750    0.000    4.000 
#    2.250    0.625    0.000    6.000    0.000    0.000 
#    0.000    0.000    0.000    0.000    0.000    0.000 
#
# Total GULP energy -396455.503561 kJ/mol
# GULP energy per Si atom -12389.234486 kJ/mol
# Density = 1.709097 g / cm^3
# Si number density = 17.129959 Si / 1000 Ang^3
#
#
#
# Elastic Constant Matrix: (Units=GPa)
#
#
# Indices 1 2 3 4 5 6 
#
# 1 57.9388 36.7079 32.0481 0.0000 0.0000 0.0000
# 2 36.7079 58.0612 31.7097 0.0000 0.0000 0.0000
# 3 32.0481 31.7097 78.9739 0.0000 0.0000 0.0000
# 4 0.0000 0.0000 0.0000 25.7174 0.0000 0.0000
# 5 0.0000 0.0000 0.0000 0.0000 24.6953 0.0000
# 6 0.0000 0.0000 0.0000 0.0000 0.0000 29.1185
#
#
#
# Elastic Compliance Matrix: (Units=1/GPa)
#
#
# Indices 1 2 3 4 5 6 
#
# 1 0.030869 -0.016235 -0.006008 0.000000 0.000000 0.000000
# 2 -0.016235 0.030599 -0.005698 0.000000 0.000000 0.000000
# 3 -0.006008 -0.005698 0.017388 0.000000 0.000000 0.000000
# 4 0.000000 0.000000 0.000000 0.038884 0.000000 0.000000
# 5 0.000000 0.000000 0.000000 0.000000 0.040494 0.000000
# 6 0.000000 0.000000 0.000000 0.000000 0.000000 0.034342
#
#
# Mechanical properties :
#
#
# Convention : Reuss Voigt Hill
#
# Bulk Modulus (GPa) = 43.52657 43.98948 43.75802
# Shear Modulus (GPa) = 19.52239 22.20680 20.86460
#
# Velocity S-wave (km/s) = 3.37955 3.60442 3.49380
# Velocity P-wave (km/s) = 6.37913 6.56187 6.47114
#
# Compressibility (1/GPa) = 0.02297447
#
# Stress axis : x y z
#
# Youngs Moduli (GPa) = 32.39539 32.68059 57.50952
#
# Poissons Ratio (x) = 0.53056 0.34552
# Poissons Ratio (y) = 0.52593 0.32770
# Poissons Ratio (z) = 0.19463 0.18622
#
# Static dielectric constant tensor:
#      x y z
#    x 3.130890 0.000000 0.000000 
#    y 0.000000 3.190050 0.000000 
#    z 0.000000 0.000000 3.217570 
# 
# 
# High freq. dielectric constant tensor:
#      x y z
#    x 1.646590 0.000000 0.000000 
#    y 0.000000 1.662150 0.000000 
#    z 0.000000 0.000000 1.648630 
# 
# From -- ./inp_files/19696.got.cif
#   From: 2010.03.12/outbox.cif.g09.slc.cpg/sg44_10_cif.got.tgz:19696.got - 2010.04.14 02:36:11.
