data_PCOD8189320
_publ_section_title
;
Structure prediction by ZEFSAII (Michael W. Deem and Ramdas Pophale) SiO2 
 PCOD8189320
Probable space group: I M M 2
;
_chemical_formula_sum "Si O2"
_cell_formula_units_Z 56
_cell_length_a 9.638162
_cell_length_b 17.866496
_cell_length_c 17.350356
_cell_angle_alpha 90.000000
_cell_angle_beta 90.000000
_cell_angle_gamma 90.000000
_cell_volume 2987.734475
_symmetry_space_group_name_H-M "I M M 2"
_symmetry_group_IT_number 44
_symmetry_cell_setting 'orthorhombic'
loop_
_space_group_symop_operation_xyz
x,y,z
-x,-y,z
-x,y,z
x,-y,z
1/2+x,1/2+y,1/2+z
1/2-x,1/2-y,1/2+z
1/2-x,1/2+y,1/2+z
1/2+x,1/2-y,1/2+z
loop_
_atom_site_type_symbol
_atom_site_label
_atom_site_fract_x
_atom_site_fract_y
_atom_site_fract_z
Si Si1 0.159211 0.840166 0.643700
Si Si2 0.160537 0.670132 0.289605
Si Si3 0.149606 0.587298 0.029924
Si Si4 0.350394 0.087297 0.361513
Si Si5 0.840789 0.840167 0.247737
Si Si6 0.160537 0.670131 0.601832
Si Si7 0.835889 0.413566 0.445718
O O1 0.243465 0.859117 0.721029
O O2 0.218189 0.896658 0.581634
O O3 0.180132 0.759356 0.604261
O O4 0.000000 0.857030 0.661722
O O5 0.180132 0.759356 0.287176
O O6 0.213423 0.632598 0.369721
O O7 0.000000 0.648316 0.274688
O O8 0.137778 0.500000 0.021170
O O9 0.000000 0.617751 0.062808
O O10 0.174209 0.623384 0.945718
O O11 0.500000 0.117751 0.328628
O O12 0.218190 0.103341 0.309802
O O13 0.362223 0.000000 0.370267
O O14 0.756535 0.859118 0.170407
O O15 0.000000 0.857030 0.229715
O O16 0.213423 0.632598 0.521716
O O17 0.000000 0.648315 0.616749
O O18 0.778762 0.500000 0.445718
O O19 0.000000 0.416176 0.445718
#
# Coordination Sequence:
#
# PCOD8189320 Si02
#       7
#     8   8   8   8   8   8   8
#     4  10  20  33  53  79 109 141 175 219 270 318
#     4   9  19  35  54  77 107 139 178 222 264 317
#     4   9  19  35  53  75 104 138 176 216 260 316
#     4   9  19  35  53  75 104 138 176 216 260 316
#     4  10  20  33  53  79 109 141 175 219 270 318
#     4   9  19  35  54  77 107 139 178 222 264 317
#     4   9  18  34  57  81 102 135 184 228 265 311
#
# _framework density 18.743297999999999
#
# number of rings (size 3 to 8) (size 9 to 14) (size 15 to 20)
#    0.000    2.714    0.000    1.714    2.000    3.429 
#    0.000    5.000    0.000    0.857    0.000    0.000 
#    0.000    0.000    0.000    0.000    0.000    0.000 
#
# Total GULP energy -346876.231555 kJ/mol
# GULP energy per Si atom -12388.436841 kJ/mol
# Density = 1.870064 g / cm^3
# Si number density = 18.743298 Si / 1000 Ang^3
#
#
#
# Elastic Constant Matrix: (Units=GPa)
#
#
# Indices 1 2 3 4 5 6 
#
# 1 91.1910 30.6601 72.1490 0.0000 0.0000 0.0000
# 2 30.6601 47.5103 58.1080 0.0000 0.0000 0.0000
# 3 72.1490 58.1080 153.1788 0.0000 0.0000 0.0000
# 4 0.0000 0.0000 0.0000 20.5912 0.0000 0.0000
# 5 0.0000 0.0000 0.0000 0.0000 -15.1388 0.0000
# 6 0.0000 0.0000 0.0000 0.0000 0.0000 23.6208
#
#
#
# Elastic Compliance Matrix: (Units=1/GPa)
#
#
# Indices 1 2 3 4 5 6 
#
# 1 0.017611 -0.002275 -0.007432 0.000000 0.000000 0.000000
# 2 -0.002275 0.039560 -0.013935 0.000000 0.000000 0.000000
# 3 -0.007432 -0.013935 0.015315 0.000000 0.000000 0.000000
# 4 0.000000 0.000000 0.000000 0.048565 0.000000 0.000000
# 5 0.000000 0.000000 0.000000 0.000000 -0.066055 0.000000
# 6 0.000000 0.000000 0.000000 0.000000 0.000000 0.042336
#
#
# Mechanical properties :
#
#
# Convention : Reuss Voigt Hill
#
# Bulk Modulus (GPa) = 39.68069 68.19048 53.93559
# Shear Modulus (GPa) = 32.67619 14.54548 23.61084
#
# Velocity S-wave (km/s) = 4.17988 2.78877 3.55307
# Velocity P-wave (km/s) = 6.67171 6.84323 6.75802
#
# Compressibility (1/GPa) = 0.02520117
#
# Stress axis : x y z
#
# Youngs Moduli (GPa) = 56.78276 25.27792 65.29509
#
# Poissons Ratio (x) = 0.05752 0.48526
# Poissons Ratio (y) = 0.12921 0.90991
# Poissons Ratio (z) = 0.42200 0.35225
#
# Static dielectric constant tensor:
#      x y z
#    x 3.414410 0.000000 0.000000 
#    y 0.000000 3.300680 0.000000 
#    z 0.000000 0.000000 3.614560 
# 
# 
# High freq. dielectric constant tensor:
#      x y z
#    x 1.717310 0.000000 0.000000 
#    y 0.000000 1.709850 0.000000 
#    z 0.000000 0.000000 1.734640 
# 
# From -- ./inp_files/16471.got.cif
#   From: 2010.03.12/outbox.cif.g09.slc.cpg/sg44_9_cif.got.tgz:16471.got - 2010.04.14 02:36:11.
