data_PCOD8189044
_publ_section_title
;
Structure prediction by ZEFSAII (Michael W. Deem and Ramdas Pophale) SiO2 
 PCOD8189044
Probable space group: I M M 2
;
_chemical_formula_sum "Si O2"
_cell_formula_units_Z 48
_cell_length_a 20.505605
_cell_length_b 8.910236
_cell_length_c 14.520996
_cell_angle_alpha 90.000000
_cell_angle_beta 90.000000
_cell_angle_gamma 90.000000
_cell_volume 2653.127983
_symmetry_space_group_name_H-M "I M M 2"
_symmetry_group_IT_number 44
_symmetry_cell_setting 'orthorhombic'
loop_
_space_group_symop_operation_xyz
x,y,z
-x,-y,z
-x,y,z
x,-y,z
1/2+x,1/2+y,1/2+z
1/2-x,1/2-y,1/2+z
1/2-x,1/2+y,1/2+z
1/2+x,1/2-y,1/2+z
loop_
_atom_site_type_symbol
_atom_site_label
_atom_site_fract_x
_atom_site_fract_y
_atom_site_fract_z
Si Si1 0.771901 0.322284 0.685770
Si Si2 0.925227 0.172207 0.366179
Si Si3 0.071504 0.322630 0.999901
Si Si4 0.814163 0.175479 0.505830
Si Si5 0.367719 0.824362 0.691141
Si Si6 0.692208 0.821521 0.386472
O O1 0.770545 0.500000 0.681464
O O2 0.815816 0.259924 0.603070
O O3 0.698889 0.263884 0.678931
O O4 0.803302 0.265161 0.781561
O O5 0.881797 0.212360 0.454814
O O6 0.906031 0.278460 0.282331
O O7 0.000000 0.200569 0.393728
O O8 0.912663 0.000000 0.336418
O O9 0.070686 0.500000 0.987824
O O10 0.087170 0.280948 0.105041
O O11 0.000000 0.256080 0.975312
O O12 0.126172 0.254470 0.931474
O O13 0.754595 0.237424 0.443635
O O14 0.805546 0.000000 0.525163
O O15 0.351797 0.000000 0.693699
O O16 0.692333 0.000000 0.390609
#
# Coordination Sequence:
#
# PCOD8189044 Si02
#       6
#     8   8   8   8   8   8
#     4  11  21  34  54  82 109 138 180 226 267 317
#     4  10  21  37  56  78 109 149 185 223 278 335
#     4   9  17  30  50  76 103 133 169 210 261 317
#     4  10  19  36  56  76 106 143 181 221 267 324
#     4  11  20  32  54  83 112 140 174 224 277 328
#     4   9  17  32  52  73 103 138 172 212 260 317
#
# _framework density 18.091851999999999
#
# number of rings (size 3 to 8) (size 9 to 14) (size 15 to 20)
#    0.000    2.000    3.333    1.500    0.000    1.667 
#    0.000    0.833    0.000    1.000    0.000    0.000 
#    0.000    0.000    0.000    0.000    0.000    0.000 
#
# Total GULP energy -297610.622456 kJ/mol
# GULP energy per Si atom -12400.442602 kJ/mol
# Density = 1.805067 g / cm^3
# Si number density = 18.091852 Si / 1000 Ang^3
#
#
#
# Elastic Constant Matrix: (Units=GPa)
#
#
# Indices 1 2 3 4 5 6 
#
# 1 129.8187 25.6407 61.0505 0.0000 0.0000 0.0000
# 2 25.6407 39.1124 38.8048 0.0000 0.0000 0.0000
# 3 61.0505 38.8048 138.9890 0.0000 0.0000 0.0000
# 4 0.0000 0.0000 0.0000 29.3425 0.0000 0.0000
# 5 0.0000 0.0000 0.0000 0.0000 30.9387 0.0000
# 6 0.0000 0.0000 0.0000 0.0000 0.0000 17.0062
#
#
#
# Elastic Compliance Matrix: (Units=1/GPa)
#
#
# Indices 1 2 3 4 5 6 
#
# 1 0.009961 -0.003028 -0.003530 0.000000 0.000000 0.000000
# 2 -0.003028 0.036283 -0.008800 0.000000 0.000000 0.000000
# 3 -0.003530 -0.008800 0.011202 0.000000 0.000000 0.000000
# 4 0.000000 0.000000 0.000000 0.034080 0.000000 0.000000
# 5 0.000000 0.000000 0.000000 0.000000 0.032322 0.000000
# 6 0.000000 0.000000 0.000000 0.000000 0.000000 0.058802
#
#
# Mechanical properties :
#
#
# Convention : Reuss Voigt Hill
#
# Bulk Modulus (GPa) = 37.41018 62.10133 49.75575
# Shear Modulus (GPa) = 22.49443 27.61908 25.05676
#
# Velocity S-wave (km/s) = 3.52994 3.91142 3.72556
# Velocity P-wave (km/s) = 6.11038 7.40263 6.78733
#
# Compressibility (1/GPa) = 0.02673070
#
# Stress axis : x y z
#
# Youngs Moduli (GPa) = 100.38959 27.56099 89.26752
#
# Poissons Ratio (x) = 0.08345 0.31512
# Poissons Ratio (y) = 0.30397 0.78556
# Poissons Ratio (z) = 0.35438 0.24254
#
# Static dielectric constant tensor:
#      x y z
#    x 3.584420 0.000000 0.000000 
#    y 0.000000 3.099370 0.000000 
#    z 0.000000 0.000000 3.548040 
# 
# 
# High freq. dielectric constant tensor:
#      x y z
#    x 1.703590 0.000000 0.000000 
#    y 0.000000 1.670400 0.000000 
#    z 0.000000 0.000000 1.704740 
# 
# From -- ./inp_files/16092.got.cif
#   From: 2010.03.12/outbox.cif.g09.slc.cpg/sg44_9_cif.got.tgz:16092.got - 2010.04.14 02:36:11.
