data_PCOD8189529
_publ_section_title
;
Structure prediction by ZEFSAII (Michael W. Deem and Ramdas Pophale) SiO2 
 PCOD8189529
Probable space group: I M M 2
;
_chemical_formula_sum "Si O2"
_cell_formula_units_Z 64
_cell_length_a 24.291086
_cell_length_b 8.927352
_cell_length_c 15.159891
_cell_angle_alpha 90.000000
_cell_angle_beta 90.000000
_cell_angle_gamma 90.000000
_cell_volume 3287.499303
_symmetry_space_group_name_H-M "I M M 2"
_symmetry_group_IT_number 44
_symmetry_cell_setting 'orthorhombic'
loop_
_space_group_symop_operation_xyz
x,y,z
-x,-y,z
-x,y,z
x,-y,z
1/2+x,1/2+y,1/2+z
1/2-x,1/2-y,1/2+z
1/2-x,1/2+y,1/2+z
1/2+x,1/2-y,1/2+z
loop_
_atom_site_type_symbol
_atom_site_label
_atom_site_fract_x
_atom_site_fract_y
_atom_site_fract_z
Si Si1 0.281913 0.324460 0.340600
Si Si2 0.342283 0.175388 0.803806
Si Si3 0.387446 0.173946 0.300023
Si Si4 0.936569 0.669913 0.614733
Si Si5 0.265977 0.175834 0.521391
Si Si6 0.144204 0.176387 0.127584
Si Si7 0.936350 0.826352 0.970682
Si Si8 0.357506 0.325802 0.984094
O O1 0.288469 0.500000 0.356387
O O2 0.222728 0.285200 0.300048
O O3 0.330614 0.262547 0.278797
O O4 0.292191 0.241876 0.432902
O O5 0.372495 0.256809 0.722633
O O6 0.368165 0.234435 0.894601
O O7 0.353164 0.000000 0.797328
O O8 0.427103 0.204495 0.217526
O O9 0.418005 0.231394 0.386848
O O10 0.373791 0.000000 0.311940
O O11 0.918259 0.500000 0.592826
O O12 0.903235 0.784636 0.554859
O O13 0.000000 0.695411 0.593057
O O14 0.296632 0.253270 0.602871
O O15 0.201549 0.215835 0.525958
O O16 0.276742 0.000000 0.525569
O O17 0.150318 0.000000 0.135726
O O18 0.097855 0.223302 0.056965
O O19 0.000000 0.794475 0.991614
O O20 0.925515 0.000000 0.949027
O O21 0.360604 0.500000 0.960655
#
# Coordination Sequence:
#
# PCOD8189529 Si02
#       8
#     8   8   8   8   8   8   8   8
#     4  10  20  35  55  83 118 156 195 236 290 350
#     4  10  22  39  60  85 120 159 197 246 299 353
#     4  11  22  36  58  88 120 156 196 241 292 353
#     4  10  23  42  61  85 118 156 201 249 299 354
#     4  10  20  35  56  85 119 153 191 239 292 352
#     4  11  22  36  58  87 120 158 200 245 294 351
#     4  10  22  40  60  84 118 159 200 244 293 348
#     4  10  22  40  62  88 117 152 199 248 300 357
#
# _framework density 19.467683999999998
#
# number of rings (size 3 to 8) (size 9 to 14) (size 15 to 20)
#    0.000    1.750    1.250    2.625    1.750    5.500 
#    0.000    0.625    0.000    2.250    0.000    0.000 
#    0.000    0.000    0.000    0.000    0.000    0.000 
#
# Total GULP energy -396941.885196 kJ/mol
# GULP energy per Si atom -12404.433912 kJ/mol
# Density = 1.942337 g / cm^3
# Si number density = 19.467684 Si / 1000 Ang^3
#
#
#
# Elastic Constant Matrix: (Units=GPa)
#
#
# Indices 1 2 3 4 5 6 
#
# 1 78.6923 35.3046 43.4469 0.0000 0.0000 0.0000
# 2 35.3046 83.1306 54.6400 0.0000 0.0000 0.0000
# 3 43.4469 54.6400 118.0212 0.0000 0.0000 0.0000
# 4 0.0000 0.0000 0.0000 37.4351 0.0000 0.0000
# 5 0.0000 0.0000 0.0000 0.0000 28.5677 0.0000
# 6 0.0000 0.0000 0.0000 0.0000 0.0000 27.5818
#
#
#
# Elastic Compliance Matrix: (Units=1/GPa)
#
#
# Indices 1 2 3 4 5 6 
#
# 1 0.017033 -0.004474 -0.004199 0.000000 0.000000 0.000000
# 2 -0.004474 0.018466 -0.006902 0.000000 0.000000 0.000000
# 3 -0.004199 -0.006902 0.013214 0.000000 0.000000 0.000000
# 4 0.000000 0.000000 0.000000 0.026713 0.000000 0.000000
# 5 0.000000 0.000000 0.000000 0.000000 0.035005 0.000000
# 6 0.000000 0.000000 0.000000 0.000000 0.000000 0.036256
#
#
# Mechanical properties :
#
#
# Convention : Reuss Voigt Hill
#
# Bulk Modulus (GPa) = 56.93724 60.73635 58.83679
# Shear Modulus (GPa) = 27.21954 28.48042 27.84998
#
# Velocity S-wave (km/s) = 3.74330 3.82901 3.78640
# Velocity P-wave (km/s) = 6.92774 7.12845 7.02881
#
# Compressibility (1/GPa) = 0.01756320
#
# Stress axis : x y z
#
# Youngs Moduli (GPa) = 58.70864 54.15388 75.67508
#
# Poissons Ratio (x) = 0.24227 0.31777
# Poissons Ratio (y) = 0.26265 0.52232
# Poissons Ratio (z) = 0.24653 0.37378
#
# Static dielectric constant tensor:
#      x y z
#    x 3.512860 0.000000 0.000000 
#    y 0.000000 3.570400 0.000000 
#    z 0.000000 0.000000 3.506090 
# 
# 
# High freq. dielectric constant tensor:
#      x y z
#    x 1.748740 0.000000 0.000000 
#    y 0.000000 1.767010 0.000000 
#    z 0.000000 0.000000 1.757450 
# 
# From -- ./inp_files/16809.got.cif
#   From: 2010.03.12/outbox.cif.g09.slc.cpg/sg44_9_cif.got.tgz:16809.got - 2010.04.14 02:36:11.
