data_PCOD8189574
_publ_section_title
;
Structure prediction by ZEFSAII (Michael W. Deem and Ramdas Pophale) SiO2 
 PCOD8189574
Probable space group: I M M 2
;
_chemical_formula_sum "Si O2"
_cell_formula_units_Z 40
_cell_length_a 10.906985
_cell_length_b 21.329054
_cell_length_c 8.378574
_cell_angle_alpha 90.000000
_cell_angle_beta 90.000000
_cell_angle_gamma 90.000000
_cell_volume 1949.155193
_symmetry_space_group_name_H-M "I M M 2"
_symmetry_group_IT_number 44
_symmetry_cell_setting 'orthorhombic'
loop_
_space_group_symop_operation_xyz
x,y,z
-x,-y,z
-x,y,z
x,-y,z
1/2+x,1/2+y,1/2+z
1/2-x,1/2-y,1/2+z
1/2-x,1/2+y,1/2+z
1/2+x,1/2-y,1/2+z
loop_
_atom_site_type_symbol
_atom_site_label
_atom_site_fract_x
_atom_site_fract_y
_atom_site_fract_z
Si Si1 0.866256 0.069671 0.795850
Si Si2 0.726324 0.335185 0.063287
Si Si3 0.363820 0.234919 0.831431
Si Si4 0.357680 0.069024 0.357726
Si Si5 0.359289 0.890100 0.008433
O O1 0.871165 0.122609 0.658476
O O2 0.745179 0.075957 0.904683
O O3 0.000000 0.076741 0.885105
O O4 0.858727 0.000000 0.720618
O O5 0.780556 0.282461 0.180715
O O6 0.669633 0.301387 0.909560
O O7 0.826903 0.384576 0.002283
O O8 0.500000 0.239925 0.762208
O O9 0.354545 0.183457 0.971080
O O10 0.500000 0.058762 0.362323
O O11 0.294992 0.000000 0.376192
O O12 0.319210 0.099777 0.190029
O O13 0.500000 0.915282 0.975239
#
# Coordination Sequence:
#
# PCOD8189574 Si02
#       5
#     8   8   8   8   8
#     4  10  21  37  57  84 117 150 185 227 278 335
#     4  11  21  37  56  80 110 148 186 229 279 332
#     4  10  21  37  57  81 109 143 186 232 276 327
#     4  10  20  35  57  85 114 144 184 234 282 330
#     4   9  19  37  61  87 113 145 186 230 278 333
#
# _framework density 20.521712999999998
#
# number of rings (size 3 to 8) (size 9 to 14) (size 15 to 20)
#    0.000    2.000    0.000    3.600    0.000    2.000 
#    0.000   15.000    0.000    4.800    0.000    0.000 
#    0.000    0.000    0.000    0.000    0.000    0.000 
#
# Total GULP energy -247793.473131 kJ/mol
# GULP energy per Si atom -12389.673657 kJ/mol
# Density = 2.047500 g / cm^3
# Si number density = 20.521713 Si / 1000 Ang^3
#
#
#
# Elastic Constant Matrix: (Units=GPa)
#
#
# Indices 1 2 3 4 5 6 
#
# 1 105.6975 41.4491 37.0037 -0.0008 0.0002 0.0001
# 2 41.4491 79.6727 25.1564 0.0027 -0.0008 -0.0004
# 3 37.0037 25.1564 75.3021 0.0091 -0.0025 -0.0009
# 4 -0.0008 0.0027 0.0091 -8.1488 0.0005 -0.0005
# 5 0.0002 -0.0008 -0.0025 0.0005 25.5106 0.0003
# 6 0.0001 -0.0004 -0.0009 -0.0005 0.0003 25.5856
#
#
#
# Elastic Compliance Matrix: (Units=1/GPa)
#
#
# Indices 1 2 3 4 5 6 
#
# 1 0.013220 -0.005396 -0.004694 -0.000008 -0.000001 0.000000
# 2 -0.005396 0.016234 -0.002772 0.000003 0.000000 0.000000
# 3 -0.004694 -0.002772 0.016512 0.000018 0.000002 0.000001
# 4 -0.000008 0.000003 0.000018 -0.122718 0.000002 -0.000002
# 5 -0.000001 0.000000 0.000002 0.000002 0.039199 0.000000
# 6 0.000000 0.000000 0.000001 -0.000002 0.000000 0.039084
#
#
# Mechanical properties :
#
#
# Convention : Reuss Voigt Hill
#
# Bulk Modulus (GPa) = 49.39840 51.98784 50.69312
# Shear Modulus (GPa) = 147.04900 19.06036 83.05468
#
# Velocity S-wave (km/s) = 8.47413 3.05091 6.36863
# Velocity P-wave (km/s) = 10.94858 6.14808 8.87891
#
# Compressibility (1/GPa) = 0.02024357
#
# Stress axis : x y z
#
# Youngs Moduli (GPa) = 75.64233 61.60085 60.56050
#
# Poissons Ratio (x) = 0.33237 0.28426
# Poissons Ratio (y) = 0.40813 0.16786
# Poissons Ratio (z) = 0.35506 0.17074
#
# Static dielectric constant tensor:
#      x y z
#    x 3.740210 0.000000 0.000000 
#    y 0.000000 3.865090 0.000000 
#    z 0.000000 0.000000 3.702570 
# 
# 
# High freq. dielectric constant tensor:
#      x y z
#    x 1.797610 0.000000 0.000000 
#    y 0.000000 1.815030 0.000000 
#    z 0.000000 0.000000 1.784860 
# 
# From -- ./inp_files/4455.got.cif
#   From: 2010.03.12/outbox.cif.g09.slc.cpg/sg44_3_cif.got.tgz:4455.got - 2010.04.14 02:36:11.
