data_PCOD8189383
_publ_section_title
;
Structure prediction by ZEFSAII (Michael W. Deem and Ramdas Pophale) SiO2 
 PCOD8189383
Probable space group: I M M 2
;
_chemical_formula_sum "Si O2"
_cell_formula_units_Z 64
_cell_length_a 19.489135
_cell_length_b 8.950728
_cell_length_c 20.672146
_cell_angle_alpha 90.000000
_cell_angle_beta 90.000000
_cell_angle_gamma 90.000000
_cell_volume 3606.089383
_symmetry_space_group_name_H-M "I M M 2"
_symmetry_group_IT_number 44
_symmetry_cell_setting 'orthorhombic'
loop_
_space_group_symop_operation_xyz
x,y,z
-x,-y,z
-x,y,z
x,-y,z
1/2+x,1/2+y,1/2+z
1/2-x,1/2-y,1/2+z
1/2-x,1/2+y,1/2+z
1/2+x,1/2-y,1/2+z
loop_
_atom_site_type_symbol
_atom_site_label
_atom_site_fract_x
_atom_site_fract_y
_atom_site_fract_z
Si Si1 0.076169 0.170726 0.961400
Si Si2 0.574949 0.823980 0.594910
Si Si3 0.285554 0.323216 0.782205
Si Si4 0.422101 0.673570 0.985243
Si Si5 0.784675 0.323083 0.150618
Si Si6 0.425742 0.322758 0.838624
Si Si7 0.792597 0.675275 0.532408
Si Si8 0.215181 0.172459 0.900385
O O1 0.133593 0.202571 0.907363
O O2 0.000000 0.205394 0.933078
O O3 0.081665 0.000000 0.984758
O O4 0.092469 0.269544 0.023369
O O5 0.500000 0.761684 0.617786
O O6 0.635553 0.772294 0.642699
O O7 0.572850 0.000000 0.591470
O O8 0.282403 0.500000 0.774036
O O9 0.257389 0.246036 0.717511
O O10 0.363562 0.264612 0.794367
O O11 0.238959 0.277302 0.842449
O O12 0.500000 0.697665 0.009730
O O13 0.401317 0.500000 0.990413
O O14 0.371486 0.772111 0.028849
O O15 0.414633 0.732734 0.911847
O O16 0.776218 0.500000 0.152720
O O17 0.740988 0.260852 0.091789
O O18 0.500000 0.263442 0.812715
O O19 0.426666 0.500000 0.839955
O O20 0.788772 0.500000 0.545963
O O21 0.753322 0.718823 0.466487
O O22 0.230619 0.000000 0.883485
#
# Coordination Sequence:
#
# PCOD8189383 Si02
#       8
#     8   8   8   8   8   8   8   8
#     4   9  17  31  53  79 106 136 172 216 262 310
#     4   9  18  32  50  74 105 141 178 215 259 314
#     4  11  22  35  54  77 105 141 182 222 266 318
#     4   9  17  32  55  81 109 141 178 218 265 320
#     4  11  23  37  53  74 108 147 182 221 270 322
#     4   8  15  29  49  74 104 138 176 214 252 306
#     4  11  21  34  55  82 110 139 179 226 270 315
#     4  10  20  34  53  79 109 138 173 220 269 317
#
# _framework density 17.747757
#
# number of rings (size 3 to 8) (size 9 to 14) (size 15 to 20)
#    0.000    2.250    2.500    1.875    0.000    2.250 
#    0.000    0.000    0.000    1.875    0.000    1.750 
#    0.000    0.000    0.000    0.000    0.000    0.000 
#
# Total GULP energy -396705.920056 kJ/mol
# GULP energy per Si atom -12397.060002 kJ/mol
# Density = 1.770736 g / cm^3
# Si number density = 17.747757 Si / 1000 Ang^3
#
#
#
# Elastic Constant Matrix: (Units=GPa)
#
#
# Indices 1 2 3 4 5 6 
#
# 1 102.2511 37.1447 50.5805 0.0000 0.0000 0.0000
# 2 37.1447 38.0835 33.6576 0.0000 0.0000 0.0000
# 3 50.5805 33.6576 99.6302 0.0000 0.0000 0.0000
# 4 0.0000 0.0000 0.0000 25.4994 0.0000 0.0000
# 5 0.0000 0.0000 0.0000 0.0000 19.7449 0.0000
# 6 0.0000 0.0000 0.0000 0.0000 0.0000 24.4517
#
#
#
# Elastic Compliance Matrix: (Units=1/GPa)
#
#
# Indices 1 2 3 4 5 6 
#
# 1 0.016257 -0.012206 -0.004130 0.000000 0.000000 0.000000
# 2 -0.012206 0.046600 -0.009546 0.000000 0.000000 0.000000
# 3 -0.004130 -0.009546 0.015358 0.000000 0.000000 0.000000
# 4 0.000000 0.000000 0.000000 0.039217 0.000000 0.000000
# 5 0.000000 0.000000 0.000000 0.000000 0.050646 0.000000
# 6 0.000000 0.000000 0.000000 0.000000 0.000000 0.040897
#
#
# Mechanical properties :
#
#
# Convention : Reuss Voigt Hill
#
# Bulk Modulus (GPa) = 37.80473 53.63671 45.72072
# Shear Modulus (GPa) = 18.54908 21.84467 20.19688
#
# Velocity S-wave (km/s) = 3.23639 3.51214 3.37708
# Velocity P-wave (km/s) = 5.94247 6.83624 6.40496
#
# Compressibility (1/GPa) = 0.02645172
#
# Stress axis : x y z
#
# Youngs Moduli (GPa) = 61.51240 21.45936 65.11070
#
# Poissons Ratio (x) = 0.26194 0.26889
# Poissons Ratio (y) = 0.75084 0.62152
# Poissons Ratio (z) = 0.25403 0.20484
#
# Static dielectric constant tensor:
#      x y z
#    x 3.689410 0.000000 0.000000 
#    y 0.000000 3.155290 0.000000 
#    z 0.000000 0.000000 3.017630 
# 
# 
# High freq. dielectric constant tensor:
#      x y z
#    x 1.694590 0.000000 0.000000 
#    y 0.000000 1.678760 0.000000 
#    z 0.000000 0.000000 1.657900 
# 
# From -- ./inp_files/20725.got.cif
#   From: 2010.03.12/outbox.cif.g09.slc.cpg/sg44_11_cif.got.tgz:20725.got - 2010.04.14 02:36:11.
