data_PCOD8189625
_publ_section_title
;
Structure prediction by ZEFSAII (Michael W. Deem and Ramdas Pophale) SiO2 
 PCOD8189625
Probable space group: I M M 2
;
_chemical_formula_sum "Si O2"
_cell_formula_units_Z 64
_cell_length_a 9.155953
_cell_length_b 29.450359
_cell_length_c 12.601508
_cell_angle_alpha 90.000000
_cell_angle_beta 90.000000
_cell_angle_gamma 90.000000
_cell_volume 3397.947522
_symmetry_space_group_name_H-M "I M M 2"
_symmetry_group_IT_number 44
_symmetry_cell_setting 'orthorhombic'
loop_
_space_group_symop_operation_xyz
x,y,z
-x,-y,z
-x,y,z
x,-y,z
1/2+x,1/2+y,1/2+z
1/2-x,1/2-y,1/2+z
1/2-x,1/2+y,1/2+z
1/2+x,1/2-y,1/2+z
loop_
_atom_site_type_symbol
_atom_site_label
_atom_site_fract_x
_atom_site_fract_y
_atom_site_fract_z
Si Si1 0.662708 0.285962 0.052140
Si Si2 0.669116 0.625744 0.547235
Si Si3 0.170241 0.116760 0.509578
Si Si4 0.163456 0.256019 0.775008
Si Si5 0.168483 0.149996 0.280823
Si Si6 0.670076 0.946766 0.667679
Si Si7 0.669397 0.551673 0.378982
Si Si8 0.673362 0.203818 0.923468
O O1 0.500000 0.297644 0.011772
O O2 0.656851 0.252944 0.151159
O O3 0.734855 0.335793 0.059255
O O4 0.734186 0.252916 0.965463
O O5 0.500000 0.638701 0.531549
O O6 0.709315 0.622704 0.672356
O O7 0.706215 0.578865 0.486922
O O8 0.768221 0.663452 0.493634
O O9 0.198342 0.117299 0.382059
O O10 0.260661 0.076799 0.564594
O O11 0.000000 0.108581 0.535691
O O12 0.240610 0.304150 0.793693
O O13 0.250345 0.209516 0.809622
O O14 0.000000 0.257847 0.823057
O O15 0.000000 0.164699 0.276965
O O16 0.500000 0.935159 0.672753
O O17 0.741536 0.928977 0.777879
O O18 0.700422 0.000000 0.655010
O O19 0.500000 0.556067 0.349038
O O20 0.714835 0.500000 0.402724
O O21 0.500000 0.199671 0.916801
#
# Coordination Sequence:
#
# PCOD8189625 Si02
#       8
#     8   8   8   8   8   8   8   8
#     4   9  19  34  51  73 107 145 183 225 267 314
#     4  10  21  36  56  85 114 143 185 232 277 328
#     4  10  20  37  58  80 110 149 189 226 272 330
#     4  11  21  34  51  75 108 149 191 232 276 322
#     4  10  20  36  56  80 113 150 186 229 275 323
#     4  10  22  40  60  85 114 139 175 231 283 330
#     4   9  19  38  62  84 110 145 180 221 279 339
#     4  11  21  36  53  76 110 149 188 227 274 325
#
# _framework density 18.834897999999999
#
# number of rings (size 3 to 8) (size 9 to 14) (size 15 to 20)
#    0.000    2.000    2.500    1.125    1.750    1.750 
#    0.000    1.250    0.000    2.250    0.000    1.750 
#    0.000    0.000    0.000    0.000    0.000    0.000 
#
# Total GULP energy -396510.518105 kJ/mol
# GULP energy per Si atom -12390.953691 kJ/mol
# Density = 1.879203 g / cm^3
# Si number density = 18.834898 Si / 1000 Ang^3
#
#
#
# Elastic Constant Matrix: (Units=GPa)
#
#
# Indices 1 2 3 4 5 6 
#
# 1 85.9349 44.3680 49.4229 -0.0005 -0.0002 0.0000
# 2 44.3680 80.5583 54.4346 0.0006 -0.0001 0.0000
# 3 49.4229 54.4346 111.5872 0.0031 0.0005 0.0001
# 4 -0.0005 0.0006 0.0031 35.7789 0.0002 0.0000
# 5 -0.0002 -0.0001 0.0005 0.0002 19.3034 0.0005
# 6 0.0000 0.0000 0.0001 0.0000 0.0005 28.7872
#
#
#
# Elastic Compliance Matrix: (Units=1/GPa)
#
#
# Indices 1 2 3 4 5 6 
#
# 1 0.017716 -0.006646 -0.004605 0.000001 0.000000 0.000000
# 2 -0.006646 0.021010 -0.007306 0.000000 0.000000 0.000000
# 3 -0.004605 -0.007306 0.014565 -0.000001 0.000000 0.000000
# 4 0.000001 0.000000 -0.000001 0.027949 0.000000 0.000000
# 5 0.000000 0.000000 0.000000 0.000000 0.051804 -0.000001
# 6 0.000000 0.000000 0.000000 0.000000 -0.000001 0.034738
#
#
# Mechanical properties :
#
#
# Convention : Reuss Voigt Hill
#
# Bulk Modulus (GPa) = 61.80907 63.83682 62.82295
# Shear Modulus (GPa) = 23.77688 25.43089 24.60389
#
# Velocity S-wave (km/s) = 3.55686 3.67849 3.61819
# Velocity P-wave (km/s) = 7.05378 7.21167 7.13316
#
# Compressibility (1/GPa) = 0.01617886
#
# Stress axis : x y z
#
# Youngs Moduli (GPa) = 56.44550 47.59587 68.65809
#
# Poissons Ratio (x) = 0.31632 0.31615
# Poissons Ratio (y) = 0.37513 0.50160
# Poissons Ratio (z) = 0.25991 0.34772
#
# Static dielectric constant tensor:
#      x y z
#    x 3.513710 0.000000 0.000000 
#    y 0.000000 3.413000 0.000000 
#    z 0.000000 0.000000 3.643310 
# 
# 
# High freq. dielectric constant tensor:
#      x y z
#    x 1.722120 0.000000 0.000000 
#    y 0.000000 1.717630 0.000000 
#    z 0.000000 0.000000 1.743990 
# 
# From -- ./inp_files/11558.got.cif
#   From: 2010.03.12/outbox.cif.g09.slc.cpg/sg44_6_cif.got.tgz:11558.got - 2010.04.14 02:36:11.
