data_PCOD8189275
_publ_section_title
;
Structure prediction by ZEFSAII (Michael W. Deem and Ramdas Pophale) SiO2 
 PCOD8189275
Probable space group: I M M 2
;
_chemical_formula_sum "Si O2"
_cell_formula_units_Z 64
_cell_length_a 9.010389
_cell_length_b 9.493942
_cell_length_c 41.080070
_cell_angle_alpha 90.000000
_cell_angle_beta 90.000000
_cell_angle_gamma 90.000000
_cell_volume 3514.158050
_symmetry_space_group_name_H-M "I M M 2"
_symmetry_group_IT_number 44
_symmetry_cell_setting 'orthorhombic'
loop_
_space_group_symop_operation_xyz
x,y,z
-x,-y,z
-x,y,z
x,-y,z
1/2+x,1/2+y,1/2+z
1/2-x,1/2-y,1/2+z
1/2-x,1/2+y,1/2+z
1/2+x,1/2-y,1/2+z
loop_
_atom_site_type_symbol
_atom_site_label
_atom_site_fract_x
_atom_site_fract_y
_atom_site_fract_z
Si Si1 0.328089 0.164575 0.974010
Si Si2 0.670750 0.663081 0.408094
Si Si3 0.828089 0.835425 0.280009
Si Si4 0.826192 0.836561 0.723882
Si Si5 0.173808 0.663438 0.030137
Si Si6 0.829250 0.336919 0.845925
Si Si7 0.832778 0.332333 0.158738
Si Si8 0.832778 0.167667 0.595281
O O1 0.500000 0.204669 0.976951
O O2 0.270936 0.208993 0.938469
O O3 0.235318 0.250076 0.000091
O O4 0.300028 0.000000 0.980073
O O5 0.500000 0.698199 0.416466
O O6 0.692186 0.500000 0.399680
O O7 0.726347 0.750000 0.377009
O O8 0.735318 0.749924 0.253928
O O9 0.770936 0.791007 0.315550
O O10 0.000000 0.795331 0.277068
O O11 0.800028 0.000000 0.273946
O O12 0.750540 0.779325 0.690984
O O13 0.000000 0.810855 0.720495
O O14 0.788372 0.000000 0.729571
O O15 0.211628 0.500000 0.024448
O O16 0.000000 0.689145 0.033524
O O17 0.249460 0.720675 0.063035
O O18 0.807813 0.500000 0.854339
O O19 0.000000 0.301801 0.837553
O O20 0.831784 0.500000 0.157392
O O21 0.750000 0.270830 0.127009
O O22 0.000000 0.273535 0.159222
O O23 0.000000 0.226465 0.594797
O O24 0.831784 0.000000 0.596627
#
# Coordination Sequence:
#
# PCOD8189275 Si02
#       8
#     8   8   8   8   8   8   8   8
#     4  10  21  36  53  74 102 136 171 206 249 302
#     4   9  18  33  52  73  98 129 165 204 246 294
#     4  10  21  36  53  74 102 136 171 206 249 302
#     4  10  20  33  51  76 103 132 170 213 254 298
#     4  10  20  33  51  76 103 132 170 213 254 298
#     4   9  18  33  52  73  98 129 165 204 246 294
#     4   9  16  27  45  70 101 134 167 206 252 299
#     4   9  16  27  45  70 101 134 167 206 252 299
#
# _framework density 18.212043999999999
#
# number of rings (size 3 to 8) (size 9 to 14) (size 15 to 20)
#    0.000    2.500    0.000    2.250    0.000    7.500 
#    0.000    2.500    0.000    0.750    0.000    0.000 
#    0.000    0.000    0.000    0.000    0.000    0.000 
#
# Total GULP energy -396883.517139 kJ/mol
# GULP energy per Si atom -12402.609911 kJ/mol
# Density = 1.817059 g / cm^3
# Si number density = 18.212044 Si / 1000 Ang^3
#
#
#
# Elastic Constant Matrix: (Units=GPa)
#
#
# Indices 1 2 3 4 5 6 
#
# 1 110.7301 34.3576 67.2768 0.0000 0.0000 0.0000
# 2 34.3576 36.8110 51.2806 0.0000 0.0000 0.0000
# 3 67.2768 51.2806 150.6495 0.0000 0.0000 0.0000
# 4 0.0000 0.0000 0.0000 22.9921 0.0000 0.0000
# 5 0.0000 0.0000 0.0000 0.0000 41.7177 0.0000
# 6 0.0000 0.0000 0.0000 0.0000 0.0000 19.9314
#
#
#
# Elastic Compliance Matrix: (Units=1/GPa)
#
#
# Indices 1 2 3 4 5 6 
#
# 1 0.013531 -0.008009 -0.003316 0.000000 0.000000 0.000000
# 2 -0.008009 0.056406 -0.015624 0.000000 0.000000 0.000000
# 3 -0.003316 -0.015624 0.013437 0.000000 0.000000 0.000000
# 4 0.000000 0.000000 0.000000 0.043493 0.000000 0.000000
# 5 0.000000 0.000000 0.000000 0.000000 0.023971 0.000000
# 6 0.000000 0.000000 0.000000 0.000000 0.000000 0.050172
#
#
# Mechanical properties :
#
#
# Convention : Reuss Voigt Hill
#
# Bulk Modulus (GPa) = 33.92615 67.11341 50.51978
# Shear Modulus (GPa) = 18.88685 26.61328 22.75006
#
# Velocity S-wave (km/s) = 3.22382 3.82684 3.53820
# Velocity P-wave (km/s) = 5.70318 7.51382 6.67022
#
# Compressibility (1/GPa) = 0.02947579
#
# Stress axis : x y z
#
# Youngs Moduli (GPa) = 73.90418 17.72852 74.42033
#
# Poissons Ratio (x) = 0.14199 0.24680
# Poissons Ratio (y) = 0.59192 1.16272
# Poissons Ratio (z) = 0.24509 0.27699
#
# Static dielectric constant tensor:
#      x y z
#    x 3.514800 0.000000 0.000000 
#    y 0.000000 3.057550 0.000000 
#    z 0.000000 0.000000 3.509450 
# 
# 
# High freq. dielectric constant tensor:
#      x y z
#    x 1.718530 0.000000 0.000000 
#    y 0.000000 1.668710 0.000000 
#    z 0.000000 0.000000 1.719870 
# 
# From -- ./inp_files/27190.got.cif
#   From: 2010.03.12/outbox.cif.g09.slc.cpg/sg44_14_cif.got.tgz:27190.got - 2010.04.14 02:36:11.
