data_PCOD8189154
_publ_section_title
;
Structure prediction by ZEFSAII (Michael W. Deem and Ramdas Pophale) SiO2 
 PCOD8189154
Probable space group: I M M 2
;
_chemical_formula_sum "Si O2"
_cell_formula_units_Z 64
_cell_length_a 9.241782
_cell_length_b 32.480664
_cell_length_c 10.463624
_cell_angle_alpha 90.000000
_cell_angle_beta 90.000000
_cell_angle_gamma 90.000000
_cell_volume 3140.962448
_symmetry_space_group_name_H-M "I M M 2"
_symmetry_group_IT_number 44
_symmetry_cell_setting 'orthorhombic'
loop_
_space_group_symop_operation_xyz
x,y,z
-x,-y,z
-x,y,z
x,-y,z
1/2+x,1/2+y,1/2+z
1/2-x,1/2-y,1/2+z
1/2-x,1/2+y,1/2+z
1/2+x,1/2-y,1/2+z
loop_
_atom_site_type_symbol
_atom_site_label
_atom_site_fract_x
_atom_site_fract_y
_atom_site_fract_z
Si Si1 0.671617 0.282659 0.452760
Si Si2 0.663587 0.344596 0.087583
Si Si3 0.333357 0.380934 0.823903
Si Si4 0.671093 0.544750 0.444140
Si Si5 0.835851 0.545669 0.915927
Si Si6 0.663115 0.563816 0.160682
Si Si7 0.831494 0.130464 0.041896
Si Si8 0.170561 0.729550 0.198730
O O1 0.500000 0.279712 0.429870
O O2 0.725727 0.330494 0.460333
O O3 0.751790 0.260217 0.334278
O O4 0.713830 0.261686 0.587638
O O5 0.500000 0.326423 0.093460
O O6 0.671226 0.386836 0.165577
O O7 0.777750 0.314909 0.152774
O O8 0.713611 0.351469 0.940379
O O9 0.500000 0.393123 0.843324
O O10 0.247339 0.423701 0.822058
O O11 0.304680 0.358189 0.690454
O O12 0.500000 0.546213 0.464190
O O13 0.728811 0.500000 0.496988
O O14 0.712356 0.546177 0.295750
O O15 0.740938 0.585809 0.509793
O O16 0.825330 0.500000 0.856883
O O17 0.000000 0.560737 0.927297
O O18 0.769258 0.545135 0.056787
O O19 0.500000 0.549912 0.127223
O O20 0.000000 0.126402 0.012260
O O21 0.000000 0.729542 0.223150
#
# Coordination Sequence:
#
# PCOD8189154 Si02
#       8
#     8   8   8   8   8   8   8   8
#     4  10  23  42  63  87 120 160 196 240 295 353
#     4   9  18  33  56  81 111 148 188 236 296 350
#     4   9  19  34  56  81 102 144 195 236 283 342
#     4   9  16  26  47  80 109 133 172 230 283 326
#     4  10  20  32  47  72 109 148 183 231 294 346
#     4   9  17  31  52  77 104 143 186 228 283 344
#     4   9  18  35  56  78 110 147 186 229 286 345
#     4  11  24  39  61  92 119 153 198 242 293 352
#
# _framework density 20.375920000000001
#
# number of rings (size 3 to 8) (size 9 to 14) (size 15 to 20)
#    0.000    2.500    0.000    2.625    1.750    7.000 
#    0.000    1.875    0.000    0.750    0.000    1.750 
#    0.000    0.000    0.000    0.000    0.000    0.000 
#
# Total GULP energy -396603.526959 kJ/mol
# GULP energy per Si atom -12393.860217 kJ/mol
# Density = 2.032954 g / cm^3
# Si number density = 20.375920 Si / 1000 Ang^3
#
#
#
# Elastic Constant Matrix: (Units=GPa)
#
#
# Indices 1 2 3 4 5 6 
#
# 1 57.6840 23.1266 33.2082 0.0049 -0.0016 -0.0009
# 2 23.1266 97.4497 45.9939 0.0103 0.0017 0.0031
# 3 33.2082 45.9939 97.5051 0.0205 0.0045 0.0046
# 4 0.0049 0.0103 0.0205 22.0924 0.0009 0.0018
# 5 -0.0016 0.0017 0.0045 0.0009 19.9011 0.0047
# 6 -0.0009 0.0031 0.0046 0.0018 0.0047 22.9877
#
#
#
# Elastic Compliance Matrix: (Units=1/GPa)
#
#
# Indices 1 2 3 4 5 6 
#
# 1 0.021911 -0.002158 -0.006444 0.000002 0.000003 0.000002
# 2 -0.002158 0.013413 -0.005592 -0.000001 0.000000 -0.000001
# 3 -0.006444 -0.005592 0.015089 -0.000010 -0.000003 -0.000003
# 4 0.000002 -0.000001 -0.000010 0.045264 -0.000002 -0.000004
# 5 0.000003 0.000000 -0.000003 -0.000002 0.050248 -0.000010
# 6 0.000002 -0.000001 -0.000003 -0.000004 -0.000010 0.043502
#
#
# Mechanical properties :
#
#
# Convention : Reuss Voigt Hill
#
# Bulk Modulus (GPa) = 45.40628 50.81067 48.10847
# Shear Modulus (GPa) = 22.20664 23.01691 22.61178
#
# Velocity S-wave (km/s) = 3.30486 3.36462 3.33488
# Velocity P-wave (km/s) = 6.07417 6.33127 6.20405
#
# Compressibility (1/GPa) = 0.02202339
#
# Stress axis : x y z
#
# Youngs Moduli (GPa) = 45.63893 74.55331 66.27563
#
# Poissons Ratio (x) = 0.16091 0.42710
# Poissons Ratio (y) = 0.09850 0.37062
# Poissons Ratio (z) = 0.29411 0.41691
#
# Static dielectric constant tensor:
#      x y z
#    x 3.345360 0.000000 0.000000 
#    y 0.000000 3.882060 -0.000010 
#    z 0.000000 -0.000010 3.763670 
# 
# 
# High freq. dielectric constant tensor:
#      x y z
#    x 1.751050 0.000000 0.000000 
#    y 0.000000 1.803320 0.000000 
#    z 0.000000 0.000000 1.799160 
# 
# From -- ./inp_files/11576.got.cif
#   From: 2010.03.12/outbox.cif.g09.slc.cpg/sg44_6_cif.got.tgz:11576.got - 2010.04.14 02:36:11.
