data_PCOD8189333
_publ_section_title
;
Structure prediction by ZEFSAII (Michael W. Deem and Ramdas Pophale) SiO2 
 PCOD8189333
Probable space group: I M M 2
;
_chemical_formula_sum "Si O2"
_cell_formula_units_Z 56
_cell_length_a 23.114430
_cell_length_b 15.036332
_cell_length_c 8.683034
_cell_angle_alpha 90.000000
_cell_angle_beta 90.000000
_cell_angle_gamma 90.000000
_cell_volume 3017.842679
_symmetry_space_group_name_H-M "I M M 2"
_symmetry_group_IT_number 44
_symmetry_cell_setting 'orthorhombic'
loop_
_space_group_symop_operation_xyz
x,y,z
-x,-y,z
-x,y,z
x,-y,z
1/2+x,1/2+y,1/2+z
1/2-x,1/2-y,1/2+z
1/2-x,1/2+y,1/2+z
1/2+x,1/2-y,1/2+z
loop_
_atom_site_type_symbol
_atom_site_label
_atom_site_fract_x
_atom_site_fract_y
_atom_site_fract_z
Si Si1 0.436153 0.857225 0.917770
Si Si2 0.935430 0.834231 0.276821
Si Si3 0.137274 0.764921 0.011325
Si Si4 0.435476 0.769508 0.226273
Si Si5 0.793955 0.100109 0.817960
Si Si6 0.833184 0.402806 0.212770
Si Si7 0.390776 0.599591 0.082397
O O1 0.500000 0.904406 0.913081
O O2 0.443371 0.764916 0.832664
O O3 0.386517 0.912217 0.832287
O O4 0.416405 0.839178 0.093901
O O5 0.903996 0.829461 0.111648
O O6 0.894240 0.887495 0.397033
O O7 0.000000 0.877811 0.261621
O O8 0.162852 0.681124 0.101378
O O9 0.103926 0.717130 0.873404
O O10 0.186991 0.828849 0.946149
O O11 0.500000 0.790762 0.279221
O O12 0.434157 0.668271 0.163523
O O13 0.725766 0.113075 0.804332
O O14 0.826371 0.116844 0.652841
O O15 0.808436 0.000000 0.874757
O O16 0.830490 0.500000 0.127838
O O17 0.411306 0.500000 0.122258
#
# Coordination Sequence:
#
# PCOD8189333 Si02
#       7
#     8   8   8   8   8   8   8
#     4   8  16  32  52  73  99 133 171 208 252 309
#     4   9  17  29  47  74 105 136 171 211 255 303
#     4  10  20  33  54  78 106 138 169 213 269 311
#     4   9  17  31  51  74 102 136 172 212 260 312
#     4   9  20  37  53  73 104 140 177 216 258 308
#     4  10  21  37  56  78 104 135 174 217 260 312
#     4   9  17  30  48  71 102 140 179 215 253 302
#
# _framework density 18.556303
#
# number of rings (size 3 to 8) (size 9 to 14) (size 15 to 20)
#    0.000    2.857    0.000    1.714    0.000    7.143 
#    0.000    0.714    0.000    7.714    0.000    0.000 
#    0.000    0.000    0.000    0.000    0.000    0.000 
#
# Total GULP energy -346904.669279 kJ/mol
# GULP energy per Si atom -12389.452474 kJ/mol
# Density = 1.851407 g / cm^3
# Si number density = 18.556303 Si / 1000 Ang^3
#
#
#
# Elastic Constant Matrix: (Units=GPa)
#
#
# Indices 1 2 3 4 5 6 
#
# 1 116.8917 43.6597 54.3590 0.0000 0.0000 0.0000
# 2 43.6597 95.1667 41.5491 0.0000 0.0000 0.0000
# 3 54.3590 41.5491 100.6597 0.0000 0.0000 0.0000
# 4 0.0000 0.0000 0.0000 21.8272 0.0000 0.0000
# 5 0.0000 0.0000 0.0000 0.0000 16.6922 0.0000
# 6 0.0000 0.0000 0.0000 0.0000 0.0000 12.0127
#
#
#
# Elastic Compliance Matrix: (Units=1/GPa)
#
#
# Indices 1 2 3 4 5 6 
#
# 1 0.012230 -0.003327 -0.005232 0.000000 0.000000 0.000000
# 2 -0.003327 0.013723 -0.003868 0.000000 0.000000 0.000000
# 3 -0.005232 -0.003868 0.014356 0.000000 0.000000 0.000000
# 4 0.000000 0.000000 0.000000 0.045814 0.000000 0.000000
# 5 0.000000 0.000000 0.000000 0.000000 0.059908 0.000000
# 6 0.000000 0.000000 0.000000 0.000000 0.000000 0.083245
#
#
# Mechanical properties :
#
#
# Convention : Reuss Voigt Hill
#
# Bulk Modulus (GPa) = 64.69552 65.76153 65.22852
# Shear Modulus (GPa) = 19.28404 21.64976 20.46690
#
# Velocity S-wave (km/s) = 3.22719 3.41941 3.32469
# Velocity P-wave (km/s) = 6.98759 7.14883 7.06867
#
# Compressibility (1/GPa) = 0.01545702
#
# Stress axis : x y z
#
# Youngs Moduli (GPa) = 81.76355 72.87152 69.65688
#
# Poissons Ratio (x) = 0.24244 0.36441
# Poissons Ratio (y) = 0.27202 0.26941
# Poissons Ratio (z) = 0.42775 0.28185
#
# Static dielectric constant tensor:
#      x y z
#    x 3.640670 0.000000 0.000000 
#    y 0.000000 3.277200 0.000000 
#    z 0.000000 0.000000 3.476860 
# 
# 
# High freq. dielectric constant tensor:
#      x y z
#    x 1.719790 0.000000 0.000000 
#    y 0.000000 1.709690 0.000000 
#    z 0.000000 0.000000 1.706350 
# 
# From -- ./inp_files/7393.got.cif
#   From: 2010.03.12/outbox.cif.g09.slc.cpg/sg44_4_cif.got.tgz:7393.got - 2010.04.14 02:36:11.
