data_PCOD8189608
_publ_section_title
;
Structure prediction by ZEFSAII (Michael W. Deem and Ramdas Pophale) SiO2 
 PCOD8189608
Probable space group: I M M 2
;
_chemical_formula_sum "Si O2"
_cell_formula_units_Z 64
_cell_length_a 9.435397
_cell_length_b 28.623667
_cell_length_c 11.924326
_cell_angle_alpha 90.000000
_cell_angle_beta 90.000000
_cell_angle_gamma 90.000000
_cell_volume 3220.470235
_symmetry_space_group_name_H-M "I M M 2"
_symmetry_group_IT_number 44
_symmetry_cell_setting 'orthorhombic'
loop_
_space_group_symop_operation_xyz
x,y,z
-x,-y,z
-x,y,z
x,-y,z
1/2+x,1/2+y,1/2+z
1/2-x,1/2-y,1/2+z
1/2-x,1/2+y,1/2+z
1/2+x,1/2-y,1/2+z
loop_
_atom_site_type_symbol
_atom_site_label
_atom_site_fract_x
_atom_site_fract_y
_atom_site_fract_z
Si Si1 0.847219 0.052812 0.365900
Si Si2 0.332074 0.125456 0.975031
Si Si3 0.667488 0.200552 0.387213
Si Si4 0.258744 0.052160 0.609835
Si Si5 0.340461 0.843813 0.620481
Si Si6 0.166238 0.379218 0.731039
Si Si7 0.829738 0.195366 0.830786
Si Si8 0.844759 0.052447 0.852187
O O1 0.835149 0.056230 0.499461
O O2 0.722555 0.077296 0.299919
O O3 0.000000 0.074663 0.333546
O O4 0.840069 0.000000 0.325221
O O5 0.500000 0.134217 0.958472
O O6 0.238459 0.168720 0.935239
O O7 0.286095 0.080388 0.904368
O O8 0.287722 0.117687 0.102849
O O9 0.500000 0.199946 0.390833
O O10 0.720894 0.179948 0.506554
O O11 0.725906 0.168044 0.287086
O O12 0.720970 0.251932 0.354764
O O13 0.353729 0.099415 0.612213
O O14 0.158797 0.054110 0.717907
O O15 0.337234 0.000000 0.609263
O O16 0.500000 0.825963 0.645722
O O17 0.235366 0.826155 0.717429
O O18 0.000000 0.381323 0.743326
O O19 0.000000 0.190139 0.826662
O O20 0.000000 0.072498 0.887749
O O21 0.828492 0.000000 0.896892
#
# Coordination Sequence:
#
# PCOD8189608 Si02
#       8
#     8   8   8   8   8   8   8   8
#     4  10  21  37  59  90 125 158 196 245 297 355
#     4  11  24  40  61  86 118 157 203 255 301 355
#     4   9  21  42  63  87 120 157 196 249 307 359
#     4  10  20  35  61  94 129 161 196 242 302 367
#     4  11  22  40  66  94 127 158 202 258 306 362
#     4  10  22  42  62  82 115 159 202 247 301 358
#     4  11  24  41  64  89 121 161 202 248 307 368
#     4  10  21  38  61  87 120 161 200 243 300 363
#
# _framework density 19.872872999999998
#
# number of rings (size 3 to 8) (size 9 to 14) (size 15 to 20)
#    0.000    1.750    2.500    1.125    1.750    4.250 
#    0.000    6.875    0.000    0.000    0.000    0.000 
#    0.000    0.000    0.000    0.000    0.000    0.000 
#
# Total GULP energy -396533.444288 kJ/mol
# GULP energy per Si atom -12391.670134 kJ/mol
# Density = 1.982764 g / cm^3
# Si number density = 19.872873 Si / 1000 Ang^3
#
#
#
# Elastic Constant Matrix: (Units=GPa)
#
#
# Indices 1 2 3 4 5 6 
#
# 1 66.1033 39.0392 40.7578 0.0000 0.0001 0.0000
# 2 39.0392 136.1851 65.6467 0.0008 0.0000 -0.0002
# 3 40.7578 65.6467 132.8766 0.0023 -0.0006 0.0000
# 4 0.0000 0.0008 0.0023 29.4150 -0.0002 -0.0003
# 5 0.0001 0.0000 -0.0006 -0.0002 19.7577 0.0004
# 6 0.0000 -0.0002 0.0000 -0.0003 0.0004 23.2131
#
#
#
# Elastic Compliance Matrix: (Units=1/GPa)
#
#
# Indices 1 2 3 4 5 6 
#
# 1 0.019937 -0.003632 -0.004321 0.000000 0.000000 0.000000
# 2 -0.003632 0.010300 -0.003974 0.000000 0.000000 0.000000
# 3 -0.004321 -0.003974 0.010815 -0.000001 0.000000 0.000000
# 4 0.000000 0.000000 -0.000001 0.033996 0.000000 0.000000
# 5 0.000000 0.000000 0.000000 0.000000 0.050613 -0.000001
# 6 0.000000 0.000000 0.000000 0.000000 -0.000001 0.043079
#
#
# Mechanical properties :
#
#
# Convention : Reuss Voigt Hill
#
# Bulk Modulus (GPa) = 58.15153 69.56138 63.85645
# Shear Modulus (GPa) = 25.21075 27.12526 26.16801
#
# Velocity S-wave (km/s) = 3.56561 3.69852 3.63267
# Velocity P-wave (km/s) = 6.80270 7.30191 7.05672
#
# Compressibility (1/GPa) = 0.01719645
#
# Stress axis : x y z
#
# Youngs Moduli (GPa) = 50.15753 97.08649 92.46672
#
# Poissons Ratio (x) = 0.35266 0.39953
# Poissons Ratio (y) = 0.18219 0.36751
# Poissons Ratio (z) = 0.21672 0.38587
#
# Static dielectric constant tensor:
#      x y z
#    x 3.402260 0.000000 0.000000 
#    y 0.000000 3.970100 0.000000 
#    z 0.000000 0.000000 3.714640 
# 
# 
# High freq. dielectric constant tensor:
#      x y z
#    x 1.757950 0.000000 0.000000 
#    y 0.000000 1.785360 0.000000 
#    z 0.000000 0.000000 1.780020 
# 
# From -- ./inp_files/11480.got.cif
#   From: 2010.03.12/outbox.cif.g09.slc.cpg/sg44_6_cif.got.tgz:11480.got - 2010.04.14 02:36:11.
