data_PCOD8189676
_publ_section_title
;
Structure prediction by ZEFSAII (Michael W. Deem and Ramdas Pophale) SiO2 
 PCOD8189676
Probable space group: I M M 2
;
_chemical_formula_sum "Si O2"
_cell_formula_units_Z 64
_cell_length_a 24.814600
_cell_length_b 8.937329
_cell_length_c 15.016661
_cell_angle_alpha 90.000000
_cell_angle_beta 90.000000
_cell_angle_gamma 90.000000
_cell_volume 3330.338677
_symmetry_space_group_name_H-M "I M M 2"
_symmetry_group_IT_number 44
_symmetry_cell_setting 'orthorhombic'
loop_
_space_group_symop_operation_xyz
x,y,z
-x,-y,z
-x,y,z
x,-y,z
1/2+x,1/2+y,1/2+z
1/2-x,1/2-y,1/2+z
1/2-x,1/2+y,1/2+z
1/2+x,1/2-y,1/2+z
loop_
_atom_site_type_symbol
_atom_site_label
_atom_site_fract_x
_atom_site_fract_y
_atom_site_fract_z
Si Si1 0.936860 0.826047 0.320710
Si Si2 0.332020 0.323420 0.505808
Si Si3 0.852220 0.324022 0.821546
Si Si4 0.396770 0.675907 0.011141
Si Si5 0.233488 0.831498 0.277207
Si Si6 0.640392 0.823795 0.681218
Si Si7 0.439111 0.828091 0.181812
Si Si8 0.222418 0.830165 0.483343
O O1 0.918586 0.762841 0.416859
O O2 0.906536 0.734914 0.244705
O O3 0.000000 0.799815 0.308257
O O4 0.921060 0.000000 0.311574
O O5 0.337318 0.500000 0.509385
O O6 0.356305 0.264281 0.413607
O O7 0.367047 0.251381 0.584722
O O8 0.269212 0.278821 0.517063
O O9 0.855728 0.500000 0.843418
O O10 0.796270 0.287202 0.771470
O O11 0.900159 0.265243 0.758802
O O12 0.405096 0.500000 0.013097
O O13 0.432085 0.743935 0.089320
O O14 0.334136 0.718958 0.026979
O O15 0.199599 0.717179 0.218071
O O16 0.213286 0.819414 0.378036
O O17 0.223984 0.000000 0.241275
O O18 0.635470 0.000000 0.671586
O O19 0.500000 0.806052 0.215511
O O20 0.424868 0.000000 0.164311
O O21 0.238533 0.000000 0.509287
#
# Coordination Sequence:
#
# PCOD8189676 Si02
#       8
#     8   8   8   8   8   8   8   8
#     4  10  21  40  63  85 116 159 202 243 292 348
#     4  11  23  38  59  85 117 153 195 245 298 353
#     4   9  20  40  61  82 114 154 194 243 300 349
#     4  10  20  36  59  87 119 156 195 235 284 345
#     4   9  17  34  57  81 113 151 192 237 288 348
#     4  12  24  37  57  86 121 157 197 243 293 348
#     4  10  22  39  59  86 119 155 197 242 290 344
#     4   9  18  35  57  84 119 154 189 232 285 346
#
# _framework density 19.217262999999999
#
# number of rings (size 3 to 8) (size 9 to 14) (size 15 to 20)
#    0.000    2.000    1.250    3.375    1.750    4.500 
#    0.000    0.625    0.000    2.250    0.000    0.000 
#    0.000    0.000    0.000    0.000    0.000    0.000 
#
# Total GULP energy -396896.683981 kJ/mol
# GULP energy per Si atom -12403.021374 kJ/mol
# Density = 1.917352 g / cm^3
# Si number density = 19.217263 Si / 1000 Ang^3
#
#
#
# Elastic Constant Matrix: (Units=GPa)
#
#
# Indices 1 2 3 4 5 6 
#
# 1 102.6121 45.5742 62.5678 0.0000 0.0000 0.0000
# 2 45.5742 99.9676 59.3366 0.0000 0.0000 0.0000
# 3 62.5678 59.3366 112.6986 0.0000 0.0000 0.0000
# 4 0.0000 0.0000 0.0000 32.5606 0.0000 0.0000
# 5 0.0000 0.0000 0.0000 0.0000 31.7982 0.0000
# 6 0.0000 0.0000 0.0000 0.0000 0.0000 23.4830
#
#
#
# Elastic Compliance Matrix: (Units=1/GPa)
#
#
# Indices 1 2 3 4 5 6 
#
# 1 0.015255 -0.002804 -0.006993 0.000000 0.000000 0.000000
# 2 -0.002804 0.015066 -0.006376 0.000000 0.000000 0.000000
# 3 -0.006993 -0.006376 0.016112 0.000000 0.000000 0.000000
# 4 0.000000 0.000000 0.000000 0.030712 0.000000 0.000000
# 5 0.000000 0.000000 0.000000 0.000000 0.031448 0.000000
# 6 0.000000 0.000000 0.000000 0.000000 0.000000 0.042584
#
#
# Mechanical properties :
#
#
# Convention : Reuss Voigt Hill
#
# Bulk Modulus (GPa) = 70.98133 72.24839 71.61486
# Shear Modulus (GPa) = 26.56501 27.42166 26.99333
#
# Velocity S-wave (km/s) = 3.72203 3.78157 3.75192
# Velocity P-wave (km/s) = 7.44901 7.53287 7.49106
#
# Compressibility (1/GPa) = 0.01408821
#
# Stress axis : x y z
#
# Youngs Moduli (GPa) = 65.55412 66.37573 62.06449
#
# Poissons Ratio (x) = 0.18610 0.43400
# Poissons Ratio (y) = 0.18380 0.39570
# Poissons Ratio (z) = 0.45841 0.42319
#
# Static dielectric constant tensor:
#      x y z
#    x 3.516570 0.000000 0.000000 
#    y 0.000000 3.347250 0.000000 
#    z 0.000000 0.000000 3.508220 
# 
# 
# High freq. dielectric constant tensor:
#      x y z
#    x 1.744770 0.000000 0.000000 
#    y 0.000000 1.736120 0.000000 
#    z 0.000000 0.000000 1.748580 
# 
# From -- ./inp_files/19477.got.cif
#   From: 2010.03.12/outbox.cif.g09.slc.cpg/sg44_10_cif.got.tgz:19477.got - 2010.04.14 02:36:11.
