data_PCOD8189935
_publ_section_title
;
Structure prediction by ZEFSAII (Michael W. Deem and Ramdas Pophale) SiO2 
 PCOD8189935
Probable space group: I M M 2
;
_chemical_formula_sum "Si O2"
_cell_formula_units_Z 64
_cell_length_a 8.992147
_cell_length_b 19.787221
_cell_length_c 20.021023
_cell_angle_alpha 90.000000
_cell_angle_beta 90.000000
_cell_angle_gamma 90.000000
_cell_volume 3562.332613
_symmetry_space_group_name_H-M "I M M 2"
_symmetry_group_IT_number 44
_symmetry_cell_setting 'orthorhombic'
loop_
_space_group_symop_operation_xyz
x,y,z
-x,-y,z
-x,y,z
x,-y,z
1/2+x,1/2+y,1/2+z
1/2-x,1/2-y,1/2+z
1/2-x,1/2+y,1/2+z
1/2+x,1/2-y,1/2+z
loop_
_atom_site_type_symbol
_atom_site_label
_atom_site_fract_x
_atom_site_fract_y
_atom_site_fract_z
Si Si1 0.829602 0.420909 0.612990
Si Si2 0.170496 0.822754 0.361866
Si Si3 0.324510 0.925063 0.263946
Si Si4 0.825767 0.185688 0.514156
Si Si5 0.825952 0.669338 0.371434
Si Si6 0.823807 0.925623 0.615650
Si Si7 0.675764 0.673373 0.509422
Si Si8 0.330533 0.420861 0.266204
O O1 0.812759 0.500000 0.598085
O O2 0.778845 0.404632 0.688740
O O3 0.720457 0.380968 0.564626
O O4 0.000000 0.398048 0.601227
O O5 0.267224 0.870593 0.315925
O O6 0.203168 0.839879 0.439088
O O7 0.215037 0.745095 0.348265
O O8 0.000000 0.835950 0.343792
O O9 0.500000 0.927271 0.268891
O O10 0.260978 0.000000 0.280927
O O11 0.760269 0.128719 0.563546
O O12 0.739641 0.254125 0.530356
O O13 0.000000 0.199571 0.525844
O O14 0.739336 0.649365 0.438388
O O15 0.781757 0.618280 0.313568
O O16 0.000000 0.663848 0.387225
O O17 0.780530 0.904164 0.690682
O O18 0.000000 0.929485 0.609592
O O19 0.757489 0.000000 0.599161
O O20 0.500000 0.677816 0.504440
O O21 0.500000 0.396959 0.278777
O O22 0.316095 0.500000 0.280696
#
# Coordination Sequence:
#
# PCOD8189935 Si02
#       8
#     8   8   8   8   8   8   8   8
#     4   9  19  37  57  75  99 133 171 208 249 302
#     4   9  19  33  50  75 104 133 168 213 256 295
#     4   9  19  35  54  76 102 134 171 208 249 302
#     4   9  18  34  54  76 104 137 173 209 248 299
#     4  10  21  37  54  73 101 136 173 209 249 302
#     4   8  15  30  53  78 103 134 172 211 249 294
#     4  11  22  35  53  77 104 132 166 210 257 302
#     4   9  18  33  53  78 105 132 168 212 253 296
#
# _framework density 17.965757
#
# number of rings (size 3 to 8) (size 9 to 14) (size 15 to 20)
#    0.000    2.750    0.000    3.750    0.000    5.750 
#    0.000    6.875    0.000    1.125    0.000    0.000 
#    0.000    0.000    0.000    0.000    0.000    0.000 
#
# Total GULP energy -396787.903219 kJ/mol
# GULP energy per Si atom -12399.621976 kJ/mol
# Density = 1.792487 g / cm^3
# Si number density = 17.965757 Si / 1000 Ang^3
#
#
#
# Elastic Constant Matrix: (Units=GPa)
#
#
# Indices 1 2 3 4 5 6 
#
# 1 67.6278 41.3904 44.9496 0.0000 0.0000 0.0000
# 2 41.3904 91.1004 78.8703 0.0000 0.0000 0.0000
# 3 44.9496 78.8703 118.1057 0.0000 0.0000 0.0000
# 4 0.0000 0.0000 0.0000 33.6302 0.0000 0.0000
# 5 0.0000 0.0000 0.0000 0.0000 29.8964 0.0000
# 6 0.0000 0.0000 0.0000 0.0000 0.0000 28.7787
#
#
#
# Elastic Compliance Matrix: (Units=1/GPa)
#
#
# Indices 1 2 3 4 5 6 
#
# 1 0.021207 -0.006276 -0.003880 0.000000 0.000000 0.000000
# 2 -0.006276 0.027878 -0.016228 0.000000 0.000000 0.000000
# 3 -0.003880 -0.016228 0.020781 0.000000 0.000000 0.000000
# 4 0.000000 0.000000 0.000000 0.029735 0.000000 0.000000
# 5 0.000000 0.000000 0.000000 0.000000 0.033449 0.000000
# 6 0.000000 0.000000 0.000000 0.000000 0.000000 0.034748
#
#
# Mechanical properties :
#
#
# Convention : Reuss Voigt Hill
#
# Bulk Modulus (GPa) = 58.48904 67.47270 62.98087
# Shear Modulus (GPa) = 22.09805 25.90263 24.00034
#
# Velocity S-wave (km/s) = 3.51095 3.80119 3.65895
# Velocity P-wave (km/s) = 7.00444 7.54342 7.27892
#
# Compressibility (1/GPa) = 0.01709722
#
# Stress axis : x y z
#
# Youngs Moduli (GPa) = 47.15478 35.87088 48.12155
#
# Poissons Ratio (x) = 0.22512 0.18671
# Poissons Ratio (y) = 0.29594 0.78092
# Poissons Ratio (z) = 0.18296 0.58212
#
# Static dielectric constant tensor:
#      x y z
#    x 3.094340 0.000000 0.000000 
#    y 0.000000 3.439140 0.000000 
#    z 0.000000 0.000000 3.423740 
# 
# 
# High freq. dielectric constant tensor:
#      x y z
#    x 1.677600 0.000000 0.000000 
#    y 0.000000 1.698020 0.000000 
#    z 0.000000 0.000000 1.700600 
# 
# From -- ./inp_files/20754.got.cif
#   From: 2010.03.12/outbox.cif.g09.slc.cpg/sg44_11_cif.got.tgz:20754.got - 2010.04.14 02:36:11.
