data_PCOD8189215
_publ_section_title
;
Structure prediction by ZEFSAII (Michael W. Deem and Ramdas Pophale) SiO2 
 PCOD8189215
Probable space group: I M M 2
;
_chemical_formula_sum "Si O2"
_cell_formula_units_Z 64
_cell_length_a 8.872628
_cell_length_b 23.154914
_cell_length_c 18.831779
_cell_angle_alpha 90.000000
_cell_angle_beta 90.000000
_cell_angle_gamma 90.000000
_cell_volume 3868.893675
_symmetry_space_group_name_H-M "I M M 2"
_symmetry_group_IT_number 44
_symmetry_cell_setting 'orthorhombic'
loop_
_space_group_symop_operation_xyz
x,y,z
-x,-y,z
-x,y,z
x,-y,z
1/2+x,1/2+y,1/2+z
1/2-x,1/2-y,1/2+z
1/2-x,1/2+y,1/2+z
1/2+x,1/2-y,1/2+z
loop_
_atom_site_type_symbol
_atom_site_label
_atom_site_fract_x
_atom_site_fract_y
_atom_site_fract_z
Si Si1 0.675582 0.883207 0.058650
Si Si2 0.321882 0.228989 0.700075
Si Si3 0.323525 0.661830 0.320479
Si Si4 0.325309 0.067105 0.907982
Si Si5 0.175543 0.335756 0.776499
Si Si6 0.173239 0.729832 0.915179
Si Si7 0.823129 0.933636 0.196825
Si Si8 0.675049 0.251508 0.057121
O O1 0.500000 0.893910 0.074592
O O2 0.772416 0.911649 0.120239
O O3 0.714348 0.815984 0.053114
O O4 0.726671 0.913761 0.986112
O O5 0.500000 0.231178 0.704351
O O6 0.261644 0.176134 0.747429
O O7 0.256255 0.289860 0.725902
O O8 0.268822 0.218296 0.619649
O O9 0.500000 0.661981 0.304441
O O10 0.271005 0.599850 0.348449
O O11 0.280591 0.709862 0.378769
O O12 0.500000 0.082542 0.897018
O O13 0.292268 0.000000 0.897920
O O14 0.202982 0.321779 0.859256
O O15 0.240404 0.398826 0.759725
O O16 0.000000 0.332672 0.757154
O O17 0.000000 0.731384 0.939394
O O18 0.277060 0.718849 0.983217
O O19 0.000000 0.924167 0.204249
O O20 0.776912 0.000000 0.206030
O O21 0.500000 0.262700 0.070382
#
# Coordination Sequence:
#
# PCOD8189215 Si02
#       8
#     8   8   8   8   8   8   8   8
#     4  10  20  33  49  70 101 139 177 211 244 291
#     4  11  21  33  52  73 100 132 166 208 256 302
#     4  10  20  34  51  72 100 131 169 212 253 299
#     4  10  20  34  51  72 100 136 177 213 249 296
#     4  10  20  35  52  73  99 130 169 210 253 300
#     4   9  19  33  50  72  99 129 164 207 254 302
#     4  11  23  35  49  72 101 136 177 214 250 294
#     4  11  20  31  51  77 103 133 169 204 248 304
#
# _framework density 16.542196000000001
#
# number of rings (size 3 to 8) (size 9 to 14) (size 15 to 20)
#    0.000    1.750    2.500    3.750    0.000    5.250 
#    0.000    0.000    0.000    0.000    0.000    0.875 
#    0.000    3.000    0.000    0.000    0.000    0.000 
#
# Total GULP energy -396942.969621 kJ/mol
# GULP energy per Si atom -12404.467801 kJ/mol
# Density = 1.650455 g / cm^3
# Si number density = 16.542196 Si / 1000 Ang^3
#
#
#
# Elastic Constant Matrix: (Units=GPa)
#
#
# Indices 1 2 3 4 5 6 
#
# 1 91.1343 38.8937 55.3349 0.0000 0.0000 0.0000
# 2 38.8937 78.1470 51.6557 0.0000 0.0000 0.0000
# 3 55.3349 51.6557 110.7564 0.0000 0.0000 0.0000
# 4 0.0000 0.0000 0.0000 21.5212 0.0000 0.0000
# 5 0.0000 0.0000 0.0000 0.0000 31.6455 0.0000
# 6 0.0000 0.0000 0.0000 0.0000 0.0000 25.2749
#
#
#
# Elastic Compliance Matrix: (Units=1/GPa)
#
#
# Indices 1 2 3 4 5 6 
#
# 1 0.016578 -0.004013 -0.006411 0.000000 0.000000 0.000000
# 2 -0.004013 0.019471 -0.007076 0.000000 0.000000 0.000000
# 3 -0.006411 -0.007076 0.015532 0.000000 0.000000 0.000000
# 4 0.000000 0.000000 0.000000 0.046466 0.000000 0.000000
# 5 0.000000 0.000000 0.000000 0.000000 0.031600 0.000000
# 6 0.000000 0.000000 0.000000 0.000000 0.000000 0.039565
#
#
# Mechanical properties :
#
#
# Convention : Reuss Voigt Hill
#
# Bulk Modulus (GPa) = 60.31071 63.53406 61.92238
# Shear Modulus (GPa) = 23.83913 24.63189 24.23551
#
# Velocity S-wave (km/s) = 3.80031 3.86299 3.83178
# Velocity P-wave (km/s) = 7.46956 7.64117 7.55586
#
# Compressibility (1/GPa) = 0.01658080
#
# Stress axis : x y z
#
# Youngs Moduli (GPa) = 60.32047 51.35800 64.38355
#
# Poissons Ratio (x) = 0.20612 0.41275
# Poissons Ratio (y) = 0.24209 0.45558
# Poissons Ratio (z) = 0.38670 0.36341
#
# Static dielectric constant tensor:
#      x y z
#    x 3.137610 0.000000 0.000000 
#    y 0.000000 2.982970 0.000000 
#    z 0.000000 0.000000 3.128660 
# 
# 
# High freq. dielectric constant tensor:
#      x y z
#    x 1.648400 0.000000 0.000000 
#    y 0.000000 1.609180 0.000000 
#    z 0.000000 0.000000 1.634090 
# 
# From -- ./inp_files/20764.got.cif
#   From: 2010.03.12/outbox.cif.g09.slc.cpg/sg44_11_cif.got.tgz:20764.got - 2010.04.14 02:36:11.
