data_PCOD8189519
_publ_section_title
;
Structure prediction by ZEFSAII (Michael W. Deem and Ramdas Pophale) SiO2 
 PCOD8189519
Probable space group: I M M 2
;
_chemical_formula_sum "Si O2"
_cell_formula_units_Z 64
_cell_length_a 15.734294
_cell_length_b 9.068891
_cell_length_c 22.885604
_cell_angle_alpha 90.000000
_cell_angle_beta 90.000000
_cell_angle_gamma 90.000000
_cell_volume 3265.606274
_symmetry_space_group_name_H-M "I M M 2"
_symmetry_group_IT_number 44
_symmetry_cell_setting 'orthorhombic'
loop_
_space_group_symop_operation_xyz
x,y,z
-x,-y,z
-x,y,z
x,-y,z
1/2+x,1/2+y,1/2+z
1/2-x,1/2-y,1/2+z
1/2-x,1/2+y,1/2+z
1/2+x,1/2-y,1/2+z
loop_
_atom_site_type_symbol
_atom_site_label
_atom_site_fract_x
_atom_site_fract_y
_atom_site_fract_z
Si Si1 0.592113 0.332409 0.511490
Si Si2 0.402669 0.658777 0.162070
Si Si3 0.902080 0.174048 0.790714
Si Si4 0.096697 0.171123 0.241847
Si Si5 0.644906 0.174785 0.623289
Si Si6 0.307863 0.169550 0.078867
Si Si7 0.739745 0.170259 0.951047
Si Si8 0.762202 0.174020 0.336231
O O1 0.500000 0.322361 0.480714
O O2 0.613358 0.500000 0.531535
O O3 0.589425 0.232136 0.569001
O O4 0.662722 0.283366 0.464961
O O5 0.500000 0.630032 0.173131
O O6 0.360868 0.500000 0.144898
O O7 0.369430 0.713074 0.225199
O O8 0.393693 0.780701 0.111022
O O9 0.831689 0.255521 0.829890
O O10 0.000000 0.228174 0.802894
O O11 0.896798 0.000000 0.802893
O O12 0.107537 0.264978 0.183432
O O13 0.166564 0.224779 0.289377
O O14 0.000000 0.195649 0.265545
O O15 0.111666 0.000000 0.226927
O O16 0.740114 0.231630 0.613605
O O17 0.641509 0.000000 0.625050
O O18 0.286902 0.000000 0.090093
O O19 0.314122 0.202408 0.009972
O O20 0.703770 0.271623 0.899430
O O21 0.732529 0.000000 0.932267
O O22 0.752449 0.000000 0.336036
#
# Coordination Sequence:
#
# PCOD8189519 Si02
#       8
#     8   8   8   8   8   8   8   8
#     4   9  18  34  55  78 106 140 174 208 255 320
#     4   9  18  33  54  82 112 139 171 215 267 319
#     4   9  19  36  57  81 112 149 181 210 258 327
#     4  10  22  40  58  77 107 146 184 223 272 331
#     4  11  21  32  52  83 113 138 170 216 269 321
#     4  10  20  35  55  78 105 141 181 216 261 322
#     4   9  20  37  54  73 101 140 182 220 261 315
#     4  11  23  37  56  81 106 138 184 234 277 315
#
# _framework density 19.598199999999999
#
# number of rings (size 3 to 8) (size 9 to 14) (size 15 to 20)
#    0.000    2.250    0.000    4.500    0.000    9.000 
#    0.000    3.125    0.000    2.250    0.000    0.000 
#    0.000    0.000    0.000    0.000    0.000    0.000 
#
# Total GULP energy -396579.951015 kJ/mol
# GULP energy per Si atom -12393.123469 kJ/mol
# Density = 1.955359 g / cm^3
# Si number density = 19.598200 Si / 1000 Ang^3
#
#
#
# Elastic Constant Matrix: (Units=GPa)
#
#
# Indices 1 2 3 4 5 6 
#
# 1 52.0356 24.9468 29.2178 0.0000 0.0000 0.0000
# 2 24.9468 80.8227 44.0224 0.0000 0.0000 0.0000
# 3 29.2178 44.0224 94.5088 0.0000 0.0000 0.0000
# 4 0.0000 0.0000 0.0000 35.1354 0.0000 0.0000
# 5 0.0000 0.0000 0.0000 0.0000 16.8975 0.0000
# 6 0.0000 0.0000 0.0000 0.0000 0.0000 25.9228
#
#
#
# Elastic Compliance Matrix: (Units=1/GPa)
#
#
# Indices 1 2 3 4 5 6 
#
# 1 0.024467 -0.004599 -0.005422 0.000000 0.000000 0.000000
# 2 -0.004599 0.017443 -0.006703 0.000000 0.000000 0.000000
# 3 -0.005422 -0.006703 0.015380 0.000000 0.000000 0.000000
# 4 0.000000 0.000000 0.000000 0.028461 0.000000 0.000000
# 5 0.000000 0.000000 0.000000 0.000000 0.059180 0.000000
# 6 0.000000 0.000000 0.000000 0.000000 0.000000 0.038576
#
#
# Mechanical properties :
#
#
# Convention : Reuss Voigt Hill
#
# Bulk Modulus (GPa) = 41.94333 47.08234 44.51283
# Shear Modulus (GPa) = 22.23179 24.20313 23.21746
#
# Velocity S-wave (km/s) = 3.37171 3.51802 3.44564
# Velocity P-wave (km/s) = 6.05029 6.37008 6.21224
#
# Compressibility (1/GPa) = 0.02384169
#
# Stress axis : x y z
#
# Youngs Moduli (GPa) = 40.87183 57.32809 65.02060
#
# Poissons Ratio (x) = 0.26364 0.35254
# Poissons Ratio (y) = 0.18796 0.43586
# Poissons Ratio (z) = 0.22160 0.38430
#
# Static dielectric constant tensor:
#      x y z
#    x 3.620330 0.000000 0.000000 
#    y 0.000000 3.475150 0.000000 
#    z 0.000000 0.000000 3.515560 
# 
# 
# High freq. dielectric constant tensor:
#      x y z
#    x 1.757000 0.000000 0.000000 
#    y 0.000000 1.756830 0.000000 
#    z 0.000000 0.000000 1.758360 
# 
# From -- ./inp_files/24385.got.cif
#   From: 2010.03.12/outbox.cif.g09.slc.cpg/sg44_13_cif.got.tgz:24385.got - 2010.04.14 02:36:11.
