data_PCOD8189461
_publ_section_title
;
Structure prediction by ZEFSAII (Michael W. Deem and Ramdas Pophale) SiO2 
 PCOD8189461
Probable space group: I M M 2
;
_chemical_formula_sum "Si O2"
_cell_formula_units_Z 64
_cell_length_a 31.648156
_cell_length_b 8.984667
_cell_length_c 11.704425
_cell_angle_alpha 90.000000
_cell_angle_beta 90.000000
_cell_angle_gamma 90.000000
_cell_volume 3328.131512
_symmetry_space_group_name_H-M "I M M 2"
_symmetry_group_IT_number 44
_symmetry_cell_setting 'orthorhombic'
loop_
_space_group_symop_operation_xyz
x,y,z
-x,-y,z
-x,y,z
x,-y,z
1/2+x,1/2+y,1/2+z
1/2-x,1/2-y,1/2+z
1/2-x,1/2+y,1/2+z
1/2+x,1/2-y,1/2+z
loop_
_atom_site_type_symbol
_atom_site_label
_atom_site_fract_x
_atom_site_fract_y
_atom_site_fract_z
Si Si1 0.951161 0.175070 0.831040
Si Si2 0.691230 0.175502 0.280145
Si Si3 0.549685 0.165006 0.102515
Si Si4 0.879421 0.674146 0.962162
Si Si5 0.861158 0.327074 0.219449
Si Si6 0.681274 0.667939 0.050958
Si Si7 0.595324 0.333763 0.912842
Si Si8 0.276602 0.825003 0.851866
O O1 0.934197 0.241974 0.711505
O O2 0.922582 0.239822 0.932579
O O3 0.000000 0.217930 0.854894
O O4 0.945124 0.000000 0.823432
O O5 0.658282 0.220864 0.378025
O O6 0.672391 0.230277 0.160450
O O7 0.734453 0.263571 0.296027
O O8 0.699878 0.000000 0.278615
O O9 0.500000 0.153485 0.107885
O O10 0.570095 0.000000 0.108225
O O11 0.561048 0.241903 0.983451
O O12 0.889154 0.500000 0.953421
O O13 0.864619 0.721760 0.088109
O O14 0.870658 0.500000 0.235898
O O15 0.897057 0.239997 0.289747
O O16 0.814424 0.287356 0.264196
O O17 0.695530 0.500000 0.084021
O O18 0.638349 0.665419 0.982114
O O19 0.717267 0.742645 0.972838
O O20 0.577973 0.500000 0.894053
O O21 0.273041 0.000000 0.874729
#
# Coordination Sequence:
#
# PCOD8189461 Si02
#       8
#     8   8   8   8   8   8   8   8
#     4  10  21  37  58  86 119 151 187 238 294 344
#     4  11  23  36  55  84 115 146 186 235 284 338
#     4  10  20  34  56  85 115 148 185 228 280 341
#     4  10  22  39  59  84 114 153 196 239 284 342
#     4   9  20  39  59  79 110 152 194 235 281 337
#     4  10  21  37  55  77 108 143 183 228 276 332
#     4  10  20  35  57  83 110 143 182 230 282 332
#     4  10  21  37  58  82 109 146 188 234 289 339
#
# _framework density 19.23001
#
# number of rings (size 3 to 8) (size 9 to 14) (size 15 to 20)
#    0.000    2.000    0.000    3.000    1.750    7.000 
#    0.000    0.625    0.000    0.750    0.000    0.000 
#    0.000    0.000    0.000    0.000    0.000    0.000 
#
# Total GULP energy -396917.432877 kJ/mol
# GULP energy per Si atom -12403.669777 kJ/mol
# Density = 1.918624 g / cm^3
# Si number density = 19.230010 Si / 1000 Ang^3
#
#
#
# Elastic Constant Matrix: (Units=GPa)
#
#
# Indices 1 2 3 4 5 6 
#
# 1 56.7870 42.4646 41.5052 0.0000 0.0000 0.0000
# 2 42.4646 96.7337 52.0241 0.0000 0.0000 0.0000
# 3 41.5052 52.0241 139.0409 0.0000 0.0000 0.0000
# 4 0.0000 0.0000 0.0000 33.6972 0.0000 0.0000
# 5 0.0000 0.0000 0.0000 0.0000 22.4772 0.0000
# 6 0.0000 0.0000 0.0000 0.0000 0.0000 31.5620
#
#
#
# Elastic Compliance Matrix: (Units=1/GPa)
#
#
# Indices 1 2 3 4 5 6 
#
# 1 0.028565 -0.009957 -0.004801 0.000000 0.000000 0.000000
# 2 -0.009957 0.016413 -0.003169 0.000000 0.000000 0.000000
# 3 -0.004801 -0.003169 0.009811 0.000000 0.000000 0.000000
# 4 0.000000 0.000000 0.000000 0.029676 0.000000 0.000000
# 5 0.000000 0.000000 0.000000 0.000000 0.044489 0.000000
# 6 0.000000 0.000000 0.000000 0.000000 0.000000 0.031684
#
#
# Mechanical properties :
#
#
# Convention : Reuss Voigt Hill
#
# Bulk Modulus (GPa) = 52.81485 62.72771 57.77128
# Shear Modulus (GPa) = 24.65432 27.98513 26.31973
#
# Velocity S-wave (km/s) = 3.58449 3.81896 3.70358
# Velocity P-wave (km/s) = 6.68251 7.22056 6.95673
#
# Compressibility (1/GPa) = 0.01893407
#
# Stress axis : x y z
#
# Youngs Moduli (GPa) = 35.00801 60.92730 101.92672
#
# Poissons Ratio (x) = 0.60668 0.48937
# Poissons Ratio (y) = 0.34859 0.32298
# Poissons Ratio (z) = 0.16808 0.19306
#
# Static dielectric constant tensor:
#      x y z
#    x 3.378240 0.000000 0.000000 
#    y 0.000000 3.766910 0.000000 
#    z 0.000000 0.000000 3.651320 
# 
# 
# High freq. dielectric constant tensor:
#      x y z
#    x 1.738960 0.000000 0.000000 
#    y 0.000000 1.759790 0.000000 
#    z 0.000000 0.000000 1.747870 
# 
# From -- ./inp_files/11572.got.cif
#   From: 2010.03.12/outbox.cif.g09.slc.cpg/sg44_6_cif.got.tgz:11572.got - 2010.04.14 02:36:11.
