data_PCOD8189996
_publ_section_title
;
Structure prediction by ZEFSAII (Michael W. Deem and Ramdas Pophale) SiO2 
 PCOD8189996
Probable space group: I M M 2
;
_chemical_formula_sum "Si O2"
_cell_formula_units_Z 64
_cell_length_a 8.888210
_cell_length_b 23.849855
_cell_length_c 15.360433
_cell_angle_alpha 90.000000
_cell_angle_beta 90.000000
_cell_angle_gamma 90.000000
_cell_volume 3256.143291
_symmetry_space_group_name_H-M "I M M 2"
_symmetry_group_IT_number 44
_symmetry_cell_setting 'orthorhombic'
loop_
_space_group_symop_operation_xyz
x,y,z
-x,-y,z
-x,y,z
x,-y,z
1/2+x,1/2+y,1/2+z
1/2-x,1/2-y,1/2+z
1/2-x,1/2+y,1/2+z
1/2+x,1/2-y,1/2+z
loop_
_atom_site_type_symbol
_atom_site_label
_atom_site_fract_x
_atom_site_fract_y
_atom_site_fract_z
Si Si1 0.821227 0.937256 0.753180
Si Si2 0.172397 0.137072 0.401017
Si Si3 0.322570 0.751530 0.656434
Si Si4 0.172834 0.139087 0.596994
Si Si5 0.325816 0.367445 0.418362
Si Si6 0.823507 0.361012 0.594088
Si Si7 0.675007 0.935408 0.258266
Si Si8 0.674115 0.752209 0.341655
O O1 0.765525 0.907102 0.664849
O O2 0.762532 0.902477 0.836353
O O3 0.000000 0.939396 0.754020
O O4 0.753552 0.000000 0.755864
O O5 0.187643 0.114585 0.499664
O O6 0.230893 0.088471 0.338437
O O7 0.268694 0.193381 0.391829
O O8 0.000000 0.150860 0.377662
O O9 0.500000 0.746771 0.655346
O O10 0.272062 0.805366 0.602307
O O11 0.257463 0.697406 0.609627
O O12 0.266083 0.756831 0.754276
O O13 0.000000 0.154598 0.619294
O O14 0.500000 0.381397 0.434177
O O15 0.232695 0.386532 0.502773
O O16 0.301693 0.301377 0.402759
O O17 0.778700 0.403973 0.670030
O O18 0.000000 0.350715 0.590352
O O19 0.500000 0.926717 0.279055
O O20 0.717157 0.000000 0.245868
O O21 0.500000 0.760333 0.316673
#
# Coordination Sequence:
#
# PCOD8189996 Si02
#       8
#     8   8   8   8   8   8   8   8
#     4   9  18  36  61  86 116 157 201 243 289 343
#     4  11  23  37  60  92 121 152 196 248 296 349
#     4  12  23  36  60  91 121 153 195 243 293 351
#     4  10  21  39  61  89 123 158 195 237 293 356
#     4  10  21  37  60  89 120 155 197 242 291 348
#     4  11  23  39  61  87 119 157 195 240 297 355
#     4  10  23  43  63  82 113 162 207 244 296 356
#     4  11  21  37  60  85 120 160 193 236 298 360
#
# _framework density 19.655154
#
# number of rings (size 3 to 8) (size 9 to 14) (size 15 to 20)
#    0.000    1.500    2.500    3.000    0.000    5.750 
#    0.000    1.250    0.000    1.125    0.000    0.000 
#    0.000    0.000    0.000    0.000    0.000    0.000 
#
# Total GULP energy -396945.199508 kJ/mol
# GULP energy per Si atom -12404.537485 kJ/mol
# Density = 1.961042 g / cm^3
# Si number density = 19.655154 Si / 1000 Ang^3
#
#
#
# Elastic Constant Matrix: (Units=GPa)
#
#
# Indices 1 2 3 4 5 6 
#
# 1 67.3854 45.1011 58.4139 0.0001 0.0000 0.0000
# 2 45.1011 137.8811 63.6393 0.0000 0.0000 0.0000
# 3 58.4139 63.6393 154.5215 -0.0001 -0.0001 0.0001
# 4 0.0001 0.0000 -0.0001 9.6436 -0.0001 0.0000
# 5 0.0000 0.0000 -0.0001 -0.0001 31.8940 0.0000
# 6 0.0000 0.0000 0.0001 0.0000 0.0000 13.5581
#
#
#
# Elastic Compliance Matrix: (Units=1/GPa)
#
#
# Indices 1 2 3 4 5 6 
#
# 1 0.024191 -0.004559 -0.007267 0.000000 0.000000 0.000000
# 2 -0.004559 0.009814 -0.002319 0.000000 0.000000 0.000000
# 3 -0.007267 -0.002319 0.010174 0.000000 0.000000 0.000000
# 4 0.000000 0.000000 0.000000 0.103695 0.000000 0.000000
# 5 0.000000 0.000000 0.000000 0.000000 0.031354 0.000000
# 6 0.000000 0.000000 0.000000 0.000000 0.000000 0.073756
#
#
# Mechanical properties :
#
#
# Convention : Reuss Voigt Hill
#
# Bulk Modulus (GPa) = 62.93484 77.12182 70.02833
# Shear Modulus (GPa) = 17.44774 23.86141 20.65458
#
# Velocity S-wave (km/s) = 2.98265 3.48803 3.24520
# Velocity P-wave (km/s) = 6.62953 7.45282 7.05319
#
# Compressibility (1/GPa) = 0.01588945
#
# Stress axis : x y z
#
# Youngs Moduli (GPa) = 41.33770 101.89664 98.29162
#
# Poissons Ratio (x) = 0.46450 0.71433
# Poissons Ratio (y) = 0.18844 0.22789
# Poissons Ratio (z) = 0.30042 0.23625
#
# Static dielectric constant tensor:
#      x y z
#    x 3.541720 0.000000 0.000000 
#    y 0.000000 3.632690 0.000000 
#    z 0.000000 0.000000 3.733110 
# 
# 
# High freq. dielectric constant tensor:
#      x y z
#    x 1.753740 0.000000 0.000000 
#    y 0.000000 1.761440 0.000000 
#    z 0.000000 0.000000 1.781710 
# 
# From -- ./inp_files/16835.got.cif
#   From: 2010.03.12/outbox.cif.g09.slc.cpg/sg44_9_cif.got.tgz:16835.got - 2010.04.14 02:36:11.
