data_PCOD8189975
_publ_section_title
;
Structure prediction by ZEFSAII (Michael W. Deem and Ramdas Pophale) SiO2 
 PCOD8189975
Probable space group: I M M 2
;
_chemical_formula_sum "Si O2"
_cell_formula_units_Z 64
_cell_length_a 24.301788
_cell_length_b 9.089287
_cell_length_c 14.785247
_cell_angle_alpha 90.000000
_cell_angle_beta 90.000000
_cell_angle_gamma 90.000000
_cell_volume 3265.852971
_symmetry_space_group_name_H-M "I M M 2"
_symmetry_group_IT_number 44
_symmetry_cell_setting 'orthorhombic'
loop_
_space_group_symop_operation_xyz
x,y,z
-x,-y,z
-x,y,z
x,-y,z
1/2+x,1/2+y,1/2+z
1/2-x,1/2-y,1/2+z
1/2-x,1/2+y,1/2+z
1/2+x,1/2-y,1/2+z
loop_
_atom_site_type_symbol
_atom_site_label
_atom_site_fract_x
_atom_site_fract_y
_atom_site_fract_z
Si Si1 0.373704 0.827001 0.044660
Si Si2 0.746018 0.334811 0.221756
Si Si3 0.636912 0.165153 0.750886
Si Si4 0.563890 0.670732 0.888203
Si Si5 0.563290 0.326980 0.408866
Si Si6 0.644242 0.169235 0.536903
Si Si7 0.374998 0.667726 0.233840
Si Si8 0.248981 0.669773 0.542846
O O1 0.383629 0.761070 0.143670
O O2 0.312267 0.792477 0.005856
O O3 0.383421 0.000000 0.051483
O O4 0.417474 0.759183 0.976267
O O5 0.750850 0.500000 0.176585
O O6 0.799545 0.315299 0.286554
O O7 0.687737 0.322942 0.273021
O O8 0.746990 0.205967 0.148753
O O9 0.596947 0.278960 0.799416
O O10 0.637937 0.195343 0.643856
O O11 0.616072 0.000000 0.772491
O O12 0.500000 0.702342 0.870471
O O13 0.575596 0.500000 0.904928
O O14 0.500000 0.283228 0.414776
O O15 0.573305 0.500000 0.417456
O O16 0.593062 0.248963 0.491549
O O17 0.586203 0.269560 0.312624
O O18 0.702000 0.234885 0.498574
O O19 0.642729 0.000000 0.509942
O O20 0.390542 0.500000 0.209951
O O21 0.263565 0.500000 0.528100
#
# Coordination Sequence:
#
# PCOD8189975 Si02
#       8
#     8   8   8   8   8   8   8   8
#     4  10  21  37  59  86 114 145 181 224 276 331
#     4   8  15  30  53  81 111 142 177 219 272 331
#     4   9  19  36  57  81 109 140 177 226 281 332
#     4  11  25  41  56  78 108 145 191 235 274 324
#     4  10  22  38  55  79 112 151 194 234 273 322
#     4  10  21  37  58  84 113 146 184 227 277 330
#     4   9  18  35  58  82 113 150 184 223 272 326
#     4   9  17  31  54  84 114 142 176 219 271 332
#
# _framework density 19.596717999999999
#
# number of rings (size 3 to 8) (size 9 to 14) (size 15 to 20)
#    0.000    2.500    0.000    2.250    0.000    7.750 
#    0.000    6.250    0.000    0.000    0.000    0.000 
#    0.000    0.000    0.000    0.000    0.000    0.000 
#
# Total GULP energy -396650.544456 kJ/mol
# GULP energy per Si atom -12395.329514 kJ/mol
# Density = 1.955211 g / cm^3
# Si number density = 19.596718 Si / 1000 Ang^3
#
#
#
# Elastic Constant Matrix: (Units=GPa)
#
#
# Indices 1 2 3 4 5 6 
#
# 1 68.2874 39.4357 1.5466 0.0000 0.0000 0.0000
# 2 39.4357 69.8268 22.6374 0.0000 0.0000 0.0000
# 3 1.5466 22.6374 34.4054 0.0000 0.0000 0.0000
# 4 0.0000 0.0000 0.0000 27.5408 0.0000 0.0000
# 5 0.0000 0.0000 0.0000 0.0000 30.9064 0.0000
# 6 0.0000 0.0000 0.0000 0.0000 0.0000 30.0609
#
#
#
# Elastic Compliance Matrix: (Units=1/GPa)
#
#
# Indices 1 2 3 4 5 6 
#
# 1 0.024184 -0.016914 0.010041 0.000000 0.000000 0.000000
# 2 -0.016914 0.030033 -0.019000 0.000000 0.000000 0.000000
# 3 0.010041 -0.019000 0.041115 0.000000 0.000000 0.000000
# 4 0.000000 0.000000 0.000000 0.036310 0.000000 0.000000
# 5 0.000000 0.000000 0.000000 0.000000 0.032356 0.000000
# 6 0.000000 0.000000 0.000000 0.000000 0.000000 0.033266
#
#
# Mechanical properties :
#
#
# Convention : Reuss Voigt Hill
#
# Bulk Modulus (GPa) = 22.94241 33.30656 28.12448
# Shear Modulus (GPa) = 18.97253 24.96160 21.96707
#
# Velocity S-wave (km/s) = 3.11488 3.57286 3.35170
# Velocity P-wave (km/s) = 4.96683 5.83552 5.41861
#
# Compressibility (1/GPa) = 0.04358741
#
# Stress axis : x y z
#
# Youngs Moduli (GPa) = 41.34931 33.29638 24.32179
#
# Poissons Ratio (x) = 0.56317 -0.24423
# Poissons Ratio (y) = 0.69937 0.46212
# Poissons Ratio (z) = -0.41521 0.63265
#
# Static dielectric constant tensor:
#      x y z
#    x 3.836210 0.000000 0.000000 
#    y 0.000000 3.558800 0.000000 
#    z 0.000000 0.000000 3.250850 
# 
# 
# High freq. dielectric constant tensor:
#      x y z
#    x 1.772810 0.000000 0.000000 
#    y 0.000000 1.763900 0.000000 
#    z 0.000000 0.000000 1.740880 
# 
# From -- ./inp_files/19488.got.cif
#   From: 2010.03.12/outbox.cif.g09.slc.cpg/sg44_10_cif.got.tgz:19488.got - 2010.04.14 02:36:11.
