data_PCOD8189921
_publ_section_title
;
Structure prediction by ZEFSAII (Michael W. Deem and Ramdas Pophale) SiO2 
 PCOD8189921
Probable space group: I M M 2
;
_chemical_formula_sum "Si O2"
_cell_formula_units_Z 56
_cell_length_a 17.293109
_cell_length_b 23.384421
_cell_length_c 7.030922
_cell_angle_alpha 90.000000
_cell_angle_beta 90.000000
_cell_angle_gamma 90.000000
_cell_volume 2843.229916
_symmetry_space_group_name_H-M "I M M 2"
_symmetry_group_IT_number 44
_symmetry_cell_setting 'orthorhombic'
loop_
_space_group_symop_operation_xyz
x,y,z
-x,-y,z
-x,y,z
x,-y,z
1/2+x,1/2+y,1/2+z
1/2-x,1/2-y,1/2+z
1/2-x,1/2+y,1/2+z
1/2+x,1/2-y,1/2+z
loop_
_atom_site_type_symbol
_atom_site_label
_atom_site_fract_x
_atom_site_fract_y
_atom_site_fract_z
Si Si1 0.413378 0.935117 0.437290
Si Si2 0.852437 0.436113 0.540577
Si Si3 0.836608 0.353249 0.207249
Si Si4 0.411387 0.363184 0.902980
Si Si5 0.175967 0.064999 0.117120
Si Si6 0.910303 0.234270 0.107236
Si Si7 0.840585 0.843991 0.804882
O O1 0.500000 0.919778 0.508388
O O2 0.412943 0.927714 0.209964
O O3 0.348904 0.893883 0.526033
O O4 0.391720 0.000000 0.492331
O O5 0.860387 0.500000 0.450530
O O6 0.870923 0.387776 0.386356
O O7 0.767677 0.428341 0.629944
O O8 0.884145 0.296234 0.173545
O O9 0.747213 0.338610 0.235210
O O10 0.500000 0.381654 0.880491
O O11 0.394398 0.351528 0.122746
O O12 0.359267 0.414038 0.817440
O O13 0.393115 0.305917 0.786267
O O14 0.150275 0.000000 0.081995
O O15 0.143879 0.101648 0.940039
O O16 0.000000 0.235200 0.051199
O O17 0.863160 0.213337 0.920902
#
# Coordination Sequence:
#
# PCOD8189921 Si02
#       7
#     8   8   8   8   8   8   8
#     4  10  21  36  56  86 123 157 190 235 291 349
#     4   9  19  37  58  83 116 154 192 236 290 347
#     4  11  22  36  61  87 114 150 203 246 287 347
#     4  10  21  38  58  80 113 154 191 234 298 355
#     4   9  19  37  59  85 115 145 189 242 288 343
#     4  10  23  40  56  81 118 153 194 250 298 344
#     4  10  22  38  60  84 113 154 195 240 298 351
#
# _framework density 19.695910999999999
#
# number of rings (size 3 to 8) (size 9 to 14) (size 15 to 20)
#    0.000    2.143    0.000    2.143    2.000    4.286 
#    0.000    2.857    0.000    0.000    0.000    0.000 
#    0.000    0.000    0.000    0.000    0.000    0.000 
#
# Total GULP energy -347247.189763 kJ/mol
# GULP energy per Si atom -12401.685349 kJ/mol
# Density = 1.965108 g / cm^3
# Si number density = 19.695911 Si / 1000 Ang^3
#
#
#
# Elastic Constant Matrix: (Units=GPa)
#
#
# Indices 1 2 3 4 5 6 
#
# 1 73.1994 52.4413 39.1808 0.0000 0.0000 0.0000
# 2 52.4413 138.4629 57.9761 0.0000 0.0000 0.0000
# 3 39.1808 57.9761 109.5197 0.0000 0.0000 0.0000
# 4 0.0000 0.0000 0.0000 41.6666 0.0000 0.0000
# 5 0.0000 0.0000 0.0000 0.0000 33.3007 0.0000
# 6 0.0000 0.0000 0.0000 0.0000 0.0000 18.1549
#
#
#
# Elastic Compliance Matrix: (Units=1/GPa)
#
#
# Indices 1 2 3 4 5 6 
#
# 1 0.020057 -0.005900 -0.004052 0.000000 0.000000 0.000000
# 2 -0.005900 0.011014 -0.003720 0.000000 0.000000 0.000000
# 3 -0.004052 -0.003720 0.012550 0.000000 0.000000 0.000000
# 4 0.000000 0.000000 0.000000 0.024000 0.000000 0.000000
# 5 0.000000 0.000000 0.000000 0.000000 0.030029 0.000000
# 6 0.000000 0.000000 0.000000 0.000000 0.000000 0.055081
#
#
# Mechanical properties :
#
#
# Convention : Reuss Voigt Hill
#
# Bulk Modulus (GPa) = 61.43612 68.93092 65.18352
# Shear Modulus (GPa) = 26.95402 30.06337 28.50869
#
# Velocity S-wave (km/s) = 3.70335 3.91113 3.80865
# Velocity P-wave (km/s) = 7.03892 7.44778 7.24624
#
# Compressibility (1/GPa) = 0.01627707
#
# Stress axis : x y z
#
# Youngs Moduli (GPa) = 49.85805 90.79244 79.68306
#
# Poissons Ratio (x) = 0.53564 0.32290
# Poissons Ratio (y) = 0.29414 0.29642
# Poissons Ratio (z) = 0.20204 0.33774
#
# Static dielectric constant tensor:
#      x y z
#    x 3.532120 0.000000 0.000000 
#    y 0.000000 3.417850 0.000000 
#    z 0.000000 0.000000 3.561440 
# 
# 
# High freq. dielectric constant tensor:
#      x y z
#    x 1.768930 0.000000 0.000000 
#    y 0.000000 1.767640 0.000000 
#    z 0.000000 0.000000 1.769850 
# 
# From -- ./inp_files/2447.got.cif
#   From: 2010.03.12/outbox.cif.g09.slc.cpg/sg44_2_cif.got.tgz:2447.got - 2010.04.14 02:36:11.
