data_PCOD8189550
_publ_section_title
;
Structure prediction by ZEFSAII (Michael W. Deem and Ramdas Pophale) SiO2 
 PCOD8189550
Probable space group: I M M 2
;
_chemical_formula_sum "Si O2"
_cell_formula_units_Z 64
_cell_length_a 17.528132
_cell_length_b 24.403004
_cell_length_c 7.567479
_cell_angle_alpha 90.000000
_cell_angle_beta 90.000000
_cell_angle_gamma 90.000000
_cell_volume 3236.906470
_symmetry_space_group_name_H-M "I M M 2"
_symmetry_group_IT_number 44
_symmetry_cell_setting 'orthorhombic'
loop_
_space_group_symop_operation_xyz
x,y,z
-x,-y,z
-x,y,z
x,-y,z
1/2+x,1/2+y,1/2+z
1/2-x,1/2-y,1/2+z
1/2-x,1/2+y,1/2+z
1/2+x,1/2-y,1/2+z
loop_
_atom_site_type_symbol
_atom_site_label
_atom_site_fract_x
_atom_site_fract_y
_atom_site_fract_z
Si Si1 0.586828 0.655519 0.453430
Si Si2 0.168909 0.263243 0.051903
Si Si3 0.175343 0.437456 0.751932
Si Si4 0.706706 0.561996 0.054159
Si Si5 0.910750 0.331061 0.750265
Si Si6 0.159568 0.739285 0.444558
Si Si7 0.914353 0.152285 0.541356
Si Si8 0.297953 0.562454 0.457645
O O1 0.500000 0.650325 0.518597
O O2 0.627675 0.704909 0.552022
O O3 0.591879 0.667869 0.246345
O O4 0.628902 0.599199 0.503292
O O5 0.162723 0.287366 0.249880
O O6 0.257018 0.256182 0.007777
O O7 0.129994 0.305631 0.920161
O O8 0.145570 0.500000 0.738606
O O9 0.103878 0.396357 0.747115
O O10 0.229188 0.422454 0.587127
O O11 0.219537 0.427387 0.935050
O O12 0.676918 0.500000 0.028901
O O13 0.638934 0.601332 0.990840
O O14 0.730089 0.573132 0.257234
O O15 0.877449 0.305117 0.572694
O O16 0.000000 0.319051 0.762680
O O17 0.109104 0.794072 0.433701
O O18 0.000000 0.135253 0.489936
O O19 0.324053 0.500000 0.486407
#
# Coordination Sequence:
#
# PCOD8189550 Si02
#       8
#     8   8   8   8   8   8   8   8
#     4  10  20  35  56  85 124 162 199 247 303 361
#     4  12  24  41  64  89 121 166 210 252 304 368
#     4  10  22  41  65  88 114 154 204 252 305 362
#     4   9  19  36  59  86 117 158 206 251 294 354
#     4  12  26  43  64  95 130 158 202 259 311 372
#     4  12  24  41  64  89 121 166 210 252 304 368
#     4  10  20  35  56  85 124 162 199 247 303 361
#     4   9  19  36  59  86 117 158 206 251 294 354
#
# _framework density 19.771963
#
# number of rings (size 3 to 8) (size 9 to 14) (size 15 to 20)
#    0.000    1.500    2.500    2.250    1.750    5.750 
#    0.000    2.500    0.000    2.250    0.000    5.250 
#    0.000    0.000    0.000    0.000    0.000    0.000 
#
# Total GULP energy -396908.764450 kJ/mol
# GULP energy per Si atom -12403.398889 kJ/mol
# Density = 1.972696 g / cm^3
# Si number density = 19.771963 Si / 1000 Ang^3
#
#
#
# Elastic Constant Matrix: (Units=GPa)
#
#
# Indices 1 2 3 4 5 6 
#
# 1 85.7020 29.4538 18.9666 0.0000 0.0000 0.0000
# 2 29.4538 92.2760 19.7650 0.0000 0.0000 0.0000
# 3 18.9666 19.7650 98.1369 0.0000 0.0000 0.0000
# 4 0.0000 0.0000 0.0000 19.4364 0.0000 0.0000
# 5 0.0000 0.0000 0.0000 0.0000 19.2486 0.0000
# 6 0.0000 0.0000 0.0000 0.0000 0.0000 26.3583
#
#
#
# Elastic Compliance Matrix: (Units=1/GPa)
#
#
# Indices 1 2 3 4 5 6 
#
# 1 0.013406 -0.003892 -0.001807 0.000000 0.000000 0.000000
# 2 -0.003892 0.012456 -0.001756 0.000000 0.000000 0.000000
# 3 -0.001807 -0.001756 0.010893 0.000000 0.000000 0.000000
# 4 0.000000 0.000000 0.000000 0.051450 0.000000 0.000000
# 5 0.000000 0.000000 0.000000 0.000000 0.051952 0.000000
# 6 0.000000 0.000000 0.000000 0.000000 0.000000 0.037939
#
#
# Mechanical properties :
#
#
# Convention : Reuss Voigt Hill
#
# Bulk Modulus (GPa) = 45.78044 45.83174 45.80609
# Shear Modulus (GPa) = 24.96422 26.87062 25.91742
#
# Velocity S-wave (km/s) = 3.55717 3.69050 3.62445
# Velocity P-wave (km/s) = 6.33054 6.43352 6.38224
#
# Compressibility (1/GPa) = 0.02184339
#
# Stress axis : x y z
#
# Youngs Moduli (GPa) = 74.59434 80.28547 91.80354
#
# Poissons Ratio (x) = 0.31247 0.16589
# Poissons Ratio (y) = 0.29032 0.16124
# Poissons Ratio (z) = 0.13480 0.14101
#
# Static dielectric constant tensor:
#      x y z
#    x 3.515230 0.000000 0.000000 
#    y 0.000000 3.658870 0.000000 
#    z 0.000000 0.000000 3.769060 
# 
# 
# High freq. dielectric constant tensor:
#      x y z
#    x 1.755760 0.000000 0.000000 
#    y 0.000000 1.775860 0.000000 
#    z 0.000000 0.000000 1.782760 
# 
# From -- ./inp_files/7588.got.cif
#   From: 2010.03.12/outbox.cif.g09.slc.cpg/sg44_4_cif.got.tgz:7588.got - 2010.04.14 02:36:11.
