data_PCOD8189503
_publ_section_title
;
Structure prediction by ZEFSAII (Michael W. Deem and Ramdas Pophale) SiO2 
 PCOD8189503
Probable space group: I M M 2
;
_chemical_formula_sum "Si O2"
_cell_formula_units_Z 64
_cell_length_a 8.779851
_cell_length_b 19.868302
_cell_length_c 20.169143
_cell_angle_alpha 90.000000
_cell_angle_beta 90.000000
_cell_angle_gamma 90.000000
_cell_volume 3518.320052
_symmetry_space_group_name_H-M "I M M 2"
_symmetry_group_IT_number 44
_symmetry_cell_setting 'orthorhombic'
loop_
_space_group_symop_operation_xyz
x,y,z
-x,-y,z
-x,y,z
x,-y,z
1/2+x,1/2+y,1/2+z
1/2-x,1/2-y,1/2+z
1/2-x,1/2+y,1/2+z
1/2+x,1/2-y,1/2+z
loop_
_atom_site_type_symbol
_atom_site_label
_atom_site_fract_x
_atom_site_fract_y
_atom_site_fract_z
Si Si1 0.679471 0.320336 0.224790
Si Si2 0.677166 0.921780 0.623461
Si Si3 0.178370 0.323906 0.365884
Si Si4 0.179656 0.820559 0.222969
Si Si5 0.676931 0.328351 0.869987
Si Si6 0.318901 0.925577 0.975524
Si Si7 0.175214 0.578539 0.624068
Si Si8 0.322141 0.422498 0.984582
O O1 0.500000 0.314109 0.224937
O O2 0.728750 0.379527 0.176208
O O3 0.736137 0.339261 0.297931
O O4 0.747523 0.249614 0.199440
O O5 0.500000 0.904854 0.630488
O O6 0.731384 0.901780 0.550139
O O7 0.711250 0.000000 0.637197
O O8 0.208596 0.248411 0.391415
O O9 0.246045 0.373038 0.422202
O O10 0.000000 0.336358 0.353379
O O11 0.243979 0.840167 0.296106
O O12 0.219129 0.879989 0.173231
O O13 0.000000 0.809137 0.226265
O O14 0.500000 0.345069 0.867665
O O15 0.749026 0.378372 0.924414
O O16 0.500000 0.926287 0.974221
O O17 0.267600 0.905205 0.049603
O O18 0.256741 0.000000 0.957751
O O19 0.195839 0.500000 0.639752
O O20 0.000000 0.600188 0.633644
O O21 0.500000 0.407082 0.996791
O O22 0.295094 0.500000 0.965865
#
# Coordination Sequence:
#
# PCOD8189503 Si02
#       8
#     8   8   8   8   8   8   8   8
#     4  11  22  36  54  76 104 136 171 212 260 310
#     4  10  21  37  55  76 104 136 170 210 256 306
#     4   9  17  32  52  73  99 131 170 211 250 297
#     4  10  20  35  54  77 105 137 177 218 257 304
#     4   8  16  30  48  71  99 131 167 209 252 299
#     4   8  15  29  50  74 100 133 171 207 246 299
#     4   9  18  33  52  77 109 142 177 215 255 302
#     4   9  17  31  51  74 100 131 169 210 250 296
#
# _framework density 18.1905
#
# number of rings (size 3 to 8) (size 9 to 14) (size 15 to 20)
#    0.000    2.750    0.000    3.375    0.000    3.000 
#    0.000    8.750    0.000    2.250    0.000    0.000 
#    0.000    0.000    0.000    0.000    0.000    0.000 
#
# Total GULP energy -396764.587252 kJ/mol
# GULP energy per Si atom -12398.893352 kJ/mol
# Density = 1.814910 g / cm^3
# Si number density = 18.190500 Si / 1000 Ang^3
#
#
#
# Elastic Constant Matrix: (Units=GPa)
#
#
# Indices 1 2 3 4 5 6 
#
# 1 65.3502 36.8734 39.8284 0.0000 0.0000 0.0000
# 2 36.8734 98.8077 81.7933 0.0000 0.0000 0.0000
# 3 39.8284 81.7933 120.2925 0.0000 0.0000 0.0000
# 4 0.0000 0.0000 0.0000 41.6869 0.0000 0.0000
# 5 0.0000 0.0000 0.0000 0.0000 27.7365 0.0000
# 6 0.0000 0.0000 0.0000 0.0000 0.0000 24.1703
#
#
#
# Elastic Compliance Matrix: (Units=1/GPa)
#
#
# Indices 1 2 3 4 5 6 
#
# 1 0.020023 -0.004539 -0.003543 0.000000 0.000000 0.000000
# 2 -0.004539 0.024181 -0.014939 0.000000 0.000000 0.000000
# 3 -0.003543 -0.014939 0.019644 0.000000 0.000000 0.000000
# 4 0.000000 0.000000 0.000000 0.023988 0.000000 0.000000
# 5 0.000000 0.000000 0.000000 0.000000 0.036054 0.000000
# 6 0.000000 0.000000 0.000000 0.000000 0.000000 0.041373
#
#
# Mechanical properties :
#
#
# Convention : Reuss Voigt Hill
#
# Bulk Modulus (GPa) = 56.16325 66.82674 61.49499
# Shear Modulus (GPa) = 23.01587 27.11578 25.06583
#
# Velocity S-wave (km/s) = 3.56092 3.86509 3.71612
# Velocity P-wave (km/s) = 6.91729 7.53230 7.23134
#
# Compressibility (1/GPa) = 0.01780524
#
# Stress axis : x y z
#
# Youngs Moduli (GPa) = 49.94333 41.35401 50.90570
#
# Poissons Ratio (x) = 0.18772 0.18036
# Poissons Ratio (y) = 0.22671 0.76050
# Poissons Ratio (z) = 0.17695 0.61780
#
# Static dielectric constant tensor:
#      x y z
#    x 3.097760 0.000000 0.000000 
#    y 0.000000 3.515160 0.000000 
#    z 0.000000 0.000000 3.552950 
# 
# 
# High freq. dielectric constant tensor:
#      x y z
#    x 1.680000 0.000000 0.000000 
#    y 0.000000 1.707240 0.000000 
#    z 0.000000 0.000000 1.711020 
# 
# From -- ./inp_files/20791.got.cif
#   From: 2010.03.12/outbox.cif.g09.slc.cpg/sg44_11_cif.got.tgz:20791.got - 2010.04.14 02:36:11.
