data_PCOD8189689
_publ_section_title
;
Structure prediction by ZEFSAII (Michael W. Deem and Ramdas Pophale) SiO2 
 PCOD8189689
Probable space group: I M M 2
;
_chemical_formula_sum "Si O2"
_cell_formula_units_Z 64
_cell_length_a 31.102597
_cell_length_b 8.435546
_cell_length_c 12.024709
_cell_angle_alpha 90.000000
_cell_angle_beta 90.000000
_cell_angle_gamma 90.000000
_cell_volume 3154.891488
_symmetry_space_group_name_H-M "I M M 2"
_symmetry_group_IT_number 44
_symmetry_cell_setting 'orthorhombic'
loop_
_space_group_symop_operation_xyz
x,y,z
-x,-y,z
-x,y,z
x,-y,z
1/2+x,1/2+y,1/2+z
1/2-x,1/2-y,1/2+z
1/2-x,1/2+y,1/2+z
1/2+x,1/2-y,1/2+z
loop_
_atom_site_type_symbol
_atom_site_label
_atom_site_fract_x
_atom_site_fract_y
_atom_site_fract_z
Si Si1 0.299615 0.812514 0.478300
Si Si2 0.952431 0.182429 0.533155
Si Si3 0.127609 0.189309 0.131780
Si Si4 0.571563 0.818925 0.261090
Si Si5 0.836857 0.816223 0.755698
Si Si6 0.953004 0.185223 0.992324
Si Si7 0.125724 0.811434 0.385124
Si Si8 0.295349 0.313666 0.029032
O O1 0.330087 0.769248 0.581097
O O2 0.314065 0.716722 0.371075
O O3 0.251798 0.747324 0.502300
O O4 0.300879 0.000000 0.456479
O O5 0.953086 0.276054 0.648704
O O6 0.916952 0.252141 0.448217
O O7 0.000000 0.199739 0.479192
O O8 0.941489 0.000000 0.559699
O O9 0.124581 0.248460 0.258594
O O10 0.131361 0.000000 0.121729
O O11 0.085508 0.256756 0.067175
O O12 0.621750 0.792105 0.242259
O O13 0.554819 0.713809 0.362453
O O14 0.562572 0.000000 0.292096
O O15 0.805144 0.768299 0.656134
O O16 0.850539 0.000000 0.748653
O O17 0.000000 0.255907 0.026336
O O18 0.953613 0.000000 0.014052
O O19 0.168196 0.742481 0.446564
O O20 0.125780 0.000000 0.387565
O O21 0.295116 0.500000 0.012550
#
# Coordination Sequence:
#
# PCOD8189689 Si02
#       8
#     8   8   8   8   8   8   8   8
#     4  11  23  38  58  88 121 151 189 237 291 345
#     4  10  20  36  61  88 115 151 194 240 291 348
#     4  10  21  37  60  84 113 154 196 238 287 341
#     4  12  23  36  57  87 120 152 190 242 294 345
#     4  11  21  39  64  86 115 155 196 238 287 343
#     4  10  21  37  57  83 116 153 194 238 286 346
#     4   9  18  36  59  84 113 149 194 242 285 334
#     4   9  20  37  59  84 116 152 186 234 288 339
#
# _framework density 20.285957
#
# number of rings (size 3 to 8) (size 9 to 14) (size 15 to 20)
#    0.000    1.750    2.500    2.250    1.750    2.500 
#    0.000    5.000    0.000    0.000    0.000    1.750 
#    0.000    0.000    0.000    0.000    0.000    0.000 
#
# Total GULP energy -396811.251892 kJ/mol
# GULP energy per Si atom -12400.351622 kJ/mol
# Density = 2.023979 g / cm^3
# Si number density = 20.285957 Si / 1000 Ang^3
#
#
#
# Elastic Constant Matrix: (Units=GPa)
#
#
# Indices 1 2 3 4 5 6 
#
# 1 169.7084 10.9120 60.7546 0.0000 0.0000 0.0000
# 2 10.9120 23.2066 4.6271 0.0000 0.0000 0.0000
# 3 60.7546 4.6271 140.6559 0.0000 0.0000 0.0000
# 4 0.0000 0.0000 0.0000 8.4098 0.0000 0.0000
# 5 0.0000 0.0000 0.0000 0.0000 40.9101 0.0000
# 6 0.0000 0.0000 0.0000 0.0000 0.0000 21.2779
#
#
#
# Elastic Compliance Matrix: (Units=1/GPa)
#
#
# Indices 1 2 3 4 5 6 
#
# 1 0.007142 -0.002761 -0.002994 0.000000 0.000000 0.000000
# 2 -0.002761 0.044443 -0.000269 0.000000 0.000000 0.000000
# 3 -0.002994 -0.000269 0.008412 0.000000 0.000000 0.000000
# 4 0.000000 0.000000 0.000000 0.118908 0.000000 0.000000
# 5 0.000000 0.000000 0.000000 0.000000 0.024444 0.000000
# 6 0.000000 0.000000 0.000000 0.000000 0.000000 0.046997
#
#
# Mechanical properties :
#
#
# Convention : Reuss Voigt Hill
#
# Bulk Modulus (GPa) = 20.85610 54.01759 37.43684
# Shear Modulus (GPa) = 17.96121 31.27138 24.61629
#
# Velocity S-wave (km/s) = 2.97880 3.93049 3.48726
# Velocity P-wave (km/s) = 4.70472 6.87635 5.89146
#
# Compressibility (1/GPa) = 0.04794760
#
# Stress axis : x y z
#
# Youngs Moduli (GPa) = 140.02009 22.50060 118.88310
#
# Poissons Ratio (x) = 0.06213 0.35593
# Poissons Ratio (y) = 0.38662 0.03202
# Poissons Ratio (z) = 0.41922 0.00606
#
# Static dielectric constant tensor:
#      x y z
#    x 4.070800 0.000000 0.000000 
#    y 0.000000 3.340690 0.000000 
#    z 0.000000 0.000000 3.751530 
# 
# 
# High freq. dielectric constant tensor:
#      x y z
#    x 1.810810 0.000000 0.000000 
#    y 0.000000 1.756660 0.000000 
#    z 0.000000 0.000000 1.794100 
# 
# From -- ./inp_files/11426.got.cif
#   From: 2010.03.12/outbox.cif.g09.slc.cpg/sg44_6_cif.got.tgz:11426.got - 2010.04.14 02:36:11.
