data_PCOD8189912
_publ_section_title
;
Structure prediction by ZEFSAII (Michael W. Deem and Ramdas Pophale) SiO2 
 PCOD8189912
Probable space group: I M M 2
;
_chemical_formula_sum "Si O2"
_cell_formula_units_Z 56
_cell_length_a 9.444359
_cell_length_b 16.591061
_cell_length_c 19.700012
_cell_angle_alpha 90.000000
_cell_angle_beta 90.000000
_cell_angle_gamma 90.000000
_cell_volume 3086.833025
_symmetry_space_group_name_H-M "I M M 2"
_symmetry_group_IT_number 44
_symmetry_cell_setting 'orthorhombic'
loop_
_space_group_symop_operation_xyz
x,y,z
-x,-y,z
-x,y,z
x,-y,z
1/2+x,1/2+y,1/2+z
1/2-x,1/2-y,1/2+z
1/2-x,1/2+y,1/2+z
1/2+x,1/2-y,1/2+z
loop_
_atom_site_type_symbol
_atom_site_label
_atom_site_fract_x
_atom_site_fract_y
_atom_site_fract_z
Si Si1 0.343120 0.089271 0.067010
Si Si2 0.163263 0.759428 0.888088
Si Si3 0.165018 0.227605 0.129428
Si Si4 0.664181 0.500000 0.809681
Si Si5 0.658062 0.089411 0.906515
Si Si6 0.163514 0.651902 0.016893
Si Si7 0.165654 0.825851 0.274594
Si Si8 0.670441 0.500000 0.963876
O O1 0.500000 0.113815 0.092229
O O2 0.231028 0.150856 0.094446
O O3 0.304560 0.000000 0.093713
O O4 0.338907 0.089685 0.986703
O O5 0.227859 0.848047 0.878573
O O6 0.184775 0.724603 0.963536
O O7 0.243569 0.700419 0.838106
O O8 0.000000 0.763860 0.867625
O O9 0.209898 0.226678 0.208664
O O10 0.000000 0.212698 0.122819
O O11 0.205555 0.310794 0.090894
O O12 0.500000 0.500000 0.824776
O O13 0.705343 0.420828 0.766016
O O14 0.729098 0.500000 0.886362
O O15 0.500000 0.113296 0.881121
O O16 0.697057 0.000000 0.879317
O O17 0.268291 0.578507 0.001866
O O18 0.000000 0.622048 0.016001
O O19 0.000000 0.814911 0.291075
O O20 0.500000 0.500000 0.970022
#
# Coordination Sequence:
#
# PCOD8189912 Si02
#       8
#     8   8   8   4   8   8   8   4
#     4   9  18  31  48  75 111 144 174 212 258 309
#     4  11  21  34  55  82 112 144 179 228 286 335
#     4  10  21  36  56  80 109 149 189 225 273 331
#     4   9  18  33  53  83 115 142 185 234 276 328
#     4   9  18  33  54  79 106 140 181 222 266 319
#     4  10  21  37  55  83 116 145 181 232 287 337
#     4  10  21  37  56  79 112 150 189 230 276 339
#     4  11  21  35  61  89 107 142 191 238 288 334
#
# _framework density 18.141570999999999
#
# number of rings (size 3 to 8) (size 9 to 14) (size 15 to 20)
#    0.000    2.143    2.857    1.500    1.000    2.286 
#    0.000    1.786    1.571    0.000    0.000    0.000 
#    0.000    0.000    0.000    0.000    0.000    0.000 
#
# Total GULP energy -347065.754737 kJ/mol
# GULP energy per Si atom -12395.205526 kJ/mol
# Density = 1.810028 g / cm^3
# Si number density = 18.141571 Si / 1000 Ang^3
#
#
#
# Elastic Constant Matrix: (Units=GPa)
#
#
# Indices 1 2 3 4 5 6 
#
# 1 59.7519 44.6607 29.9017 0.0000 0.0000 0.0000
# 2 44.6607 97.1577 31.4532 0.0000 0.0000 0.0000
# 3 29.9017 31.4532 71.4175 0.0000 0.0000 0.0000
# 4 0.0000 0.0000 0.0000 9.3884 0.0000 0.0000
# 5 0.0000 0.0000 0.0000 0.0000 20.4784 0.0000
# 6 0.0000 0.0000 0.0000 0.0000 0.0000 31.6446
#
#
#
# Elastic Compliance Matrix: (Units=1/GPa)
#
#
# Indices 1 2 3 4 5 6 
#
# 1 0.028306 -0.010701 -0.007139 0.000000 0.000000 0.000000
# 2 -0.010701 0.016049 -0.002588 0.000000 0.000000 0.000000
# 3 -0.007139 -0.002588 0.018131 0.000000 0.000000 0.000000
# 4 0.000000 0.000000 0.000000 0.106514 0.000000 0.000000
# 5 0.000000 0.000000 0.000000 0.000000 0.048832 0.000000
# 6 0.000000 0.000000 0.000000 0.000000 0.000000 0.031601
#
#
# Mechanical properties :
#
#
# Convention : Reuss Voigt Hill
#
# Bulk Modulus (GPa) = 46.22896 48.92871 47.57883
# Shear Modulus (GPa) = 16.80676 20.45638 18.63157
#
# Velocity S-wave (km/s) = 3.04702 3.36161 3.20818
# Velocity P-wave (km/s) = 6.15766 6.48817 6.32507
#
# Compressibility (1/GPa) = 0.02163146
#
# Stress axis : x y z
#
# Youngs Moduli (GPa) = 35.32773 62.30858 55.15426
#
# Poissons Ratio (x) = 0.66674 0.39374
# Poissons Ratio (y) = 0.37803 0.14274
# Poissons Ratio (z) = 0.25220 0.16126
#
# Static dielectric constant tensor:
#      x y z
#    x 3.418310 0.000000 0.000000 
#    y 0.000000 4.195660 0.000000 
#    z 0.000000 0.000000 3.304860 
# 
# 
# High freq. dielectric constant tensor:
#      x y z
#    x 1.697730 0.000000 0.000000 
#    y 0.000000 1.704250 0.000000 
#    z 0.000000 0.000000 1.682490 
# 
# From -- ./inp_files/23147.got.cif
#   From: 2010.03.12/outbox.cif.g09.slc.cpg/sg44_12_cif.got.tgz:23147.got - 2010.04.14 02:36:11.
