data_PCOD8189754
_publ_section_title
;
Structure prediction by ZEFSAII (Michael W. Deem and Ramdas Pophale) SiO2 
 PCOD8189754
Probable space group: I M M 2
;
_chemical_formula_sum "Si O2"
_cell_formula_units_Z 40
_cell_length_a 11.758906
_cell_length_b 8.373759
_cell_length_c 20.212471
_cell_angle_alpha 90.000000
_cell_angle_beta 90.000000
_cell_angle_gamma 90.000000
_cell_volume 1990.246120
_symmetry_space_group_name_H-M "I M M 2"
_symmetry_group_IT_number 44
_symmetry_cell_setting 'orthorhombic'
loop_
_space_group_symop_operation_xyz
x,y,z
-x,-y,z
-x,y,z
x,-y,z
1/2+x,1/2+y,1/2+z
1/2-x,1/2-y,1/2+z
1/2-x,1/2+y,1/2+z
1/2+x,1/2-y,1/2+z
loop_
_atom_site_type_symbol
_atom_site_label
_atom_site_fract_x
_atom_site_fract_y
_atom_site_fract_z
Si Si1 0.627945 0.310299 0.272770
Si Si2 0.765269 0.310000 0.145367
Si Si3 0.500000 0.315005 0.615972
Si Si4 0.000000 0.314811 0.975254
Si Si5 0.626504 0.312488 0.018782
Si Si6 0.278515 0.686195 0.409621
O O1 0.500000 0.239086 0.277657
O O2 0.620257 0.500000 0.275291
O O3 0.684844 0.252187 0.205032
O O4 0.704470 0.249917 0.334627
O O5 0.780644 0.500000 0.145278
O O6 0.708513 0.246766 0.076997
O O7 0.886747 0.226112 0.157386
O O8 0.500000 0.500000 0.595156
O O9 0.500000 0.196130 0.553928
O O10 0.108056 0.221916 0.949307
O O11 0.000000 0.500000 0.953886
O O12 0.500000 0.238327 0.025961
O O13 0.618809 0.500000 0.027218
O O14 0.674072 0.272686 0.945965
O O15 0.252153 0.500000 0.410499
#
# Coordination Sequence:
#
# PCOD8189754 Si02
#       6
#     8   8   4   4   8   8
#     4   9  18  35  60  88 115 148 192 238 283 340
#     4  10  20  37  62  86 112 151 198 238 283 345
#     4  12  24  38  58  86 120 151 188 243 298 343
#     4  12  22  36  60  88 116 149 192 239 290 355
#     4  10  21  37  58  85 116 153 196 238 286 344
#     4  11  21  36  60  89 119 149 190 243 293 342
#
# _framework density 20.098018
#
# number of rings (size 3 to 8) (size 9 to 14) (size 15 to 20)
#    0.000    1.600    3.000    3.000    0.000    2.800 
#    1.800    2.000    0.000    1.200    0.000    0.000 
#    0.000    0.000    0.000    0.000    0.000    0.000 
#
# Total GULP energy -247995.793814 kJ/mol
# GULP energy per Si atom -12399.789691 kJ/mol
# Density = 2.005227 g / cm^3
# Si number density = 20.098018 Si / 1000 Ang^3
#
#
#
# Elastic Constant Matrix: (Units=GPa)
#
#
# Indices 1 2 3 4 5 6 
#
# 1 153.3380 18.4928 62.6311 0.0000 0.0000 0.0000
# 2 18.4928 25.2553 13.3125 0.0000 0.0000 0.0000
# 3 62.6311 13.3125 139.0219 0.0000 0.0000 0.0000
# 4 0.0000 0.0000 0.0000 24.5323 0.0000 0.0000
# 5 0.0000 0.0000 0.0000 0.0000 18.6095 0.0000
# 6 0.0000 0.0000 0.0000 0.0000 0.0000 65.8149
#
#
#
# Elastic Compliance Matrix: (Units=1/GPa)
#
#
# Indices 1 2 3 4 5 6 
#
# 1 0.008431 -0.004393 -0.003378 0.000000 0.000000 0.000000
# 2 -0.004393 0.043990 -0.002233 0.000000 0.000000 0.000000
# 3 -0.003378 -0.002233 0.008929 0.000000 0.000000 0.000000
# 4 0.000000 0.000000 0.000000 0.040763 0.000000 0.000000
# 5 0.000000 0.000000 0.000000 0.000000 0.053736 0.000000
# 6 0.000000 0.000000 0.000000 0.000000 0.000000 0.015194
#
#
# Mechanical properties :
#
#
# Convention : Reuss Voigt Hill
#
# Bulk Modulus (GPa) = 24.18880 56.27645 40.23262
# Shear Modulus (GPa) = 24.41049 36.66993 30.54021
#
# Velocity S-wave (km/s) = 3.48885 4.27611 3.90239
# Velocity P-wave (km/s) = 5.31893 7.24168 6.35346
#
# Compressibility (1/GPa) = 0.04134145
#
# Stress axis : x y z
#
# Youngs Moduli (GPa) = 118.61103 22.73262 111.99970
#
# Poissons Ratio (x) = 0.09987 0.37829
# Poissons Ratio (y) = 0.52106 0.25012
# Poissons Ratio (z) = 0.40062 0.05077
#
# Static dielectric constant tensor:
#      x y z
#    x 3.818580 0.000000 0.000000 
#    y 0.000000 3.296440 0.000000 
#    z 0.000000 0.000000 3.824390 
# 
# 
# High freq. dielectric constant tensor:
#      x y z
#    x 1.790710 0.000000 0.000000 
#    y 0.000000 1.755700 0.000000 
#    z 0.000000 0.000000 1.783900 
# 
# From -- ./inp_files/22784.got.cif
#   From: 2010.03.12/outbox.cif.g09.slc.cpg/sg44_12_cif.got.tgz:22784.got - 2010.04.14 02:36:11.
