data_PCOD8189945
_publ_section_title
;
Structure prediction by ZEFSAII (Michael W. Deem and Ramdas Pophale) SiO2 
 PCOD8189945
Probable space group: I M M 2
;
_chemical_formula_sum "Si O2"
_cell_formula_units_Z 56
_cell_length_a 8.775136
_cell_length_b 24.729066
_cell_length_c 14.136552
_cell_angle_alpha 90.000000
_cell_angle_beta 90.000000
_cell_angle_gamma 90.000000
_cell_volume 3067.644752
_symmetry_space_group_name_H-M "I M M 2"
_symmetry_group_IT_number 44
_symmetry_cell_setting 'orthorhombic'
loop_
_space_group_symop_operation_xyz
x,y,z
-x,-y,z
-x,y,z
x,-y,z
1/2+x,1/2+y,1/2+z
1/2-x,1/2-y,1/2+z
1/2-x,1/2+y,1/2+z
1/2+x,1/2-y,1/2+z
loop_
_atom_site_type_symbol
_atom_site_label
_atom_site_fract_x
_atom_site_fract_y
_atom_site_fract_z
Si Si1 0.825157 0.319180 0.326430
Si Si2 0.677588 0.612487 0.469084
Si Si3 0.677092 0.164098 0.138289
Si Si4 0.324091 0.225536 0.629309
Si Si5 0.179256 0.500000 0.767505
Si Si6 0.819946 0.791266 0.430914
Si Si7 0.178193 0.892420 0.304736
Si Si8 0.322191 0.500000 0.559638
O O1 0.723903 0.370016 0.362672
O O2 0.804629 0.318301 0.212799
O O3 0.770953 0.262237 0.373351
O O4 0.000000 0.329603 0.353271
O O5 0.500000 0.622511 0.486294
O O6 0.778801 0.654282 0.529776
O O7 0.723505 0.551264 0.494795
O O8 0.500000 0.153946 0.157590
O O9 0.721325 0.224776 0.163855
O O10 0.777330 0.122085 0.197595
O O11 0.500000 0.243979 0.621138
O O12 0.266626 0.202626 0.530028
O O13 0.237281 0.551553 0.827521
O O14 0.236171 0.500000 0.659124
O O15 0.000000 0.500000 0.764734
O O16 0.767805 0.844141 0.372713
O O17 0.000000 0.791332 0.449294
O O18 0.000000 0.902411 0.311432
O O19 0.500000 0.500000 0.584138
#
# Coordination Sequence:
#
# PCOD8189945 Si02
#       8
#     8   8   8   8   4   8   8   4
#     4  10  21  37  55  81 115 148 183 231 280 330
#     4  11  22  36  56  81 111 151 190 226 277 336
#     4  12  22  32  52  83 117 148 186 232 274 330
#     4  11  22  37  56  80 114 153 189 226 282 340
#     4  12  24  36  56  87 116 147 188 233 278 332
#     4  10  21  37  57  82 114 147 186 232 280 331
#     4  11  22  39  58  79 114 155 189 228 282 338
#     4  10  22  38  56  79 114 151 186 229 278 334
#
# _framework density 18.255047000000001
#
# number of rings (size 3 to 8) (size 9 to 14) (size 15 to 20)
#    0.000    1.143    4.286    3.214    0.000    2.857 
#    0.000    0.000    0.000    0.857    0.000    3.000 
#    0.000    0.000    0.000    0.000    0.000    0.000 
#
# Total GULP energy -347229.442412 kJ/mol
# GULP energy per Si atom -12401.051515 kJ/mol
# Density = 1.821350 g / cm^3
# Si number density = 18.255047 Si / 1000 Ang^3
#
#
#
# Elastic Constant Matrix: (Units=GPa)
#
#
# Indices 1 2 3 4 5 6 
#
# 1 77.2718 43.7410 34.9873 0.0000 0.0000 0.0000
# 2 43.7410 96.2050 31.2114 -0.0001 0.0000 0.0000
# 3 34.9873 31.2114 87.2113 -0.0002 0.0001 0.0001
# 4 0.0000 -0.0001 -0.0002 28.9732 0.0000 0.0000
# 5 0.0000 0.0000 0.0001 0.0000 31.5785 0.0000
# 6 0.0000 0.0000 0.0001 0.0000 0.0000 26.8597
#
#
#
# Elastic Compliance Matrix: (Units=1/GPa)
#
#
# Indices 1 2 3 4 5 6 
#
# 1 0.019315 -0.007091 -0.005211 0.000000 0.000000 0.000000
# 2 -0.007091 0.014363 -0.002296 0.000000 0.000000 0.000000
# 3 -0.005211 -0.002296 0.014378 0.000000 0.000000 0.000000
# 4 0.000000 0.000000 0.000000 0.034515 0.000000 0.000000
# 5 0.000000 0.000000 0.000000 0.000000 0.031667 0.000000
# 6 0.000000 0.000000 0.000000 0.000000 0.000000 0.037231
#
#
# Mechanical properties :
#
#
# Convention : Reuss Voigt Hill
#
# Bulk Modulus (GPa) = 53.01857 53.39640 53.20749
# Shear Modulus (GPa) = 26.74494 27.53217 27.13855
#
# Velocity S-wave (km/s) = 3.83178 3.88776 3.85987
# Velocity P-wave (km/s) = 6.97732 7.03325 7.00534
#
# Compressibility (1/GPa) = 0.01886132
#
# Stress axis : x y z
#
# Youngs Moduli (GPa) = 51.77370 69.62179 69.54866
#
# Poissons Ratio (x) = 0.49370 0.36241
# Poissons Ratio (y) = 0.36714 0.15965
# Poissons Ratio (z) = 0.26979 0.15982
#
# Static dielectric constant tensor:
#      x y z
#    x 3.317650 0.000000 0.000000 
#    y 0.000000 3.437340 0.000000 
#    z 0.000000 0.000000 3.293010 
# 
# 
# High freq. dielectric constant tensor:
#      x y z
#    x 1.713210 0.000000 0.000000 
#    y 0.000000 1.696830 0.000000 
#    z 0.000000 0.000000 1.693490 
# 
# From -- ./inp_files/16593.got.cif
#   From: 2010.03.12/outbox.cif.g09.slc.cpg/sg44_9_cif.got.tgz:16593.got - 2010.04.14 02:36:11.
