data_PCOD8189556
_publ_section_title
;
Structure prediction by ZEFSAII (Michael W. Deem and Ramdas Pophale) SiO2 
 PCOD8189556
Probable space group: I M M 2
;
_chemical_formula_sum "Si O2"
_cell_formula_units_Z 48
_cell_length_a 8.545604
_cell_length_b 16.433148
_cell_length_c 18.302172
_cell_angle_alpha 90.000000
_cell_angle_beta 90.000000
_cell_angle_gamma 90.000000
_cell_volume 2570.195524
_symmetry_space_group_name_H-M "I M M 2"
_symmetry_group_IT_number 44
_symmetry_cell_setting 'orthorhombic'
loop_
_space_group_symop_operation_xyz
x,y,z
-x,-y,z
-x,y,z
x,-y,z
1/2+x,1/2+y,1/2+z
1/2-x,1/2-y,1/2+z
1/2-x,1/2+y,1/2+z
1/2+x,1/2-y,1/2+z
loop_
_atom_site_type_symbol
_atom_site_label
_atom_site_fract_x
_atom_site_fract_y
_atom_site_fract_z
Si Si1 0.181948 0.195163 0.636520
Si Si2 0.182661 0.264016 0.913281
Si Si3 0.817202 0.340059 0.290898
Si Si4 0.681613 0.338211 0.555496
Si Si5 0.683156 0.500000 0.362673
Si Si6 0.680319 0.000000 0.018348
Si Si7 0.316158 0.592597 0.997309
O O1 0.224122 0.162063 0.715545
O O2 0.277509 0.277719 0.621546
O O3 0.228310 0.126465 0.577366
O O4 0.000000 0.215892 0.631634
O O5 0.275575 0.237564 0.840940
O O6 0.229543 0.355779 0.934569
O O7 0.000000 0.259327 0.896137
O O8 0.229581 0.203721 0.979055
O O9 0.766071 0.421187 0.331356
O O10 0.000000 0.340937 0.274330
O O11 0.500000 0.360056 0.558003
O O12 0.782021 0.420093 0.565993
O O13 0.500000 0.500000 0.343498
O O14 0.704262 0.500000 0.449351
O O15 0.500000 0.000000 0.993829
O O16 0.500000 0.598760 0.983361
O O17 0.256586 0.500000 0.992343
#
# Coordination Sequence:
#
# PCOD8189556 Si02
#       7
#     8   8   8   8   4   4   8
#     4  10  21  37  58  83 116 153 189 230 281 340
#     4  10  20  35  57  82 111 149 189 233 282 332
#     4  12  24  38  57  84 117 152 189 231 283 343
#     4  10  20  36  57  82 114 151 191 234 280 333
#     4  12  24  38  56  84 118 151 186 231 286 338
#     4  12  22  34  58  88 116 147 188 235 282 336
#     4   9  19  36  58  84 112 147 188 231 279 332
#
# _framework density 18.675622000000001
#
# number of rings (size 3 to 8) (size 9 to 14) (size 15 to 20)
#    0.000    1.500    1.667    4.500    1.167    2.333 
#    0.000    0.000    1.833    0.000    0.000    0.000 
#    0.000    0.000    0.000    0.000    0.000    0.000 
#
# Total GULP energy -297731.069428 kJ/mol
# GULP energy per Si atom -12405.461226 kJ/mol
# Density = 1.863312 g / cm^3
# Si number density = 18.675622 Si / 1000 Ang^3
#
#
#
# Elastic Constant Matrix: (Units=GPa)
#
#
# Indices 1 2 3 4 5 6 
#
# 1 63.3464 28.6067 9.7720 0.0000 0.0000 0.0000
# 2 28.6067 133.3348 29.6675 0.0000 0.0000 0.0000
# 3 9.7720 29.6675 61.8736 0.0000 0.0000 0.0000
# 4 0.0000 0.0000 0.0000 -1.3624 0.0000 0.0000
# 5 0.0000 0.0000 0.0000 0.0000 30.4976 0.0000
# 6 0.0000 0.0000 0.0000 0.0000 0.0000 32.8832
#
#
#
# Elastic Compliance Matrix: (Units=1/GPa)
#
#
# Indices 1 2 3 4 5 6 
#
# 1 0.017544 -0.003523 -0.001081 0.000000 0.000000 0.000000
# 2 -0.003523 0.009103 -0.003808 0.000000 0.000000 0.000000
# 3 -0.001081 -0.003808 0.018159 0.000000 0.000000 0.000000
# 4 0.000000 0.000000 0.000000 -0.733985 0.000000 0.000000
# 5 0.000000 0.000000 0.000000 0.000000 0.032790 0.000000
# 6 0.000000 0.000000 0.000000 0.000000 0.000000 0.030411
#
#
# Mechanical properties :
#
#
# Convention : Reuss Voigt Hill
#
# Bulk Modulus (GPa) = 35.74006 43.84968 39.79487
# Shear Modulus (GPa) = -8.33575 25.10424 8.38424
#
# Velocity S-wave (km/s) = -2.11498 3.67035 2.12112
# Velocity P-wave (km/s) = 3.63520 6.44147 5.23007
#
# Compressibility (1/GPa) = 0.02797981
#
# Stress axis : x y z
#
# Youngs Moduli (GPa) = 56.99889 109.85089 55.06956
#
# Poissons Ratio (x) = 0.38705 0.05955
# Poissons Ratio (y) = 0.20083 0.20973
# Poissons Ratio (z) = 0.06164 0.41836
#
# Static dielectric constant tensor:
#      x y z
#    x 3.428410 0.000000 0.000000 
#    y 0.000000 3.549000 0.000000 
#    z 0.000000 0.000000 3.255800 
# 
# 
# High freq. dielectric constant tensor:
#      x y z
#    x 1.736540 0.000000 0.000000 
#    y 0.000000 1.729180 0.000000 
#    z 0.000000 0.000000 1.703320 
# 
# From -- ./inp_files/20330.got.cif
#   From: 2010.03.12/outbox.cif.g09.slc.cpg/sg44_11_cif.got.tgz:20330.got - 2010.04.14 02:36:11.
