data_PCOD8189651
_publ_section_title
;
Structure prediction by ZEFSAII (Michael W. Deem and Ramdas Pophale) SiO2 
 PCOD8189651
Probable space group: I M M 2
;
_chemical_formula_sum "Si O2"
_cell_formula_units_Z 32
_cell_length_a 9.547187
_cell_length_b 7.895496
_cell_length_c 23.180740
_cell_angle_alpha 90.000000
_cell_angle_beta 90.000000
_cell_angle_gamma 90.000000
_cell_volume 1747.359007
_symmetry_space_group_name_H-M "I M M 2"
_symmetry_group_IT_number 44
_symmetry_cell_setting 'orthorhombic'
loop_
_space_group_symop_operation_xyz
x,y,z
-x,-y,z
-x,y,z
x,-y,z
1/2+x,1/2+y,1/2+z
1/2-x,1/2-y,1/2+z
1/2-x,1/2+y,1/2+z
1/2+x,1/2-y,1/2+z
loop_
_atom_site_type_symbol
_atom_site_label
_atom_site_fract_x
_atom_site_fract_y
_atom_site_fract_z
Si Si1 0.345877 0.811719 0.663700
Si Si2 0.659479 0.000000 0.554350
Si Si3 0.341963 0.807163 0.258654
Si Si4 0.835478 0.000000 0.440212
Si Si5 0.660793 0.189833 0.860970
O O1 0.500000 0.728505 0.672543
O O2 0.227460 0.701729 0.695127
O O3 0.346461 0.000000 0.691752
O O4 0.315093 0.832990 0.594805
O O5 0.764890 0.000000 0.502049
O O6 0.500000 0.000000 0.531235
O O7 0.500000 0.736007 0.255247
O O8 0.253465 0.698083 0.303639
O O9 0.341932 0.000000 0.279605
O O10 0.787464 0.830150 0.406723
O O11 0.000000 0.000000 0.450586
O O12 0.500000 0.227330 0.843731
O O13 0.676557 0.000000 0.887225
#
# Coordination Sequence:
#
# PCOD8189651 Si02
#       5
#     8   4   8   4   8
#     4   8  17  34  54  76 101 139 183 221 270 328
#     4   8  18  36  58  80 106 144 187 230 275 328
#     4  11  22  33  49  80 117 147 182 231 283 332
#     4  10  20  36  58  84 112 148 189 228 277 328
#     4  10  21  37  57  81 110 148 190 227 273 337
#
# _framework density 18.313351000000001
#
# number of rings (size 3 to 8) (size 9 to 14) (size 15 to 20)
#    0.750    1.750    1.250    1.500    0.000    7.500 
#    0.000    1.250    0.000    4.500    0.000    0.000 
#    0.000    0.000    0.000    0.000    0.000    0.000 
#
# Total GULP energy -198273.274944 kJ/mol
# GULP energy per Si atom -12392.079684 kJ/mol
# Density = 1.827167 g / cm^3
# Si number density = 18.313351 Si / 1000 Ang^3
#
#
#
# Elastic Constant Matrix: (Units=GPa)
#
#
# Indices 1 2 3 4 5 6 
#
# 1 102.4768 30.9972 62.3617 0.0000 0.0000 0.0000
# 2 30.9972 83.5688 36.1737 0.0000 0.0000 0.0000
# 3 62.3617 36.1737 107.2233 0.0000 0.0000 0.0000
# 4 0.0000 0.0000 0.0000 23.4623 0.0000 0.0000
# 5 0.0000 0.0000 0.0000 0.0000 39.5485 0.0000
# 6 0.0000 0.0000 0.0000 0.0000 0.0000 20.2170
#
#
#
# Elastic Compliance Matrix: (Units=1/GPa)
#
#
# Indices 1 2 3 4 5 6 
#
# 1 0.015428 -0.002153 -0.008247 0.000000 0.000000 0.000000
# 2 -0.002153 0.014313 -0.003577 0.000000 0.000000 0.000000
# 3 -0.008247 -0.003577 0.015329 0.000000 0.000000 0.000000
# 4 0.000000 0.000000 0.000000 0.042622 0.000000 0.000000
# 5 0.000000 0.000000 0.000000 0.000000 0.025285 0.000000
# 6 0.000000 0.000000 0.000000 0.000000 0.000000 0.049463
#
#
# Mechanical properties :
#
#
# Convention : Reuss Voigt Hill
#
# Bulk Modulus (GPa) = 58.41849 61.37045 59.89447
# Shear Modulus (GPa) = 25.49735 27.56130 26.52933
#
# Velocity S-wave (km/s) = 3.73538 3.88362 3.81022
# Velocity P-wave (km/s) = 7.11145 7.32762 7.22035
#
# Compressibility (1/GPa) = 0.01711787
#
# Stress axis : x y z
#
# Youngs Moduli (GPa) = 64.81729 69.86704 65.23457
#
# Poissons Ratio (x) = 0.15041 0.53797
# Poissons Ratio (y) = 0.13954 0.23332
# Poissons Ratio (z) = 0.53453 0.24989
#
# Static dielectric constant tensor:
#      x y z
#    x 3.327020 0.000000 0.000000 
#    y 0.000000 3.256920 0.000000 
#    z 0.000000 0.000000 3.084630 
# 
# 
# High freq. dielectric constant tensor:
#      x y z
#    x 1.710270 0.000000 0.000000 
#    y 0.000000 1.695850 0.000000 
#    z 0.000000 0.000000 1.689220 
# 
# From -- ./inp_files/24555.got.cif
#   From: 2010.03.12/outbox.cif.g09.slc.cpg/sg44_13_cif.got.tgz:24555.got - 2010.04.14 02:36:11.
