data_PCOD8189175
_publ_section_title
;
Structure prediction by ZEFSAII (Michael W. Deem and Ramdas Pophale) SiO2 
 PCOD8189175
Probable space group: I M M 2
;
_chemical_formula_sum "Si O2"
_cell_formula_units_Z 64
_cell_length_a 9.098459
_cell_length_b 21.840009
_cell_length_c 15.420083
_cell_angle_alpha 90.000000
_cell_angle_beta 90.000000
_cell_angle_gamma 90.000000
_cell_volume 3064.131269
_symmetry_space_group_name_H-M "I M M 2"
_symmetry_group_IT_number 44
_symmetry_cell_setting 'orthorhombic'
loop_
_space_group_symop_operation_xyz
x,y,z
-x,-y,z
-x,y,z
x,-y,z
1/2+x,1/2+y,1/2+z
1/2-x,1/2-y,1/2+z
1/2-x,1/2+y,1/2+z
1/2+x,1/2-y,1/2+z
loop_
_atom_site_type_symbol
_atom_site_label
_atom_site_fract_x
_atom_site_fract_y
_atom_site_fract_z
Si Si1 0.669199 0.567053 0.502710
Si Si2 0.327182 0.808205 0.751890
Si Si3 0.661422 0.572584 0.010642
Si Si4 0.330976 0.067491 0.676427
Si Si5 0.666331 0.243106 0.094063
Si Si6 0.837734 0.392564 0.661783
Si Si7 0.673538 0.569724 0.822180
Si Si8 0.824891 0.803068 0.929173
O O1 0.500000 0.575447 0.527558
O O2 0.695850 0.500000 0.457029
O O3 0.755807 0.564729 0.592989
O O4 0.717463 0.624969 0.444100
O O5 0.500000 0.791093 0.755487
O O6 0.304689 0.882341 0.751044
O O7 0.256481 0.781854 0.664388
O O8 0.244579 0.783279 0.837025
O O9 0.500000 0.600329 0.027484
O O10 0.651618 0.500000 0.007139
O O11 0.722170 0.594512 0.917189
O O12 0.763234 0.595054 0.088196
O O13 0.500000 0.059276 0.655864
O O14 0.264647 0.000000 0.701775
O O15 0.500000 0.269421 0.081039
O O16 0.654240 0.175077 0.126980
O O17 0.754194 0.240991 0.002513
O O18 0.752051 0.388350 0.752055
O O19 0.000000 0.419638 0.676724
O O20 0.500000 0.575545 0.812376
O O21 0.724767 0.500000 0.807834
O O22 0.000000 0.793306 0.927191
#
# Coordination Sequence:
#
# PCOD8189175 Si02
#       8
#     8   8   8   8   8   8   8   8
#     4   9  18  33  54  81 115 154 191 229 282 346
#     4  11  23  40  63  90 118 154 196 238 290 352
#     4   8  15  29  48  71 102 141 184 228 273 326
#     4   9  19  36  57  83 116 150 183 227 285 344
#     4  10  22  42  62  82 113 153 197 247 296 344
#     4  10  20  32  49  76 108 144 189 241 290 338
#     4   9  17  29  46  71 106 147 189 233 283 341
#     4  10  21  39  63  89 119 154 194 245 295 345
#
# _framework density 20.886835000000001
#
# number of rings (size 3 to 8) (size 9 to 14) (size 15 to 20)
#    0.000    2.500    0.000    2.625    0.000    6.000 
#    2.250    1.250    0.000    0.000    0.000    0.000 
#    0.000    0.000    0.000    0.000    0.000    0.000 
#
# Total GULP energy -396577.898574 kJ/mol
# GULP energy per Si atom -12393.059330 kJ/mol
# Density = 2.083930 g / cm^3
# Si number density = 20.886835 Si / 1000 Ang^3
#
#
#
# Elastic Constant Matrix: (Units=GPa)
#
#
# Indices 1 2 3 4 5 6 
#
# 1 96.0910 24.8414 58.9247 0.0000 0.0000 0.0000
# 2 24.8414 40.3130 29.9006 0.0000 0.0000 0.0000
# 3 58.9247 29.9006 129.4468 0.0000 0.0000 0.0000
# 4 0.0000 0.0000 0.0000 20.9878 0.0000 0.0000
# 5 0.0000 0.0000 0.0000 0.0000 36.1254 0.0000
# 6 0.0000 0.0000 0.0000 0.0000 0.0000 20.7290
#
#
#
# Elastic Compliance Matrix: (Units=1/GPa)
#
#
# Indices 1 2 3 4 5 6 
#
# 1 0.015269 -0.005133 -0.005765 0.000000 0.000000 0.000000
# 2 -0.005133 0.031660 -0.004976 0.000000 0.000000 0.000000
# 3 -0.005765 -0.004976 0.011499 0.000000 0.000000 0.000000
# 4 0.000000 0.000000 0.000000 0.047647 0.000000 0.000000
# 5 0.000000 0.000000 0.000000 0.000000 0.027681 0.000000
# 6 0.000000 0.000000 0.000000 0.000000 0.000000 0.048242
#
#
# Mechanical properties :
#
#
# Convention : Reuss Voigt Hill
#
# Bulk Modulus (GPa) = 37.48251 54.79825 46.14038
# Shear Modulus (GPa) = 22.45787 25.71405 24.08596
#
# Velocity S-wave (km/s) = 3.28261 3.51253 3.39951
# Velocity P-wave (km/s) = 5.68787 6.53783 6.12760
#
# Compressibility (1/GPa) = 0.02667911
#
# Stress axis : x y z
#
# Youngs Moduli (GPa) = 65.49274 31.58551 86.96536
#
# Poissons Ratio (x) = 0.16213 0.50134
# Poissons Ratio (y) = 0.33618 0.43278
# Poissons Ratio (z) = 0.37755 0.15718
#
# Static dielectric constant tensor:
#      x y z
#    x 3.937170 0.000000 0.000000 
#    y 0.000000 3.779970 0.000000 
#    z 0.000000 0.000000 3.783700 
# 
# 
# High freq. dielectric constant tensor:
#      x y z
#    x 1.816510 0.000000 0.000000 
#    y 0.000000 1.808130 0.000000 
#    z 0.000000 0.000000 1.811990 
# 
# From -- ./inp_files/16861.got.cif
#   From: 2010.03.12/outbox.cif.g09.slc.cpg/sg44_9_cif.got.tgz:16861.got - 2010.04.14 02:36:11.
