data_PCOD8189030
_publ_section_title
;
Structure prediction by ZEFSAII (Michael W. Deem and Ramdas Pophale) SiO2 
 PCOD8189030
Probable space group: I M M 2
;
_chemical_formula_sum "Si O2"
_cell_formula_units_Z 32
_cell_length_a 16.108579
_cell_length_b 5.301667
_cell_length_c 16.810863
_cell_angle_alpha 90.000000
_cell_angle_beta 90.000000
_cell_angle_gamma 90.000000
_cell_volume 1435.686730
_symmetry_space_group_name_H-M "I M M 2"
_symmetry_group_IT_number 44
_symmetry_cell_setting 'orthorhombic'
loop_
_space_group_symop_operation_xyz
x,y,z
-x,-y,z
-x,y,z
x,-y,z
1/2+x,1/2+y,1/2+z
1/2-x,1/2-y,1/2+z
1/2-x,1/2+y,1/2+z
1/2+x,1/2-y,1/2+z
loop_
_atom_site_type_symbol
_atom_site_label
_atom_site_fract_x
_atom_site_fract_y
_atom_site_fract_z
Si Si1 0.350418 0.500000 0.928831
Si Si2 0.839014 0.500000 0.872178
Si Si3 0.660265 0.000000 0.869878
Si Si4 0.665398 0.000000 0.686921
Si Si5 0.095210 0.500000 0.700163
Si Si6 0.344412 0.500000 0.116149
Si Si7 0.904877 0.000000 0.118284
Si Si8 0.338097 0.500000 0.446513
O O1 0.256902 0.500000 0.895434
O O2 0.393456 0.248783 0.892279
O O3 0.357482 0.500000 0.022646
O O4 0.846328 0.500000 0.777295
O O5 0.881646 0.750918 0.909026
O O6 0.740442 0.000000 0.927628
O O7 0.690327 0.000000 0.779182
O O8 0.747166 0.000000 0.633724
O O9 0.612463 0.250270 0.669576
O O10 0.113086 0.749715 0.649880
O O11 0.000000 0.500000 0.727597
O O12 0.846658 0.000000 0.041090
O O13 0.000000 0.000000 0.090938
#
# Coordination Sequence:
#
# PCOD8189030 Si02
#       8
#     4   4   4   4   4   4   4   4
#     4  10  19  35  60  92 122 155 212 272 314 363
#     4  10  20  37  59  90 128 164 209 256 315 384
#     4  10  19  35  60  92 122 155 212 272 314 363
#     4  12  23  41  69  96 129 174 225 272 315 385
#     4  12  26  43  65  98 139 175 210 266 338 398
#     4  12  23  41  69  96 129 174 225 272 315 385
#     4  12  26  43  65  98 139 175 210 266 338 398
#     4  10  20  37  59  90 128 164 209 256 315 384
#
# _framework density 22.288986000000001
#
# number of rings (size 3 to 8) (size 9 to 14) (size 15 to 20)
#    0.000    1.000    0.000   10.500    0.000    1.000 
#    0.000    0.000    0.000   15.000    0.000    0.000 
#    0.000    0.000    0.000    0.000    0.000    0.000 
#
# Total GULP energy -198393.544630 kJ/mol
# GULP energy per Si atom -12399.596539 kJ/mol
# Density = 2.223826 g / cm^3
# Si number density = 22.288986 Si / 1000 Ang^3
#
#
#
# Elastic Constant Matrix: (Units=GPa)
#
#
# Indices 1 2 3 4 5 6 
#
# 1 52.3813 12.3125 3.2534 0.0000 0.0000 0.0000
# 2 12.3125 251.6808 56.8246 0.0000 0.0000 0.0000
# 3 3.2534 56.8246 132.1458 0.0000 0.0000 0.0000
# 4 0.0000 0.0000 0.0000 50.6660 0.0000 0.0000
# 5 0.0000 0.0000 0.0000 0.0000 10.8160 0.0000
# 6 0.0000 0.0000 0.0000 0.0000 0.0000 21.9112
#
#
#
# Elastic Compliance Matrix: (Units=1/GPa)
#
#
# Indices 1 2 3 4 5 6 
#
# 1 0.019314 -0.000928 -0.000077 0.000000 0.000000 0.000000
# 2 -0.000928 0.004445 -0.001889 0.000000 0.000000 0.000000
# 3 -0.000077 -0.001889 0.008381 0.000000 0.000000 0.000000
# 4 0.000000 0.000000 0.000000 0.019737 0.000000 0.000000
# 5 0.000000 0.000000 0.000000 0.000000 0.092456 0.000000
# 6 0.000000 0.000000 0.000000 0.000000 0.000000 0.045639
#
#
# Mechanical properties :
#
#
# Convention : Reuss Voigt Hill
#
# Bulk Modulus (GPa) = 37.94420 64.55432 51.24926
# Shear Modulus (GPa) = 24.44487 40.93313 32.68900
#
# Velocity S-wave (km/s) = 3.31528 4.29006 3.83377
# Velocity P-wave (km/s) = 5.63165 7.31880 6.52994
#
# Compressibility (1/GPa) = 0.02635449
#
# Stress axis : x y z
#
# Youngs Moduli (GPa) = 51.77705 224.96809 119.31155
#
# Poissons Ratio (x) = 0.20867 0.00914
# Poissons Ratio (y) = 0.04803 0.22533
# Poissons Ratio (z) = 0.00397 0.42488
#
# Static dielectric constant tensor:
#      x y z
#    x 3.488680 0.000000 0.000000 
#    y 0.000000 6.997930 0.000000 
#    z 0.000000 0.000000 3.941080 
# 
# 
# High freq. dielectric constant tensor:
#      x y z
#    x 1.827020 0.000000 0.000000 
#    y 0.000000 1.923370 0.000000 
#    z 0.000000 0.000000 1.887800 
# 
# From -- ./inp_files/18646.got.cif
#   From: 2010.03.12/outbox.cif.g09.slc.cpg/sg44_10_cif.got.tgz:18646.got - 2010.04.14 02:36:11.
