data_PCOD8189033
_publ_section_title
;
Structure prediction by ZEFSAII (Michael W. Deem and Ramdas Pophale) SiO2 
 PCOD8189033
Probable space group: I M M 2
;
_chemical_formula_sum "Si O2"
_cell_formula_units_Z 64
_cell_length_a 14.830417
_cell_length_b 18.494931
_cell_length_c 11.315509
_cell_angle_alpha 90.000000
_cell_angle_beta 90.000000
_cell_angle_gamma 90.000000
_cell_volume 3103.703117
_symmetry_space_group_name_H-M "I M M 2"
_symmetry_group_IT_number 44
_symmetry_cell_setting 'orthorhombic'
loop_
_space_group_symop_operation_xyz
x,y,z
-x,-y,z
-x,y,z
x,-y,z
1/2+x,1/2+y,1/2+z
1/2-x,1/2-y,1/2+z
1/2-x,1/2+y,1/2+z
1/2+x,1/2-y,1/2+z
loop_
_atom_site_type_symbol
_atom_site_label
_atom_site_fract_x
_atom_site_fract_y
_atom_site_fract_z
Si Si1 0.630806 0.920141 0.483150
Si Si2 0.156510 0.919936 0.488294
Si Si3 0.601814 0.268830 0.081906
Si Si4 0.228670 0.293002 0.394915
Si Si5 0.670402 0.826413 0.280952
Si Si6 0.671830 0.582918 0.721792
Si Si7 0.899929 0.680326 0.187638
Si Si8 0.601977 0.680840 0.534709
O O1 0.737085 0.923862 0.493169
O O2 0.603730 0.869422 0.370753
O O3 0.591882 0.889881 0.605318
O O4 0.590103 0.000000 0.462811
O O5 0.122701 0.854923 0.573268
O O6 0.128765 0.905241 0.352020
O O7 0.118745 0.000000 0.527895
O O8 0.500000 0.256941 0.042518
O O9 0.616364 0.237167 0.213712
O O10 0.661791 0.215484 0.004001
O O11 0.251444 0.211677 0.357705
O O12 0.175196 0.333513 0.288875
O O13 0.322852 0.332634 0.432095
O O14 0.728146 0.882384 0.202085
O O15 0.685534 0.500000 0.692629
O O16 0.602530 0.615293 0.627119
O O17 0.868621 0.746859 0.105192
O O18 0.000000 0.695471 0.241817
O O19 0.500000 0.687275 0.482201
#
# Coordination Sequence:
#
# PCOD8189033 Si02
#       8
#     8   8   8   8   8   8   8   8
#     4  10  20  39  66  91 119 158 208 264 318 362
#     4   9  18  35  58  90 127 162 202 255 316 373
#     4  12  23  35  59  95 128 167 208 248 306 374
#     4  12  20  39  62  86 125 162 201 252 311 368
#     4  11  20  37  62  91 123 161 206 252 306 371
#     4  10  19  35  61  90 122 162 205 255 314 368
#     4  11  22  37  61  92 123 163 211 257 306 367
#     4  11  22  37  60  91 124 161 209 259 309 373
#
# _framework density 20.620529999999999
#
# number of rings (size 3 to 8) (size 9 to 14) (size 15 to 20)
#    0.000    1.250    6.250    2.250    0.000    3.250 
#    0.000    1.875    0.000    1.875    0.000    1.750 
#    0.000    0.000    0.000    0.000    0.000    0.000 
#
# Total GULP energy -396553.599578 kJ/mol
# GULP energy per Si atom -12392.299987 kJ/mol
# Density = 2.057360 g / cm^3
# Si number density = 20.620530 Si / 1000 Ang^3
#
#
#
# Elastic Constant Matrix: (Units=GPa)
#
#
# Indices 1 2 3 4 5 6 
#
# 1 108.8744 27.3631 48.0096 0.0000 0.0000 0.0000
# 2 27.3631 137.3546 60.0049 0.0000 0.0000 0.0000
# 3 48.0096 60.0049 92.7474 0.0000 0.0000 0.0000
# 4 0.0000 0.0000 0.0000 37.9319 0.0000 0.0000
# 5 0.0000 0.0000 0.0000 0.0000 8.6804 0.0000
# 6 0.0000 0.0000 0.0000 0.0000 0.0000 3.7335
#
#
#
# Elastic Compliance Matrix: (Units=1/GPa)
#
#
# Indices 1 2 3 4 5 6 
#
# 1 0.011921 0.000447 -0.006460 0.000000 0.000000 0.000000
# 2 0.000447 0.010166 -0.006808 0.000000 0.000000 0.000000
# 3 -0.006460 -0.006808 0.018531 0.000000 0.000000 0.000000
# 4 0.000000 0.000000 0.000000 0.026363 0.000000 0.000000
# 5 0.000000 0.000000 0.000000 0.000000 0.115202 0.000000
# 6 0.000000 0.000000 0.000000 0.000000 0.000000 0.267847
#
#
# Mechanical properties :
#
#
# Convention : Reuss Voigt Hill
#
# Bulk Modulus (GPa) = 66.77787 67.74796 67.26291
# Shear Modulus (GPa) = 10.40228 23.64242 17.02235
#
# Velocity S-wave (km/s) = 2.24846 3.38974 2.87628
# Velocity P-wave (km/s) = 6.26061 6.94596 6.61217
#
# Compressibility (1/GPa) = 0.01497502
#
# Stress axis : x y z
#
# Youngs Moduli (GPa) = 83.88399 98.37036 53.96369
#
# Poissons Ratio (x) = -0.04401 0.34862
# Poissons Ratio (y) = -0.03753 0.36741
# Poissons Ratio (z) = 0.54192 0.66975
#
# Static dielectric constant tensor:
#      x y z
#    x 3.633130 0.000000 0.000000 
#    y 0.000000 3.874170 0.000000 
#    z 0.000000 0.000000 3.673690 
# 
# 
# High freq. dielectric constant tensor:
#      x y z
#    x 1.803050 0.000000 0.000000 
#    y 0.000000 1.794560 0.000000 
#    z 0.000000 0.000000 1.784760 
# 
# From -- ./inp_files/13438.got.cif
#   From: 2010.03.12/outbox.cif.g09.slc.cpg/sg44_7_cif.got.tgz:13438.got - 2010.04.14 02:36:11.
