data_PCOD8189743
_publ_section_title
;
Structure prediction by ZEFSAII (Michael W. Deem and Ramdas Pophale) SiO2 
 PCOD8189743
Probable space group: I M M 2
;
_chemical_formula_sum "Si O2"
_cell_formula_units_Z 56
_cell_length_a 19.322278
_cell_length_b 15.029883
_cell_length_c 9.750894
_cell_angle_alpha 90.000000
_cell_angle_beta 90.000000
_cell_angle_gamma 90.000000
_cell_volume 2831.772510
_symmetry_space_group_name_H-M "I M M 2"
_symmetry_group_IT_number 44
_symmetry_cell_setting 'orthorhombic'
loop_
_space_group_symop_operation_xyz
x,y,z
-x,-y,z
-x,y,z
x,-y,z
1/2+x,1/2+y,1/2+z
1/2-x,1/2-y,1/2+z
1/2-x,1/2+y,1/2+z
1/2+x,1/2-y,1/2+z
loop_
_atom_site_type_symbol
_atom_site_label
_atom_site_fract_x
_atom_site_fract_y
_atom_site_fract_z
Si Si1 0.804779 0.164075 0.622730
Si Si2 0.421017 0.226995 0.789596
Si Si3 0.647018 0.149316 0.051521
Si Si4 0.162544 0.283651 0.020652
Si Si5 0.421177 0.901536 0.315111
Si Si6 0.711123 0.400051 0.425808
Si Si7 0.922246 0.098241 0.438891
O O1 0.832881 0.263599 0.639627
O O2 0.738507 0.171443 0.521635
O O3 0.781282 0.122207 0.765541
O O4 0.865402 0.104021 0.558667
O O5 0.500000 0.208576 0.748282
O O6 0.373039 0.196930 0.665562
O O7 0.403014 0.171761 0.925062
O O8 0.406984 0.331297 0.819040
O O9 0.606030 0.089300 0.159327
O O10 0.713685 0.098509 0.994800
O O11 0.120839 0.329951 0.900750
O O12 0.164291 0.176803 0.995063
O O13 0.500000 0.868795 0.312661
O O14 0.414769 0.000000 0.381421
O O15 0.679424 0.500000 0.444472
O O16 0.000000 0.115088 0.499384
O O17 0.917451 0.000000 0.373464
#
# Coordination Sequence:
#
# PCOD8189743 Si02
#       7
#     8   8   8   8   8   8   8
#     4  10  20  37  61  84 124 164 198 246 306 355
#     4  10  20  37  62  86 118 162 199 242 305 361
#     4  10  20  39  61  89 116 158 204 252 301 361
#     4  11  23  41  60  90 126 161 201 250 308 363
#     4  11  24  42  64  90 121 161 208 256 307 363
#     4  11  22  37  61  92 124 159 202 253 304 363
#     4   9  19  35  58  89 120 154 202 248 292 359
#
# _framework density 19.775599
#
# number of rings (size 3 to 8) (size 9 to 14) (size 15 to 20)
#    0.000    1.714    2.857    1.714    0.000    2.286 
#    0.000    0.000    0.000    4.714    0.000    0.000 
#    0.000    0.000    0.000    0.000    0.000    0.000 
#
# Total GULP energy -347144.568997 kJ/mol
# GULP energy per Si atom -12398.020321 kJ/mol
# Density = 1.973059 g / cm^3
# Si number density = 19.775599 Si / 1000 Ang^3
#
#
#
# Elastic Constant Matrix: (Units=GPa)
#
#
# Indices 1 2 3 4 5 6 
#
# 1 111.6842 30.4289 45.2742 0.0000 0.0000 0.0000
# 2 30.4289 84.4796 30.7130 0.0000 0.0000 0.0000
# 3 45.2742 30.7130 97.0056 0.0000 0.0000 0.0000
# 4 0.0000 0.0000 0.0000 15.0405 0.0000 0.0000
# 5 0.0000 0.0000 0.0000 0.0000 28.6930 0.0000
# 6 0.0000 0.0000 0.0000 0.0000 0.0000 23.3990
#
#
#
# Elastic Compliance Matrix: (Units=1/GPa)
#
#
# Indices 1 2 3 4 5 6 
#
# 1 0.011483 -0.002472 -0.004576 0.000000 0.000000 0.000000
# 2 -0.002472 0.013909 -0.003250 0.000000 0.000000 0.000000
# 3 -0.004576 -0.003250 0.013474 0.000000 0.000000 0.000000
# 4 0.000000 0.000000 0.000000 0.066487 0.000000 0.000000
# 5 0.000000 0.000000 0.000000 0.000000 0.034852 0.000000
# 6 0.000000 0.000000 0.000000 0.000000 0.000000 0.042737
#
#
# Mechanical properties :
#
#
# Convention : Reuss Voigt Hill
#
# Bulk Modulus (GPa) = 54.73998 56.22240 55.48119
# Shear Modulus (GPa) = 23.85182 25.87670 24.86426
#
# Velocity S-wave (km/s) = 3.47670 3.62127 3.54972
# Velocity P-wave (km/s) = 6.62248 6.78061 6.70201
#
# Compressibility (1/GPa) = 0.01826818
#
# Stress axis : x y z
#
# Youngs Moduli (GPa) = 87.08879 71.89495 74.21944
#
# Poissons Ratio (x) = 0.17773 0.33966
# Poissons Ratio (y) = 0.21530 0.24121
# Poissons Ratio (z) = 0.39855 0.23366
#
# Static dielectric constant tensor:
#      x y z
#    x 3.658850 0.000000 0.000000 
#    y 0.000000 3.624940 0.000000 
#    z 0.000000 0.000000 3.374030 
# 
# 
# High freq. dielectric constant tensor:
#      x y z
#    x 1.774910 0.000000 0.000000 
#    y 0.000000 1.771490 0.000000 
#    z 0.000000 0.000000 1.760120 
# 
# From -- ./inp_files/7392.got.cif
#   From: 2010.03.12/outbox.cif.g09.slc.cpg/sg44_4_cif.got.tgz:7392.got - 2010.04.14 02:36:11.
