data_PCOD8189413
_publ_section_title
;
Structure prediction by ZEFSAII (Michael W. Deem and Ramdas Pophale) SiO2 
 PCOD8189413
Probable space group: I M M 2
;
_chemical_formula_sum "Si O2"
_cell_formula_units_Z 40
_cell_length_a 11.730709
_cell_length_b 8.621037
_cell_length_c 20.344603
_cell_angle_alpha 90.000000
_cell_angle_beta 90.000000
_cell_angle_gamma 90.000000
_cell_volume 2057.467530
_symmetry_space_group_name_H-M "I M M 2"
_symmetry_group_IT_number 44
_symmetry_cell_setting 'orthorhombic'
loop_
_space_group_symop_operation_xyz
x,y,z
-x,-y,z
-x,y,z
x,-y,z
1/2+x,1/2+y,1/2+z
1/2-x,1/2-y,1/2+z
1/2-x,1/2+y,1/2+z
1/2+x,1/2-y,1/2+z
loop_
_atom_site_type_symbol
_atom_site_label
_atom_site_fract_x
_atom_site_fract_y
_atom_site_fract_z
Si Si1 0.628942 0.815401 0.900060
Si Si2 0.628434 0.684113 0.650294
Si Si3 0.781833 0.683904 0.535392
Si Si4 0.238975 0.816179 0.773053
Si Si5 0.000000 0.683908 0.758088
Si Si6 0.500000 0.184579 0.109883
O O1 0.500000 0.751302 0.908238
O O2 0.679609 0.755071 0.831447
O O3 0.626127 0.000000 0.900595
O O4 0.709994 0.754763 0.960149
O O5 0.500000 0.747050 0.660063
O O6 0.633418 0.500000 0.657354
O O7 0.669783 0.735110 0.576772
O O8 0.712821 0.753210 0.704465
O O9 0.788800 0.500000 0.534249
O O10 0.889830 0.752667 0.573950
O O11 0.113876 0.752017 0.790833
O O12 0.235062 0.000000 0.770098
O O13 0.000000 0.744860 0.683767
O O14 0.000000 0.500000 0.764730
O O15 0.500000 0.000000 0.108495
#
# Coordination Sequence:
#
# PCOD8189413 Si02
#       6
#     8   8   8   8   4   4
#     4   9  17  30  50  77 109 141 176 223 273 318
#     4  10  20  34  54  81 109 143 186 227 269 320
#     4   9  15  28  51  79 104 132 178 234 272 305
#     4  11  22  35  53  82 113 142 177 223 280 330
#     4  11  21  37  59  81 105 140 181 222 270 327
#     4   9  14  25  53  81  97 118 169 230 272 305
#
# _framework density 19.441375000000001
#
# number of rings (size 3 to 8) (size 9 to 14) (size 15 to 20)
#    0.000    2.200    3.000    1.500    0.000    1.200 
#    1.800    0.000    0.000    2.400    0.000    0.000 
#    0.000    0.000    0.000    0.000    0.000    0.000 
#
# Total GULP energy -247871.926440 kJ/mol
# GULP energy per Si atom -12393.596322 kJ/mol
# Density = 1.939713 g / cm^3
# Si number density = 19.441375 Si / 1000 Ang^3
#
#
#
# Elastic Constant Matrix: (Units=GPa)
#
#
# Indices 1 2 3 4 5 6 
#
# 1 134.8123 22.1266 51.2770 0.0000 0.0000 0.0000
# 2 22.1266 28.8229 18.1558 0.0000 0.0000 0.0000
# 3 51.2770 18.1558 130.0393 0.0000 0.0000 0.0000
# 4 0.0000 0.0000 0.0000 18.1500 0.0000 0.0000
# 5 0.0000 0.0000 0.0000 0.0000 36.3246 0.0000
# 6 0.0000 0.0000 0.0000 0.0000 0.0000 21.7332
#
#
#
# Elastic Compliance Matrix: (Units=1/GPa)
#
#
# Indices 1 2 3 4 5 6 
#
# 1 0.009428 -0.005368 -0.002968 0.000000 0.000000 0.000000
# 2 -0.005368 0.041096 -0.003621 0.000000 0.000000 0.000000
# 3 -0.002968 -0.003621 0.009366 0.000000 0.000000 0.000000
# 4 0.000000 0.000000 0.000000 0.055096 0.000000 0.000000
# 5 0.000000 0.000000 0.000000 0.000000 0.027530 0.000000
# 6 0.000000 0.000000 0.000000 0.000000 0.000000 0.046013
#
#
# Mechanical properties :
#
#
# Convention : Reuss Voigt Hill
#
# Bulk Modulus (GPa) = 27.79637 52.97701 40.38669
# Shear Modulus (GPa) = 22.27823 28.71590 25.49706
#
# Velocity S-wave (km/s) = 3.38881 3.84741 3.62537
# Velocity P-wave (km/s) = 5.44432 6.85898 6.19218
#
# Compressibility (1/GPa) = 0.03597592
#
# Stress axis : x y z
#
# Youngs Moduli (GPa) = 106.07089 24.33310 106.77006
#
# Poissons Ratio (x) = 0.13061 0.31690
# Poissons Ratio (y) = 0.56936 0.38663
# Poissons Ratio (z) = 0.31483 0.08811
#
# Static dielectric constant tensor:
#      x y z
#    x 3.800490 0.000000 0.000000 
#    y 0.000000 3.020140 0.000000 
#    z 0.000000 0.000000 3.837970 
# 
# 
# High freq. dielectric constant tensor:
#      x y z
#    x 1.762470 0.000000 0.000000 
#    y 0.000000 1.703650 0.000000 
#    z 0.000000 0.000000 1.763160 
# 
# From -- ./inp_files/22776.got.cif
#   From: 2010.03.12/outbox.cif.g09.slc.cpg/sg44_12_cif.got.tgz:22776.got - 2010.04.14 02:36:11.
