data_PCOD8189972
_publ_section_title
;
Structure prediction by ZEFSAII (Michael W. Deem and Ramdas Pophale) SiO2 
 PCOD8189972
Probable space group: I M M 2
;
_chemical_formula_sum "Si O2"
_cell_formula_units_Z 64
_cell_length_a 29.578998
_cell_length_b 8.710510
_cell_length_c 12.852579
_cell_angle_alpha 90.000000
_cell_angle_beta 90.000000
_cell_angle_gamma 90.000000
_cell_volume 3311.443303
_symmetry_space_group_name_H-M "I M M 2"
_symmetry_group_IT_number 44
_symmetry_cell_setting 'orthorhombic'
loop_
_space_group_symop_operation_xyz
x,y,z
-x,-y,z
-x,y,z
x,-y,z
1/2+x,1/2+y,1/2+z
1/2-x,1/2-y,1/2+z
1/2-x,1/2+y,1/2+z
1/2+x,1/2-y,1/2+z
loop_
_atom_site_type_symbol
_atom_site_label
_atom_site_fract_x
_atom_site_fract_y
_atom_site_fract_z
Si Si1 0.619074 0.318802 0.655990
Si Si2 0.448451 0.318145 0.482846
Si Si3 0.355566 0.317250 0.878477
Si Si4 0.247207 0.822318 0.389149
Si Si5 0.282550 0.323086 0.584013
Si Si6 0.380677 0.681401 0.105418
Si Si7 0.787993 0.822617 0.713772
Si Si8 0.947944 0.679961 0.766191
O O1 0.614231 0.500000 0.662530
O O2 0.579522 0.251763 0.581868
O O3 0.617318 0.256146 0.775788
O O4 0.666143 0.273240 0.603164
O O5 0.500000 0.264962 0.499550
O O6 0.443751 0.500000 0.476704
O O7 0.429300 0.252518 0.373890
O O8 0.354605 0.500000 0.881291
O O9 0.303873 0.260605 0.871078
O O10 0.379288 0.259225 0.985448
O O11 0.258025 0.798269 0.509660
O O12 0.286143 0.713299 0.336825
O O13 0.252441 0.000000 0.359447
O O14 0.279117 0.500000 0.548540
O O15 0.253363 0.293841 0.687276
O O16 0.387333 0.500000 0.111183
O O17 0.334507 0.731324 0.162156
O O18 0.421918 0.759232 0.165259
O O19 0.778491 0.000000 0.688414
O O20 0.941295 0.500000 0.774450
O O21 0.000000 0.727339 0.750870
#
# Coordination Sequence:
#
# PCOD8189972 Si02
#       8
#     8   8   8   8   8   8   8   8
#     4   9  18  33  55  81 111 144 180 225 277 328
#     4   9  18  35  60  86 110 140 180 226 277 332
#     4   9  17  34  55  77 109 148 182 222 275 324
#     4  11  21  36  53  74 110 153 191 234 281 328
#     4  11  21  34  53  78 110 151 190 230 280 332
#     4  10  21  37  58  81 110 147 186 228 275 331
#     4  11  22  36  53  79 112 148 192 236 277 330
#     4  10  22  40  60  83 112 142 176 226 282 333
#
# _framework density 19.326920000000001
#
# number of rings (size 3 to 8) (size 9 to 14) (size 15 to 20)
#    0.000    2.000    2.500    1.500    1.750    1.750 
#    0.000    1.250    0.000    2.250    0.000    1.750 
#    0.000    0.000    0.000    0.000    0.000    0.000 
#
# Total GULP energy -396608.231005 kJ/mol
# GULP energy per Si atom -12394.007219 kJ/mol
# Density = 1.928293 g / cm^3
# Si number density = 19.326920 Si / 1000 Ang^3
#
#
#
# Elastic Constant Matrix: (Units=GPa)
#
#
# Indices 1 2 3 4 5 6 
#
# 1 95.3989 29.9579 67.2086 0.0000 0.0000 0.0000
# 2 29.9579 35.4550 28.3740 0.0000 0.0000 0.0000
# 3 67.2086 28.3740 142.7779 0.0000 0.0000 0.0000
# 4 0.0000 0.0000 0.0000 26.6129 0.0000 0.0000
# 5 0.0000 0.0000 0.0000 0.0000 38.4320 0.0000
# 6 0.0000 0.0000 0.0000 0.0000 0.0000 24.2268
#
#
#
# Elastic Compliance Matrix: (Units=1/GPa)
#
#
# Indices 1 2 3 4 5 6 
#
# 1 0.018342 -0.010213 -0.006605 0.000000 0.000000 0.000000
# 2 -0.010213 0.039225 -0.002988 0.000000 0.000000 0.000000
# 3 -0.006605 -0.002988 0.010707 0.000000 0.000000 0.000000
# 4 0.000000 0.000000 0.000000 0.037576 0.000000 0.000000
# 5 0.000000 0.000000 0.000000 0.000000 0.026020 0.000000
# 6 0.000000 0.000000 0.000000 0.000000 0.000000 0.041277
#
#
# Mechanical properties :
#
#
# Convention : Reuss Voigt Hill
#
# Bulk Modulus (GPa) = 34.88731 58.30141 46.59436
# Shear Modulus (GPa) = 22.49099 27.72711 25.10905
#
# Velocity S-wave (km/s) = 3.41502 3.79177 3.60832
# Velocity P-wave (km/s) = 5.80002 7.02861 6.44366
#
# Compressibility (1/GPa) = 0.02866372
#
# Stress axis : x y z
#
# Youngs Moduli (GPa) = 54.51867 25.49380 93.40109
#
# Poissons Ratio (x) = 0.26037 0.61687
# Poissons Ratio (y) = 0.55680 0.27905
# Poissons Ratio (z) = 0.36007 0.07617
#
# Static dielectric constant tensor:
#      x y z
#    x 3.497270 0.000000 0.000000 
#    y 0.000000 3.123570 0.000000 
#    z 0.000000 0.000000 3.902760 
# 
# 
# High freq. dielectric constant tensor:
#      x y z
#    x 1.734150 0.000000 0.000000 
#    y 0.000000 1.724180 0.000000 
#    z 0.000000 0.000000 1.774100 
# 
# From -- ./inp_files/15029.got.cif
#   From: 2010.03.12/outbox.cif.g09.slc.cpg/sg44_8_cif.got.tgz:15029.got - 2010.04.14 02:36:11.
