data_PCOD8189833
_publ_section_title
;
Structure prediction by ZEFSAII (Michael W. Deem and Ramdas Pophale) SiO2 
 PCOD8189833
Probable space group: I M M 2
;
_chemical_formula_sum "Si O2"
_cell_formula_units_Z 64
_cell_length_a 9.442221
_cell_length_b 14.589555
_cell_length_c 27.658444
_cell_angle_alpha 90.000000
_cell_angle_beta 90.000000
_cell_angle_gamma 90.000000
_cell_volume 3810.166469
_symmetry_space_group_name_H-M "I M M 2"
_symmetry_group_IT_number 44
_symmetry_cell_setting 'orthorhombic'
loop_
_space_group_symop_operation_xyz
x,y,z
-x,-y,z
-x,y,z
x,-y,z
1/2+x,1/2+y,1/2+z
1/2-x,1/2-y,1/2+z
1/2-x,1/2+y,1/2+z
1/2+x,1/2-y,1/2+z
loop_
_atom_site_type_symbol
_atom_site_label
_atom_site_fract_x
_atom_site_fract_y
_atom_site_fract_z
Si Si1 0.162794 0.605208 0.450590
Si Si2 0.833989 0.707688 0.546736
Si Si3 0.662988 0.400940 0.084515
Si Si4 0.155836 0.150837 0.132327
Si Si5 0.667658 0.210219 0.773329
Si Si6 0.332531 0.400883 0.734069
Si Si7 0.665766 0.393923 0.355306
Si Si8 0.154005 0.645645 0.169690
O O1 0.182810 0.500000 0.467111
O O2 0.208796 0.672347 0.493922
O O3 0.265611 0.629917 0.406715
O O4 0.000000 0.622862 0.435116
O O5 0.784846 0.814861 0.551906
O O6 0.757585 0.643074 0.586049
O O7 0.000000 0.696145 0.555384
O O8 0.500000 0.385466 0.096336
O O9 0.688056 0.500000 0.057998
O O10 0.736809 0.409474 0.136789
O O11 0.224950 0.099423 0.178653
O O12 0.139055 0.254649 0.147889
O O13 0.000000 0.111224 0.118637
O O14 0.500000 0.205910 0.784994
O O15 0.721753 0.315789 0.766310
O O16 0.757898 0.169047 0.816376
O O17 0.704317 0.151725 0.725363
O O18 0.500000 0.388202 0.729343
O O19 0.291772 0.500000 0.757524
O O20 0.500000 0.370419 0.357234
O O21 0.692049 0.500000 0.342148
O O22 0.000000 0.597213 0.167663
#
# Coordination Sequence:
#
# PCOD8189833 Si02
#       8
#     8   8   8   8   8   8   8   8
#     4   9  18  33  51  68  86 110 142 181 226 275
#     4   9  17  29  45  65  89 116 146 182 222 263
#     4   9  17  28  42  62  90 122 151 179 214 256
#     4   8  14  25  41  62  89 120 151 181 212 248
#     4   9  17  30  49  70  92 121 155 189 226 268
#     4   8  14  26  45  69  96 125 157 189 218 256
#     4  10  21  35  50  69  91 114 144 186 235 282
#     4   8  15  27  41  60  87 118 152 184 211 246
#
# _framework density 16.797167000000002
#
# number of rings (size 3 to 8) (size 9 to 14) (size 15 to 20)
#    0.000    3.250    0.000    1.875    0.000    3.000 
#    0.000    4.375    0.000    1.875    0.000    3.500 
#    0.000    0.000    0.000    0.000    0.000    0.000 
#
# Total GULP energy -396466.839917 kJ/mol
# GULP energy per Si atom -12389.588747 kJ/mol
# Density = 1.675894 g / cm^3
# Si number density = 16.797167 Si / 1000 Ang^3
#
#
#
# Elastic Constant Matrix: (Units=GPa)
#
#
# Indices 1 2 3 4 5 6 
#
# 1 60.2282 38.2923 55.7206 0.0000 0.0000 0.0000
# 2 38.2923 98.3323 63.7124 0.0000 0.0000 0.0000
# 3 55.7206 63.7124 117.6088 0.0000 0.0000 0.0000
# 4 0.0000 0.0000 0.0000 22.4525 0.0000 0.0000
# 5 0.0000 0.0000 0.0000 0.0000 27.7824 0.0000
# 6 0.0000 0.0000 0.0000 0.0000 0.0000 14.3814
#
#
#
# Elastic Compliance Matrix: (Units=1/GPa)
#
#
# Indices 1 2 3 4 5 6 
#
# 1 0.030489 -0.003873 -0.012347 0.000000 0.000000 0.000000
# 2 -0.003873 0.016162 -0.006920 0.000000 0.000000 0.000000
# 3 -0.012347 -0.006920 0.018101 0.000000 0.000000 0.000000
# 4 0.000000 0.000000 0.000000 0.044539 0.000000 0.000000
# 5 0.000000 0.000000 0.000000 0.000000 0.035994 0.000000
# 6 0.000000 0.000000 0.000000 0.000000 0.000000 0.069534
#
#
# Mechanical properties :
#
#
# Convention : Reuss Voigt Hill
#
# Bulk Modulus (GPa) = 54.13745 65.73555 59.93650
# Shear Modulus (GPa) = 18.70864 20.81951 19.76407
#
# Velocity S-wave (km/s) = 3.34098 3.52442 3.43393
# Velocity P-wave (km/s) = 6.86898 7.46873 7.17513
#
# Compressibility (1/GPa) = 0.01847150
#
# Stress axis : x y z
#
# Youngs Moduli (GPa) = 32.79912 61.87459 55.24433
#
# Poissons Ratio (x) = 0.23964 0.68209
# Poissons Ratio (y) = 0.12703 0.38231
# Poissons Ratio (z) = 0.40496 0.42820
#
# Static dielectric constant tensor:
#      x y z
#    x 3.246270 0.000000 0.000000 
#    y 0.000000 3.341580 0.000000 
#    z 0.000000 0.000000 3.044260 
# 
# 
# High freq. dielectric constant tensor:
#      x y z
#    x 1.632020 0.000000 0.000000 
#    y 0.000000 1.647260 0.000000 
#    z 0.000000 0.000000 1.623640 
# 
# From -- ./inp_files/27353.got.cif
#   From: 2010.03.12/outbox.cif.g09.slc.cpg/sg44_14_cif.got.tgz:27353.got - 2010.04.14 02:36:11.
