data_PCOD8189181
_publ_section_title
;
Structure prediction by ZEFSAII (Michael W. Deem and Ramdas Pophale) SiO2 
 PCOD8189181
Probable space group: I M M 2
;
_chemical_formula_sum "Si O2"
_cell_formula_units_Z 56
_cell_length_a 16.742162
_cell_length_b 8.773382
_cell_length_c 19.800310
_cell_angle_alpha 90.000000
_cell_angle_beta 90.000000
_cell_angle_gamma 90.000000
_cell_volume 2908.376113
_symmetry_space_group_name_H-M "I M M 2"
_symmetry_group_IT_number 44
_symmetry_cell_setting 'orthorhombic'
loop_
_space_group_symop_operation_xyz
x,y,z
-x,-y,z
-x,y,z
x,-y,z
1/2+x,1/2+y,1/2+z
1/2-x,1/2-y,1/2+z
1/2-x,1/2+y,1/2+z
1/2+x,1/2-y,1/2+z
loop_
_atom_site_type_symbol
_atom_site_label
_atom_site_fract_x
_atom_site_fract_y
_atom_site_fract_z
Si Si1 0.254700 0.322685 0.699420
Si Si2 0.221796 0.674680 0.429549
Si Si3 0.912250 0.171491 0.350678
Si Si4 0.000000 0.680658 0.760640
Si Si5 0.340678 0.322374 0.316561
Si Si6 0.843487 0.324429 0.570095
Si Si7 0.000000 0.821624 0.610772
Si Si8 0.411934 0.823574 0.710905
O O1 0.249778 0.500000 0.716260
O O2 0.229311 0.229047 0.765669
O O3 0.196874 0.275284 0.639566
O O4 0.343840 0.277121 0.675301
O O5 0.199266 0.500000 0.412950
O O6 0.152304 0.786075 0.405845
O O7 0.306524 0.711930 0.392524
O O8 0.221505 0.703496 0.510279
O O9 0.907321 0.290922 0.290220
O O10 0.000000 0.179997 0.384417
O O11 0.895402 0.000000 0.323532
O O12 0.077916 0.731710 0.802676
O O13 0.000000 0.500000 0.755665
O O14 0.000000 0.743075 0.684530
O O15 0.358950 0.500000 0.306476
O O16 0.869770 0.500000 0.571131
O O17 0.923599 0.224669 0.565634
O O18 0.000000 0.000000 0.623753
O O19 0.500000 0.778593 0.682872
O O20 0.394415 0.000000 0.697866
#
# Coordination Sequence:
#
# PCOD8189181 Si02
#       8
#     8   8   8   4   8   8   4   8
#     4  11  21  35  59  86 116 151 191 244 298 354
#     4  10  22  39  59  82 113 157 198 235 289 358
#     4  10  20  32  49  78 114 146 181 227 274 326
#     4  12  24  40  64  92 122 157 200 255 312 365
#     4  11  22  38  62  91 119 152 199 250 300 359
#     4  10  23  41  59  83 119 160 198 241 300 371
#     4  12  24  38  60  92 126 163 204 251 306 365
#     4  10  20  34  54  80 110 146 189 235 285 343
#
# _framework density 19.254731
#
# number of rings (size 3 to 8) (size 9 to 14) (size 15 to 20)
#    0.000    1.429    2.857    3.000    1.000    3.429 
#    0.000    0.000    1.571    0.000    0.000    0.000 
#    0.000    0.000    0.000    0.000    0.000    0.000 
#
# Total GULP energy -347110.276812 kJ/mol
# GULP energy per Si atom -12396.795600 kJ/mol
# Density = 1.921091 g / cm^3
# Si number density = 19.254731 Si / 1000 Ang^3
#
#
#
# Elastic Constant Matrix: (Units=GPa)
#
#
# Indices 1 2 3 4 5 6 
#
# 1 119.1937 43.8900 36.0405 0.0000 0.0000 0.0000
# 2 43.8900 81.8257 33.4304 0.0000 0.0000 0.0000
# 3 36.0405 33.4304 77.6508 0.0000 0.0000 0.0000
# 4 0.0000 0.0000 0.0000 21.0446 0.0000 0.0000
# 5 0.0000 0.0000 0.0000 0.0000 29.1176 0.0000
# 6 0.0000 0.0000 0.0000 0.0000 0.0000 35.9154
#
#
#
# Elastic Compliance Matrix: (Units=1/GPa)
#
#
# Indices 1 2 3 4 5 6 
#
# 1 0.011046 -0.004648 -0.003126 0.000000 0.000000 0.000000
# 2 -0.004648 0.016785 -0.005069 0.000000 0.000000 0.000000
# 3 -0.003126 -0.005069 0.016511 0.000000 0.000000 0.000000
# 4 0.000000 0.000000 0.000000 0.047518 0.000000 0.000000
# 5 0.000000 0.000000 0.000000 0.000000 0.034343 0.000000
# 6 0.000000 0.000000 0.000000 0.000000 0.000000 0.027843
#
#
# Mechanical properties :
#
#
# Convention : Reuss Voigt Hill
#
# Bulk Modulus (GPa) = 53.59948 56.15466 54.87707
# Shear Modulus (GPa) = 26.88853 28.23615 27.56234
#
# Velocity S-wave (km/s) = 3.74098 3.83358 3.78757
# Velocity P-wave (km/s) = 6.82330 6.98731 6.90579
#
# Compressibility (1/GPa) = 0.01865690
#
# Stress axis : x y z
#
# Youngs Moduli (GPa) = 90.52723 59.57629 60.56427
#
# Poissons Ratio (x) = 0.27691 0.18932
# Poissons Ratio (y) = 0.42077 0.30701
# Poissons Ratio (z) = 0.28298 0.30200
#
# Static dielectric constant tensor:
#      x y z
#    x 3.755030 0.000000 0.000000 
#    y 0.000000 3.523180 0.000000 
#    z 0.000000 0.000000 3.345810 
# 
# 
# High freq. dielectric constant tensor:
#      x y z
#    x 1.755700 0.000000 0.000000 
#    y 0.000000 1.756960 0.000000 
#    z 0.000000 0.000000 1.719450 
# 
# From -- ./inp_files/24155.got.cif
#   From: 2010.03.12/outbox.cif.g09.slc.cpg/sg44_13_cif.got.tgz:24155.got - 2010.04.14 02:36:11.
