data_PCOD8189788
_publ_section_title
;
Structure prediction by ZEFSAII (Michael W. Deem and Ramdas Pophale) SiO2 
 PCOD8189788
Probable space group: I M M 2
;
_chemical_formula_sum "Si O2"
_cell_formula_units_Z 48
_cell_length_a 8.996433
_cell_length_b 18.247651
_cell_length_c 14.895349
_cell_angle_alpha 90.000000
_cell_angle_beta 90.000000
_cell_angle_gamma 90.000000
_cell_volume 2445.276642
_symmetry_space_group_name_H-M "I M M 2"
_symmetry_group_IT_number 44
_symmetry_cell_setting 'orthorhombic'
loop_
_space_group_symop_operation_xyz
x,y,z
-x,-y,z
-x,y,z
x,-y,z
1/2+x,1/2+y,1/2+z
1/2-x,1/2-y,1/2+z
1/2-x,1/2+y,1/2+z
1/2+x,1/2-y,1/2+z
loop_
_atom_site_type_symbol
_atom_site_label
_atom_site_fract_x
_atom_site_fract_y
_atom_site_fract_z
Si Si1 0.674993 0.111226 0.307320
Si Si2 0.171734 0.254526 0.264618
Si Si3 0.330855 0.500000 0.475711
Si Si4 0.170598 0.351290 0.430964
Si Si5 0.331517 0.579283 0.981558
Si Si6 0.670270 0.500000 0.686899
Si Si7 0.174935 0.228040 0.574881
O O1 0.500000 0.108931 0.294812
O O2 0.734296 0.193082 0.315150
O O3 0.722581 0.070279 0.397375
O O4 0.748037 0.072616 0.221387
O O5 0.190983 0.325351 0.327941
O O6 0.233706 0.263933 0.165427
O O7 0.000000 0.231120 0.258587
O O8 0.500000 0.500000 0.443834
O O9 0.258948 0.426457 0.437619
O O10 0.315124 0.500000 0.581448
O O11 0.225818 0.288907 0.501782
O O12 0.000000 0.368138 0.452361
O O13 0.500000 0.594227 0.947724
O O14 0.323149 0.500000 0.032552
O O15 0.280958 0.646456 0.043139
O O16 0.500000 0.500000 0.719462
O O17 0.000000 0.234739 0.594892
#
# Coordination Sequence:
#
# PCOD8189788 Si02
#       7
#     8   8   4   8   8   4   8
#     4  12  23  35  58  92 124 157 200 252 303 364
#     4  11  23  41  63  89 120 164 207 251 308 366
#     4  11  25  41  61  90 119 154 205 259 308 358
#     4  10  22  42  65  86 122 166 203 247 306 368
#     4  10  20  38  63  88 124 166 198 242 307 368
#     4  11  23  39  59  88 125 162 197 249 316 374
#     4  10  21  40  64  93 123 160 208 253 303 366
#
# _framework density 19.629681000000001
#
# number of rings (size 3 to 8) (size 9 to 14) (size 15 to 20)
#    0.000    1.333    2.500    3.500    0.000    6.667 
#    1.500    0.000    0.000    0.000    0.000    0.000 
#    0.000    0.000    0.000    0.000    0.000    0.000 
#
# Total GULP energy -297587.031762 kJ/mol
# GULP energy per Si atom -12399.459657 kJ/mol
# Density = 1.958500 g / cm^3
# Si number density = 19.629681 Si / 1000 Ang^3
#
#
#
# Elastic Constant Matrix: (Units=GPa)
#
#
# Indices 1 2 3 4 5 6 
#
# 1 115.4846 52.8116 42.7498 -0.0001 0.0000 0.0000
# 2 52.8116 142.1875 36.4255 0.0001 0.0000 0.0000
# 3 42.7498 36.4255 87.9980 0.0002 -0.0001 0.0000
# 4 -0.0001 0.0001 0.0002 29.0710 -0.0001 0.0000
# 5 0.0000 0.0000 -0.0001 -0.0001 32.2677 0.0000
# 6 0.0000 0.0000 0.0000 0.0000 0.0000 18.8003
#
#
#
# Elastic Compliance Matrix: (Units=1/GPa)
#
#
# Indices 1 2 3 4 5 6 
#
# 1 0.011763 -0.003250 -0.004369 0.000000 0.000000 0.000000
# 2 -0.003250 0.008765 -0.002049 0.000000 0.000000 0.000000
# 3 -0.004369 -0.002049 0.014335 0.000000 0.000000 0.000000
# 4 0.000000 0.000000 0.000000 0.034399 0.000000 0.000000
# 5 0.000000 0.000000 0.000000 0.000000 0.030991 0.000000
# 6 0.000000 0.000000 0.000000 0.000000 0.000000 0.053191
#
#
# Mechanical properties :
#
#
# Convention : Reuss Voigt Hill
#
# Bulk Modulus (GPa) = 64.40864 67.73822 66.07343
# Shear Modulus (GPa) = 28.09714 30.27335 29.18525
#
# Velocity S-wave (km/s) = 3.78744 3.93138 3.86008
# Velocity P-wave (km/s) = 7.21175 7.42904 7.32120
#
# Compressibility (1/GPa) = 0.01552587
#
# Stress axis : x y z
#
# Youngs Moduli (GPa) = 85.01531 114.09051 69.76026
#
# Poissons Ratio (x) = 0.37075 0.30480
# Poissons Ratio (y) = 0.27627 0.14297
# Poissons Ratio (z) = 0.37145 0.23382
#
# Static dielectric constant tensor:
#      x y z
#    x 3.588910 0.000000 0.000000 
#    y 0.000000 3.837930 0.000000 
#    z 0.000000 0.000000 3.453240 
# 
# 
# High freq. dielectric constant tensor:
#      x y z
#    x 1.765180 0.000000 0.000000 
#    y 0.000000 1.779260 0.000000 
#    z 0.000000 0.000000 1.753700 
# 
# From -- ./inp_files/16106.got.cif
#   From: 2010.03.12/outbox.cif.g09.slc.cpg/sg44_9_cif.got.tgz:16106.got - 2010.04.14 02:36:11.
