data_PCOD8189043
_publ_section_title
;
Structure prediction by ZEFSAII (Michael W. Deem and Ramdas Pophale) SiO2 
 PCOD8189043
Probable space group: I M M 2
;
_chemical_formula_sum "Si O2"
_cell_formula_units_Z 56
_cell_length_a 14.048222
_cell_length_b 14.469657
_cell_length_c 12.164187
_cell_angle_alpha 90.000000
_cell_angle_beta 90.000000
_cell_angle_gamma 90.000000
_cell_volume 2472.650222
_symmetry_space_group_name_H-M "I M M 2"
_symmetry_group_IT_number 44
_symmetry_cell_setting 'orthorhombic'
loop_
_space_group_symop_operation_xyz
x,y,z
-x,-y,z
-x,y,z
x,-y,z
1/2+x,1/2+y,1/2+z
1/2-x,1/2-y,1/2+z
1/2-x,1/2+y,1/2+z
1/2+x,1/2-y,1/2+z
loop_
_atom_site_type_symbol
_atom_site_label
_atom_site_fract_x
_atom_site_fract_y
_atom_site_fract_z
Si Si1 0.898742 0.608118 0.421880
Si Si2 0.692832 0.398590 0.404197
Si Si3 0.267171 0.895488 0.518987
Si Si4 0.113332 0.773776 0.097149
Si Si5 0.395979 0.150248 0.168337
Si Si6 0.106933 0.859098 0.684627
Si Si7 0.287061 0.602556 0.775235
O O1 0.905311 0.500000 0.444486
O O2 0.799534 0.633534 0.361332
O O3 0.892143 0.659211 0.537766
O O4 0.000000 0.639102 0.362900
O O5 0.701638 0.500000 0.459682
O O6 0.647391 0.332891 0.493973
O O7 0.626522 0.409517 0.299146
O O8 0.343491 0.828627 0.578811
O O9 0.171857 0.899246 0.589517
O O10 0.236157 0.860204 0.397754
O O11 0.309900 0.000000 0.512672
O O12 0.148560 0.822536 0.210227
O O13 0.000000 0.766135 0.100296
O O14 0.500000 0.114299 0.207657
O O15 0.374874 0.252339 0.212348
O O16 0.313677 0.085695 0.214455
O O17 0.000000 0.878858 0.646033
O O18 0.335745 0.500000 0.779256
#
# Coordination Sequence:
#
# PCOD8189043 Si02
#       7
#     8   8   8   8   8   8   8
#     4   9  17  32  58  92 127 164 209 264 328 393
#     4  11  22  38  65 100 138 174 219 282 346 410
#     4  11  26  47  71  98 137 186 236 290 349 421
#     4  12  26  45  70 101 140 183 233 293 359 423
#     4  10  19  35  63  95 128 168 215 270 332 403
#     4  11  23  41  66  96 131 177 229 278 335 411
#     4  11  23  42  70 104 141 181 228 290 356 419
#
# _framework density 22.647765
#
# number of rings (size 3 to 8) (size 9 to 14) (size 15 to 20)
#    0.000    1.286    2.857    2.571    0.000    6.286 
#    0.000    3.571    0.000    1.714    0.000    0.000 
#    0.000    0.000    0.000    0.000    0.000    0.000 
#
# Total GULP energy -346986.178894 kJ/mol
# GULP energy per Si atom -12392.363532 kJ/mol
# Density = 2.259622 g / cm^3
# Si number density = 22.647765 Si / 1000 Ang^3
#
#
#
# Elastic Constant Matrix: (Units=GPa)
#
#
# Indices 1 2 3 4 5 6 
#
# 1 138.7187 54.1622 22.9510 0.0000 0.0000 0.0000
# 2 54.1622 100.5522 34.1239 0.0000 0.0000 0.0000
# 3 22.9510 34.1239 57.7040 0.0000 0.0000 0.0000
# 4 0.0000 0.0000 0.0000 36.0096 0.0000 0.0000
# 5 0.0000 0.0000 0.0000 0.0000 23.8797 0.0000
# 6 0.0000 0.0000 0.0000 0.0000 0.0000 23.1020
#
#
#
# Elastic Compliance Matrix: (Units=1/GPa)
#
#
# Indices 1 2 3 4 5 6 
#
# 1 0.009167 -0.004629 -0.000908 0.000000 0.000000 0.000000
# 2 -0.004629 0.014780 -0.006899 0.000000 0.000000 0.000000
# 3 -0.000908 -0.006899 0.021771 0.000000 0.000000 0.000000
# 4 0.000000 0.000000 0.000000 0.027770 0.000000 0.000000
# 5 0.000000 0.000000 0.000000 0.000000 0.041877 0.000000
# 6 0.000000 0.000000 0.000000 0.000000 0.000000 0.043286
#
#
# Mechanical properties :
#
#
# Convention : Reuss Voigt Hill
#
# Bulk Modulus (GPa) = 47.97506 57.71655 52.84580
# Shear Modulus (GPa) = 26.25057 28.98078 27.61567
#
# Velocity S-wave (km/s) = 3.40822 3.58107 3.49572
# Velocity P-wave (km/s) = 6.05946 6.52982 6.29903
#
# Compressibility (1/GPa) = 0.02084416
#
# Stress axis : x y z
#
# Youngs Moduli (GPa) = 109.09150 67.65918 45.93286
#
# Poissons Ratio (x) = 0.31322 0.04172
# Poissons Ratio (y) = 0.50502 0.31689
# Poissons Ratio (z) = 0.09909 0.46678
#
# Static dielectric constant tensor:
#      x y z
#    x 4.357840 0.000000 0.000000 
#    y 0.000000 4.015600 0.000000 
#    z 0.000000 0.000000 3.877600 
# 
# 
# High freq. dielectric constant tensor:
#      x y z
#    x 1.897240 0.000000 0.000000 
#    y 0.000000 1.901980 0.000000 
#    z 0.000000 0.000000 1.875980 
# 
# From -- ./inp_files/13233.got.cif
#   From: 2010.03.12/outbox.cif.g09.slc.cpg/sg44_7_cif.got.tgz:13233.got - 2010.04.14 02:36:11.
