data_PCOD8189592
_publ_section_title
;
Structure prediction by ZEFSAII (Michael W. Deem and Ramdas Pophale) SiO2 
 PCOD8189592
Probable space group: I M M 2
;
_chemical_formula_sum "Si O2"
_cell_formula_units_Z 64
_cell_length_a 8.597992
_cell_length_b 30.684246
_cell_length_c 11.996828
_cell_angle_alpha 90.000000
_cell_angle_beta 90.000000
_cell_angle_gamma 90.000000
_cell_volume 3165.037973
_symmetry_space_group_name_H-M "I M M 2"
_symmetry_group_IT_number 44
_symmetry_cell_setting 'orthorhombic'
loop_
_space_group_symop_operation_xyz
x,y,z
-x,-y,z
-x,y,z
x,-y,z
1/2+x,1/2+y,1/2+z
1/2-x,1/2-y,1/2+z
1/2-x,1/2+y,1/2+z
1/2+x,1/2-y,1/2+z
loop_
_atom_site_type_symbol
_atom_site_label
_atom_site_fract_x
_atom_site_fract_y
_atom_site_fract_z
Si Si1 0.814776 0.127032 0.855700
Si Si2 0.819420 0.206349 0.007731
Si Si3 0.817100 0.951867 0.003009
Si Si4 0.322962 0.926018 0.232325
Si Si5 0.317783 0.296003 0.949783
Si Si6 0.823018 0.325028 0.727319
Si Si7 0.182551 0.126579 0.605864
Si Si8 0.679263 0.048932 0.473796
O O1 0.745810 0.127640 0.730549
O O2 0.000000 0.123915 0.856703
O O3 0.761708 0.171467 0.915970
O O4 0.744251 0.085084 0.921768
O O5 0.794552 0.185604 0.128376
O O6 0.000000 0.218155 0.991419
O O7 0.713680 0.249067 0.002329
O O8 0.783124 0.941288 0.131271
O O9 0.000000 0.951982 0.987489
O O10 0.750329 0.000000 0.972317
O O11 0.500000 0.938445 0.202657
O O12 0.304029 0.875254 0.257210
O O13 0.266747 0.949705 0.344988
O O14 0.500000 0.302870 0.927929
O O15 0.224815 0.297344 0.834626
O O16 0.251677 0.333161 0.033354
O O17 0.000000 0.313270 0.693975
O O18 0.219681 0.080579 0.549742
O O19 0.000000 0.131934 0.616485
O O20 0.500000 0.063671 0.481433
O O21 0.703784 0.000000 0.518922
#
# Coordination Sequence:
#
# PCOD8189592 Si02
#       8
#     8   8   8   8   8   8   8   8
#     4   9  20  39  59  83 116 155 195 239 292 347
#     4  11  23  40  64  90 121 159 198 246 303 356
#     4  10  20  35  58  86 116 152 196 244 292 350
#     4  10  20  36  59  85 118 155 192 240 295 351
#     4  11  24  40  61  91 123 155 200 251 300 357
#     4  11  22  39  64  90 120 158 201 245 297 356
#     4  10  22  40  61  84 115 155 197 245 292 347
#     4  10  21  38  59  85 118 154 193 241 297 354
#
# _framework density 20.220928000000001
#
# number of rings (size 3 to 8) (size 9 to 14) (size 15 to 20)
#    0.000    1.750    2.500    1.500    1.750    3.000 
#    0.000    3.125    0.000    0.000    0.000    0.000 
#    0.000    0.000    0.000    0.000    0.000    0.000 
#
# Total GULP energy -396885.353810 kJ/mol
# GULP energy per Si atom -12402.667307 kJ/mol
# Density = 2.017490 g / cm^3
# Si number density = 20.220928 Si / 1000 Ang^3
#
#
#
# Elastic Constant Matrix: (Units=GPa)
#
#
# Indices 1 2 3 4 5 6 
#
# 1 23.9098 18.7111 10.9415 0.0001 -0.0003 -0.0002
# 2 18.7111 122.5640 46.5152 0.0004 -0.0005 -0.0002
# 3 10.9415 46.5152 130.1253 0.0013 -0.0013 -0.0005
# 4 0.0001 0.0004 0.0013 22.2899 -0.0005 -0.0001
# 5 -0.0003 -0.0005 -0.0013 -0.0005 22.4863 0.0003
# 6 -0.0002 -0.0002 -0.0005 -0.0001 0.0003 22.9902
#
#
#
# Elastic Compliance Matrix: (Units=1/GPa)
#
#
# Indices 1 2 3 4 5 6 
#
# 1 0.047796 -0.006677 -0.001632 0.000000 0.000000 0.000000
# 2 -0.006677 0.010372 -0.003146 0.000000 0.000000 0.000000
# 3 -0.001632 -0.003146 0.008947 0.000000 0.000000 0.000000
# 4 0.000000 0.000000 0.000000 0.044863 0.000001 0.000000
# 5 0.000000 0.000000 0.000000 0.000001 0.044471 -0.000001
# 6 0.000000 0.000000 0.000000 0.000000 -0.000001 0.043497
#
#
# Mechanical properties :
#
#
# Convention : Reuss Voigt Hill
#
# Bulk Modulus (GPa) = 22.62233 47.65942 35.14087
# Shear Modulus (GPa) = 21.04437 26.91537 23.97987
#
# Velocity S-wave (km/s) = 3.22952 3.65233 3.44742
# Velocity P-wave (km/s) = 5.01181 6.43479 5.76736
#
# Compressibility (1/GPa) = 0.04420411
#
# Stress axis : x y z
#
# Youngs Moduli (GPa) = 20.92216 96.40890 111.77143
#
# Poissons Ratio (x) = 0.64376 0.18241
# Poissons Ratio (y) = 0.13971 0.35167
# Poissons Ratio (z) = 0.03414 0.30333
#
# Static dielectric constant tensor:
#      x y z
#    x 3.364860 0.000000 0.000000 
#    y 0.000000 3.838020 0.000000 
#    z 0.000000 0.000000 3.756820 
# 
# 
# High freq. dielectric constant tensor:
#      x y z
#    x 1.764500 0.000000 0.000000 
#    y 0.000000 1.803030 0.000000 
#    z 0.000000 0.000000 1.792850 
# 
# From -- ./inp_files/11449.got.cif
#   From: 2010.03.12/outbox.cif.g09.slc.cpg/sg44_6_cif.got.tgz:11449.got - 2010.04.14 02:36:11.
