data_PCOD8189250
_publ_section_title
;
Structure prediction by ZEFSAII (Michael W. Deem and Ramdas Pophale) SiO2 
 PCOD8189250
Probable space group: I M M 2
;
_chemical_formula_sum "Si O2"
_cell_formula_units_Z 64
_cell_length_a 8.893424
_cell_length_b 14.253940
_cell_length_c 27.981718
_cell_angle_alpha 90.000000
_cell_angle_beta 90.000000
_cell_angle_gamma 90.000000
_cell_volume 3547.139756
_symmetry_space_group_name_H-M "I M M 2"
_symmetry_group_IT_number 44
_symmetry_cell_setting 'orthorhombic'
loop_
_space_group_symop_operation_xyz
x,y,z
-x,-y,z
-x,y,z
x,-y,z
1/2+x,1/2+y,1/2+z
1/2-x,1/2-y,1/2+z
1/2-x,1/2+y,1/2+z
1/2+x,1/2-y,1/2+z
loop_
_atom_site_type_symbol
_atom_site_label
_atom_site_fract_x
_atom_site_fract_y
_atom_site_fract_z
Si Si1 0.827881 0.105171 0.390790
Si Si2 0.323301 0.280718 0.709425
Si Si3 0.670087 0.389950 0.357937
Si Si4 0.674492 0.607444 0.525837
Si Si5 0.324991 0.393515 0.248561
Si Si6 0.172348 0.288811 0.441136
Si Si7 0.322977 0.892739 0.124690
Si Si8 0.671437 0.890231 0.293296
O O1 0.801121 0.177043 0.434501
O O2 0.722278 0.134490 0.346785
O O3 0.000000 0.110770 0.372972
O O4 0.788731 0.000000 0.408775
O O5 0.500000 0.284062 0.703921
O O6 0.269433 0.173237 0.713728
O O7 0.252079 0.324817 0.662480
O O8 0.275244 0.337607 0.755966
O O9 0.500000 0.360614 0.371769
O O10 0.690354 0.500000 0.365361
O O11 0.703916 0.362460 0.303255
O O12 0.789004 0.337650 0.391038
O O13 0.500000 0.621902 0.537167
O O14 0.708870 0.500000 0.511048
O O15 0.720849 0.674776 0.482778
O O16 0.768109 0.636750 0.572259
O O17 0.500000 0.384264 0.236170
O O18 0.270303 0.500000 0.240323
O O19 0.000000 0.311419 0.454109
O O20 0.500000 0.879932 0.127560
O O21 0.275547 0.000000 0.135671
O O22 0.500000 0.856418 0.286681
O O23 0.687852 0.000000 0.283229
#
# Coordination Sequence:
#
# PCOD8189250 Si02
#       8
#     8   8   8   8   8   8   8   8
#     4   9  19  35  51  70 101 138 174 214 259 303
#     4  12  23  33  51  78 107 139 173 210 255 309
#     4   9  18  32  49  71 101 136 171 208 252 300
#     4  10  21  37  56  78 105 134 162 199 253 311
#     4   9  19  36  55  74 101 139 180 220 260 301
#     4  11  21  31  49  76 102 133 172 210 250 300
#     4  10  21  38  59  81 105 132 165 208 255 305
#     4  10  20  33  50  74 104 138 177 218 258 304
#
# _framework density 18.042705000000002
#
# number of rings (size 3 to 8) (size 9 to 14) (size 15 to 20)
#    0.000    2.000    0.000    4.875    0.000    9.250 
#    0.000    1.250    0.000    0.750    0.000    1.750 
#    0.000    0.000    0.000    0.000    0.000    0.000 
#
# Total GULP energy -396901.672567 kJ/mol
# GULP energy per Si atom -12403.177268 kJ/mol
# Density = 1.800164 g / cm^3
# Si number density = 18.042705 Si / 1000 Ang^3
#
#
#
# Elastic Constant Matrix: (Units=GPa)
#
#
# Indices 1 2 3 4 5 6 
#
# 1 79.6402 41.4768 42.3771 0.0000 0.0000 0.0000
# 2 41.4768 76.0989 63.5011 0.0000 0.0000 0.0000
# 3 42.3771 63.5011 87.9918 0.0000 0.0000 0.0000
# 4 0.0000 0.0000 0.0000 29.6727 0.0000 0.0000
# 5 0.0000 0.0000 0.0000 0.0000 33.6729 0.0000
# 6 0.0000 0.0000 0.0000 0.0000 0.0000 26.4202
#
#
#
# Elastic Compliance Matrix: (Units=1/GPa)
#
#
# Indices 1 2 3 4 5 6 
#
# 1 0.018080 -0.006507 -0.004012 0.000000 0.000000 0.000000
# 2 -0.006507 0.035375 -0.022396 0.000000 0.000000 0.000000
# 3 -0.004012 -0.022396 0.029459 0.000000 0.000000 0.000000
# 4 0.000000 0.000000 0.000000 0.033701 0.000000 0.000000
# 5 0.000000 0.000000 0.000000 0.000000 0.029698 0.000000
# 6 0.000000 0.000000 0.000000 0.000000 0.000000 0.037850
#
#
# Mechanical properties :
#
#
# Convention : Reuss Voigt Hill
#
# Bulk Modulus (GPa) = 58.52687 59.82679 59.17683
# Shear Modulus (GPa) = 19.55523 24.37823 21.96673
#
# Velocity S-wave (km/s) = 3.29573 3.67977 3.49303
# Velocity P-wave (km/s) = 6.85499 7.16134 7.00983
#
# Compressibility (1/GPa) = 0.01708617
#
# Stress axis : x y z
#
# Youngs Moduli (GPa) = 55.31050 28.26820 33.94535
#
# Poissons Ratio (x) = 0.18393 0.13618
# Poissons Ratio (y) = 0.35989 0.76023
# Poissons Ratio (z) = 0.22188 0.63309
#
# Static dielectric constant tensor:
#      x y z
#    x 3.391230 0.000000 0.000000 
#    y 0.000000 3.478170 0.000000 
#    z 0.000000 0.000000 3.167170 
# 
# 
# High freq. dielectric constant tensor:
#      x y z
#    x 1.706200 0.000000 0.000000 
#    y 0.000000 1.701740 0.000000 
#    z 0.000000 0.000000 1.677470 
# 
# From -- ./inp_files/25120.got.cif
#   From: 2010.03.12/outbox.cif.g09.slc.cpg/sg44_13_cif.got.tgz:25120.got - 2010.04.14 02:36:11.
