data_PCOD8189229
_publ_section_title
;
Structure prediction by ZEFSAII (Michael W. Deem and Ramdas Pophale) SiO2 
 PCOD8189229
Probable space group: I M M 2
;
_chemical_formula_sum "Si O2"
_cell_formula_units_Z 64
_cell_length_a 20.050139
_cell_length_b 20.759576
_cell_length_c 8.773581
_cell_angle_alpha 90.000000
_cell_angle_beta 90.000000
_cell_angle_gamma 90.000000
_cell_volume 3651.848539
_symmetry_space_group_name_H-M "I M M 2"
_symmetry_group_IT_number 44
_symmetry_cell_setting 'orthorhombic'
loop_
_space_group_symop_operation_xyz
x,y,z
-x,-y,z
-x,y,z
x,-y,z
1/2+x,1/2+y,1/2+z
1/2-x,1/2-y,1/2+z
1/2-x,1/2+y,1/2+z
1/2+x,1/2-y,1/2+z
loop_
_atom_site_type_symbol
_atom_site_label
_atom_site_fract_x
_atom_site_fract_y
_atom_site_fract_z
Si Si1 0.287383 0.688939 0.239840
Si Si2 0.210471 0.427448 0.741438
Si Si3 0.927799 0.377105 0.101114
Si Si4 0.072271 0.767989 0.739545
Si Si5 0.427799 0.877105 0.239366
Si Si6 0.572271 0.732011 0.600935
Si Si7 0.789529 0.427448 0.099042
Si Si8 0.212617 0.811061 0.100640
O O1 0.364940 0.689508 0.184426
O O2 0.258277 0.621273 0.186193
O O3 0.250000 0.750000 0.170240
O O4 0.281657 0.694620 0.420240
O O5 0.233997 0.500000 0.705580
O O6 0.134179 0.419873 0.681484
O O7 0.258277 0.378727 0.654287
O O8 0.214490 0.411887 0.920240
O O9 0.917357 0.304574 0.162163
O O10 0.865821 0.419873 0.158996
O O11 0.000000 0.403668 0.160156
O O12 0.928654 0.377464 0.920240
O O13 0.082643 0.695426 0.678317
O O14 0.000000 0.794844 0.680340
O O15 0.070959 0.766219 0.920240
O O16 0.500000 0.903668 0.180324
O O17 0.500000 0.705156 0.660140
O O18 0.635060 0.689508 0.656054
O O19 0.766003 0.500000 0.134900
#
# Coordination Sequence:
#
# PCOD8189229 Si02
#       8
#     8   8   8   8   8   8   8   8
#     4  11  20  32  53  76 100 129 164 205 247 294
#     4  10  20  33  49  72 103 135 167 203 244 290
#     4   8  13  24  44  70  98 127 163 202 237 278
#     4   8  14  26  47  73  96 120 157 206 248 281
#     4   8  13  24  44  70  98 127 163 202 237 278
#     4   8  14  26  47  73  96 120 157 206 248 281
#     4  10  20  33  49  72 103 135 167 203 244 290
#     4  11  20  32  53  76 100 129 164 205 247 294
#
# _framework density 17.525371
#
# number of rings (size 3 to 8) (size 9 to 14) (size 15 to 20)
#    0.000    2.750    2.500    2.250    0.000    1.000 
#    0.000    2.500    0.000    6.000    0.000    7.000 
#    0.000    0.000    0.000    0.000    0.000    0.000 
#
# Total GULP energy -396429.282380 kJ/mol
# GULP energy per Si atom -12388.415074 kJ/mol
# Density = 1.748548 g / cm^3
# Si number density = 17.525371 Si / 1000 Ang^3
#
#
#
# Elastic Constant Matrix: (Units=GPa)
#
#
# Indices 1 2 3 4 5 6 
#
# 1 159.7248 69.5639 35.7472 0.0000 0.0000 0.0000
# 2 69.5639 93.0044 28.6495 0.0000 0.0000 0.0000
# 3 35.7472 28.6495 35.8517 0.0000 0.0000 0.0000
# 4 0.0000 0.0000 0.0000 22.7333 0.0000 0.0000
# 5 0.0000 0.0000 0.0000 0.0000 19.9011 0.0000
# 6 0.0000 0.0000 0.0000 0.0000 0.0000 26.5586
#
#
#
# Elastic Compliance Matrix: (Units=1/GPa)
#
#
# Indices 1 2 3 4 5 6 
#
# 1 0.009989 -0.005841 -0.005292 0.000000 0.000000 0.000000
# 2 -0.005841 0.017679 -0.008303 0.000000 0.000000 0.000000
# 3 -0.005292 -0.008303 0.039805 0.000000 0.000000 0.000000
# 4 0.000000 0.000000 0.000000 0.043988 0.000000 0.000000
# 5 0.000000 0.000000 0.000000 0.000000 0.050248 0.000000
# 6 0.000000 0.000000 0.000000 0.000000 0.000000 0.037653
#
#
# Mechanical properties :
#
#
# Convention : Reuss Voigt Hill
#
# Bulk Modulus (GPa) = 34.96580 61.83357 48.39969
# Shear Modulus (GPa) = 20.18008 24.14663 22.16335
#
# Velocity S-wave (km/s) = 3.39702 3.71591 3.56004
# Velocity P-wave (km/s) = 5.94821 7.33278 6.67648
#
# Compressibility (1/GPa) = 0.02859937
#
# Stress axis : x y z
#
# Youngs Moduli (GPa) = 100.10785 56.56416 25.12266
#
# Poissons Ratio (x) = 0.33041 0.13295
# Poissons Ratio (y) = 0.58476 0.20860
# Poissons Ratio (z) = 0.52979 0.46967
#
# Static dielectric constant tensor:
#      x y z
#    x 4.003200 0.000000 0.000000 
#    y 0.000000 3.071140 0.000000 
#    z 0.000000 0.000000 2.823310 
# 
# 
# High freq. dielectric constant tensor:
#      x y z
#    x 1.695650 0.000000 0.000000 
#    y 0.000000 1.649010 0.000000 
#    z 0.000000 0.000000 1.629950 
# 
# From -- ./inp_files/9112.got.cif
#   From: 2010.03.12/outbox.cif.g09.slc.cpg/sg44_5_cif.got.tgz:9112.got - 2010.04.14 02:36:11.
