data_PCOD8189841
_publ_section_title
;
Structure prediction by ZEFSAII (Michael W. Deem and Ramdas Pophale) SiO2 
 PCOD8189841
Probable space group: I M M 2
;
_chemical_formula_sum "Si O2"
_cell_formula_units_Z 48
_cell_length_a 9.192380
_cell_length_b 9.315744
_cell_length_c 31.238097
_cell_angle_alpha 90.000000
_cell_angle_beta 90.000000
_cell_angle_gamma 90.000000
_cell_volume 2675.038789
_symmetry_space_group_name_H-M "I M M 2"
_symmetry_group_IT_number 44
_symmetry_cell_setting 'orthorhombic'
loop_
_space_group_symop_operation_xyz
x,y,z
-x,-y,z
-x,y,z
x,-y,z
1/2+x,1/2+y,1/2+z
1/2-x,1/2-y,1/2+z
1/2-x,1/2+y,1/2+z
1/2+x,1/2-y,1/2+z
loop_
_atom_site_type_symbol
_atom_site_label
_atom_site_fract_x
_atom_site_fract_y
_atom_site_fract_z
Si Si1 0.658371 0.169430 0.520280
Si Si2 0.673805 0.836774 0.427835
Si Si3 0.166262 0.330523 0.686510
Si Si4 0.168701 0.667474 0.354998
Si Si5 0.831383 0.166327 0.270832
Si Si6 0.173016 0.664863 0.112804
O O1 0.500000 0.243659 0.520077
O O2 0.736581 0.209348 0.475185
O O3 0.735086 0.211412 0.565397
O O4 0.636030 0.000000 0.520718
O O5 0.500000 0.824910 0.427652
O O6 0.739964 0.727692 0.394229
O O7 0.721329 0.000000 0.416796
O O8 0.180268 0.500000 0.682272
O O9 0.239966 0.277946 0.730430
O O10 0.248906 0.263809 0.646740
O O11 0.000000 0.279021 0.686629
O O12 0.200206 0.500000 0.350307
O O13 0.221393 0.743770 0.311649
O O14 0.000000 0.700495 0.363512
O O15 0.000000 0.194255 0.260551
O O16 0.800403 0.000000 0.280659
O O17 0.212188 0.500000 0.122693
O O18 0.000000 0.688192 0.114723
#
# Coordination Sequence:
#
# PCOD8189841 Si02
#       6
#     8   8   8   8   8   8
#     4   7  12  26  48  73  98 124 160 205 244 279
#     4   9  17  31  53  77  99 127 165 206 245 286
#     4  10  21  35  50  72 103 133 160 196 244 295
#     4  10  21  35  50  72 103 133 160 196 244 295
#     4   9  18  34  54  71  90 124 170 211 242 281
#     4   9  17  31  53  77  99 127 165 206 245 286
#
# _framework density 17.943667000000001
#
# number of rings (size 3 to 8) (size 9 to 14) (size 15 to 20)
#    0.000    3.000    0.000    3.000    0.000    4.000 
#    0.000    5.000    0.000    8.000    0.000    0.000 
#    0.000    0.000    0.000    0.000    0.000    0.000 
#
# Total GULP energy -297406.512424 kJ/mol
# GULP energy per Si atom -12391.938018 kJ/mol
# Density = 1.790283 g / cm^3
# Si number density = 17.943667 Si / 1000 Ang^3
#
#
#
# Elastic Constant Matrix: (Units=GPa)
#
#
# Indices 1 2 3 4 5 6 
#
# 1 46.6939 24.3343 52.3534 0.0000 0.0000 0.0000
# 2 24.3343 47.7955 54.6599 0.0000 0.0000 0.0000
# 3 52.3534 54.6599 180.5371 0.0000 0.0000 0.0000
# 4 0.0000 0.0000 0.0000 31.8587 0.0000 0.0000
# 5 0.0000 0.0000 0.0000 0.0000 22.5717 0.0000
# 6 0.0000 0.0000 0.0000 0.0000 0.0000 24.2767
#
#
#
# Elastic Compliance Matrix: (Units=1/GPa)
#
#
# Indices 1 2 3 4 5 6 
#
# 1 0.034236 -0.009295 -0.007114 0.000000 0.000000 0.000000
# 2 -0.009295 0.034527 -0.007758 0.000000 0.000000 0.000000
# 3 -0.007114 -0.007758 0.009951 0.000000 0.000000 0.000000
# 4 0.000000 0.000000 0.000000 0.031389 0.000000 0.000000
# 5 0.000000 0.000000 0.000000 0.000000 0.044303 0.000000
# 6 0.000000 0.000000 0.000000 0.000000 0.000000 0.041192
#
#
# Mechanical properties :
#
#
# Convention : Reuss Voigt Hill
#
# Bulk Modulus (GPa) = 32.91641 59.74685 46.33163
# Shear Modulus (GPa) = 19.68048 25.32002 22.50025
#
# Velocity S-wave (km/s) = 3.31538 3.76052 3.54494
# Velocity P-wave (km/s) = 5.74802 7.22665 6.52933
#
# Compressibility (1/GPa) = 0.03037999
#
# Stress axis : x y z
#
# Youngs Moduli (GPa) = 29.20880 28.96263 100.49462
#
# Poissons Ratio (x) = 0.26922 0.71490
# Poissons Ratio (y) = 0.27151 0.77964
# Poissons Ratio (z) = 0.20779 0.22469
#
# Static dielectric constant tensor:
#      x y z
#    x 3.093350 0.000000 0.000000 
#    y 0.000000 3.081600 0.000000 
#    z 0.000000 0.000000 3.711970 
# 
# 
# High freq. dielectric constant tensor:
#      x y z
#    x 1.666910 0.000000 0.000000 
#    y 0.000000 1.671160 0.000000 
#    z 0.000000 0.000000 1.718030 
# 
# From -- ./inp_files/26866.got.cif
#   From: 2010.03.12/outbox.cif.g09.slc.cpg/sg44_14_cif.got.tgz:26866.got - 2010.04.14 02:36:11.
