data_PCOD8189580
_publ_section_title
;
Structure prediction by ZEFSAII (Michael W. Deem and Ramdas Pophale) SiO2 
 PCOD8189580
Probable space group: I M M 2
;
_chemical_formula_sum "Si O2"
_cell_formula_units_Z 56
_cell_length_a 8.523572
_cell_length_b 14.149838
_cell_length_c 22.555107
_cell_angle_alpha 90.000000
_cell_angle_beta 90.000000
_cell_angle_gamma 90.000000
_cell_volume 2720.307466
_symmetry_space_group_name_H-M "I M M 2"
_symmetry_group_IT_number 44
_symmetry_cell_setting 'orthorhombic'
loop_
_space_group_symop_operation_xyz
x,y,z
-x,-y,z
-x,y,z
x,-y,z
1/2+x,1/2+y,1/2+z
1/2-x,1/2-y,1/2+z
1/2-x,1/2+y,1/2+z
1/2+x,1/2-y,1/2+z
loop_
_atom_site_type_symbol
_atom_site_label
_atom_site_fract_x
_atom_site_fract_y
_atom_site_fract_z
Si Si1 0.819209 0.212189 0.324390
Si Si2 0.818184 0.609301 0.934229
Si Si3 0.182863 0.107154 0.778277
Si Si4 0.819544 0.390059 0.715481
Si Si5 0.317769 0.285665 0.044070
Si Si6 0.820036 0.392143 0.153958
Si Si7 0.184801 0.106946 0.087320
O O1 0.712276 0.157725 0.371357
O O2 0.774435 0.323178 0.322760
O O3 0.787807 0.168232 0.260164
O O4 0.000000 0.200833 0.342092
O O5 0.768404 0.500000 0.930460
O O6 0.000000 0.619705 0.951029
O O7 0.714190 0.660255 0.983404
O O8 0.214855 0.136523 0.710207
O O9 0.000000 0.116582 0.791273
O O10 0.242306 0.000000 0.789652
O O11 0.797982 0.500000 0.729768
O O12 0.761516 0.366224 0.649920
O O13 0.000000 0.358721 0.722324
O O14 0.500000 0.290905 0.058660
O O15 0.220888 0.329998 0.097629
O O16 0.259618 0.176868 0.038311
O O17 0.788068 0.500000 0.135527
O O18 0.000000 0.375504 0.171983
O O19 0.000000 0.121145 0.091752
O O20 0.227654 0.000000 0.068783
#
# Coordination Sequence:
#
# PCOD8189580 Si02
#       7
#     8   8   8   8   8   8   8
#     4  12  24  38  59  86 118 154 192 237 288 344
#     4  11  25  45  66  87 114 149 191 238 284 335
#     4  10  21  38  60  86 117 153 194 240 288 340
#     4  10  20  35  57  86 120 156 194 238 288 342
#     4  12  24  38  59  86 118 154 192 237 288 344
#     4  10  20  35  57  86 120 156 194 238 288 342
#     4  10  21  38  60  86 117 153 194 240 288 340
#
# _framework density 20.585908
#
# number of rings (size 3 to 8) (size 9 to 14) (size 15 to 20)
#    0.000    1.286    0.000    6.429    0.000    8.000 
#    0.000    0.714    0.000    4.286    0.000    0.000 
#    0.000    0.000    0.000    0.000    0.000    0.000 
#
# Total GULP energy -347375.626224 kJ/mol
# GULP energy per Si atom -12406.272365 kJ/mol
# Density = 2.053905 g / cm^3
# Si number density = 20.585908 Si / 1000 Ang^3
#
#
#
# Elastic Constant Matrix: (Units=GPa)
#
#
# Indices 1 2 3 4 5 6 
#
# 1 76.7522 26.5078 16.4983 0.0000 0.0000 0.0000
# 2 26.5078 120.7279 59.4860 0.0000 0.0000 0.0000
# 3 16.4983 59.4860 57.1203 0.0000 0.0000 0.0000
# 4 0.0000 0.0000 0.0000 35.0658 0.0000 0.0000
# 5 0.0000 0.0000 0.0000 0.0000 34.7366 0.0000
# 6 0.0000 0.0000 0.0000 0.0000 0.0000 31.2004
#
#
#
# Elastic Compliance Matrix: (Units=1/GPa)
#
#
# Indices 1 2 3 4 5 6 
#
# 1 0.014183 -0.002250 -0.001753 0.000000 0.000000 0.000000
# 2 -0.002250 0.017370 -0.017440 0.000000 0.000000 0.000000
# 3 -0.001753 -0.017440 0.036175 0.000000 0.000000 0.000000
# 4 0.000000 0.000000 0.000000 0.028518 0.000000 0.000000
# 5 0.000000 0.000000 0.000000 0.000000 0.028788 0.000000
# 6 0.000000 0.000000 0.000000 0.000000 0.000000 0.032051
#
#
# Mechanical properties :
#
#
# Convention : Reuss Voigt Hill
#
# Bulk Modulus (GPa) = 40.25376 51.06495 45.65935
# Shear Modulus (GPa) = 24.00940 30.34112 27.17526
#
# Velocity S-wave (km/s) = 3.41882 3.84328 3.63725
# Velocity P-wave (km/s) = 5.93135 6.67488 6.31407
#
# Compressibility (1/GPa) = 0.02484240
#
# Stress axis : x y z
#
# Youngs Moduli (GPa) = 70.50722 57.56988 27.64327
#
# Poissons Ratio (x) = 0.12955 0.04846
# Poissons Ratio (y) = 0.15867 0.48209
# Poissons Ratio (z) = 0.12360 1.00400
#
# Static dielectric constant tensor:
#      x y z
#    x 3.721060 0.000000 0.000000 
#    y 0.000000 4.144240 0.000000 
#    z 0.000000 0.000000 3.450370 
# 
# 
# High freq. dielectric constant tensor:
#      x y z
#    x 1.815560 0.000000 0.000000 
#    y 0.000000 1.825750 0.000000 
#    z 0.000000 0.000000 1.779370 
# 
# From -- ./inp_files/23025.got.cif
#   From: 2010.03.12/outbox.cif.g09.slc.cpg/sg44_12_cif.got.tgz:23025.got - 2010.04.14 02:36:11.
