data_PCOD8189350
_publ_section_title
;
Structure prediction by ZEFSAII (Michael W. Deem and Ramdas Pophale) SiO2 
 PCOD8189350
Probable space group: I M M 2
;
_chemical_formula_sum "Si O2"
_cell_formula_units_Z 64
_cell_length_a 14.342653
_cell_length_b 8.917560
_cell_length_c 27.812725
_cell_angle_alpha 90.000000
_cell_angle_beta 90.000000
_cell_angle_gamma 90.000000
_cell_volume 3557.288376
_symmetry_space_group_name_H-M "I M M 2"
_symmetry_group_IT_number 44
_symmetry_cell_setting 'orthorhombic'
loop_
_space_group_symop_operation_xyz
x,y,z
-x,-y,z
-x,y,z
x,-y,z
1/2+x,1/2+y,1/2+z
1/2-x,1/2-y,1/2+z
1/2-x,1/2+y,1/2+z
1/2+x,1/2-y,1/2+z
loop_
_atom_site_type_symbol
_atom_site_label
_atom_site_fract_x
_atom_site_fract_y
_atom_site_fract_z
Si Si1 0.106370 0.327304 0.248750
Si Si2 0.106621 0.824019 0.871245
Si Si3 0.102692 0.177163 0.412395
Si Si4 0.219104 0.176166 0.056850
Si Si5 0.608779 0.827237 0.470931
Si Si6 0.893141 0.672329 0.137150
Si Si7 0.729015 0.677242 0.826351
Si Si8 0.607272 0.675455 0.020740
O O1 0.122417 0.500000 0.262798
O O2 0.128100 0.301525 0.192962
O O3 0.176765 0.223082 0.277878
O O4 0.000000 0.280239 0.260313
O O5 0.137636 0.754104 0.921943
O O6 0.169208 0.753290 0.828819
O O7 0.000000 0.782703 0.859363
O O8 0.122309 0.000000 0.873905
O O9 0.172219 0.241389 0.372337
O O10 0.136317 0.218392 0.466075
O O11 0.000000 0.246374 0.403218
O O12 0.096031 0.000000 0.407362
O O13 0.175062 0.219946 0.107847
O O14 0.326719 0.229805 0.056086
O O15 0.213158 0.000000 0.049580
O O16 0.163176 0.257198 0.014942
O O17 0.500000 0.807731 0.481798
O O18 0.637819 0.000000 0.465534
O O19 0.874378 0.500000 0.122761
O O20 0.000000 0.713985 0.125418
O O21 0.740704 0.500000 0.827440
O O22 0.500000 0.719525 0.030595
O O23 0.622478 0.500000 0.030176
#
# Coordination Sequence:
#
# PCOD8189350 Si02
#       8
#     8   8   8   8   8   8   8   8
#     4   9  19  36  56  78 105 135 167 207 256 307
#     4  10  21  36  52  72 102 138 176 219 261 299
#     4   8  15  28  46  71 101 131 165 202 238 282
#     4  12  23  32  49  77 107 137 169 210 260 311
#     4  10  20  34  52  74 103 139 177 214 252 301
#     4   9  19  37  58  77 100 133 171 210 254 306
#     4  11  20  30  51  79 106 138 172 206 250 306
#     4   9  18  34  54  72  96 136 181 217 247 288
#
# _framework density 17.991230999999999
#
# number of rings (size 3 to 8) (size 9 to 14) (size 15 to 20)
#    0.000    2.250    0.000    5.250    0.000    5.750 
#    0.000    1.875    0.000    2.250    0.000    5.250 
#    0.000    0.000    0.000    0.000    0.000    0.000 
#
# Total GULP energy -396851.056214 kJ/mol
# GULP energy per Si atom -12401.595507 kJ/mol
# Density = 1.795028 g / cm^3
# Si number density = 17.991231 Si / 1000 Ang^3
#
#
#
# Elastic Constant Matrix: (Units=GPa)
#
#
# Indices 1 2 3 4 5 6 
#
# 1 92.4541 46.4260 55.6840 0.0000 0.0000 0.0000
# 2 46.4260 71.0101 34.1160 0.0000 0.0000 0.0000
# 3 55.6840 34.1160 72.1214 0.0000 0.0000 0.0000
# 4 0.0000 0.0000 0.0000 29.6751 0.0000 0.0000
# 5 0.0000 0.0000 0.0000 0.0000 29.7851 0.0000
# 6 0.0000 0.0000 0.0000 0.0000 0.0000 25.2374
#
#
#
# Elastic Compliance Matrix: (Units=1/GPa)
#
#
# Indices 1 2 3 4 5 6 
#
# 1 0.023748 -0.008693 -0.014223 0.000000 0.000000 0.000000
# 2 -0.008693 0.021406 -0.003414 0.000000 0.000000 0.000000
# 3 -0.014223 -0.003414 0.026462 0.000000 0.000000 0.000000
# 4 0.000000 0.000000 0.000000 0.033698 0.000000 0.000000
# 5 0.000000 0.000000 0.000000 0.000000 0.033574 0.000000
# 6 0.000000 0.000000 0.000000 0.000000 0.000000 0.039624
#
#
# Mechanical properties :
#
#
# Convention : Reuss Voigt Hill
#
# Bulk Modulus (GPa) = 52.75558 56.44863 54.60210
# Shear Modulus (GPa) = 21.05337 23.56350 22.30843
#
# Velocity S-wave (km/s) = 3.42453 3.62293 3.52513
# Velocity P-wave (km/s) = 6.70993 6.99604 6.85448
#
# Compressibility (1/GPa) = 0.01895534
#
# Stress axis : x y z
#
# Youngs Moduli (GPa) = 42.10902 46.71558 37.78951
#
# Poissons Ratio (x) = 0.40609 0.53750
# Poissons Ratio (y) = 0.36604 0.12903
# Poissons Ratio (z) = 0.59894 0.15950
#
# Static dielectric constant tensor:
#      x y z
#    x 3.511500 0.000000 0.000000 
#    y 0.000000 3.177190 0.000000 
#    z 0.000000 0.000000 3.178850 
# 
# 
# High freq. dielectric constant tensor:
#      x y z
#    x 1.702250 0.000000 0.000000 
#    y 0.000000 1.687790 0.000000 
#    z 0.000000 0.000000 1.676750 
# 
# From -- ./inp_files/25789.got.cif
#   From: 2010.03.12/outbox.cif.g09.slc.cpg/sg44_13_cif.got.tgz:25789.got - 2010.04.14 02:36:11.
