data_PCOD8189890
_publ_section_title
;
Structure prediction by ZEFSAII (Michael W. Deem and Ramdas Pophale) SiO2 
 PCOD8189890
Probable space group: I M M 2
;
_chemical_formula_sum "Si O2"
_cell_formula_units_Z 64
_cell_length_a 16.322449
_cell_length_b 21.283348
_cell_length_c 9.893645
_cell_angle_alpha 90.000000
_cell_angle_beta 90.000000
_cell_angle_gamma 90.000000
_cell_volume 3437.016283
_symmetry_space_group_name_H-M "I M M 2"
_symmetry_group_IT_number 44
_symmetry_cell_setting 'orthorhombic'
loop_
_space_group_symop_operation_xyz
x,y,z
-x,-y,z
-x,y,z
x,-y,z
1/2+x,1/2+y,1/2+z
1/2-x,1/2-y,1/2+z
1/2-x,1/2+y,1/2+z
1/2+x,1/2-y,1/2+z
loop_
_atom_site_type_symbol
_atom_site_label
_atom_site_fract_x
_atom_site_fract_y
_atom_site_fract_z
Si Si1 0.830517 0.140597 0.483420
Si Si2 0.593739 0.615054 0.487117
Si Si3 0.094391 0.067495 0.709514
Si Si4 0.187573 0.705471 0.125150
Si Si5 0.402172 0.771378 0.893966
Si Si6 0.215636 0.926293 0.218224
Si Si7 0.686472 0.810045 0.147582
Si Si8 0.408920 0.756605 0.394290
O O1 0.897755 0.116099 0.587645
O O2 0.753349 0.152976 0.582339
O O3 0.866811 0.201156 0.408051
O O4 0.811084 0.088239 0.371636
O O5 0.500000 0.594597 0.513705
O O6 0.635448 0.585277 0.352791
O O7 0.642737 0.591521 0.617197
O O8 0.598732 0.688563 0.459544
O O9 0.000000 0.064798 0.745764
O O10 0.129234 0.000000 0.662751
O O11 0.146841 0.695509 0.271498
O O12 0.229850 0.774304 0.107262
O O13 0.114521 0.697705 0.017136
O O14 0.500000 0.770642 0.868992
O O15 0.380232 0.810839 0.027715
O O16 0.294519 0.882348 0.185333
O O17 0.238790 0.000000 0.205857
O O18 0.652427 0.768547 0.271206
O O19 0.500000 0.771008 0.341892
#
# Coordination Sequence:
#
# PCOD8189890 Si02
#       8
#     8   8   8   8   8   8   8   8
#     4  11  22  37  58  85 120 153 191 238 294 359
#     4  10  21  37  58  86 119 154 195 242 293 350
#     4  10  21  36  53  78 116 160 201 232 268 337
#     4  11  20  36  58  84 117 145 178 245 304 345
#     4  11  22  36  60  90 117 145 185 243 311 358
#     4  12  24  38  57  83 120 165 203 236 282 346
#     4  11  21  38  56  88 121 151 191 243 288 352
#     4  11  20  35  60  86 114 149 186 239 303 350
#
# _framework density 18.620802000000001
#
# number of rings (size 3 to 8) (size 9 to 14) (size 15 to 20)
#    0.000    1.125    3.750    4.125    1.750    3.750 
#    0.000    0.000    0.000    1.500    0.000    0.000 
#    0.000    0.000    0.000    0.000    0.000    0.000 
#
# Total GULP energy -396606.403559 kJ/mol
# GULP energy per Si atom -12393.950111 kJ/mol
# Density = 1.857842 g / cm^3
# Si number density = 18.620802 Si / 1000 Ang^3
#
#
#
# Elastic Constant Matrix: (Units=GPa)
#
#
# Indices 1 2 3 4 5 6 
#
# 1 74.2057 22.9350 31.7293 0.0000 0.0000 0.0000
# 2 22.9350 48.9036 21.4708 0.0000 0.0000 0.0000
# 3 31.7293 21.4708 125.7779 0.0000 0.0000 0.0000
# 4 0.0000 0.0000 0.0000 26.6267 0.0000 0.0000
# 5 0.0000 0.0000 0.0000 0.0000 35.4232 0.0000
# 6 0.0000 0.0000 0.0000 0.0000 0.0000 -15.2018
#
#
#
# Elastic Compliance Matrix: (Units=1/GPa)
#
#
# Indices 1 2 3 4 5 6 
#
# 1 0.016830 -0.006517 -0.003133 0.000000 0.000000 0.000000
# 2 -0.006517 0.024629 -0.002560 0.000000 0.000000 0.000000
# 3 -0.003133 -0.002560 0.009178 0.000000 0.000000 0.000000
# 4 0.000000 0.000000 0.000000 0.037556 0.000000 0.000000
# 5 0.000000 0.000000 0.000000 0.000000 0.028230 0.000000
# 6 0.000000 0.000000 0.000000 0.000000 0.000000 -0.065782
#
#
# Mechanical properties :
#
#
# Convention : Reuss Voigt Hill
#
# Bulk Modulus (GPa) = 38.14519 44.57302 41.35911
# Shear Modulus (GPa) = 59.66459 20.88641 40.27550
#
# Velocity S-wave (km/s) = 5.66670 3.35277 4.65578
# Velocity P-wave (km/s) = 7.95896 6.24318 7.15270
#
# Compressibility (1/GPa) = 0.02621563
#
# Stress axis : x y z
#
# Youngs Moduli (GPa) = 59.41741 40.60252 108.95725
#
# Poissons Ratio (x) = 0.26463 0.34137
# Poissons Ratio (y) = 0.38725 0.27895
# Poissons Ratio (z) = 0.18616 0.10395
#
# Static dielectric constant tensor:
#      x y z
#    x 3.401160 0.000000 0.000000 
#    y 0.000000 3.394930 0.000000 
#    z 0.000000 0.000000 3.553560 
# 
# 
# High freq. dielectric constant tensor:
#      x y z
#    x 1.709340 0.000000 0.000000 
#    y 0.000000 1.691720 0.000000 
#    z 0.000000 0.000000 1.747540 
# 
# From -- ./inp_files/8441.got.cif
#   From: 2010.03.12/outbox.cif.g09.slc.cpg/sg44_5_cif.got.tgz:8441.got - 2010.04.14 02:36:11.
