data_PCOD8189018
_publ_section_title
;
Structure prediction by ZEFSAII (Michael W. Deem and Ramdas Pophale) SiO2 
 PCOD8189018
Probable space group: I M M 2
;
_chemical_formula_sum "Si O2"
_cell_formula_units_Z 64
_cell_length_a 30.868950
_cell_length_b 8.837299
_cell_length_c 11.986354
_cell_angle_alpha 90.000000
_cell_angle_beta 90.000000
_cell_angle_gamma 90.000000
_cell_volume 3269.855088
_symmetry_space_group_name_H-M "I M M 2"
_symmetry_group_IT_number 44
_symmetry_cell_setting 'orthorhombic'
loop_
_space_group_symop_operation_xyz
x,y,z
-x,-y,z
-x,y,z
x,-y,z
1/2+x,1/2+y,1/2+z
1/2-x,1/2-y,1/2+z
1/2-x,1/2+y,1/2+z
1/2+x,1/2-y,1/2+z
loop_
_atom_site_type_symbol
_atom_site_label
_atom_site_fract_x
_atom_site_fract_y
_atom_site_fract_z
Si Si1 0.625710 0.178860 0.117760
Si Si2 0.874849 0.679002 0.364940
Si Si3 0.796032 0.321388 0.219409
Si Si4 0.700169 0.321599 0.261795
Si Si5 0.048451 0.173160 0.234493
Si Si6 0.451210 0.674268 0.250723
Si Si7 0.331382 0.175680 0.482193
Si Si8 0.580024 0.672131 0.493431
O O1 0.668474 0.246689 0.172824
O O2 0.582392 0.224833 0.182717
O O3 0.629681 0.000000 0.122025
O O4 0.623536 0.240407 0.991251
O O5 0.872187 0.500000 0.364390
O O6 0.832495 0.747931 0.302375
O O7 0.918189 0.723678 0.300597
O O8 0.796317 0.500000 0.234307
O O9 0.748630 0.256031 0.246773
O O10 0.806184 0.275969 0.093037
O O11 0.698355 0.500000 0.243182
O O12 0.685910 0.282606 0.385730
O O13 0.050481 0.198705 0.101478
O O14 0.000000 0.216649 0.273083
O O15 0.058995 0.000000 0.264291
O O16 0.500000 0.716892 0.213687
O O17 0.440944 0.500000 0.223438
O O18 0.447725 0.704523 0.382828
O O19 0.381757 0.206687 0.500150
O O20 0.324567 0.000000 0.451783
O O21 0.598304 0.500000 0.491153
#
# Coordination Sequence:
#
# PCOD8189018 Si02
#       8
#     8   8   8   8   8   8   8   8
#     4  11  24  40  60  85 117 155 198 248 293 343
#     4  10  22  42  61  81 114 157 198 240 292 347
#     4   9  21  40  61  85 117 154 191 238 292 346
#     4  11  23  40  62  87 119 157 195 238 293 352
#     4  10  21  37  59  89 121 152 192 241 289 343
#     4  10  21  38  61  86 116 156 196 237 292 353
#     4  11  21  37  62  90 120 151 191 243 292 344
#     4  10  19  35  59  88 120 153 190 236 290 347
#
# _framework density 19.572732999999999
#
# number of rings (size 3 to 8) (size 9 to 14) (size 15 to 20)
#    0.000    1.750    2.500    1.500    1.750    3.500 
#    0.000    5.625    0.000    2.250    0.000    0.000 
#    0.000    0.000    0.000    0.000    0.000    0.000 
#
# Total GULP energy -396850.774518 kJ/mol
# GULP energy per Si atom -12401.586704 kJ/mol
# Density = 1.952818 g / cm^3
# Si number density = 19.572733 Si / 1000 Ang^3
#
#
#
# Elastic Constant Matrix: (Units=GPa)
#
#
# Indices 1 2 3 4 5 6 
#
# 1 134.4552 24.4717 49.3281 0.0000 0.0000 0.0000
# 2 24.4717 41.3598 28.0539 0.0000 0.0000 0.0000
# 3 49.3281 28.0539 119.5940 0.0000 0.0000 0.0000
# 4 0.0000 0.0000 0.0000 20.5861 0.0000 0.0000
# 5 0.0000 0.0000 0.0000 0.0000 83.6445 0.0000
# 6 0.0000 0.0000 0.0000 0.0000 0.0000 24.8388
#
#
#
# Elastic Compliance Matrix: (Units=1/GPa)
#
#
# Indices 1 2 3 4 5 6 
#
# 1 0.009147 -0.003393 -0.002977 0.000000 0.000000 0.000000
# 2 -0.003393 0.030012 -0.005641 0.000000 0.000000 0.000000
# 3 -0.002977 -0.005641 0.010913 0.000000 0.000000 0.000000
# 4 0.000000 0.000000 0.000000 0.048576 0.000000 0.000000
# 5 0.000000 0.000000 0.000000 0.000000 0.011955 0.000000
# 6 0.000000 0.000000 0.000000 0.000000 0.000000 0.040260
#
#
# Mechanical properties :
#
#
# Convention : Reuss Voigt Hill
#
# Bulk Modulus (GPa) = 38.38703 55.45739 46.92221
# Shear Modulus (GPa) = 27.23801 38.71758 32.97779
#
# Velocity S-wave (km/s) = 3.73450 4.45245 4.10919
# Velocity P-wave (km/s) = 6.18469 7.40459 6.82196
#
# Compressibility (1/GPa) = 0.02605046
#
# Stress axis : x y z
#
# Youngs Moduli (GPa) = 109.32402 33.32053 91.63685
#
# Poissons Ratio (x) = 0.11305 0.27280
# Poissons Ratio (y) = 0.37093 0.51688
# Poissons Ratio (z) = 0.32545 0.18795
#
# Static dielectric constant tensor:
#      x y z
#    x 3.722200 0.000000 0.000000 
#    y 0.000000 3.389200 0.000000 
#    z 0.000000 0.000000 3.746140 
# 
# 
# High freq. dielectric constant tensor:
#      x y z
#    x 1.772540 0.000000 0.000000 
#    y 0.000000 1.745460 0.000000 
#    z 0.000000 0.000000 1.771110 
# 
# From -- ./inp_files/11437.got.cif
#   From: 2010.03.12/outbox.cif.g09.slc.cpg/sg44_6_cif.got.tgz:11437.got - 2010.04.14 02:36:11.
