data_PCOD8189184
_publ_section_title
;
Structure prediction by ZEFSAII (Michael W. Deem and Ramdas Pophale) SiO2 
 PCOD8189184
Probable space group: I M M 2
;
_chemical_formula_sum "Si O2"
_cell_formula_units_Z 64
_cell_length_a 8.911838
_cell_length_b 25.091562
_cell_length_c 15.275914
_cell_angle_alpha 90.000000
_cell_angle_beta 90.000000
_cell_angle_gamma 90.000000
_cell_volume 3415.876699
_symmetry_space_group_name_H-M "I M M 2"
_symmetry_group_IT_number 44
_symmetry_cell_setting 'orthorhombic'
loop_
_space_group_symop_operation_xyz
x,y,z
-x,-y,z
-x,y,z
x,-y,z
1/2+x,1/2+y,1/2+z
1/2-x,1/2-y,1/2+z
1/2-x,1/2+y,1/2+z
1/2+x,1/2-y,1/2+z
loop_
_atom_site_type_symbol
_atom_site_label
_atom_site_fract_x
_atom_site_fract_y
_atom_site_fract_z
Si Si1 0.825077 0.663355 0.963490
Si Si2 0.169208 0.271678 0.446565
Si Si3 0.677329 0.143011 0.655543
Si Si4 0.678514 0.640668 0.786384
Si Si5 0.320865 0.060053 0.796775
Si Si6 0.667981 0.244992 0.745638
Si Si7 0.825513 0.438013 0.655289
Si Si8 0.178084 0.388678 0.475261
O O1 0.778579 0.724799 0.976936
O O2 0.735594 0.634552 0.885892
O O3 0.000000 0.660882 0.941559
O O4 0.786753 0.632218 0.053691
O O5 0.168748 0.278829 0.342657
O O6 0.230881 0.327363 0.485421
O O7 0.000000 0.259155 0.479260
O O8 0.500000 0.147125 0.671984
O O9 0.741433 0.095089 0.715243
O O10 0.748719 0.200490 0.684797
O O11 0.500000 0.642643 0.790479
O O12 0.744946 0.696200 0.745625
O O13 0.733321 0.591127 0.730614
O O14 0.500000 0.060184 0.798168
O O15 0.256098 0.083858 0.887806
O O16 0.259975 0.000000 0.785308
O O17 0.500000 0.253637 0.711020
O O18 0.795390 0.500000 0.667423
O O19 0.764671 0.420565 0.560204
O O20 0.000000 0.423570 0.665364
O O21 0.000000 0.390605 0.468758
#
# Coordination Sequence:
#
# PCOD8189184 Si02
#       8
#     8   8   8   8   8   8   8   8
#     4  10  20  32  50  75 108 141 174 220 271 315
#     4   9  16  29  49  73 105 142 174 205 251 311
#     4   9  16  27  44  71 105 138 171 212 261 308
#     4  10  21  37  57  75  99 139 185 226 268 320
#     4   9  15  25  45  73 105 139 173 207 249 310
#     4   8  14  27  46  69  97 132 169 206 252 305
#     4  10  21  36  54  79 110 140 175 224 277 320
#     4   9  16  28  48  76 109 141 170 207 259 317
#
# _framework density 18.736039000000002
#
# number of rings (size 3 to 8) (size 9 to 14) (size 15 to 20)
#    0.000    2.750    1.250    1.875    1.750    1.750 
#    0.000    0.625    0.000    3.000    0.000    0.000 
#    0.000    4.000    0.000    0.000    0.000    0.000 
#
# Total GULP energy -396632.337410 kJ/mol
# GULP energy per Si atom -12394.760544 kJ/mol
# Density = 1.869340 g / cm^3
# Si number density = 18.736039 Si / 1000 Ang^3
#
#
#
# Elastic Constant Matrix: (Units=GPa)
#
#
# Indices 1 2 3 4 5 6 
#
# 1 36.6841 29.1990 33.4263 0.0000 0.0000 0.0000
# 2 29.1990 111.2808 79.4373 -0.0002 0.0000 0.0000
# 3 33.4263 79.4373 136.6106 -0.0004 0.0000 -0.0001
# 4 0.0000 -0.0002 -0.0004 32.0863 0.0000 0.0000
# 5 0.0000 0.0000 0.0000 0.0000 14.8960 0.0000
# 6 0.0000 0.0000 -0.0001 0.0000 0.0000 19.1964
#
#
#
# Elastic Compliance Matrix: (Units=1/GPa)
#
#
# Indices 1 2 3 4 5 6 
#
# 1 0.036981 -0.005546 -0.005823 0.000000 0.000000 0.000000
# 2 -0.005546 0.016195 -0.008060 0.000000 0.000000 0.000000
# 3 -0.005823 -0.008060 0.013432 0.000000 0.000000 0.000000
# 4 0.000000 0.000000 0.000000 0.031166 0.000000 0.000000
# 5 0.000000 0.000000 0.000000 0.000000 0.067132 0.000000
# 6 0.000000 0.000000 0.000000 0.000000 0.000000 0.052093
#
#
# Mechanical properties :
#
#
# Convention : Reuss Voigt Hill
#
# Bulk Modulus (GPa) = 36.03885 63.18895 49.61390
# Shear Modulus (GPa) = 18.86020 22.73660 20.79840
#
# Velocity S-wave (km/s) = 3.17618 3.48734 3.33539
# Velocity P-wave (km/s) = 5.72081 7.07209 6.43204
#
# Compressibility (1/GPa) = 0.02774783
#
# Stress axis : x y z
#
# Youngs Moduli (GPa) = 27.04120 61.74591 74.44941
#
# Poissons Ratio (x) = 0.34246 0.43355
# Poissons Ratio (y) = 0.14998 0.60009
# Poissons Ratio (z) = 0.15747 0.49769
#
# Static dielectric constant tensor:
#      x y z
#    x 2.918710 0.000000 0.000000 
#    y 0.000000 3.525480 0.000000 
#    z 0.000000 0.000000 3.477680 
# 
# 
# High freq. dielectric constant tensor:
#      x y z
#    x 1.670620 0.000000 0.000000 
#    y 0.000000 1.726410 0.000000 
#    z 0.000000 0.000000 1.731340 
# 
# From -- ./inp_files/16885.got.cif
#   From: 2010.03.12/outbox.cif.g09.slc.cpg/sg44_9_cif.got.tgz:16885.got - 2010.04.14 02:36:11.
