data_PCOD8189862
_publ_section_title
;
Structure prediction by ZEFSAII (Michael W. Deem and Ramdas Pophale) SiO2 
 PCOD8189862
Probable space group: I M M 2
;
_chemical_formula_sum "Si O2"
_cell_formula_units_Z 40
_cell_length_a 7.526013
_cell_length_b 8.982627
_cell_length_c 29.170407
_cell_angle_alpha 90.000000
_cell_angle_beta 90.000000
_cell_angle_gamma 90.000000
_cell_volume 1972.017747
_symmetry_space_group_name_H-M "I M M 2"
_symmetry_group_IT_number 44
_symmetry_cell_setting 'orthorhombic'
loop_
_space_group_symop_operation_xyz
x,y,z
-x,-y,z
-x,y,z
x,-y,z
1/2+x,1/2+y,1/2+z
1/2-x,1/2-y,1/2+z
1/2-x,1/2+y,1/2+z
1/2+x,1/2-y,1/2+z
loop_
_atom_site_type_symbol
_atom_site_label
_atom_site_fract_x
_atom_site_fract_y
_atom_site_fract_z
Si Si1 0.000000 0.327409 0.418550
Si Si2 0.203609 0.336967 0.672893
Si Si3 0.209098 0.826088 0.762464
Si Si4 0.209886 0.666383 0.081946
Si Si5 0.702854 0.327823 0.490948
Si Si6 0.000000 0.176380 0.322811
O O1 0.823811 0.290215 0.447507
O O2 0.000000 0.217678 0.375980
O O3 0.000000 0.500000 0.402869
O O4 0.297730 0.500000 0.672665
O O5 0.280908 0.233742 0.713361
O O6 0.220507 0.261673 0.623916
O O7 0.000000 0.360309 0.684325
O O8 0.320253 0.743111 0.801431
O O9 0.000000 0.795635 0.770616
O O10 0.251851 0.000000 0.764399
O O11 0.287370 0.500000 0.085872
O O12 0.000000 0.666288 0.083219
O O13 0.276359 0.736805 0.034419
O O14 0.500000 0.284197 0.478701
O O15 0.718119 0.500000 0.504479
O O16 0.000000 0.000000 0.316428
#
# Coordination Sequence:
#
# PCOD8189862 Si02
#       6
#     4   8   8   8   8   4
#     4  10  22  40  62  88 116 152 204 254 303 366
#     4  10  21  36  56  84 118 156 198 243 297 359
#     4  10  22  42  66  90 121 160 204 256 309 363
#     4  10  21  35  53  81 117 157 198 241 293 355
#     4   9  19  37  59  83 115 153 195 248 303 354
#     4  12  26  42  64  94 126 162 204 252 311 374
#
# _framework density 20.283792999999999
#
# number of rings (size 3 to 8) (size 9 to 14) (size 15 to 20)
#    0.000    2.000    0.000    2.700    2.800    5.200 
#    0.000    2.000    0.000    0.000    0.000    0.000 
#    0.000    0.000    0.000    0.000    0.000    0.000 
#
# Total GULP energy -248009.069718 kJ/mol
# GULP energy per Si atom -12400.453486 kJ/mol
# Density = 2.023763 g / cm^3
# Si number density = 20.283793 Si / 1000 Ang^3
#
#
#
# Elastic Constant Matrix: (Units=GPa)
#
#
# Indices 1 2 3 4 5 6 
#
# 1 76.9646 46.2106 49.0637 0.0000 0.0000 0.0000
# 2 46.2106 165.0197 81.7394 0.0000 0.0000 0.0000
# 3 49.0637 81.7394 142.5978 0.0000 0.0000 0.0000
# 4 0.0000 0.0000 0.0000 37.2725 0.0000 0.0000
# 5 0.0000 0.0000 0.0000 0.0000 31.3084 0.0000
# 6 0.0000 0.0000 0.0000 0.0000 0.0000 20.9759
#
#
#
# Elastic Compliance Matrix: (Units=1/GPa)
#
#
# Indices 1 2 3 4 5 6 
#
# 1 0.017447 -0.002671 -0.004472 0.000000 0.000000 0.000000
# 2 -0.002671 0.008871 -0.004166 0.000000 0.000000 0.000000
# 3 -0.004472 -0.004166 0.010940 0.000000 0.000000 0.000000
# 4 0.000000 0.000000 0.000000 0.026829 0.000000 0.000000
# 5 0.000000 0.000000 0.000000 0.000000 0.031940 0.000000
# 6 0.000000 0.000000 0.000000 0.000000 0.000000 0.047674
#
#
# Mechanical properties :
#
#
# Convention : Reuss Voigt Hill
#
# Bulk Modulus (GPa) = 68.30552 82.06772 75.18662
# Shear Modulus (GPa) = 29.20543 31.74925 30.47734
#
# Velocity S-wave (km/s) = 3.79864 3.96062 3.88047
# Velocity P-wave (km/s) = 7.27926 7.83983 7.56474
#
# Compressibility (1/GPa) = 0.01464010
#
# Stress axis : x y z
#
# Youngs Moduli (GPa) = 57.31492 112.72099 91.40938
#
# Poissons Ratio (x) = 0.30102 0.40882
# Poissons Ratio (y) = 0.15306 0.38085
# Poissons Ratio (z) = 0.25633 0.46964
#
# Static dielectric constant tensor:
#      x y z
#    x 3.520820 0.000000 0.000000 
#    y 0.000000 4.037110 0.000000 
#    z 0.000000 0.000000 3.643910 
# 
# 
# High freq. dielectric constant tensor:
#      x y z
#    x 1.794550 0.000000 0.000000 
#    y 0.000000 1.800760 0.000000 
#    z 0.000000 0.000000 1.789310 
# 
# From -- ./inp_files/25941.got.cif
#   From: 2010.03.12/outbox.cif.g09.slc.cpg/sg44_13_cif.got.tgz:25941.got - 2010.04.14 02:36:11.
