data_PCOD8189004
_publ_section_title
;
Structure prediction by ZEFSAII (Michael W. Deem and Ramdas Pophale) SiO2 
 PCOD8189004
Probable space group: I M M 2
;
_chemical_formula_sum "Si O2"
_cell_formula_units_Z 48
_cell_length_a 8.530058
_cell_length_b 10.386471
_cell_length_c 28.238855
_cell_angle_alpha 90.000000
_cell_angle_beta 90.000000
_cell_angle_gamma 90.000000
_cell_volume 2501.883485
_symmetry_space_group_name_H-M "I M M 2"
_symmetry_group_IT_number 44
_symmetry_cell_setting 'orthorhombic'
loop_
_space_group_symop_operation_xyz
x,y,z
-x,-y,z
-x,y,z
x,-y,z
1/2+x,1/2+y,1/2+z
1/2-x,1/2-y,1/2+z
1/2-x,1/2+y,1/2+z
1/2+x,1/2-y,1/2+z
loop_
_atom_site_type_symbol
_atom_site_label
_atom_site_fract_x
_atom_site_fract_y
_atom_site_fract_z
Si Si1 0.183493 0.000000 0.381660
Si Si2 0.186169 0.642871 0.619536
Si Si3 0.182173 0.238181 0.921999
Si Si4 0.819039 0.652321 0.515355
Si Si5 0.181770 0.500000 0.366976
Si Si6 0.815578 0.000000 0.764168
Si Si7 0.313832 0.756523 0.217324
Si Si8 0.817992 0.000000 0.270625
O O1 0.263573 0.124057 0.404082
O O2 0.216358 0.000000 0.326113
O O3 0.000000 0.000000 0.393424
O O4 0.255915 0.500000 0.627730
O O5 0.237923 0.696095 0.567990
O O6 0.245671 0.731851 0.662810
O O7 0.000000 0.633114 0.619583
O O8 0.212520 0.228914 0.978177
O O9 0.000000 0.218028 0.910864
O O10 0.280773 0.127096 0.896596
O O11 0.795112 0.500000 0.509518
O O12 0.000000 0.689114 0.506762
O O13 0.280826 0.500000 0.319371
O O14 0.000000 0.500000 0.353779
O O15 0.742296 0.874122 0.739091
O O16 0.000000 0.000000 0.756737
O O17 0.500000 0.755213 0.218954
O O18 0.258104 0.874031 0.248866
O O19 0.000000 0.000000 0.258970
#
# Coordination Sequence:
#
# PCOD8189004 Si02
#       8
#     4   8   8   8   4   4   8   4
#     4  11  25  43  60  81 116 158 195 230 282 351
#     4   8  14  28  54  84 110 144 189 231 271 327
#     4  12  24  39  60  88 118 147 189 243 293 339
#     4   9  17  32  57  85 114 149 190 233 279 337
#     4  12  24  40  61  82 111 156 201 238 283 344
#     4  10  22  36  55  86 117 147 187 235 287 338
#     4  10  19  35  58  83 115 150 185 230 281 331
#     4  11  23  37  56  83 108 141 193 237 274 331
#
# _framework density 19.185544
#
# number of rings (size 3 to 8) (size 9 to 14) (size 15 to 20)
#    0.000    1.833    1.667    4.750    0.000    4.667 
#    0.000    1.667    0.000    3.000    0.000    0.000 
#    0.000    0.000    0.000    0.000    0.000    0.000 
#
# Total GULP energy -297586.098421 kJ/mol
# GULP energy per Si atom -12399.420768 kJ/mol
# Density = 1.914188 g / cm^3
# Si number density = 19.185544 Si / 1000 Ang^3
#
#
#
# Elastic Constant Matrix: (Units=GPa)
#
#
# Indices 1 2 3 4 5 6 
#
# 1 41.7723 17.2536 13.5208 0.0000 0.0000 0.0000
# 2 17.2536 128.5930 53.4006 0.0000 0.0000 0.0000
# 3 13.5208 53.4006 129.7991 0.0000 0.0000 0.0000
# 4 0.0000 0.0000 0.0000 7.6748 0.0000 0.0000
# 5 0.0000 0.0000 0.0000 0.0000 25.8462 0.0000
# 6 0.0000 0.0000 0.0000 0.0000 0.0000 -15.9530
#
#
#
# Elastic Compliance Matrix: (Units=1/GPa)
#
#
# Indices 1 2 3 4 5 6 
#
# 1 0.025587 -0.002806 -0.001511 0.000000 0.000000 0.000000
# 2 -0.002806 0.009686 -0.003693 0.000000 0.000000 0.000000
# 3 -0.001511 -0.003693 0.009381 0.000000 0.000000 0.000000
# 4 0.000000 0.000000 0.000000 0.130296 0.000000 0.000000
# 5 0.000000 0.000000 0.000000 0.000000 0.038690 0.000000
# 6 0.000000 0.000000 0.000000 0.000000 0.000000 -0.062684
#
#
# Mechanical properties :
#
#
# Convention : Reuss Voigt Hill
#
# Bulk Modulus (GPa) = 34.92166 52.05714 43.48940
# Shear Modulus (GPa) = 28.32523 17.91290 23.11907
#
# Velocity S-wave (km/s) = 3.84654 3.05891 3.47511
# Velocity P-wave (km/s) = 6.16193 6.29828 6.23048
#
# Compressibility (1/GPa) = 0.02863552
#
# Stress axis : x y z
#
# Youngs Moduli (GPa) = 39.08197 103.23731 106.59969
#
# Poissons Ratio (x) = 0.28964 0.16108
# Poissons Ratio (y) = 0.10965 0.39366
# Poissons Ratio (z) = 0.05906 0.38124
#
# Static dielectric constant tensor:
#      x y z
#    x 3.300380 0.000000 0.000000 
#    y 0.000000 3.506030 0.000000 
#    z 0.000000 0.000000 3.923360 
# 
# 
# High freq. dielectric constant tensor:
#      x y z
#    x 1.725580 0.000000 0.000000 
#    y 0.000000 1.733530 0.000000 
#    z 0.000000 0.000000 1.767020 
# 
# From -- ./inp_files/27022.got.cif
#   From: 2010.03.12/outbox.cif.g09.slc.cpg/sg44_14_cif.got.tgz:27022.got - 2010.04.14 02:36:11.
