data_PCOD8189349
_publ_section_title
;
Structure prediction by ZEFSAII (Michael W. Deem and Ramdas Pophale) SiO2 
 PCOD8189349
Probable space group: I M M 2
;
_chemical_formula_sum "Si O2"
_cell_formula_units_Z 64
_cell_length_a 23.147317
_cell_length_b 8.694842
_cell_length_c 18.835737
_cell_angle_alpha 90.000000
_cell_angle_beta 90.000000
_cell_angle_gamma 90.000000
_cell_volume 3790.923073
_symmetry_space_group_name_H-M "I M M 2"
_symmetry_group_IT_number 44
_symmetry_cell_setting 'orthorhombic'
loop_
_space_group_symop_operation_xyz
x,y,z
-x,-y,z
-x,y,z
x,-y,z
1/2+x,1/2+y,1/2+z
1/2-x,1/2-y,1/2+z
1/2-x,1/2+y,1/2+z
1/2+x,1/2-y,1/2+z
loop_
_atom_site_type_symbol
_atom_site_label
_atom_site_fract_x
_atom_site_fract_y
_atom_site_fract_z
Si Si1 0.729741 0.675905 0.175410
Si Si2 0.842607 0.678151 0.084554
Si Si3 0.774459 0.820115 0.960942
Si Si4 0.565860 0.820718 0.960785
Si Si5 0.832092 0.821078 0.535426
Si Si6 0.623935 0.821320 0.812929
Si Si7 0.248551 0.821525 0.317927
Si Si8 0.933184 0.177206 0.179158
O O1 0.725453 0.500000 0.200320
O O2 0.792098 0.708462 0.141278
O O3 0.680417 0.716228 0.117860
O O4 0.720557 0.783619 0.243340
O O5 0.858816 0.500000 0.079883
O O6 0.898341 0.773789 0.108819
O O7 0.822572 0.733676 0.007227
O O8 0.781666 0.772029 0.879191
O O9 0.783703 0.000000 0.969940
O O10 0.709691 0.776367 0.984642
O O11 0.500000 0.767416 0.968845
O O12 0.602399 0.724602 0.018179
O O13 0.573322 0.000000 0.977193
O O14 0.586231 0.780923 0.881621
O O15 0.819934 0.000000 0.520224
O O16 0.681563 0.721931 0.813570
O O17 0.585486 0.781867 0.745039
O O18 0.641439 0.000000 0.810225
O O19 0.254499 0.000000 0.334854
O O20 0.000000 0.206290 0.162644
O O21 0.920532 0.000000 0.197372
#
# Coordination Sequence:
#
# PCOD8189349 Si02
#       8
#     8   8   8   8   8   8   8   8
#     4   9  19  34  51  73 101 132 167 209 260 310
#     4  10  20  35  54  75 101 133 173 217 259 305
#     4  11  21  34  53  74 103 136 168 209 261 312
#     4  10  21  35  51  72 101 139 179 214 253 302
#     4  10  20  34  52  74 100 132 172 215 256 303
#     4  11  21  34  50  71 102 142 181 215 254 299
#     4  12  22  32  51  78 105 135 173 211 256 310
#     4  11  23  36  51  74 104 140 181 219 256 303
#
# _framework density 16.882432000000001
#
# number of rings (size 3 to 8) (size 9 to 14) (size 15 to 20)
#    0.000    1.500    2.500    4.875    0.000    4.750 
#    0.000    0.000    0.000    0.000    0.000    0.875 
#    0.000    3.000    0.000    0.000    0.000    0.000 
#
# Total GULP energy -396962.423157 kJ/mol
# GULP energy per Si atom -12405.075724 kJ/mol
# Density = 1.684401 g / cm^3
# Si number density = 16.882432 Si / 1000 Ang^3
#
#
#
# Elastic Constant Matrix: (Units=GPa)
#
#
# Indices 1 2 3 4 5 6 
#
# 1 76.6836 18.5128 43.8150 0.0000 0.0000 0.0000
# 2 18.5128 57.9704 28.7489 0.0000 0.0000 0.0000
# 3 43.8150 28.7489 100.6747 0.0000 0.0000 0.0000
# 4 0.0000 0.0000 0.0000 29.9639 0.0000 0.0000
# 5 0.0000 0.0000 0.0000 0.0000 23.8609 0.0000
# 6 0.0000 0.0000 0.0000 0.0000 0.0000 24.8256
#
#
#
# Elastic Compliance Matrix: (Units=1/GPa)
#
#
# Indices 1 2 3 4 5 6 
#
# 1 0.017577 -0.002120 -0.007045 0.000000 0.000000 0.000000
# 2 -0.002120 0.020352 -0.004889 0.000000 0.000000 0.000000
# 3 -0.007045 -0.004889 0.014395 0.000000 0.000000 0.000000
# 4 0.000000 0.000000 0.000000 0.033373 0.000000 0.000000
# 5 0.000000 0.000000 0.000000 0.000000 0.041910 0.000000
# 6 0.000000 0.000000 0.000000 0.000000 0.000000 0.040281
#
#
# Mechanical properties :
#
#
# Convention : Reuss Voigt Hill
#
# Bulk Modulus (GPa) = 41.29292 46.38689 43.83991
# Shear Modulus (GPa) = 24.50167 25.34690 24.92429
#
# Velocity S-wave (km/s) = 3.81374 3.87896 3.84649
# Velocity P-wave (km/s) = 6.62609 6.89912 6.76398
#
# Compressibility (1/GPa) = 0.02421723
#
# Stress axis : x y z
#
# Youngs Moduli (GPa) = 56.89111 49.13584 69.46835
#
# Poissons Ratio (x) = 0.10415 0.48938
# Poissons Ratio (y) = 0.12059 0.33964
# Poissons Ratio (z) = 0.40078 0.24023
#
# Static dielectric constant tensor:
#      x y z
#    x 3.005240 0.000000 0.000000 
#    y 0.000000 3.212720 0.000000 
#    z 0.000000 0.000000 3.233300 
# 
# 
# High freq. dielectric constant tensor:
#      x y z
#    x 1.620650 0.000000 0.000000 
#    y 0.000000 1.663920 0.000000 
#    z 0.000000 0.000000 1.648570 
# 
# From -- ./inp_files/20718.got.cif
#   From: 2010.03.12/outbox.cif.g09.slc.cpg/sg44_11_cif.got.tgz:20718.got - 2010.04.14 02:36:11.
