data_PCOD8189390
_publ_section_title
;
Structure prediction by ZEFSAII (Michael W. Deem and Ramdas Pophale) SiO2 
 PCOD8189390
Probable space group: I M M 2
;
_chemical_formula_sum "Si O2"
_cell_formula_units_Z 56
_cell_length_a 9.547543
_cell_length_b 17.003573
_cell_length_c 17.607964
_cell_angle_alpha 90.000000
_cell_angle_beta 90.000000
_cell_angle_gamma 90.000000
_cell_volume 2858.518155
_symmetry_space_group_name_H-M "I M M 2"
_symmetry_group_IT_number 44
_symmetry_cell_setting 'orthorhombic'
loop_
_space_group_symop_operation_xyz
x,y,z
-x,-y,z
-x,y,z
x,-y,z
1/2+x,1/2+y,1/2+z
1/2-x,1/2-y,1/2+z
1/2-x,1/2+y,1/2+z
1/2+x,1/2-y,1/2+z
loop_
_atom_site_type_symbol
_atom_site_label
_atom_site_fract_x
_atom_site_fract_y
_atom_site_fract_z
Si Si1 0.658406 0.655094 0.268930
Si Si2 0.834194 0.589990 0.562617
Si Si3 0.347659 0.910747 0.491320
Si Si4 0.837820 0.674183 0.409530
Si Si5 0.837551 0.330871 0.720270
Si Si6 0.336154 0.647394 0.864809
Si Si7 0.152836 0.910303 0.615765
O O1 0.500000 0.648892 0.299088
O O2 0.756938 0.634693 0.339500
O O3 0.683285 0.737616 0.225771
O O4 0.694967 0.591924 0.204130
O O5 0.775652 0.500000 0.562046
O O6 0.779420 0.638756 0.488941
O O7 0.786670 0.635872 0.638789
O O8 0.000000 0.587762 0.559855
O O9 0.500000 0.869504 0.477108
O O10 0.247090 0.911307 0.418773
O O11 0.267600 0.868216 0.561886
O O12 0.377288 0.000000 0.513745
O O13 0.810833 0.767107 0.402255
O O14 0.000000 0.653371 0.399866
O O15 0.733586 0.366541 0.782995
O O16 0.000000 0.354491 0.736101
O O17 0.500000 0.626401 0.860051
O O18 0.000000 0.868601 0.604614
O O19 0.139395 0.000000 0.589883
#
# Coordination Sequence:
#
# PCOD8189390 Si02
#       7
#     8   8   8   8   8   8   8
#     4   9  18  32  52  75 103 138 175 213 259 311
#     4   9  18  33  54  79 104 136 179 222 264 311
#     4  10  21  35  51  75 105 135 170 212 258 310
#     4   9  19  34  53  77 105 135 174 219 261 309
#     4   9  18  33  53  75 102 135 175 219 260 306
#     4  10  20  34  54  77 105 138 173 214 263 315
#     4   9  18  32  50  74 104 138 173 208 254 311
#
# _framework density 19.59057
#
# number of rings (size 3 to 8) (size 9 to 14) (size 15 to 20)
#    0.000    2.714    0.000    0.857    2.000    3.143 
#    0.000    2.143    0.000    0.857    0.000    0.000 
#    0.000    0.000    0.000    0.000    0.000    0.000 
#
# Total GULP energy -346973.106373 kJ/mol
# GULP energy per Si atom -12391.896656 kJ/mol
# Density = 1.954598 g / cm^3
# Si number density = 19.590570 Si / 1000 Ang^3
#
#
#
# Elastic Constant Matrix: (Units=GPa)
#
#
# Indices 1 2 3 4 5 6 
#
# 1 112.8786 18.6713 80.2021 0.0000 0.0000 0.0000
# 2 18.6713 37.9030 39.7450 0.0000 0.0000 0.0000
# 3 80.2021 39.7450 176.2161 0.0000 0.0000 0.0000
# 4 0.0000 0.0000 0.0000 31.9759 0.0000 0.0000
# 5 0.0000 0.0000 0.0000 0.0000 39.7958 0.0000
# 6 0.0000 0.0000 0.0000 0.0000 0.0000 13.4538
#
#
#
# Elastic Compliance Matrix: (Units=1/GPa)
#
#
# Indices 1 2 3 4 5 6 
#
# 1 0.013095 -0.000263 -0.005901 0.000000 0.000000 0.000000
# 2 -0.000263 0.034561 -0.007675 0.000000 0.000000 0.000000
# 3 -0.005901 -0.007675 0.010092 0.000000 0.000000 0.000000
# 4 0.000000 0.000000 0.000000 0.031274 0.000000 0.000000
# 5 0.000000 0.000000 0.000000 0.000000 0.025128 0.000000
# 6 0.000000 0.000000 0.000000 0.000000 0.000000 0.074328
#
#
# Mechanical properties :
#
#
# Convention : Reuss Voigt Hill
#
# Bulk Modulus (GPa) = 33.25653 67.13718 50.19685
# Shear Modulus (GPa) = 22.10633 29.60374 25.85504
#
# Velocity S-wave (km/s) = 3.36284 3.89153 3.63680
# Velocity P-wave (km/s) = 5.66488 7.38489 6.58132
#
# Compressibility (1/GPa) = 0.03006928
#
# Stress axis : x y z
#
# Youngs Moduli (GPa) = 76.36409 28.93421 99.09235
#
# Poissons Ratio (x) = 0.00762 0.58471
# Poissons Ratio (y) = 0.02011 0.76056
# Poissons Ratio (z) = 0.45060 0.22208
#
# Static dielectric constant tensor:
#      x y z
#    x 3.706010 0.000000 0.000000 
#    y 0.000000 3.391320 0.000000 
#    z 0.000000 0.000000 3.684130 
# 
# 
# High freq. dielectric constant tensor:
#      x y z
#    x 1.749660 0.000000 0.000000 
#    y 0.000000 1.737420 0.000000 
#    z 0.000000 0.000000 1.771290 
# 
# From -- ./inp_files/16464.got.cif
#   From: 2010.03.12/outbox.cif.g09.slc.cpg/sg44_9_cif.got.tgz:16464.got - 2010.04.14 02:36:11.
