data_PCOD8189715
_publ_section_title
;
Structure prediction by ZEFSAII (Michael W. Deem and Ramdas Pophale) SiO2 
 PCOD8189715
Probable space group: I M M 2
;
_chemical_formula_sum "Si O2"
_cell_formula_units_Z 64
_cell_length_a 8.807379
_cell_length_b 28.911391
_cell_length_c 12.803885
_cell_angle_alpha 90.000000
_cell_angle_beta 90.000000
_cell_angle_gamma 90.000000
_cell_volume 3260.299049
_symmetry_space_group_name_H-M "I M M 2"
_symmetry_group_IT_number 44
_symmetry_cell_setting 'orthorhombic'
loop_
_space_group_symop_operation_xyz
x,y,z
-x,-y,z
-x,y,z
x,-y,z
1/2+x,1/2+y,1/2+z
1/2-x,1/2-y,1/2+z
1/2-x,1/2+y,1/2+z
1/2+x,1/2-y,1/2+z
loop_
_atom_site_type_symbol
_atom_site_label
_atom_site_fract_x
_atom_site_fract_y
_atom_site_fract_z
Si Si1 0.823883 0.554501 0.081990
Si Si2 0.321434 0.738315 0.664435
Si Si3 0.174451 0.945520 0.797095
Si Si4 0.333383 0.201912 0.837772
Si Si5 0.679863 0.139894 0.195190
Si Si6 0.319026 0.882805 0.964559
Si Si7 0.680089 0.383155 0.907879
Si Si8 0.167005 0.216171 0.484107
O O1 0.797298 0.500000 0.072484
O O2 0.753560 0.573136 0.191109
O O3 0.000000 0.567850 0.081203
O O4 0.742580 0.576846 0.982426
O O5 0.500000 0.729193 0.679424
O O6 0.260789 0.784838 0.726103
O O7 0.230212 0.693033 0.698253
O O8 0.285741 0.752889 0.547363
O O9 0.252939 0.925943 0.901267
O O10 0.000000 0.930070 0.793599
O O11 0.193498 0.000000 0.804654
O O12 0.500000 0.180232 0.820602
O O13 0.249237 0.163822 0.909272
O O14 0.349632 0.253918 0.880584
O O15 0.500000 0.137784 0.205733
O O16 0.752504 0.111403 0.291159
O O17 0.734965 0.116932 0.085399
O O18 0.500000 0.884104 0.963158
O O19 0.500000 0.386804 0.900089
O O20 0.732354 0.334151 0.956219
O O21 0.000000 0.212010 0.537974
#
# Coordination Sequence:
#
# PCOD8189715 Si02
#       8
#     8   8   8   8   8   8   8   8
#     4  10  22  42  67  92 119 152 191 237 292 356
#     4  11  21  34  53  79 113 155 198 245 292 341
#     4  10  22  41  64  91 121 149 184 238 299 354
#     4   9  18  35  53  75 112 153 192 235 283 336
#     4  11  22  38  59  83 117 161 203 245 294 350
#     4  10  21  38  60  84 114 156 200 242 289 345
#     4  11  23  39  61  88 120 157 198 247 298 350
#     4  10  20  37  54  76 114 155 193 236 287 344
#
# _framework density 19.630101
#
# number of rings (size 3 to 8) (size 9 to 14) (size 15 to 20)
#    0.000    1.750    2.500    1.875    1.750    3.500 
#    0.000    1.250    0.000    0.750    0.000    0.000 
#    0.000    0.000    0.000    0.000    0.000    0.000 
#
# Total GULP energy -396565.182366 kJ/mol
# GULP energy per Si atom -12392.661949 kJ/mol
# Density = 1.958542 g / cm^3
# Si number density = 19.630101 Si / 1000 Ang^3
#
#
#
# Elastic Constant Matrix: (Units=GPa)
#
#
# Indices 1 2 3 4 5 6 
#
# 1 70.4311 24.5305 44.7077 -0.0002 -0.0001 0.0001
# 2 24.5305 46.3614 32.6377 -0.0003 -0.0002 0.0000
# 3 44.7077 32.6377 120.1581 -0.0015 -0.0009 0.0002
# 4 -0.0002 -0.0003 -0.0015 35.7873 -0.0003 0.0000
# 5 -0.0001 -0.0002 -0.0009 -0.0003 30.7200 -0.0002
# 6 0.0001 0.0000 0.0002 0.0000 -0.0002 28.2632
#
#
#
# Elastic Compliance Matrix: (Units=1/GPa)
#
#
# Indices 1 2 3 4 5 6 
#
# 1 0.020119 -0.006646 -0.005680 0.000000 0.000000 0.000000
# 2 -0.006646 0.028865 -0.005367 0.000000 0.000000 0.000000
# 3 -0.005680 -0.005367 0.011894 0.000000 0.000000 0.000000
# 4 0.000000 0.000000 0.000000 0.027943 0.000000 0.000000
# 5 0.000000 0.000000 0.000000 0.000000 0.032552 0.000000
# 6 0.000000 0.000000 0.000000 0.000000 0.000000 0.035382
#
#
# Mechanical properties :
#
#
# Convention : Reuss Voigt Hill
#
# Bulk Modulus (GPa) = 39.23217 48.96695 44.09956
# Shear Modulus (GPa) = 24.92037 27.95908 26.43972
#
# Velocity S-wave (km/s) = 3.56687 3.77808 3.67399
# Velocity P-wave (km/s) = 6.08215 6.63557 6.36488
#
# Compressibility (1/GPa) = 0.02548928
#
# Stress axis : x y z
#
# Youngs Moduli (GPa) = 49.70448 34.64413 84.07714
#
# Poissons Ratio (x) = 0.23025 0.47759
# Poissons Ratio (y) = 0.33035 0.45128
# Poissons Ratio (z) = 0.28234 0.18595
#
# Static dielectric constant tensor:
#      x y z
#    x 3.528930 0.000000 0.000000 
#    y 0.000000 3.425500 0.000000 
#    z 0.000000 0.000000 3.769890 
# 
# 
# High freq. dielectric constant tensor:
#      x y z
#    x 1.756360 0.000000 0.000000 
#    y 0.000000 1.748930 0.000000 
#    z 0.000000 0.000000 1.778530 
# 
# From -- ./inp_files/11433.got.cif
#   From: 2010.03.12/outbox.cif.g09.slc.cpg/sg44_6_cif.got.tgz:11433.got - 2010.04.14 02:36:11.
