data_PCOD8189070
_publ_section_title
;
Structure prediction by ZEFSAII (Michael W. Deem and Ramdas Pophale) SiO2 
 PCOD8189070
Probable space group: I M M 2
;
_chemical_formula_sum "Si O2"
_cell_formula_units_Z 64
_cell_length_a 19.304149
_cell_length_b 18.472131
_cell_length_c 9.126423
_cell_angle_alpha 90.000000
_cell_angle_beta 90.000000
_cell_angle_gamma 90.000000
_cell_volume 3254.379945
_symmetry_space_group_name_H-M "I M M 2"
_symmetry_group_IT_number 44
_symmetry_cell_setting 'orthorhombic'
loop_
_space_group_symop_operation_xyz
x,y,z
-x,-y,z
-x,y,z
x,-y,z
1/2+x,1/2+y,1/2+z
1/2-x,1/2-y,1/2+z
1/2-x,1/2+y,1/2+z
1/2+x,1/2-y,1/2+z
loop_
_atom_site_type_symbol
_atom_site_label
_atom_site_fract_x
_atom_site_fract_y
_atom_site_fract_z
Si Si1 0.080010 0.284640 0.232860
Si Si2 0.922792 0.336879 0.697172
Si Si3 0.723498 0.419165 0.375135
Si Si4 0.693224 0.290060 0.553103
Si Si5 0.881630 0.582888 0.410789
Si Si6 0.078132 0.802708 0.519016
Si Si7 0.193437 0.082710 0.547270
Si Si8 0.280372 0.830381 0.335659
O O1 0.124043 0.252573 0.098916
O O2 0.096813 0.368481 0.270316
O O3 0.101783 0.236672 0.371285
O O4 0.000000 0.276883 0.190306
O O5 0.919903 0.389016 0.555989
O O6 0.913398 0.253222 0.652122
O O7 0.861229 0.352291 0.812481
O O8 0.000000 0.348041 0.766976
O O9 0.693566 0.500000 0.399347
O O10 0.674219 0.363391 0.463337
O O11 0.800039 0.411758 0.441336
O O12 0.729698 0.401206 0.202854
O O13 0.733348 0.237567 0.441909
O O14 0.744853 0.310146 0.683245
O O15 0.903692 0.500000 0.378061
O O16 0.122922 0.873190 0.543311
O O17 0.000000 0.830093 0.505393
O O18 0.244723 0.101322 0.413689
O O19 0.172151 0.000000 0.530093
#
# Coordination Sequence:
#
# PCOD8189070 Si02
#       8
#     8   8   8   8   8   8   8   8
#     4  10  21  36  56  87 121 157 204 246 292 364
#     4  10  21  36  57  87 121 156 202 251 300 367
#     4  10  22  39  61  89 119 153 202 255 304 363
#     4  12  22  38  63  86 120 159 201 246 306 358
#     4  10  19  36  60  87 120 159 201 248 299 359
#     4   9  18  37  59  83 118 159 202 251 302 358
#     4  11  23  39  60  91 123 156 204 256 308 366
#     4  12  23  36  60  88 120 158 200 247 310 358
#
# _framework density 19.665804000000001
#
# number of rings (size 3 to 8) (size 9 to 14) (size 15 to 20)
#    0.000    1.500    2.500    4.875    0.000    2.750 
#    0.000    0.625    0.000    1.125    0.000    1.750 
#    0.000    0.000    0.000    0.000    0.000    0.000 
#
# Total GULP energy -396823.260357 kJ/mol
# GULP energy per Si atom -12400.726886 kJ/mol
# Density = 1.962104 g / cm^3
# Si number density = 19.665804 Si / 1000 Ang^3
#
#
#
# Elastic Constant Matrix: (Units=GPa)
#
#
# Indices 1 2 3 4 5 6 
#
# 1 90.8576 51.5702 27.4318 0.0000 0.0000 0.0000
# 2 51.5702 132.1051 45.3113 0.0000 0.0000 0.0000
# 3 27.4318 45.3113 75.5848 0.0000 0.0000 0.0000
# 4 0.0000 0.0000 0.0000 33.0691 0.0000 0.0000
# 5 0.0000 0.0000 0.0000 0.0000 27.7748 0.0000
# 6 0.0000 0.0000 0.0000 0.0000 0.0000 20.8802
#
#
#
# Elastic Compliance Matrix: (Units=1/GPa)
#
#
# Indices 1 2 3 4 5 6 
#
# 1 0.014462 -0.004841 -0.002347 0.000000 0.000000 0.000000
# 2 -0.004841 0.011149 -0.004927 0.000000 0.000000 0.000000
# 3 -0.002347 -0.004927 0.017035 0.000000 0.000000 0.000000
# 4 0.000000 0.000000 0.000000 0.030240 0.000000 0.000000
# 5 0.000000 0.000000 0.000000 0.000000 0.036004 0.000000
# 6 0.000000 0.000000 0.000000 0.000000 0.000000 0.047892
#
#
# Mechanical properties :
#
#
# Convention : Reuss Voigt Hill
#
# Bulk Modulus (GPa) = 54.29438 60.79711 57.54574
# Shear Modulus (GPa) = 26.71632 27.96044 27.33838
#
# Velocity S-wave (km/s) = 3.68980 3.77474 3.73251
# Velocity P-wave (km/s) = 6.76915 7.06969 6.92105
#
# Compressibility (1/GPa) = 0.01841811
#
# Stress axis : x y z
#
# Youngs Moduli (GPa) = 69.14485 89.69146 58.70102
#
# Poissons Ratio (x) = 0.43417 0.13776
# Poissons Ratio (y) = 0.33471 0.28921
# Poissons Ratio (z) = 0.16227 0.44190
#
# Static dielectric constant tensor:
#      x y z
#    x 3.495650 0.000000 0.000000 
#    y 0.000000 3.627610 0.000000 
#    z 0.000000 0.000000 3.558020 
# 
# 
# High freq. dielectric constant tensor:
#      x y z
#    x 1.761550 0.000000 0.000000 
#    y 0.000000 1.764920 0.000000 
#    z 0.000000 0.000000 1.757600 
# 
# From -- ./inp_files/9052.got.cif
#   From: 2010.03.12/outbox.cif.g09.slc.cpg/sg44_5_cif.got.tgz:9052.got - 2010.04.14 02:36:11.
