data_PCOD8189286
_publ_section_title
;
Structure prediction by ZEFSAII (Michael W. Deem and Ramdas Pophale) SiO2 
 PCOD8189286
Probable space group: I M M 2
;
_chemical_formula_sum "Si O2"
_cell_formula_units_Z 56
_cell_length_a 9.145740
_cell_length_b 23.480132
_cell_length_c 13.836812
_cell_angle_alpha 90.000000
_cell_angle_beta 90.000000
_cell_angle_gamma 90.000000
_cell_volume 2971.361044
_symmetry_space_group_name_H-M "I M M 2"
_symmetry_group_IT_number 44
_symmetry_cell_setting 'orthorhombic'
loop_
_space_group_symop_operation_xyz
x,y,z
-x,-y,z
-x,y,z
x,-y,z
1/2+x,1/2+y,1/2+z
1/2-x,1/2-y,1/2+z
1/2-x,1/2+y,1/2+z
1/2+x,1/2-y,1/2+z
loop_
_atom_site_type_symbol
_atom_site_label
_atom_site_fract_x
_atom_site_fract_y
_atom_site_fract_z
Si Si1 0.327375 0.340475 0.626620
Si Si2 0.329259 0.613440 0.914780
Si Si3 0.830482 0.171114 0.910416
Si Si4 0.169581 0.566014 0.092959
Si Si5 0.667842 0.065118 0.237461
Si Si6 0.332180 0.435743 0.288032
Si Si7 0.332840 0.270516 0.810041
O O1 0.500000 0.353861 0.630128
O O2 0.273968 0.321856 0.520282
O O3 0.243697 0.398018 0.654230
O O4 0.286859 0.290656 0.702358
O O5 0.500000 0.597889 0.916147
O O6 0.249562 0.572207 0.839300
O O7 0.303337 0.678793 0.885399
O O8 0.259854 0.604897 0.019545
O O9 0.795876 0.107003 0.875436
O O10 0.757785 0.215574 0.838473
O O11 0.000000 0.184698 0.906654
O O12 0.194689 0.500000 0.066935
O O13 0.227700 0.579813 0.199325
O O14 0.000000 0.582735 0.087733
O O15 0.500000 0.084288 0.250638
O O16 0.678759 0.000000 0.204370
O O17 0.500000 0.429192 0.253776
O O18 0.301721 0.500000 0.324880
O O19 0.500000 0.251848 0.811184
#
# Coordination Sequence:
#
# PCOD8189286 Si02
#       7
#     8   8   8   8   8   8   8
#     4   9  20  38  56  77 106 140 180 221 263 316
#     4  10  20  34  53  78 108 144 184 221 263 316
#     4  10  21  37  59  83 104 135 179 221 265 316
#     4  10  20  33  51  78 110 143 180 222 268 316
#     4  10  20  33  51  79 112 143 178 220 266 316
#     4   9  19  36  55  77 107 140 176 219 264 315
#     4   9  20  37  54  76 107 139 173 216 265 318
#
# _framework density 18.846582999999999
#
# number of rings (size 3 to 8) (size 9 to 14) (size 15 to 20)
#    0.000    2.429    0.000    2.571    0.000    9.429 
#    0.000    4.286    0.000    1.714    0.000    0.000 
#    0.000    0.000    0.000    0.000    0.000    0.000 
#
# Total GULP energy -347260.592573 kJ/mol
# GULP energy per Si atom -12402.164020 kJ/mol
# Density = 1.880369 g / cm^3
# Si number density = 18.846583 Si / 1000 Ang^3
#
#
#
# Elastic Constant Matrix: (Units=GPa)
#
#
# Indices 1 2 3 4 5 6 
#
# 1 86.7421 49.3656 52.8049 0.0001 0.0000 0.0000
# 2 49.3656 101.9556 68.3494 0.0000 0.0000 0.0000
# 3 52.8049 68.3494 130.6150 0.0002 -0.0001 0.0000
# 4 0.0001 0.0000 0.0002 23.6977 -0.0001 0.0000
# 5 0.0000 0.0000 -0.0001 -0.0001 24.0943 0.0000
# 6 0.0000 0.0000 0.0000 0.0000 0.0000 33.3988
#
#
#
# Elastic Compliance Matrix: (Units=1/GPa)
#
#
# Indices 1 2 3 4 5 6 
#
# 1 0.017165 -0.005636 -0.003990 0.000000 0.000000 0.000000
# 2 -0.005636 0.016959 -0.006596 0.000000 0.000000 0.000000
# 3 -0.003990 -0.006596 0.012721 0.000000 0.000000 0.000000
# 4 0.000000 0.000000 0.000000 0.042198 0.000000 0.000000
# 5 0.000000 0.000000 0.000000 0.000000 0.041504 0.000000
# 6 0.000000 0.000000 0.000000 0.000000 0.000000 0.029941
#
#
# Mechanical properties :
#
#
# Convention : Reuss Voigt Hill
#
# Bulk Modulus (GPa) = 69.44234 73.37249 71.40742
# Shear Modulus (GPa) = 25.28676 26.15769 25.72222
#
# Velocity S-wave (km/s) = 3.66692 3.72953 3.69836
# Velocity P-wave (km/s) = 7.40638 7.58695 7.49721
#
# Compressibility (1/GPa) = 0.01440044
#
# Stress axis : x y z
#
# Youngs Moduli (GPa) = 58.25804 58.96622 78.61190
#
# Poissons Ratio (x) = 0.33234 0.31367
# Poissons Ratio (y) = 0.32835 0.51851
# Poissons Ratio (z) = 0.23246 0.38893
#
# Static dielectric constant tensor:
#      x y z
#    x 3.493390 0.000000 0.000000 
#    y 0.000000 3.347440 0.000000 
#    z 0.000000 0.000000 3.469030 
# 
# 
# High freq. dielectric constant tensor:
#      x y z
#    x 1.735140 0.000000 0.000000 
#    y 0.000000 1.726170 0.000000 
#    z 0.000000 0.000000 1.729450 
# 
# From -- ./inp_files/16507.got.cif
#   From: 2010.03.12/outbox.cif.g09.slc.cpg/sg44_9_cif.got.tgz:16507.got - 2010.04.14 02:36:11.
