data_PCOD8189112
_publ_section_title
;
Structure prediction by ZEFSAII (Michael W. Deem and Ramdas Pophale) SiO2 
 PCOD8189112
Probable space group: I M M 2
;
_chemical_formula_sum "Si O2"
_cell_formula_units_Z 56
_cell_length_a 13.717234
_cell_length_b 9.106065
_cell_length_c 29.513938
_cell_angle_alpha 90.000000
_cell_angle_beta 90.000000
_cell_angle_gamma 90.000000
_cell_volume 3686.586716
_symmetry_space_group_name_H-M "I M M 2"
_symmetry_group_IT_number 44
_symmetry_cell_setting 'orthorhombic'
loop_
_space_group_symop_operation_xyz
x,y,z
-x,-y,z
-x,y,z
x,-y,z
1/2+x,1/2+y,1/2+z
1/2-x,1/2-y,1/2+z
1/2-x,1/2+y,1/2+z
1/2+x,1/2-y,1/2+z
loop_
_atom_site_type_symbol
_atom_site_label
_atom_site_fract_x
_atom_site_fract_y
_atom_site_fract_z
Si Si1 0.616110 0.836468 0.497640
Si Si2 0.110712 0.826692 0.909646
Si Si3 0.112600 0.829513 0.270845
Si Si4 0.796056 0.325450 0.186976
Si Si5 0.391434 0.174787 0.595867
Si Si6 0.393685 0.672826 0.234328
Si Si7 0.224169 0.826300 0.821480
O O1 0.500000 0.839806 0.499090
O O2 0.653833 0.735304 0.456731
O O3 0.650851 0.773386 0.546819
O O4 0.657523 0.000000 0.489530
O O5 0.180461 0.772512 0.869250
O O6 0.000000 0.770311 0.901158
O O7 0.111320 0.000000 0.912797
O O8 0.133384 0.750702 0.223128
O O9 0.174765 0.756805 0.311502
O O10 0.000000 0.807769 0.283469
O O11 0.140314 0.000000 0.266403
O O12 0.809974 0.500000 0.192552
O O13 0.822437 0.270149 0.136563
O O14 0.683970 0.277771 0.196111
O O15 0.500000 0.238462 0.604215
O O16 0.396554 0.000000 0.594981
O O17 0.500000 0.746407 0.225726
O O18 0.405916 0.500000 0.232955
O O19 0.354272 0.719788 0.283479
O O20 0.244053 0.000000 0.820712
#
# Coordination Sequence:
#
# PCOD8189112 Si02
#       7
#     8   8   8   8   8   8   8
#     4   8  14  24  37  54  78 107 135 163 199 242
#     4   9  16  26  41  62  86 107 130 165 203 235
#     4  10  20  31  41  57  83 108 129 162 206 242
#     4   9  16  26  43  62  78 105 142 170 195 232
#     4   8  13  22  37  57  79 102 133 171 201 230
#     4   8  13  22  37  58  81 101 125 161 199 230
#     4   9  17  28  43  60  77 104 138 163 190 235
#
# _framework density 15.190203
#
# number of rings (size 3 to 8) (size 9 to 14) (size 15 to 20)
#    0.000    3.286    0.000    3.000    0.000    4.000 
#    0.000    0.714    0.000   12.857    0.000    1.000 
#    0.000    3.429    0.000    0.000    0.000    0.000 
#
# Total GULP energy -346980.319394 kJ/mol
# GULP energy per Si atom -12392.154264 kJ/mol
# Density = 1.515563 g / cm^3
# Si number density = 15.190203 Si / 1000 Ang^3
#
#
#
# Elastic Constant Matrix: (Units=GPa)
#
#
# Indices 1 2 3 4 5 6 
#
# 1 90.8455 25.1541 61.8726 0.0000 0.0000 0.0000
# 2 25.1541 31.8711 30.3799 0.0000 0.0000 0.0000
# 3 61.8726 30.3799 152.7490 0.0000 0.0000 0.0000
# 4 0.0000 0.0000 0.0000 20.9279 0.0000 0.0000
# 5 0.0000 0.0000 0.0000 0.0000 23.9642 0.0000
# 6 0.0000 0.0000 0.0000 0.0000 0.0000 13.5944
#
#
#
# Elastic Compliance Matrix: (Units=1/GPa)
#
#
# Indices 1 2 3 4 5 6 
#
# 1 0.016837 -0.008376 -0.005154 0.000000 0.000000 0.000000
# 2 -0.008376 0.042883 -0.005136 0.000000 0.000000 0.000000
# 3 -0.005154 -0.005136 0.009656 0.000000 0.000000 0.000000
# 4 0.000000 0.000000 0.000000 0.047783 0.000000 0.000000
# 5 0.000000 0.000000 0.000000 0.000000 0.041729 0.000000
# 6 0.000000 0.000000 0.000000 0.000000 0.000000 0.073560
#
#
# Mechanical properties :
#
#
# Convention : Reuss Voigt Hill
#
# Bulk Modulus (GPa) = 31.20737 56.69764 43.95250
# Shear Modulus (GPa) = 17.82779 22.23457 20.03118
#
# Velocity S-wave (km/s) = 3.42956 3.83004 3.63532
# Velocity P-wave (km/s) = 6.02258 7.54752 6.82776
#
# Compressibility (1/GPa) = 0.03204371
#
# Stress axis : x y z
#
# Youngs Moduli (GPa) = 59.39201 23.31952 103.56222
#
# Poissons Ratio (x) = 0.19531 0.53379
# Poissons Ratio (y) = 0.49744 0.53192
# Poissons Ratio (z) = 0.30613 0.11977
#
# Static dielectric constant tensor:
#      x y z
#    x 2.924600 0.000000 0.000000 
#    y 0.000000 2.698600 0.000000 
#    z 0.000000 0.000000 3.192720 
# 
# 
# High freq. dielectric constant tensor:
#      x y z
#    x 1.554520 0.000000 0.000000 
#    y 0.000000 1.555620 0.000000 
#    z 0.000000 0.000000 1.582630 
# 
# From -- ./inp_files/27208.got.cif
#   From: 2010.03.12/outbox.cif.g09.slc.cpg/sg44_14_cif.got.tgz:27208.got - 2010.04.14 02:36:11.
