data_PCOD8189904
_publ_section_title
;
Structure prediction by ZEFSAII (Michael W. Deem and Ramdas Pophale) SiO2 
 PCOD8189904
Probable space group: I M M 2
;
_chemical_formula_sum "Si O2"
_cell_formula_units_Z 64
_cell_length_a 23.840094
_cell_length_b 14.048812
_cell_length_c 10.207249
_cell_angle_alpha 90.000000
_cell_angle_beta 90.000000
_cell_angle_gamma 90.000000
_cell_volume 3418.662858
_symmetry_space_group_name_H-M "I M M 2"
_symmetry_group_IT_number 44
_symmetry_cell_setting 'orthorhombic'
loop_
_space_group_symop_operation_xyz
x,y,z
-x,-y,z
-x,y,z
x,-y,z
1/2+x,1/2+y,1/2+z
1/2-x,1/2-y,1/2+z
1/2-x,1/2+y,1/2+z
1/2+x,1/2-y,1/2+z
loop_
_atom_site_type_symbol
_atom_site_label
_atom_site_fract_x
_atom_site_fract_y
_atom_site_fract_z
Si Si1 0.738552 0.889743 0.625000
Si Si2 0.935176 0.603063 0.977072
Si Si3 0.565104 0.251237 0.690905
Si Si4 0.673016 0.769748 0.122273
Si Si5 0.564647 0.249391 0.259242
Si Si6 0.065511 0.896250 0.973520
Si Si7 0.738480 0.110392 0.325569
Si Si8 0.673285 0.770237 0.828688
O O1 0.795596 0.830296 0.646000
O O2 0.716439 0.877406 0.475243
O O3 0.692533 0.850367 0.726002
O O4 0.751304 0.000000 0.655793
O O5 0.904149 0.500000 0.977986
O O6 0.928164 0.650025 0.835219
O O7 0.000000 0.588562 0.005962
O O8 0.913017 0.668312 0.094268
O O9 0.500000 0.240408 0.734468
O O10 0.575626 0.350086 0.615237
O O11 0.606445 0.248451 0.814895
O O12 0.606155 0.751795 0.135558
O O13 0.691691 0.849268 0.226918
O O14 0.684891 0.807529 0.975646
O O15 0.500000 0.264790 0.214281
O O16 0.588086 0.331861 0.355237
O O17 0.000000 0.905110 0.949328
O O18 0.094669 0.000000 0.970300
O O19 0.795365 0.170139 0.303287
O O20 0.750899 0.000000 0.293807
#
# Coordination Sequence:
#
# PCOD8189904 Si02
#       8
#     8   8   8   8   8   8   8   8
#     4   9  20  39  60  77  99 139 185 226 269 314
#     4   8  15  29  48  71 101 138 179 217 248 293
#     4   9  18  31  50  78 110 142 176 213 261 320
#     4  10  21  36  55  80 113 140 172 224 270 322
#     4   9  18  31  50  78 110 142 176 213 261 320
#     4   8  15  29  48  73 107 142 179 221 254 293
#     4   9  20  39  60  77  99 139 185 226 269 314
#     4  10  21  36  55  80 113 140 172 224 270 322
#
# _framework density 18.720770000000002
#
# number of rings (size 3 to 8) (size 9 to 14) (size 15 to 20)
#    0.000    3.000    0.000    1.500    3.500    3.000 
#    0.000    0.000    0.000    0.000    0.000   12.250 
#    0.000    0.000    0.000    0.000    0.000    0.000 
#
# Total GULP energy -396571.477300 kJ/mol
# GULP energy per Si atom -12392.858666 kJ/mol
# Density = 1.867816 g / cm^3
# Si number density = 18.720770 Si / 1000 Ang^3
#
#
#
# Elastic Constant Matrix: (Units=GPa)
#
#
# Indices 1 2 3 4 5 6 
#
# 1 94.6590 23.6297 48.5497 0.0000 0.0000 0.0000
# 2 23.6297 131.5108 41.4122 0.0000 0.0000 0.0000
# 3 48.5497 41.4122 88.1999 0.0000 0.0000 0.0000
# 4 0.0000 0.0000 0.0000 19.0271 0.0000 0.0000
# 5 0.0000 0.0000 0.0000 0.0000 30.9793 0.0000
# 6 0.0000 0.0000 0.0000 0.0000 0.0000 12.0741
#
#
#
# Elastic Compliance Matrix: (Units=1/GPa)
#
#
# Indices 1 2 3 4 5 6 
#
# 1 0.014721 -0.000110 -0.008052 0.000000 0.000000 0.000000
# 2 -0.000110 0.008924 -0.004130 0.000000 0.000000 0.000000
# 3 -0.008052 -0.004130 0.017709 0.000000 0.000000 0.000000
# 4 0.000000 0.000000 0.000000 0.052557 0.000000 0.000000
# 5 0.000000 0.000000 0.000000 0.000000 0.032280 0.000000
# 6 0.000000 0.000000 0.000000 0.000000 0.000000 0.082822
#
#
# Mechanical properties :
#
#
# Convention : Reuss Voigt Hill
#
# Bulk Modulus (GPa) = 59.62332 60.17256 59.89794
# Shear Modulus (GPa) = 20.90422 25.80129 23.35276
#
# Velocity S-wave (km/s) = 3.34523 3.71646 3.53572
# Velocity P-wave (km/s) = 6.84388 7.11534 6.98093
#
# Compressibility (1/GPa) = 0.01677196
#
# Stress axis : x y z
#
# Youngs Moduli (GPa) = 67.92856 112.05636 56.46807
#
# Poissons Ratio (x) = 0.01228 0.45468
# Poissons Ratio (y) = 0.00744 0.23320
# Poissons Ratio (z) = 0.54696 0.46277
#
# Static dielectric constant tensor:
#      x y z
#    x 3.247950 0.000000 0.000000 
#    y 0.000000 4.163830 0.000000 
#    z 0.000000 0.000000 3.246680 
# 
# 
# High freq. dielectric constant tensor:
#      x y z
#    x 1.716470 0.000000 0.000000 
#    y 0.000000 1.726220 0.000000 
#    z 0.000000 0.000000 1.706790 
# 
# From -- ./inp_files/7576.got.cif
#   From: 2010.03.12/outbox.cif.g09.slc.cpg/sg44_4_cif.got.tgz:7576.got - 2010.04.14 02:36:11.
