data_PCOD8189340
_publ_section_title
;
Structure prediction by ZEFSAII (Michael W. Deem and Ramdas Pophale) SiO2 
 PCOD8189340
Probable space group: I M M 2
;
_chemical_formula_sum "Si O2"
_cell_formula_units_Z 64
_cell_length_a 19.528384
_cell_length_b 9.294176
_cell_length_c 20.731043
_cell_angle_alpha 90.000000
_cell_angle_beta 90.000000
_cell_angle_gamma 90.000000
_cell_volume 3762.689236
_symmetry_space_group_name_H-M "I M M 2"
_symmetry_group_IT_number 44
_symmetry_cell_setting 'orthorhombic'
loop_
_space_group_symop_operation_xyz
x,y,z
-x,-y,z
-x,y,z
x,-y,z
1/2+x,1/2+y,1/2+z
1/2-x,1/2-y,1/2+z
1/2-x,1/2+y,1/2+z
1/2+x,1/2-y,1/2+z
loop_
_atom_site_type_symbol
_atom_site_label
_atom_site_fract_x
_atom_site_fract_y
_atom_site_fract_z
Si Si1 0.703940 0.671298 0.496430
Si Si2 0.074972 0.669458 0.416807
Si Si3 0.216527 0.165457 0.605514
Si Si4 0.078195 0.667149 0.949280
Si Si5 0.924576 0.163430 0.546536
Si Si6 0.922370 0.333671 0.800727
Si Si7 0.216135 0.329773 0.369290
Si Si8 0.199726 0.168709 0.749082
O O1 0.700381 0.500000 0.500716
O O2 0.739920 0.730314 0.560480
O O3 0.627406 0.735073 0.493062
O O4 0.745791 0.726033 0.433667
O O5 0.078463 0.500000 0.426554
O O6 0.088609 0.734800 0.486328
O O7 0.136382 0.720482 0.369787
O O8 0.000000 0.716029 0.389296
O O9 0.134961 0.193286 0.598115
O O10 0.233723 0.202167 0.679846
O O11 0.234906 0.000000 0.589066
O O12 0.096253 0.500000 0.959590
O O13 0.088677 0.711485 0.874954
O O14 0.000000 0.697167 0.970396
O O15 0.000000 0.194543 0.577115
O O16 0.920848 0.000000 0.521319
O O17 0.904505 0.500000 0.791605
O O18 0.874128 0.241760 0.754487
O O19 0.000000 0.301721 0.779808
O O20 0.221196 0.500000 0.367550
O O21 0.250769 0.266618 0.304761
O O22 0.188007 0.000000 0.757862
#
# Coordination Sequence:
#
# PCOD8189340 Si02
#       8
#     8   8   8   8   8   8   8   8
#     4  11  20  32  53  77 102 131 169 216 256 297
#     4   9  16  28  48  71  94 121 154 196 247 295
#     4  10  21  34  49  70 100 138 172 205 253 306
#     4   9  18  33  53  77 105 134 166 207 255 308
#     4   9  17  29  44  65  94 125 160 198 235 286
#     4   9  18  32  49  72 103 135 167 206 251 302
#     4   9  17  30  48  73  98 123 162 211 254 289
#     4  10  20  34  50  70 100 136 172 212 252 298
#
# _framework density 17.009111000000001
#
# number of rings (size 3 to 8) (size 9 to 14) (size 15 to 20)
#    0.000    2.500    2.500    1.125    0.000    1.500 
#    0.000    3.125    0.000    2.250    0.000    3.500 
#    0.000    0.000    0.000    0.000    0.000    0.000 
#
# Total GULP energy -396680.867532 kJ/mol
# GULP energy per Si atom -12396.277110 kJ/mol
# Density = 1.697040 g / cm^3
# Si number density = 17.009111 Si / 1000 Ang^3
#
#
#
# Elastic Constant Matrix: (Units=GPa)
#
#
# Indices 1 2 3 4 5 6 
#
# 1 111.6539 42.2495 56.9486 0.0000 0.0000 0.0000
# 2 42.2495 47.7527 36.1841 0.0000 0.0000 0.0000
# 3 56.9486 36.1841 95.1594 0.0000 0.0000 0.0000
# 4 0.0000 0.0000 0.0000 21.7330 0.0000 0.0000
# 5 0.0000 0.0000 0.0000 0.0000 23.6004 0.0000
# 6 0.0000 0.0000 0.0000 0.0000 0.0000 26.8634
#
#
#
# Elastic Compliance Matrix: (Units=1/GPa)
#
#
# Indices 1 2 3 4 5 6 
#
# 1 0.015362 -0.009307 -0.005655 0.000000 0.000000 0.000000
# 2 -0.009307 0.035056 -0.007760 0.000000 0.000000 0.000000
# 3 -0.005655 -0.007760 0.016843 0.000000 0.000000 0.000000
# 4 0.000000 0.000000 0.000000 0.046013 0.000000 0.000000
# 5 0.000000 0.000000 0.000000 0.000000 0.042372 0.000000
# 6 0.000000 0.000000 0.000000 0.000000 0.000000 0.037225
#
#
# Mechanical properties :
#
#
# Convention : Reuss Voigt Hill
#
# Bulk Modulus (GPa) = 45.83364 58.37005 52.10184
# Shear Modulus (GPa) = 20.35934 22.38494 21.37214
#
# Velocity S-wave (km/s) = 3.46347 3.63168 3.54858
# Velocity P-wave (km/s) = 6.55738 7.20950 6.89116
#
# Compressibility (1/GPa) = 0.02181804
#
# Stress axis : x y z
#
# Youngs Moduli (GPa) = 65.09541 28.52602 59.37040
#
# Poissons Ratio (x) = 0.26549 0.33571
# Poissons Ratio (y) = 0.60584 0.46072
# Poissons Ratio (z) = 0.36808 0.22136
#
# Static dielectric constant tensor:
#      x y z
#    x 3.434580 0.000000 0.000000 
#    y 0.000000 3.029430 0.000000 
#    z 0.000000 0.000000 3.023010 
# 
# 
# High freq. dielectric constant tensor:
#      x y z
#    x 1.663400 0.000000 0.000000 
#    y 0.000000 1.644770 0.000000 
#    z 0.000000 0.000000 1.626990 
# 
# From -- ./inp_files/20733.got.cif
#   From: 2010.03.12/outbox.cif.g09.slc.cpg/sg44_11_cif.got.tgz:20733.got - 2010.04.14 02:36:11.
