data_PCOD8189343
_publ_section_title
;
Structure prediction by ZEFSAII (Michael W. Deem and Ramdas Pophale) SiO2 
 PCOD8189343
Probable space group: I M M 2
;
_chemical_formula_sum "Si O2"
_cell_formula_units_Z 64
_cell_length_a 28.392641
_cell_length_b 8.833440
_cell_length_c 14.155090
_cell_angle_alpha 90.000000
_cell_angle_beta 90.000000
_cell_angle_gamma 90.000000
_cell_volume 3550.162969
_symmetry_space_group_name_H-M "I M M 2"
_symmetry_group_IT_number 44
_symmetry_cell_setting 'orthorhombic'
loop_
_space_group_symop_operation_xyz
x,y,z
-x,-y,z
-x,y,z
x,-y,z
1/2+x,1/2+y,1/2+z
1/2-x,1/2-y,1/2+z
1/2-x,1/2+y,1/2+z
1/2+x,1/2-y,1/2+z
loop_
_atom_site_type_symbol
_atom_site_label
_atom_site_fract_x
_atom_site_fract_y
_atom_site_fract_z
Si Si1 0.628180 0.322349 0.093930
Si Si2 0.801721 0.322418 0.455087
Si Si3 0.123667 0.678365 0.304821
Si Si4 0.202729 0.326407 0.951686
Si Si5 0.553505 0.179638 0.962874
Si Si6 0.624471 0.819695 0.595197
Si Si7 0.947615 0.320084 0.943858
Si Si8 0.373217 0.826159 0.291962
O O1 0.625622 0.500000 0.079743
O O2 0.631817 0.283438 0.203674
O O3 0.675188 0.260712 0.044164
O O4 0.580813 0.249716 0.051456
O O5 0.807361 0.500000 0.472380
O O6 0.828989 0.272592 0.359660
O O7 0.747637 0.280251 0.444024
O O8 0.122043 0.500000 0.292164
O O9 0.078277 0.732120 0.365118
O O10 0.123336 0.752384 0.200342
O O11 0.218835 0.500000 0.963906
O O12 0.172547 0.306994 0.857043
O O13 0.172510 0.272026 0.042271
O O14 0.500000 0.238875 0.962338
O O15 0.555924 0.000000 0.973420
O O16 0.579554 0.757530 0.536527
O O17 0.622109 0.000000 0.597557
O O18 0.949634 0.500000 0.949759
O O19 0.919480 0.273683 0.849645
O O20 0.000000 0.249631 0.940658
O O21 0.378170 0.000000 0.258544
#
# Coordination Sequence:
#
# PCOD8189343 Si02
#       8
#     8   8   8   8   8   8   8   8
#     4  11  22  35  52  73  98 130 171 215 255 295
#     4  10  20  34  51  72 100 132 167 207 252 301
#     4   8  15  28  46  69  96 125 157 195 241 292
#     4   9  18  32  50  73 102 134 165 201 249 301
#     4   9  18  33  52  74 101 132 164 201 250 305
#     4   8  14  26  45  71 102 129 156 198 244 287
#     4   8  14  25  44  71 100 130 162 195 237 290
#     4   9  18  33  50  71 103 136 166 204 250 299
#
# _framework density 18.027341
#
# number of rings (size 3 to 8) (size 9 to 14) (size 15 to 20)
#    0.000    3.000    0.000    3.750    0.000    2.750 
#    0.000    5.000    0.000    3.000    0.000    0.000 
#    0.000    0.000    0.000    0.000    0.000    0.000 
#
# Total GULP energy -396709.535034 kJ/mol
# GULP energy per Si atom -12397.172970 kJ/mol
# Density = 1.798631 g / cm^3
# Si number density = 18.027341 Si / 1000 Ang^3
#
#
#
# Elastic Constant Matrix: (Units=GPa)
#
#
# Indices 1 2 3 4 5 6 
#
# 1 139.8974 25.6602 53.7228 0.0000 0.0000 0.0000
# 2 25.6602 37.8889 24.4232 0.0000 0.0000 0.0000
# 3 53.7228 24.4232 130.7981 0.0000 0.0000 0.0000
# 4 0.0000 0.0000 0.0000 11.3942 0.0000 0.0000
# 5 0.0000 0.0000 0.0000 0.0000 13.3916 0.0000
# 6 0.0000 0.0000 0.0000 0.0000 0.0000 23.4819
#
#
#
# Elastic Compliance Matrix: (Units=1/GPa)
#
#
# Indices 1 2 3 4 5 6 
#
# 1 0.009050 -0.004244 -0.002925 0.000000 0.000000 0.000000
# 2 -0.004244 0.031994 -0.004231 0.000000 0.000000 0.000000
# 3 -0.002925 -0.004231 0.009637 0.000000 0.000000 0.000000
# 4 0.000000 0.000000 0.000000 0.087764 0.000000 0.000000
# 5 0.000000 0.000000 0.000000 0.000000 0.074674 0.000000
# 6 0.000000 0.000000 0.000000 0.000000 0.000000 0.042586
#
#
# Mechanical properties :
#
#
# Convention : Reuss Voigt Hill
#
# Bulk Modulus (GPa) = 35.86560 57.35523 46.61041
# Shear Modulus (GPa) = 17.37335 23.30540 20.33938
#
# Velocity S-wave (km/s) = 3.10776 3.59943 3.36259
# Velocity P-wave (km/s) = 5.72851 7.01137 6.40215
#
# Compressibility (1/GPa) = 0.02788187
#
# Stress axis : x y z
#
# Youngs Moduli (GPa) = 110.50293 31.25557 103.77082
#
# Poissons Ratio (x) = 0.13264 0.30348
# Poissons Ratio (y) = 0.46893 0.43907
# Poissons Ratio (z) = 0.32317 0.13225
#
# Static dielectric constant tensor:
#      x y z
#    x 3.534830 0.000000 0.000000 
#    y 0.000000 2.905660 0.000000 
#    z 0.000000 0.000000 3.534160 
# 
# 
# High freq. dielectric constant tensor:
#      x y z
#    x 1.702580 0.000000 0.000000 
#    y 0.000000 1.656330 0.000000 
#    z 0.000000 0.000000 1.703220 
# 
# From -- ./inp_files/19682.got.cif
#   From: 2010.03.12/outbox.cif.g09.slc.cpg/sg44_10_cif.got.tgz:19682.got - 2010.04.14 02:36:11.
