data_PCOD8189588
_publ_section_title
;
Structure prediction by ZEFSAII (Michael W. Deem and Ramdas Pophale) SiO2 
 PCOD8189588
Probable space group: I M M 2
;
_chemical_formula_sum "Si O2"
_cell_formula_units_Z 64
_cell_length_a 32.416220
_cell_length_b 8.951382
_cell_length_c 11.748432
_cell_angle_alpha 90.000000
_cell_angle_beta 90.000000
_cell_angle_gamma 90.000000
_cell_volume 3409.042140
_symmetry_space_group_name_H-M "I M M 2"
_symmetry_group_IT_number 44
_symmetry_cell_setting 'orthorhombic'
loop_
_space_group_symop_operation_xyz
x,y,z
-x,-y,z
-x,y,z
x,-y,z
1/2+x,1/2+y,1/2+z
1/2-x,1/2-y,1/2+z
1/2-x,1/2+y,1/2+z
1/2+x,1/2-y,1/2+z
loop_
_atom_site_type_symbol
_atom_site_label
_atom_site_fract_x
_atom_site_fract_y
_atom_site_fract_z
Si Si1 0.619022 0.823400 0.620450
Si Si2 0.808124 0.675651 0.282031
Si Si3 0.640263 0.824260 0.362923
Si Si4 0.400547 0.675533 0.159355
Si Si5 0.829278 0.330804 0.532289
Si Si6 0.223558 0.332493 0.745014
Si Si7 0.451661 0.166686 0.983904
Si Si8 0.547944 0.676336 0.753255
O O1 0.656176 0.761628 0.699233
O O2 0.631151 0.779932 0.492107
O O3 0.576105 0.743204 0.652520
O O4 0.612719 0.000000 0.634058
O O5 0.807364 0.500000 0.271148
O O6 0.816783 0.729510 0.409395
O O7 0.763137 0.729922 0.249088
O O8 0.606297 0.742581 0.284950
O O9 0.686457 0.772623 0.326438
O O10 0.636217 0.000000 0.339658
O O11 0.406386 0.500000 0.169951
O O12 0.362900 0.716120 0.077267
O O13 0.440553 0.747288 0.100109
O O14 0.847241 0.500000 0.526963
O O15 0.789816 0.328040 0.613619
O O16 0.235414 0.500000 0.782628
O O17 0.500000 0.156530 0.979472
O O18 0.435884 0.254136 0.872068
O O19 0.432242 0.000000 0.982585
O O20 0.500000 0.717581 0.729119
O O21 0.553926 0.500000 0.759902
#
# Coordination Sequence:
#
# PCOD8189588 Si02
#       8
#     8   8   8   8   8   8   8   8
#     4  10  21  37  58  83 110 150 198 238 279 337
#     4  10  21  34  53  80 107 138 181 231 277 326
#     4   9  20  39  57  75 109 153 193 232 278 337
#     4  11  21  34  56  83 108 138 179 229 282 330
#     4   9  19  36  53  73 105 142 178 218 271 332
#     4   9  19  34  52  74 105 145 183 226 279 329
#     4  10  20  35  58  85 113 147 183 221 272 338
#     4  10  21  37  58  87 121 150 182 234 292 338
#
# _framework density 18.773600999999999
#
# number of rings (size 3 to 8) (size 9 to 14) (size 15 to 20)
#    0.000    2.250    0.000    3.375    1.750    6.000 
#    0.000    0.625    0.000    0.750    0.000    0.000 
#    0.000    0.000    0.000    0.000    0.000    0.000 
#
# Total GULP energy -396793.736203 kJ/mol
# GULP energy per Si atom -12399.804256 kJ/mol
# Density = 1.873087 g / cm^3
# Si number density = 18.773601 Si / 1000 Ang^3
#
#
#
# Elastic Constant Matrix: (Units=GPa)
#
#
# Indices 1 2 3 4 5 6 
#
# 1 79.5228 32.7187 59.4674 0.0000 0.0000 0.0000
# 2 32.7187 74.2229 46.6091 0.0000 0.0000 0.0000
# 3 59.4674 46.6091 148.9819 0.0000 0.0000 0.0000
# 4 0.0000 0.0000 0.0000 22.9157 0.0000 0.0000
# 5 0.0000 0.0000 0.0000 0.0000 25.1460 0.0000
# 6 0.0000 0.0000 0.0000 0.0000 0.0000 32.2696
#
#
#
# Elastic Compliance Matrix: (Units=1/GPa)
#
#
# Indices 1 2 3 4 5 6 
#
# 1 0.019067 -0.004512 -0.006199 0.000000 0.000000 0.000000
# 2 -0.004512 0.017835 -0.003778 0.000000 0.000000 0.000000
# 3 -0.006199 -0.003778 0.010369 0.000000 0.000000 0.000000
# 4 0.000000 0.000000 0.000000 0.043638 0.000000 0.000000
# 5 0.000000 0.000000 0.000000 0.000000 0.039768 0.000000
# 6 0.000000 0.000000 0.000000 0.000000 0.000000 0.030989
#
#
# Mechanical properties :
#
#
# Convention : Reuss Voigt Hill
#
# Bulk Modulus (GPa) = 54.67214 64.47979 59.57596
# Shear Modulus (GPa) = 25.41388 26.99508 26.20448
#
# Velocity S-wave (km/s) = 3.68326 3.79612 3.74011
# Velocity P-wave (km/s) = 6.87558 7.32356 7.10310
#
# Compressibility (1/GPa) = 0.01829085
#
# Stress axis : x y z
#
# Youngs Moduli (GPa) = 52.44573 56.07018 96.44329
#
# Poissons Ratio (x) = 0.25301 0.59787
# Poissons Ratio (y) = 0.23665 0.36441
# Poissons Ratio (z) = 0.32512 0.21186
#
# Static dielectric constant tensor:
#      x y z
#    x 3.379350 0.000000 0.000000 
#    y 0.000000 3.404480 0.000000 
#    z 0.000000 0.000000 3.634710 
# 
# 
# High freq. dielectric constant tensor:
#      x y z
#    x 1.725540 0.000000 0.000000 
#    y 0.000000 1.723020 0.000000 
#    z 0.000000 0.000000 1.731260 
# 
# From -- ./inp_files/15084.got.cif
#   From: 2010.03.12/outbox.cif.g09.slc.cpg/sg44_8_cif.got.tgz:15084.got - 2010.04.14 02:36:11.
