data_PCOD8189330
_publ_section_title
;
Structure prediction by ZEFSAII (Michael W. Deem and Ramdas Pophale) SiO2 
 PCOD8189330
Probable space group: I M M 2
;
_chemical_formula_sum "Si O2"
_cell_formula_units_Z 64
_cell_length_a 32.052275
_cell_length_b 9.102712
_cell_length_c 11.698573
_cell_angle_alpha 90.000000
_cell_angle_beta 90.000000
_cell_angle_gamma 90.000000
_cell_volume 3413.206405
_symmetry_space_group_name_H-M "I M M 2"
_symmetry_group_IT_number 44
_symmetry_cell_setting 'orthorhombic'
loop_
_space_group_symop_operation_xyz
x,y,z
-x,-y,z
-x,y,z
x,-y,z
1/2+x,1/2+y,1/2+z
1/2-x,1/2-y,1/2+z
1/2-x,1/2+y,1/2+z
1/2+x,1/2-y,1/2+z
loop_
_atom_site_type_symbol
_atom_site_label
_atom_site_fract_x
_atom_site_fract_y
_atom_site_fract_z
Si Si1 0.187661 0.326558 0.925520
Si Si2 0.322896 0.662733 0.198852
Si Si3 0.358722 0.673327 0.838823
Si Si4 0.548872 0.672182 0.467324
Si Si5 0.279218 0.674862 0.978423
Si Si6 0.907183 0.161139 0.560429
Si Si7 0.450995 0.162410 0.241393
Si Si8 0.381692 0.174721 0.605344
O O1 0.189975 0.500000 0.923172
O O2 0.172217 0.271767 0.803749
O O3 0.233800 0.260810 0.948493
O O4 0.155412 0.273073 0.021613
O O5 0.309104 0.500000 0.240826
O O6 0.366798 0.651896 0.138097
O O7 0.290175 0.729054 0.106729
O O8 0.358225 0.500000 0.809797
O O9 0.313523 0.727138 0.885563
O O10 0.369925 0.769168 0.729908
O O11 0.394199 0.709324 0.932972
O O12 0.500000 0.704340 0.488563
O O13 0.558541 0.500000 0.469325
O O14 0.564312 0.733912 0.344797
O O15 0.574794 0.752356 0.566619
O O16 0.280347 0.500000 0.980479
O O17 0.938792 0.275679 0.617147
O O18 0.928485 0.000000 0.556333
O O19 0.500000 0.151126 0.244419
O O20 0.431268 0.000000 0.257995
O O21 0.387123 0.000000 0.606205
#
# Coordination Sequence:
#
# PCOD8189330 Si02
#       8
#     8   8   8   8   8   8   8   8
#     4  10  21  34  50  76 109 140 173 218 270 325
#     4   9  18  33  53  74  97 131 174 217 260 307
#     4   9  19  37  58  76 102 145 192 232 269 318
#     4  10  21  38  60  83 109 145 188 230 272 326
#     4   8  17  35  54  72 102 141 177 221 271 315
#     4   9  18  34  55  77 101 136 181 223 264 315
#     4  10  20  33  53  83 115 142 170 215 276 332
#     4  11  23  36  54  83 115 146 180 228 286 339
#
# _framework density 18.750696999999999
#
# number of rings (size 3 to 8) (size 9 to 14) (size 15 to 20)
#    0.000    2.500    0.000    3.375    1.750    5.500 
#    0.000    3.125    0.000    0.750    0.000    0.000 
#    0.000    0.000    0.000    0.000    0.000    0.000 
#
# Total GULP energy -396745.420237 kJ/mol
# GULP energy per Si atom -12398.294382 kJ/mol
# Density = 1.870802 g / cm^3
# Si number density = 18.750697 Si / 1000 Ang^3
#
#
#
# Elastic Constant Matrix: (Units=GPa)
#
#
# Indices 1 2 3 4 5 6 
#
# 1 58.8169 40.7740 47.5487 0.0000 0.0000 0.0000
# 2 40.7740 71.4897 50.0029 0.0000 0.0000 0.0000
# 3 47.5487 50.0029 139.2120 0.0000 0.0000 0.0000
# 4 0.0000 0.0000 0.0000 21.3568 0.0000 0.0000
# 5 0.0000 0.0000 0.0000 0.0000 20.3196 0.0000
# 6 0.0000 0.0000 0.0000 0.0000 0.0000 13.6773
#
#
#
# Elastic Compliance Matrix: (Units=1/GPa)
#
#
# Indices 1 2 3 4 5 6 
#
# 1 0.031165 -0.013795 -0.005689 0.000000 0.000000 0.000000
# 2 -0.013795 0.024788 -0.004192 0.000000 0.000000 0.000000
# 3 -0.005689 -0.004192 0.010632 0.000000 0.000000 0.000000
# 4 0.000000 0.000000 0.000000 0.046824 0.000000 0.000000
# 5 0.000000 0.000000 0.000000 0.000000 0.049214 0.000000
# 6 0.000000 0.000000 0.000000 0.000000 0.000000 0.073114
#
#
# Mechanical properties :
#
#
# Convention : Reuss Voigt Hill
#
# Bulk Modulus (GPa) = 51.99633 60.68551 56.34092
# Shear Modulus (GPa) = 17.27121 19.81694 18.54408
#
# Velocity S-wave (km/s) = 3.03825 3.25447 3.14822
# Velocity P-wave (km/s) = 6.33234 6.82325 6.58237
#
# Compressibility (1/GPa) = 0.01923213
#
# Stress axis : x y z
#
# Youngs Moduli (GPa) = 32.08747 40.34219 94.05480
#
# Poissons Ratio (x) = 0.55653 0.53512
# Poissons Ratio (y) = 0.44266 0.39424
# Poissons Ratio (z) = 0.18256 0.16910
#
# Static dielectric constant tensor:
#      x y z
#    x 3.599200 0.000000 0.000000 
#    y 0.000000 3.546520 0.000000 
#    z 0.000000 0.000000 3.634900 
# 
# 
# High freq. dielectric constant tensor:
#      x y z
#    x 1.725730 0.000000 0.000000 
#    y 0.000000 1.716230 0.000000 
#    z 0.000000 0.000000 1.727010 
# 
# From -- ./inp_files/11547.got.cif
#   From: 2010.03.12/outbox.cif.g09.slc.cpg/sg44_6_cif.got.tgz:11547.got - 2010.04.14 02:36:11.
