data_PCOD8189724
_publ_section_title
;
Structure prediction by ZEFSAII (Michael W. Deem and Ramdas Pophale) SiO2 
 PCOD8189724
Probable space group: I M M 2
;
_chemical_formula_sum "Si O2"
_cell_formula_units_Z 48
_cell_length_a 8.815215
_cell_length_b 24.749162
_cell_length_c 12.154073
_cell_angle_alpha 90.000000
_cell_angle_beta 90.000000
_cell_angle_gamma 90.000000
_cell_volume 2651.644190
_symmetry_space_group_name_H-M "I M M 2"
_symmetry_group_IT_number 44
_symmetry_cell_setting 'orthorhombic'
loop_
_space_group_symop_operation_xyz
x,y,z
-x,-y,z
-x,y,z
x,-y,z
1/2+x,1/2+y,1/2+z
1/2-x,1/2-y,1/2+z
1/2-x,1/2+y,1/2+z
1/2+x,1/2-y,1/2+z
loop_
_atom_site_type_symbol
_atom_site_label
_atom_site_fract_x
_atom_site_fract_y
_atom_site_fract_z
Si Si1 0.171681 0.249044 0.673080
Si Si2 0.176531 0.061218 0.941065
Si Si3 0.177055 0.652065 0.051042
Si Si4 0.829344 0.635375 0.617486
Si Si5 0.173941 0.062484 0.688250
Si Si6 0.678651 0.328200 0.819943
O O1 0.275238 0.201670 0.627663
O O2 0.173114 0.300211 0.588438
O O3 0.241477 0.270753 0.788961
O O4 0.000000 0.227942 0.692120
O O5 0.268342 0.102472 0.015037
O O6 0.000000 0.069774 0.963212
O O7 0.223715 0.000000 0.970844
O O8 0.216198 0.073602 0.814872
O O9 0.213693 0.596449 0.112512
O O10 0.000000 0.655631 0.025173
O O11 0.269737 0.652468 0.938643
O O12 0.728875 0.626792 0.728606
O O13 0.000000 0.616226 0.643369
O O14 0.000000 0.079418 0.666050
O O15 0.198210 0.000000 0.659177
O O16 0.500000 0.320560 0.818692
#
# Coordination Sequence:
#
# PCOD8189724 Si02
#       6
#     8   8   8   8   8   8
#     4   9  20  37  55  81 114 146 185 229 275 331
#     4   9  18  34  58  85 113 148 189 231 279 336
#     4  12  23  36  58  86 116 151 188 229 285 342
#     4   9  19  35  55  81 114 147 183 230 278 327
#     4   9  20  39  59  81 112 149 191 238 284 332
#     4  10  20  37  58  80 112 148 187 233 280 331
#
# _framework density 18.101977000000002
#
# number of rings (size 3 to 8) (size 9 to 14) (size 15 to 20)
#    1.000    1.333    0.000    4.500    0.000    2.667 
#    0.000    5.833    0.000    5.000    0.000    0.000 
#    0.000    0.000    0.000    0.000    0.000    0.000 
#
# Total GULP energy -297469.459947 kJ/mol
# GULP energy per Si atom -12394.560831 kJ/mol
# Density = 1.806078 g / cm^3
# Si number density = 18.101977 Si / 1000 Ang^3
#
#
#
# Elastic Constant Matrix: (Units=GPa)
#
#
# Indices 1 2 3 4 5 6 
#
# 1 102.8552 29.8776 35.2354 0.0000 0.0001 0.0000
# 2 29.8776 73.7831 41.5995 0.0001 0.0000 0.0000
# 3 35.2354 41.5995 84.0863 0.0004 -0.0002 0.0000
# 4 0.0000 0.0001 0.0004 31.2737 0.0000 0.0000
# 5 0.0001 0.0000 -0.0002 0.0000 33.2752 0.0000
# 6 0.0000 0.0000 0.0000 0.0000 0.0000 31.3264
#
#
#
# Elastic Compliance Matrix: (Units=1/GPa)
#
#
# Indices 1 2 3 4 5 6 
#
# 1 0.011740 -0.002746 -0.003561 0.000000 0.000000 0.000000
# 2 -0.002746 0.019438 -0.008466 0.000000 0.000000 0.000000
# 3 -0.003561 -0.008466 0.017573 0.000000 0.000000 0.000000
# 4 0.000000 0.000000 0.000000 0.031976 0.000000 0.000000
# 5 0.000000 0.000000 0.000000 0.000000 0.030052 0.000000
# 6 0.000000 0.000000 0.000000 0.000000 0.000000 0.031922
#
#
# Mechanical properties :
#
#
# Convention : Reuss Voigt Hill
#
# Bulk Modulus (GPa) = 52.06888 52.68331 52.37609
# Shear Modulus (GPa) = 27.98778 29.44252 28.71515
#
# Velocity S-wave (km/s) = 3.93634 4.03734 3.98716
# Velocity P-wave (km/s) = 7.03465 7.13444 7.08472
#
# Compressibility (1/GPa) = 0.01920533
#
# Stress axis : x y z
#
# Youngs Moduli (GPa) = 85.17875 51.44447 56.90571
#
# Poissons Ratio (x) = 0.14128 0.20263
# Poissons Ratio (y) = 0.23393 0.48175
# Poissons Ratio (z) = 0.30331 0.43552
#
# Static dielectric constant tensor:
#      x y z
#    x 3.351300 0.000000 0.000000 
#    y 0.000000 3.192890 0.000000 
#    z 0.000000 0.000000 3.197670 
# 
# 
# High freq. dielectric constant tensor:
#      x y z
#    x 1.710950 0.000000 0.000000 
#    y 0.000000 1.687390 0.000000 
#    z 0.000000 0.000000 1.691420 
# 
# From -- ./inp_files/11167.got.cif
#   From: 2010.03.12/outbox.cif.g09.slc.cpg/sg44_6_cif.got.tgz:11167.got - 2010.04.14 02:36:11.
