data_PCOD8189357
_publ_section_title
;
Structure prediction by ZEFSAII (Michael W. Deem and Ramdas Pophale) SiO2 
 PCOD8189357
Probable space group: I M M 2
;
_chemical_formula_sum "Si O2"
_cell_formula_units_Z 64
_cell_length_a 9.062697
_cell_length_b 27.508998
_cell_length_c 13.156270
_cell_angle_alpha 90.000000
_cell_angle_beta 90.000000
_cell_angle_gamma 90.000000
_cell_volume 3279.933281
_symmetry_space_group_name_H-M "I M M 2"
_symmetry_group_IT_number 44
_symmetry_cell_setting 'orthorhombic'
loop_
_space_group_symop_operation_xyz
x,y,z
-x,-y,z
-x,y,z
x,-y,z
1/2+x,1/2+y,1/2+z
1/2-x,1/2-y,1/2+z
1/2-x,1/2+y,1/2+z
1/2+x,1/2-y,1/2+z
loop_
_atom_site_type_symbol
_atom_site_label
_atom_site_fract_x
_atom_site_fract_y
_atom_site_fract_z
Si Si1 0.175040 0.554904 0.056190
Si Si2 0.829652 0.780312 0.646242
Si Si3 0.672798 0.126871 0.965972
Si Si4 0.675517 0.054074 0.138197
Si Si5 0.326769 0.127742 0.733491
Si Si6 0.672816 0.273051 0.483084
Si Si7 0.323411 0.101658 0.345856
Si Si8 0.667651 0.792765 0.309892
O O1 0.237656 0.500000 0.066627
O O2 0.225813 0.585952 0.154609
O O3 0.000000 0.553365 0.051293
O O4 0.236445 0.578602 0.951321
O O5 0.765013 0.823740 0.713106
O O6 0.730462 0.773107 0.547662
O O7 0.814727 0.726274 0.695669
O O8 0.000000 0.792049 0.621672
O O9 0.500000 0.134780 0.980044
O O10 0.709145 0.111506 0.849443
O O11 0.733305 0.086015 0.043311
O O12 0.748150 0.176331 0.001644
O O13 0.500000 0.054875 0.139156
O O14 0.734728 0.072230 0.247687
O O15 0.736760 0.000000 0.120881
O O16 0.500000 0.138615 0.719639
O O17 0.500000 0.280627 0.500189
O O18 0.720000 0.254428 0.372184
O O19 0.500000 0.101614 0.346067
O O20 0.253050 0.155902 0.332627
O O21 0.500000 0.802983 0.340231
#
# Coordination Sequence:
#
# PCOD8189357 Si02
#       8
#     8   8   8   8   8   8   8   8
#     4   9  17  29  48  75 105 139 180 228 279 327
#     4  11  21  35  54  78 108 143 181 222 269 326
#     4  10  20  34  52  76 109 145 182 226 273 328
#     4   9  17  29  48  75 105 139 180 228 279 327
#     4  10  20  34  52  76 109 145 182 226 273 328
#     4  11  21  35  54  78 108 143 181 222 269 326
#     4   9  15  26  45  71 104 135 171 220 272 327
#     4   9  18  31  49  74 105 139 172 209 264 325
#
# _framework density 19.512591
#
# number of rings (size 3 to 8) (size 9 to 14) (size 15 to 20)
#    0.000    2.250    1.250    2.625    0.000    6.000 
#    0.000    2.500    0.000    0.750    0.000    1.750 
#    0.000    4.000    0.000    0.000    0.000    0.000 
#
# Total GULP energy -396537.570698 kJ/mol
# GULP energy per Si atom -12391.799084 kJ/mol
# Density = 1.946818 g / cm^3
# Si number density = 19.512591 Si / 1000 Ang^3
#
#
#
# Elastic Constant Matrix: (Units=GPa)
#
#
# Indices 1 2 3 4 5 6 
#
# 1 24.5147 25.2924 29.8812 -0.0002 0.0000 0.0000
# 2 25.2924 146.6744 58.8718 -0.0003 -0.0001 0.0000
# 3 29.8812 58.8718 129.1911 -0.0017 0.0002 0.0001
# 4 -0.0002 -0.0003 -0.0017 33.9493 0.0001 0.0001
# 5 0.0000 -0.0001 0.0002 0.0001 13.9291 -0.0002
# 6 0.0000 0.0000 0.0001 0.0001 -0.0002 19.8368
#
#
#
# Elastic Compliance Matrix: (Units=1/GPa)
#
#
# Indices 1 2 3 4 5 6 
#
# 1 0.060732 -0.005917 -0.011351 0.000000 0.000000 0.000000
# 2 -0.005917 0.008920 -0.002697 0.000000 0.000000 0.000000
# 3 -0.011351 -0.002697 0.011595 0.000000 0.000000 0.000000
# 4 0.000000 0.000000 0.000000 0.029456 0.000000 0.000000
# 5 0.000000 0.000000 0.000000 0.000000 0.071792 0.000001
# 6 0.000000 0.000000 0.000000 0.000000 0.000001 0.050411
#
#
# Mechanical properties :
#
#
# Convention : Reuss Voigt Hill
#
# Bulk Modulus (GPa) = 24.20189 58.71901 41.46045
# Shear Modulus (GPa) = 17.44551 25.96537 21.70544
#
# Velocity S-wave (km/s) = 2.99333 3.65183 3.33886
# Velocity P-wave (km/s) = 4.93729 6.92383 6.01316
#
# Compressibility (1/GPa) = 0.04131909
#
# Stress axis : x y z
#
# Youngs Moduli (GPa) = 16.46583 112.10277 86.24670
#
# Poissons Ratio (x) = 0.66326 0.97897
# Poissons Ratio (y) = 0.09742 0.23257
# Poissons Ratio (z) = 0.18690 0.30229
#
# Static dielectric constant tensor:
#      x y z
#    x 2.990990 0.000000 0.000000 
#    y 0.000000 3.723750 0.000000 
#    z 0.000000 0.000000 3.925250 
# 
# 
# High freq. dielectric constant tensor:
#      x y z
#    x 1.697090 0.000000 0.000000 
#    y 0.000000 1.767860 0.000000 
#    z 0.000000 0.000000 1.777390 
# 
# From -- ./inp_files/11511.got.cif
#   From: 2010.03.12/outbox.cif.g09.slc.cpg/sg44_6_cif.got.tgz:11511.got - 2010.04.14 02:36:11.
