data_PCOD8189298
_publ_section_title
;
Structure prediction by ZEFSAII (Michael W. Deem and Ramdas Pophale) SiO2 
 PCOD8189298
Probable space group: I M M 2
;
_chemical_formula_sum "Si O2"
_cell_formula_units_Z 48
_cell_length_a 7.625645
_cell_length_b 9.206123
_cell_length_c 34.358079
_cell_angle_alpha 90.000000
_cell_angle_beta 90.000000
_cell_angle_gamma 90.000000
_cell_volume 2412.027364
_symmetry_space_group_name_H-M "I M M 2"
_symmetry_group_IT_number 44
_symmetry_cell_setting 'orthorhombic'
loop_
_space_group_symop_operation_xyz
x,y,z
-x,-y,z
-x,y,z
x,-y,z
1/2+x,1/2+y,1/2+z
1/2-x,1/2-y,1/2+z
1/2-x,1/2+y,1/2+z
1/2+x,1/2-y,1/2+z
loop_
_atom_site_type_symbol
_atom_site_label
_atom_site_fract_x
_atom_site_fract_y
_atom_site_fract_z
Si Si1 0.500000 0.169066 0.927830
Si Si2 0.200685 0.339931 0.216415
Si Si3 0.299115 0.169235 0.567639
Si Si4 0.298807 0.668578 0.368558
Si Si5 0.791674 0.162655 0.144428
Si Si6 0.706421 0.164738 0.291323
Si Si7 0.000000 0.169516 0.508678
O O1 0.674862 0.213215 0.904278
O O2 0.500000 0.000000 0.937175
O O3 0.500000 0.251442 0.967998
O O4 0.289795 0.500000 0.220176
O O5 0.289837 0.248213 0.181482
O O6 0.209258 0.254103 0.256584
O O7 0.000000 0.362278 0.205143
O O8 0.500000 0.207318 0.556480
O O9 0.233772 0.256980 0.605167
O O10 0.175011 0.215146 0.531998
O O11 0.278336 0.000000 0.577673
O O12 0.500000 0.702711 0.380197
O O13 0.274292 0.500000 0.357568
O O14 0.237235 0.762121 0.331726
O O15 0.000000 0.156804 0.147429
O O16 0.713535 0.000000 0.144348
O O17 0.500000 0.169530 0.286170
O O18 0.777544 0.000000 0.290586
O O19 0.000000 0.000000 0.500168
#
# Coordination Sequence:
#
# PCOD8189298 Si02
#       7
#     4   8   8   8   8   8   4
#     4  10  22  38  58  84 112 142 182 228 276 336
#     4  10  20  33  52  78 108 145 187 228 271 326
#     4   9  18  35  57  78 106 145 183 222 272 331
#     4   9  19  37  58  79 108 146 184 225 274 331
#     4   9  17  31  52  78 107 140 182 228 273 322
#     4  10  21  36  53  77 109 142 181 229 279 329
#     4  10  22  38  56  84 114 140 180 228 276 334
#
# _framework density 19.900272999999999
#
# number of rings (size 3 to 8) (size 9 to 14) (size 15 to 20)
#    0.000    2.500    0.000    1.500    1.167    6.000 
#    1.500    0.000    0.000    0.000    0.000    0.000 
#    0.000    0.000    0.000    0.000    0.000    0.000 
#
# Total GULP energy -297604.662611 kJ/mol
# GULP energy per Si atom -12400.194275 kJ/mol
# Density = 1.985498 g / cm^3
# Si number density = 19.900273 Si / 1000 Ang^3
#
#
#
# Elastic Constant Matrix: (Units=GPa)
#
#
# Indices 1 2 3 4 5 6 
#
# 1 72.6332 36.9949 59.9287 0.0000 0.0000 0.0000
# 2 36.9949 134.7854 96.4453 -0.0001 0.0002 0.0000
# 3 59.9287 96.4453 185.4221 0.0000 0.0001 0.0000
# 4 0.0000 -0.0001 0.0000 45.3206 0.0002 0.0000
# 5 0.0000 0.0002 0.0001 0.0002 -152.0051 -0.0001
# 6 0.0000 0.0000 0.0000 0.0000 -0.0001 12.8484
#
#
#
# Elastic Compliance Matrix: (Units=1/GPa)
#
#
# Indices 1 2 3 4 5 6 
#
# 1 0.018917 -0.001302 -0.005437 0.000000 0.000000 0.000000
# 2 -0.001302 0.011907 -0.005773 0.000000 0.000000 0.000000
# 3 -0.005437 -0.005773 0.010153 0.000000 0.000000 0.000000
# 4 0.000000 0.000000 0.000000 0.022065 0.000000 0.000000
# 5 0.000000 0.000000 0.000000 0.000000 -0.006579 0.000000
# 6 0.000000 0.000000 0.000000 0.000000 0.000000 0.077830
#
#
# Mechanical properties :
#
#
# Convention : Reuss Voigt Hill
#
# Bulk Modulus (GPa) = 62.67943 86.61982 74.64962
# Shear Modulus (GPa) = 30.37045 -5.46907 12.45069
#
# Velocity S-wave (km/s) = 3.91081 -1.65958 2.50402
# Velocity P-wave (km/s) = 7.20817 6.32054 6.77890
#
# Compressibility (1/GPa) = 0.01595420
#
# Stress axis : x y z
#
# Youngs Moduli (GPa) = 52.86340 83.98376 98.49492
#
# Poissons Ratio (x) = 0.10933 0.53549
# Poissons Ratio (y) = 0.06882 0.56857
# Poissons Ratio (z) = 0.28741 0.48480
#
# Static dielectric constant tensor:
#      x y z
#    x 3.946650 0.000000 0.000000 
#    y 0.000000 3.851800 0.000000 
#    z 0.000000 0.000000 3.492660 
# 
# 
# High freq. dielectric constant tensor:
#      x y z
#    x 1.768120 0.000000 0.000000 
#    y 0.000000 1.781640 0.000000 
#    z 0.000000 0.000000 1.770580 
# 
# From -- ./inp_files/26897.got.cif
#   From: 2010.03.12/outbox.cif.g09.slc.cpg/sg44_14_cif.got.tgz:26897.got - 2010.04.14 02:36:11.
