data_PCOD8189718
_publ_section_title
;
Structure prediction by ZEFSAII (Michael W. Deem and Ramdas Pophale) SiO2 
 PCOD8189718
Probable space group: I M M 2
;
_chemical_formula_sum "Si O2"
_cell_formula_units_Z 64
_cell_length_a 8.621771
_cell_length_b 29.291218
_cell_length_c 12.839962
_cell_angle_alpha 90.000000
_cell_angle_beta 90.000000
_cell_angle_gamma 90.000000
_cell_volume 3242.631916
_symmetry_space_group_name_H-M "I M M 2"
_symmetry_group_IT_number 44
_symmetry_cell_setting 'orthorhombic'
loop_
_space_group_symop_operation_xyz
x,y,z
-x,-y,z
-x,y,z
x,-y,z
1/2+x,1/2+y,1/2+z
1/2-x,1/2-y,1/2+z
1/2-x,1/2+y,1/2+z
1/2+x,1/2-y,1/2+z
loop_
_atom_site_type_symbol
_atom_site_label
_atom_site_fract_x
_atom_site_fract_y
_atom_site_fract_z
Si Si1 0.676992 0.292399 0.042170
Si Si2 0.681267 0.618668 0.467395
Si Si3 0.317959 0.127290 0.411853
Si Si4 0.324336 0.251673 0.721705
Si Si5 0.179853 0.142968 0.192641
Si Si6 0.682625 0.948473 0.574826
Si Si7 0.683779 0.551962 0.292932
Si Si8 0.823095 0.219423 0.918816
O O1 0.500000 0.300915 0.075265
O O2 0.790118 0.289743 0.141409
O O3 0.728679 0.329829 0.959208
O O4 0.696424 0.242271 0.993289
O O5 0.500000 0.609974 0.477070
O O6 0.745556 0.619039 0.586615
O O7 0.754011 0.579993 0.391585
O O8 0.716350 0.666267 0.410229
O O9 0.500000 0.135663 0.421539
O O10 0.272648 0.122423 0.290769
O O11 0.266135 0.082497 0.476774
O O12 0.500000 0.246110 0.763512
O O13 0.299301 0.302592 0.676427
O O14 0.195543 0.244426 0.809134
O O15 0.000000 0.131346 0.210495
O O16 0.500000 0.947790 0.588453
O O17 0.754387 0.928956 0.682344
O O18 0.743105 0.000000 0.553578
O O19 0.500000 0.556686 0.290470
O O20 0.739003 0.500000 0.307734
O O21 0.000000 0.227005 0.959729
#
# Coordination Sequence:
#
# PCOD8189718 Si02
#       8
#     8   8   8   8   8   8   8   8
#     4  12  24  37  54  79 112 152 193 236 283 336
#     4   9  19  36  56  80 112 148 183 227 281 332
#     4  11  23  38  58  84 113 148 192 238 284 341
#     4  11  22  37  54  77 111 151 192 236 283 332
#     4  10  20  37  57  78 112 153 189 230 281 334
#     4   9  20  40  62  84 113 146 179 227 290 344
#     4   9  18  35  61  89 113 141 181 229 281 339
#     4  11  21  36  55  78 110 150 192 234 281 335
#
# _framework density 19.737054000000001
#
# number of rings (size 3 to 8) (size 9 to 14) (size 15 to 20)
#    0.000    1.750    2.500    2.250    1.750    1.500 
#    0.000    1.875    0.000    0.750    0.000    0.000 
#    0.000    0.000    0.000    0.000    0.000    0.000 
#
# Total GULP energy -396622.826843 kJ/mol
# GULP energy per Si atom -12394.463339 kJ/mol
# Density = 1.969213 g / cm^3
# Si number density = 19.737054 Si / 1000 Ang^3
#
#
#
# Elastic Constant Matrix: (Units=GPa)
#
#
# Indices 1 2 3 4 5 6 
#
# 1 48.7963 33.0707 33.6792 0.0000 0.0000 0.0000
# 2 33.0707 84.7587 53.7198 0.0004 -0.0001 -0.0001
# 3 33.6792 53.7198 124.7410 0.0015 -0.0003 -0.0003
# 4 0.0000 0.0004 0.0015 40.1129 -0.0002 -0.0002
# 5 0.0000 -0.0001 -0.0003 -0.0002 32.0515 0.0002
# 6 0.0000 -0.0001 -0.0003 -0.0002 0.0002 16.4236
#
#
#
# Elastic Compliance Matrix: (Units=1/GPa)
#
#
# Indices 1 2 3 4 5 6 
#
# 1 0.029318 -0.008833 -0.004112 0.000000 0.000000 0.000000
# 2 -0.008833 0.018889 -0.005750 0.000000 0.000000 0.000000
# 3 -0.004112 -0.005750 0.011603 0.000000 0.000000 0.000000
# 4 0.000000 0.000000 0.000000 0.024930 0.000000 0.000000
# 5 0.000000 0.000000 0.000000 0.000000 0.031200 0.000000
# 6 0.000000 0.000000 0.000000 0.000000 0.000000 0.060888
#
#
# Mechanical properties :
#
#
# Convention : Reuss Voigt Hill
#
# Bulk Modulus (GPa) = 44.60183 55.47063 50.03623
# Shear Modulus (GPa) = 22.55415 26.90600 24.73008
#
# Velocity S-wave (km/s) = 3.38410 3.69619 3.54358
# Velocity P-wave (km/s) = 6.15764 6.81040 6.49223
#
# Compressibility (1/GPa) = 0.02242061
#
# Stress axis : x y z
#
# Youngs Moduli (GPa) = 34.10919 52.94163 86.18635
#
# Poissons Ratio (x) = 0.46764 0.35436
# Poissons Ratio (y) = 0.30129 0.49553
# Poissons Ratio (z) = 0.14024 0.30439
#
# Static dielectric constant tensor:
#      x y z
#    x 3.375130 0.000000 0.000000 
#    y 0.000000 3.661290 0.000000 
#    z 0.000000 0.000000 4.019360 
# 
# 
# High freq. dielectric constant tensor:
#      x y z
#    x 1.751560 0.000000 0.000000 
#    y 0.000000 1.750270 0.000000 
#    z 0.000000 0.000000 1.782070 
# 
# From -- ./inp_files/11557.got.cif
#   From: 2010.03.12/outbox.cif.g09.slc.cpg/sg44_6_cif.got.tgz:11557.got - 2010.04.14 02:36:11.
