data_PCOD8189243
_publ_section_title
;
Structure prediction by ZEFSAII (Michael W. Deem and Ramdas Pophale) SiO2 
 PCOD8189243
Probable space group: I M M 2
;
_chemical_formula_sum "Si O2"
_cell_formula_units_Z 64
_cell_length_a 14.243469
_cell_length_b 8.889844
_cell_length_c 28.514820
_cell_angle_alpha 90.000000
_cell_angle_beta 90.000000
_cell_angle_gamma 90.000000
_cell_volume 3610.609738
_symmetry_space_group_name_H-M "I M M 2"
_symmetry_group_IT_number 44
_symmetry_cell_setting 'orthorhombic'
loop_
_space_group_symop_operation_xyz
x,y,z
-x,-y,z
-x,y,z
x,-y,z
1/2+x,1/2+y,1/2+z
1/2-x,1/2-y,1/2+z
1/2-x,1/2+y,1/2+z
1/2+x,1/2-y,1/2+z
loop_
_atom_site_type_symbol
_atom_site_label
_atom_site_fract_x
_atom_site_fract_y
_atom_site_fract_z
Si Si1 0.393092 0.821744 0.708840
Si Si2 0.251516 0.323178 0.132881
Si Si3 0.247560 0.177571 0.277036
Si Si4 0.396193 0.822627 0.456357
Si Si5 0.891096 0.676526 0.456004
Si Si6 0.742293 0.320970 0.028375
Si Si7 0.742084 0.677284 0.884638
Si Si8 0.606960 0.322656 0.211032
O O1 0.500000 0.767542 0.705378
O O2 0.339982 0.767556 0.661617
O O3 0.345591 0.746065 0.753838
O O4 0.384486 0.000000 0.714950
O O5 0.245576 0.500000 0.126675
O O6 0.254192 0.252277 0.080968
O O7 0.344521 0.276986 0.161830
O O8 0.248413 0.227371 0.330981
O O9 0.342159 0.240594 0.253863
O O10 0.245738 0.000000 0.271128
O O11 0.500000 0.747230 0.456359
O O12 0.338474 0.771696 0.502451
O O13 0.338806 0.772640 0.410093
O O14 0.407889 0.000000 0.456678
O O15 0.873512 0.500000 0.458355
O O16 0.846789 0.751715 0.502087
O O17 0.845543 0.740209 0.408496
O O18 0.000000 0.718374 0.455088
O O19 0.730401 0.500000 0.027779
O O20 0.725976 0.500000 0.890421
O O21 0.500000 0.268016 0.209053
O O22 0.615811 0.500000 0.219426
#
# Coordination Sequence:
#
# PCOD8189243 Si02
#       8
#     8   8   8   8   8   8   8   8
#     4   9  18  33  52  73  99 131 165 201 243 294
#     4   8  15  29  49  73  98 125 162 203 238 279
#     4  10  20  33  50  73 100 128 162 206 251 295
#     4   8  14  26  45  69  94 117 146 189 237 281
#     4  10  21  35  50  70  97 128 161 199 243 289
#     4   9  17  30  50  74  98 126 160 198 241 286
#     4   9  19  34  51  71  94 125 163 200 240 286
#     4   9  18  33  51  71  98 132 169 206 243 288
#
# _framework density 17.725536999999999
#
# number of rings (size 3 to 8) (size 9 to 14) (size 15 to 20)
#    0.000    3.000    0.000    2.250    0.000    4.500 
#    0.000   10.000    0.000    6.000    0.000    0.000 
#    0.000    0.000    0.000    0.000    0.000    0.000 
#
# Total GULP energy -396720.789792 kJ/mol
# GULP energy per Si atom -12397.524681 kJ/mol
# Density = 1.768519 g / cm^3
# Si number density = 17.725537 Si / 1000 Ang^3
#
#
#
# Elastic Constant Matrix: (Units=GPa)
#
#
# Indices 1 2 3 4 5 6 
#
# 1 178.9836 39.6918 93.2982 0.0000 0.0000 0.0000
# 2 39.6918 33.8688 38.2215 0.0000 0.0000 0.0000
# 3 93.2982 38.2215 184.4587 0.0000 0.0000 0.0000
# 4 0.0000 0.0000 0.0000 23.3238 0.0000 0.0000
# 5 0.0000 0.0000 0.0000 0.0000 11.5351 0.0000
# 6 0.0000 0.0000 0.0000 0.0000 0.0000 20.5758
#
#
#
# Elastic Compliance Matrix: (Units=1/GPa)
#
#
# Indices 1 2 3 4 5 6 
#
# 1 0.008634 -0.006774 -0.002963 0.000000 0.000000 0.000000
# 2 -0.006774 0.043852 -0.005660 0.000000 0.000000 0.000000
# 3 -0.002963 -0.005660 0.008093 0.000000 0.000000 0.000000
# 4 0.000000 0.000000 0.000000 0.042875 0.000000 0.000000
# 5 0.000000 0.000000 0.000000 0.000000 0.086692 0.000000
# 6 0.000000 0.000000 0.000000 0.000000 0.000000 0.048601
#
#
# Mechanical properties :
#
#
# Convention : Reuss Voigt Hill
#
# Bulk Modulus (GPa) = 33.57547 82.19268 57.88407
# Shear Modulus (GPa) = 17.89098 26.16025 22.02561
#
# Velocity S-wave (km/s) = 3.18045 3.84585 3.52887
# Velocity P-wave (km/s) = 5.69824 8.13579 7.02357
#
# Compressibility (1/GPa) = 0.02978365
#
# Stress axis : x y z
#
# Youngs Moduli (GPa) = 115.81979 22.80380 123.56389
#
# Poissons Ratio (x) = 0.15448 0.36617
# Poissons Ratio (y) = 0.78460 0.69940
# Poissons Ratio (z) = 0.34322 0.12907
#
# Static dielectric constant tensor:
#      x y z
#    x 3.506020 0.000000 0.000000 
#    y 0.000000 3.000970 0.000000 
#    z 0.000000 0.000000 3.498450 
# 
# 
# High freq. dielectric constant tensor:
#      x y z
#    x 1.690570 0.000000 0.000000 
#    y 0.000000 1.657140 0.000000 
#    z 0.000000 0.000000 1.690830 
# 
# From -- ./inp_files/27356.got.cif
#   From: 2010.03.12/outbox.cif.g09.slc.cpg/sg44_14_cif.got.tgz:27356.got - 2010.04.14 02:36:11.
