data_PCOD8189293
_publ_section_title
;
Structure prediction by ZEFSAII (Michael W. Deem and Ramdas Pophale) SiO2 
 PCOD8189293
Probable space group: I M M 2
;
_chemical_formula_sum "Si O2"
_cell_formula_units_Z 64
_cell_length_a 23.000995
_cell_length_b 8.722797
_cell_length_c 18.941152
_cell_angle_alpha 90.000000
_cell_angle_beta 90.000000
_cell_angle_gamma 90.000000
_cell_volume 3800.220342
_symmetry_space_group_name_H-M "I M M 2"
_symmetry_group_IT_number 44
_symmetry_cell_setting 'orthorhombic'
loop_
_space_group_symop_operation_xyz
x,y,z
-x,-y,z
-x,y,z
x,-y,z
1/2+x,1/2+y,1/2+z
1/2-x,1/2-y,1/2+z
1/2-x,1/2+y,1/2+z
1/2+x,1/2-y,1/2+z
loop_
_atom_site_type_symbol
_atom_site_label
_atom_site_fract_x
_atom_site_fract_y
_atom_site_fract_z
Si Si1 0.566403 0.680016 0.634190
Si Si2 0.880162 0.321126 0.996488
Si Si3 0.432696 0.322875 0.359256
Si Si4 0.254933 0.678741 0.989784
Si Si5 0.840777 0.679049 0.769596
Si Si6 0.235214 0.676956 0.347308
Si Si7 0.772247 0.679247 0.632949
Si Si8 0.166641 0.676872 0.211355
O O1 0.500000 0.732939 0.641465
O O2 0.573186 0.500000 0.644244
O O3 0.589363 0.724748 0.557375
O O4 0.601712 0.764877 0.696419
O O5 0.888180 0.500000 0.012623
O O6 0.812690 0.275833 0.993488
O O7 0.910557 0.281096 0.923120
O O8 0.500000 0.290562 0.345173
O O9 0.420944 0.500000 0.377106
O O10 0.398588 0.273972 0.288283
O O11 0.264721 0.500000 0.978786
O O12 0.287185 0.732376 0.060958
O O13 0.284658 0.767588 0.924436
O O14 0.853522 0.500000 0.777565
O O15 0.790070 0.721921 0.824252
O O16 0.821560 0.722378 0.690194
O O17 0.254320 0.500000 0.348364
O O18 0.181609 0.702972 0.293588
O O19 0.770669 0.500000 0.617607
O O20 0.709479 0.728636 0.661233
O O21 0.172864 0.500000 0.189627
#
# Coordination Sequence:
#
# PCOD8189293 Si02
#       8
#     8   8   8   8   8   8   8   8
#     4  11  23  36  51  72  99 135 175 210 248 294
#     4  11  22  34  49  72 101 135 175 211 244 289
#     4  11  23  36  51  72  99 135 175 210 248 294
#     4  11  21  32  50  77 104 133 169 204 247 300
#     4  10  20  34  51  74  99 129 168 207 250 297
#     4  10  20  33  52  74 100 131 164 205 252 299
#     4  10  20  33  52  74 100 131 164 205 252 299
#     4  10  20  34  51  74  99 129 168 207 250 297
#
# _framework density 16.841128999999999
#
# number of rings (size 3 to 8) (size 9 to 14) (size 15 to 20)
#    0.000    1.500    2.500    3.375    0.000    7.500 
#    0.000    0.000    0.000    0.000    0.000    0.875 
#    0.000    7.000    0.000    0.000    0.000    0.000 
#
# Total GULP energy -396940.958066 kJ/mol
# GULP energy per Si atom -12404.404940 kJ/mol
# Density = 1.680280 g / cm^3
# Si number density = 16.841129 Si / 1000 Ang^3
#
#
#
# Elastic Constant Matrix: (Units=GPa)
#
#
# Indices 1 2 3 4 5 6 
#
# 1 72.2436 24.5882 42.8690 0.0000 0.0000 0.0000
# 2 24.5882 44.7764 28.7933 0.0000 0.0000 0.0000
# 3 42.8690 28.7933 114.5839 0.0000 0.0000 0.0000
# 4 0.0000 0.0000 0.0000 31.3504 0.0000 0.0000
# 5 0.0000 0.0000 0.0000 0.0000 22.3073 0.0000
# 6 0.0000 0.0000 0.0000 0.0000 0.0000 24.7415
#
#
#
# Elastic Compliance Matrix: (Units=1/GPa)
#
#
# Indices 1 2 3 4 5 6 
#
# 1 0.019562 -0.007199 -0.005510 0.000000 0.000000 0.000000
# 2 -0.007199 0.029287 -0.004666 0.000000 0.000000 0.000000
# 3 -0.005510 -0.004666 0.011961 0.000000 0.000000 0.000000
# 4 0.000000 0.000000 0.000000 0.031898 0.000000 0.000000
# 5 0.000000 0.000000 0.000000 0.000000 0.044828 0.000000
# 6 0.000000 0.000000 0.000000 0.000000 0.000000 0.040418
#
#
# Mechanical properties :
#
#
# Convention : Reuss Voigt Hill
#
# Bulk Modulus (GPa) = 38.37250 47.12276 42.74763
# Shear Modulus (GPa) = 22.58467 24.70340 23.64404
#
# Velocity S-wave (km/s) = 3.66600 3.83410 3.75099
# Velocity P-wave (km/s) = 6.38387 6.90232 6.64815
#
# Compressibility (1/GPa) = 0.02606033
#
# Stress axis : x y z
#
# Youngs Moduli (GPa) = 51.12068 34.14501 83.60510
#
# Poissons Ratio (x) = 0.24581 0.46062
# Poissons Ratio (y) = 0.36802 0.39010
# Poissons Ratio (z) = 0.28165 0.15932
#
# Static dielectric constant tensor:
#      x y z
#    x 3.040850 0.000000 0.000000 
#    y 0.000000 3.251570 0.000000 
#    z 0.000000 0.000000 3.258280 
# 
# 
# High freq. dielectric constant tensor:
#      x y z
#    x 1.616240 0.000000 0.000000 
#    y 0.000000 1.668620 0.000000 
#    z 0.000000 0.000000 1.648200 
# 
# From -- ./inp_files/20804.got.cif
#   From: 2010.03.12/outbox.cif.g09.slc.cpg/sg44_11_cif.got.tgz:20804.got - 2010.04.14 02:36:11.
