data_PCOD8189659
_publ_section_title
;
Structure prediction by ZEFSAII (Michael W. Deem and Ramdas Pophale) SiO2 
 PCOD8189659
Probable space group: I M M 2
;
_chemical_formula_sum "Si O2"
_cell_formula_units_Z 64
_cell_length_a 20.549456
_cell_length_b 17.343320
_cell_length_c 9.222296
_cell_angle_alpha 90.000000
_cell_angle_beta 90.000000
_cell_angle_gamma 90.000000
_cell_volume 3286.787480
_symmetry_space_group_name_H-M "I M M 2"
_symmetry_group_IT_number 44
_symmetry_cell_setting 'orthorhombic'
loop_
_space_group_symop_operation_xyz
x,y,z
-x,-y,z
-x,y,z
x,-y,z
1/2+x,1/2+y,1/2+z
1/2-x,1/2-y,1/2+z
1/2-x,1/2+y,1/2+z
1/2+x,1/2-y,1/2+z
loop_
_atom_site_type_symbol
_atom_site_label
_atom_site_fract_x
_atom_site_fract_y
_atom_site_fract_z
Si Si1 0.428084 0.672430 0.442440
Si Si2 0.308920 0.342862 0.629397
Si Si3 0.569307 0.826662 0.608064
Si Si4 0.293410 0.840737 0.635181
Si Si5 0.574651 0.660921 0.105575
Si Si6 0.184583 0.088443 0.440862
Si Si7 0.927232 0.685802 0.437514
Si Si8 0.198225 0.591065 0.439460
O O1 0.500000 0.635102 0.471343
O O2 0.370818 0.631056 0.531753
O O3 0.431249 0.761804 0.485595
O O4 0.409781 0.666649 0.274620
O O5 0.298777 0.251421 0.631886
O O6 0.326013 0.372919 0.787036
O O7 0.243795 0.383646 0.572020
O O8 0.500000 0.873376 0.596540
O O9 0.635162 0.877163 0.591334
O O10 0.574108 0.788463 0.768846
O O11 0.242569 0.866619 0.517471
O O12 0.272914 0.869983 0.793889
O O13 0.500000 0.639534 0.074739
O O14 0.594068 0.741748 0.033229
O O15 0.618914 0.594738 0.035168
O O16 0.204025 0.000000 0.423826
O O17 0.875918 0.617739 0.468831
O O18 0.000000 0.657457 0.481060
O O19 0.198748 0.500000 0.421517
#
# Coordination Sequence:
#
# PCOD8189659 Si02
#       8
#     8   8   8   8   8   8   8   8
#     4   9  18  33  57  86 109 134 178 235 283 325
#     4  11  22  38  59  82 110 150 195 235 280 343
#     4   8  15  30  53  83 112 138 177 230 278 323
#     4  10  20  36  59  83 110 149 192 233 279 340
#     4  10  20  36  59  85 112 146 190 235 280 339
#     4  12  25  39  56  82 117 151 187 237 294 342
#     4   9  18  34  58  85 113 148 191 233 277 337
#     4  11  22  36  55  82 117 150 186 238 295 341
#
# _framework density 19.471900999999999
#
# number of rings (size 3 to 8) (size 9 to 14) (size 15 to 20)
#    0.000    2.000    0.000    5.250    0.000    5.000 
#    0.000    0.625    0.000    3.750    0.000    0.000 
#    0.000    5.000    0.000    0.000    0.000    0.000 
#
# Total GULP energy -396656.514076 kJ/mol
# GULP energy per Si atom -12395.516065 kJ/mol
# Density = 1.942758 g / cm^3
# Si number density = 19.471901 Si / 1000 Ang^3
#
#
#
# Elastic Constant Matrix: (Units=GPa)
#
#
# Indices 1 2 3 4 5 6 
#
# 1 135.7989 41.3996 56.5876 0.0000 0.0000 0.0000
# 2 41.3996 84.9504 30.0080 0.0000 0.0000 0.0000
# 3 56.5876 30.0080 117.2861 0.0000 0.0000 0.0000
# 4 0.0000 0.0000 0.0000 17.7413 0.0000 0.0000
# 5 0.0000 0.0000 0.0000 0.0000 30.9528 0.0000
# 6 0.0000 0.0000 0.0000 0.0000 0.0000 16.5024
#
#
#
# Elastic Compliance Matrix: (Units=1/GPa)
#
#
# Indices 1 2 3 4 5 6 
#
# 1 0.010089 -0.003515 -0.003968 0.000000 0.000000 0.000000
# 2 -0.003515 0.014166 -0.001928 0.000000 0.000000 0.000000
# 3 -0.003968 -0.001928 0.010934 0.000000 0.000000 0.000000
# 4 0.000000 0.000000 0.000000 0.056366 0.000000 0.000000
# 5 0.000000 0.000000 0.000000 0.000000 0.032307 0.000000
# 6 0.000000 0.000000 0.000000 0.000000 0.000000 0.060597
#
#
# Mechanical properties :
#
#
# Convention : Reuss Voigt Hill
#
# Bulk Modulus (GPa) = 61.10472 66.00289 63.55381
# Shear Modulus (GPa) = 23.95347 27.04198 25.49772
#
# Velocity S-wave (km/s) = 3.51116 3.73066 3.62258
# Velocity P-wave (km/s) = 6.92003 7.24756 7.08569
#
# Compressibility (1/GPa) = 0.01636535
#
# Stress axis : x y z
#
# Youngs Moduli (GPa) = 99.11742 70.59271 91.45605
#
# Poissons Ratio (x) = 0.24813 0.36293
# Poissons Ratio (y) = 0.34840 0.17637
# Poissons Ratio (z) = 0.39334 0.13614
#
# Static dielectric constant tensor:
#      x y z
#    x 4.133320 0.000000 0.000000 
#    y 0.000000 3.169060 0.000000 
#    z 0.000000 0.000000 3.600640 
# 
# 
# High freq. dielectric constant tensor:
#      x y z
#    x 1.786430 0.000000 0.000000 
#    y 0.000000 1.712660 0.000000 
#    z 0.000000 0.000000 1.764020 
# 
# From -- ./inp_files/9024.got.cif
#   From: 2010.03.12/outbox.cif.g09.slc.cpg/sg44_5_cif.got.tgz:9024.got - 2010.04.14 02:36:11.
