data_PCOD8189831
_publ_section_title
;
Structure prediction by ZEFSAII (Michael W. Deem and Ramdas Pophale) SiO2 
 PCOD8189831
Probable space group: I M M 2
;
_chemical_formula_sum "Si O2"
_cell_formula_units_Z 48
_cell_length_a 29.224520
_cell_length_b 9.304994
_cell_length_c 10.091677
_cell_angle_alpha 90.000000
_cell_angle_beta 90.000000
_cell_angle_gamma 90.000000
_cell_volume 2744.269924
_symmetry_space_group_name_H-M "I M M 2"
_symmetry_group_IT_number 44
_symmetry_cell_setting 'orthorhombic'
loop_
_space_group_symop_operation_xyz
x,y,z
-x,-y,z
-x,y,z
x,-y,z
1/2+x,1/2+y,1/2+z
1/2-x,1/2-y,1/2+z
1/2-x,1/2+y,1/2+z
1/2+x,1/2-y,1/2+z
loop_
_atom_site_type_symbol
_atom_site_label
_atom_site_fract_x
_atom_site_fract_y
_atom_site_fract_z
Si Si1 0.716781 0.163719 0.574090
Si Si2 0.279601 0.169858 0.874938
Si Si3 0.389858 0.834875 0.589680
Si Si4 0.553347 0.666378 0.377980
Si Si5 0.381363 0.170465 0.885400
Si Si6 0.552693 0.168195 0.115375
O O1 0.729990 0.213356 0.722524
O O2 0.741955 0.261186 0.467991
O O3 0.662927 0.180327 0.550006
O O4 0.732018 0.000000 0.551750
O O5 0.330107 0.226574 0.916515
O O6 0.276792 0.000000 0.891293
O O7 0.419870 0.731347 0.500648
O O8 0.397468 0.779767 0.739958
O O9 0.405948 0.000000 0.572427
O O10 0.500000 0.690101 0.404876
O O11 0.565934 0.500000 0.361999
O O12 0.568715 0.747573 0.245161
O O13 0.379944 0.000000 0.884222
O O14 0.416853 0.228219 0.994433
O O15 0.500000 0.200026 0.080355
O O16 0.561120 0.000000 0.140537
#
# Coordination Sequence:
#
# PCOD8189831 Si02
#       6
#     8   8   8   8   8   8
#     4   9  19  34  50  72 100 127 161 203 242 285
#     4   9  18  33  51  71  99 132 162 197 243 291
#     4   9  18  34  54  73  96 127 162 202 244 285
#     4  10  21  35  49  70 102 133 160 195 239 288
#     4   8  16  32  52  74  98 124 161 207 246 282
#     4   9  17  31  52  75  97 125 164 205 242 284
#
# _framework density 17.49099
#
# number of rings (size 3 to 8) (size 9 to 14) (size 15 to 20)
#    0.000    3.000    0.000    2.500    0.000    4.333 
#    0.000   10.833    0.000    2.000    0.000    0.000 
#    0.000    0.000    0.000    0.000    0.000    0.000 
#
# Total GULP energy -297570.981188 kJ/mol
# GULP energy per Si atom -12398.790883 kJ/mol
# Density = 1.745118 g / cm^3
# Si number density = 17.490990 Si / 1000 Ang^3
#
#
#
# Elastic Constant Matrix: (Units=GPa)
#
#
# Indices 1 2 3 4 5 6 
#
# 1 62.8372 35.6730 64.5348 0.0000 0.0000 0.0000
# 2 35.6730 54.8422 51.0057 0.0000 0.0000 0.0000
# 3 64.5348 51.0057 127.3589 0.0000 0.0000 0.0000
# 4 0.0000 0.0000 0.0000 23.0582 0.0000 0.0000
# 5 0.0000 0.0000 0.0000 0.0000 37.2840 0.0000
# 6 0.0000 0.0000 0.0000 0.0000 0.0000 28.3472
#
#
#
# Elastic Compliance Matrix: (Units=1/GPa)
#
#
# Indices 1 2 3 4 5 6 
#
# 1 0.036590 -0.010449 -0.014356 0.000000 0.000000 0.000000
# 2 -0.010449 0.032041 -0.007537 0.000000 0.000000 0.000000
# 3 -0.014356 -0.007537 0.018145 0.000000 0.000000 0.000000
# 4 0.000000 0.000000 0.000000 0.043369 0.000000 0.000000
# 5 0.000000 0.000000 0.000000 0.000000 0.026821 0.000000
# 6 0.000000 0.000000 0.000000 0.000000 0.000000 0.035277
#
#
# Mechanical properties :
#
#
# Convention : Reuss Voigt Hill
#
# Bulk Modulus (GPa) = 45.26689 60.82947 53.04818
# Shear Modulus (GPa) = 18.91859 23.99286 21.45573
#
# Velocity S-wave (km/s) = 3.29237 3.70770 3.50619
# Velocity P-wave (km/s) = 6.35525 7.29263 6.84002
#
# Compressibility (1/GPa) = 0.02209120
#
# Stress axis : x y z
#
# Youngs Moduli (GPa) = 27.33003 31.21021 55.11169
#
# Poissons Ratio (x) = 0.32610 0.79119
# Poissons Ratio (y) = 0.28556 0.41540
# Poissons Ratio (z) = 0.39235 0.23525
#
# Static dielectric constant tensor:
#      x y z
#    x 3.312800 0.000000 0.000000 
#    y 0.000000 3.035700 0.000000 
#    z 0.000000 0.000000 3.393010 
# 
# 
# High freq. dielectric constant tensor:
#      x y z
#    x 1.675330 0.000000 0.000000 
#    y 0.000000 1.655540 0.000000 
#    z 0.000000 0.000000 1.683590 
# 
# From -- ./inp_files/4873.got.cif
#   From: 2010.03.12/outbox.cif.g09.slc.cpg/sg44_3_cif.got.tgz:4873.got - 2010.04.14 02:36:11.
