data_PCOD8189950
_publ_section_title
;
Structure prediction by ZEFSAII (Michael W. Deem and Ramdas Pophale) SiO2 
 PCOD8189950
Probable space group: I M M 2
;
_chemical_formula_sum "Si O2"
_cell_formula_units_Z 64
_cell_length_a 20.504497
_cell_length_b 8.841567
_cell_length_c 19.749909
_cell_angle_alpha 90.000000
_cell_angle_beta 90.000000
_cell_angle_gamma 90.000000
_cell_volume 3580.498212
_symmetry_space_group_name_H-M "I M M 2"
_symmetry_group_IT_number 44
_symmetry_cell_setting 'orthorhombic'
loop_
_space_group_symop_operation_xyz
x,y,z
-x,-y,z
-x,y,z
x,-y,z
1/2+x,1/2+y,1/2+z
1/2-x,1/2-y,1/2+z
1/2-x,1/2+y,1/2+z
1/2+x,1/2-y,1/2+z
loop_
_atom_site_type_symbol
_atom_site_label
_atom_site_fract_x
_atom_site_fract_y
_atom_site_fract_z
Si Si1 0.192303 0.675123 0.309800
Si Si2 0.815456 0.679355 0.880177
Si Si3 0.426507 0.327177 0.293992
Si Si4 0.379538 0.322661 0.025241
Si Si5 0.426328 0.325026 0.880376
Si Si6 0.620039 0.821842 0.162796
Si Si7 0.732688 0.176971 0.519559
Si Si8 0.258476 0.174779 0.666639
O O1 0.204198 0.500000 0.327320
O O2 0.249291 0.773307 0.342663
O O3 0.121583 0.724577 0.335500
O O4 0.192391 0.702273 0.228614
O O5 0.822382 0.500000 0.874396
O O6 0.878985 0.753055 0.848463
O O7 0.811624 0.740241 0.958223
O O8 0.500000 0.314973 0.322304
O O9 0.404843 0.500000 0.283533
O O10 0.424332 0.243900 0.222202
O O11 0.380877 0.500000 0.040847
O O12 0.407610 0.238632 0.091240
O O13 0.306353 0.261719 0.012097
O O14 0.421867 0.280870 0.959560
O O15 0.500000 0.294005 0.855898
O O16 0.406709 0.500000 0.871146
O O17 0.694316 0.773977 0.177012
O O18 0.614774 0.000000 0.163889
O O19 0.706338 0.219148 0.595024
O O20 0.734925 0.000000 0.508000
O O21 0.235871 0.000000 0.662783
#
# Coordination Sequence:
#
# PCOD8189950 Si02
#       8
#     8   8   8   8   8   8   8   8
#     4  11  21  33  55  82 111 144 179 224 272 322
#     4  11  20  34  58  84 108 136 178 229 273 318
#     4  11  24  40  55  74 106 148 186 220 269 330
#     4   9  17  33  52  73 107 147 185 217 261 324
#     4  10  21  37  56  77 106 147 190 228 271 323
#     4  11  21  32  51  80 110 140 178 223 269 315
#     4   8  15  30  53  78 104 136 173 217 263 315
#     4   9  18  34  54  77 107 143 180 215 263 324
#
# _framework density 17.874607000000001
#
# number of rings (size 3 to 8) (size 9 to 14) (size 15 to 20)
#    0.000    2.000    2.500    3.000    0.000    2.750 
#    0.000    1.875    0.000    0.750    0.000    5.250 
#    0.000    0.000    0.000    0.000    0.000    0.000 
#
# Total GULP energy -396709.648698 kJ/mol
# GULP energy per Si atom -12397.176522 kJ/mol
# Density = 1.783392 g / cm^3
# Si number density = 17.874607 Si / 1000 Ang^3
#
#
#
# Elastic Constant Matrix: (Units=GPa)
#
#
# Indices 1 2 3 4 5 6 
#
# 1 80.1893 34.5906 51.0035 0.0000 0.0000 0.0000
# 2 34.5906 89.2271 43.5971 0.0000 0.0000 0.0000
# 3 51.0035 43.5971 126.2833 0.0000 0.0000 0.0000
# 4 0.0000 0.0000 0.0000 27.4137 0.0000 0.0000
# 5 0.0000 0.0000 0.0000 0.0000 24.8718 0.0000
# 6 0.0000 0.0000 0.0000 0.0000 0.0000 24.7888
#
#
#
# Elastic Compliance Matrix: (Units=1/GPa)
#
#
# Indices 1 2 3 4 5 6 
#
# 1 0.017953 -0.004110 -0.005832 0.000000 0.000000 0.000000
# 2 -0.004110 0.014422 -0.003319 0.000000 0.000000 0.000000
# 3 -0.005832 -0.003319 0.011420 0.000000 0.000000 0.000000
# 4 0.000000 0.000000 0.000000 0.036478 0.000000 0.000000
# 5 0.000000 0.000000 0.000000 0.000000 0.040206 0.000000
# 6 0.000000 0.000000 0.000000 0.000000 0.000000 0.040341
#
#
# Mechanical properties :
#
#
# Convention : Reuss Voigt Hill
#
# Bulk Modulus (GPa) = 57.89406 61.56468 59.72937
# Shear Modulus (GPa) = 25.89332 26.51544 26.20438
#
# Velocity S-wave (km/s) = 3.81019 3.85569 3.83301
# Velocity P-wave (km/s) = 7.19834 7.37151 7.28543
#
# Compressibility (1/GPa) = 0.01727293
#
# Stress axis : x y z
#
# Youngs Moduli (GPa) = 55.70176 69.33616 87.56642
#
# Poissons Ratio (x) = 0.28499 0.51067
# Poissons Ratio (y) = 0.22895 0.29064
# Poissons Ratio (z) = 0.32484 0.23013
#
# Static dielectric constant tensor:
#      x y z
#    x 3.058940 0.000000 0.000000 
#    y 0.000000 3.230320 0.000000 
#    z 0.000000 0.000000 3.698120 
# 
# 
# High freq. dielectric constant tensor:
#      x y z
#    x 1.660750 0.000000 0.000000 
#    y 0.000000 1.685150 0.000000 
#    z 0.000000 0.000000 1.702270 
# 
# From -- ./inp_files/20748.got.cif
#   From: 2010.03.12/outbox.cif.g09.slc.cpg/sg44_11_cif.got.tgz:20748.got - 2010.04.14 02:36:11.
