data_PCOD8189911
_publ_section_title
;
Structure prediction by ZEFSAII (Michael W. Deem and Ramdas Pophale) SiO2 
 PCOD8189911
Probable space group: I M M 2
;
_chemical_formula_sum "Si O2"
_cell_formula_units_Z 44
_cell_length_a 16.105375
_cell_length_b 16.105372
_cell_length_c 8.435175
_cell_angle_alpha 90.000000
_cell_angle_beta 90.000000
_cell_angle_gamma 90.000000
_cell_volume 2187.941466
_symmetry_space_group_name_H-M "I M M 2"
_symmetry_group_IT_number 44
_symmetry_cell_setting 'orthorhombic'
loop_
_space_group_symop_operation_xyz
x,y,z
-x,-y,z
-x,y,z
x,-y,z
1/2+x,1/2+y,1/2+z
1/2-x,1/2-y,1/2+z
1/2-x,1/2+y,1/2+z
1/2+x,1/2-y,1/2+z
loop_
_atom_site_type_symbol
_atom_site_label
_atom_site_fract_x
_atom_site_fract_y
_atom_site_fract_z
Si Si1 0.769619 0.097599 0.130870
Si Si2 0.642830 0.000000 0.658564
Si Si3 0.154154 0.287059 0.794420
Si Si4 0.902401 0.769619 0.130870
Si Si5 0.000000 0.500000 0.909161
Si Si6 0.287059 0.845846 0.794420
Si Si7 0.000000 0.500000 0.409161
Si Si8 0.500000 0.142830 0.158564
O O1 0.716158 0.133806 0.277684
O O2 0.860616 0.139384 0.125023
O O3 0.780976 0.000000 0.152201
O O4 0.718326 0.119304 0.972068
O O5 0.585639 0.000000 0.505079
O O6 0.702491 0.920133 0.668332
O O7 0.583521 0.000000 0.810668
O O8 0.203655 0.203655 0.746076
O O9 0.079867 0.297509 0.668332
O O10 0.119304 0.281674 0.972068
O O11 0.866194 0.716158 0.277684
O O12 0.000000 0.780976 0.152201
O O13 0.000000 0.583521 0.810668
O O14 0.000000 0.585639 0.505079
#
# Coordination Sequence:
#
# PCOD8189911 Si02
#       8
#     8   4   8   8   2   8   2   4
#     4  10  21  39  58  83 111 146 186 227 273 327
#     4  11  20  36  52  79 114 137 187 214 281 324
#     4  10  21  36  56  79 113 148 182 225 274 328
#     4  10  21  39  58  83 111 146 186 227 273 327
#     4  10  24  30  52  86 108 144 166 236 270 330
#     4  10  21  36  56  79 113 148 182 225 274 328
#     4  10  24  30  52  86 108 144 166 236 270 330
#     4  11  20  36  52  79 114 137 187 214 281 324
#
# _framework density 20.110227999999999
#
# number of rings (size 3 to 8) (size 9 to 14) (size 15 to 20)
#    0.000    1.818    1.818    2.182    5.091    0.364 
#    3.273    0.000    0.000    0.545    0.000    0.000 
#    0.000   14.545    0.000    0.000    0.000    0.000 
#
# Total GULP energy -272754.549253 kJ/mol
# GULP energy per Si atom -12397.934057 kJ/mol
# Density = 2.006446 g / cm^3
# Si number density = 20.110228 Si / 1000 Ang^3
#
#
#
# Elastic Constant Matrix: (Units=GPa)
#
#
# Indices 1 2 3 4 5 6 
#
# 1 127.5837 42.7608 17.4931 0.0000 0.0000 0.0000
# 2 42.7608 127.5836 17.4930 0.0000 0.0000 0.0000
# 3 17.4931 17.4930 41.1065 0.0000 0.0000 0.0000
# 4 0.0000 0.0000 0.0000 13.9860 0.0000 0.0000
# 5 0.0000 0.0000 0.0000 0.0000 13.9862 0.0000
# 6 0.0000 0.0000 0.0000 0.0000 0.0000 17.8256
#
#
#
# Elastic Compliance Matrix: (Units=1/GPa)
#
#
# Indices 1 2 3 4 5 6 
#
# 1 0.009111 -0.002678 -0.002737 0.000000 0.000000 0.000000
# 2 -0.002678 0.009111 -0.002737 0.000000 0.000000 0.000000
# 3 -0.002737 -0.002737 0.026657 0.000000 0.000000 0.000000
# 4 0.000000 0.000000 0.000000 0.071500 0.000000 0.000000
# 5 0.000000 0.000000 0.000000 0.000000 0.071499 0.000000
# 6 0.000000 0.000000 0.000000 0.000000 0.000000 0.056099
#
#
# Mechanical properties :
#
#
# Convention : Reuss Voigt Hill
#
# Bulk Modulus (GPa) = 34.99871 50.19640 42.59755
# Shear Modulus (GPa) = 18.53171 23.72801 21.12986
#
# Velocity S-wave (km/s) = 3.03893 3.43869 3.24497
# Velocity P-wave (km/s) = 5.45478 6.38600 5.93867
#
# Compressibility (1/GPa) = 0.02857248
#
# Stress axis : x y z
#
# Youngs Moduli (GPa) = 109.75768 109.75762 37.51367
#
# Poissons Ratio (x) = 0.29396 0.10269
# Poissons Ratio (y) = 0.29396 0.10269
# Poissons Ratio (z) = 0.30046 0.30046
#
# Static dielectric constant tensor:
#      x y z
#    x 3.739660 0.000000 0.000000 
#    y 0.000000 3.739660 0.000000 
#    z 0.000000 0.000000 3.578630 
# 
# 
# High freq. dielectric constant tensor:
#      x y z
#    x 1.784140 0.000000 0.000000 
#    y 0.000000 1.784140 0.000000 
#    z 0.000000 0.000000 1.777410 
# 
# From -- ./inp_files/7075.got.cif
#   From: 2010.03.12/outbox.cif.g09.slc.cpg/sg44_4_cif.got.tgz:7075.got - 2010.04.14 02:36:11.
