data_PCOD8189456
_publ_section_title
;
Structure prediction by ZEFSAII (Michael W. Deem and Ramdas Pophale) SiO2 
 PCOD8189456
Probable space group: I M M 2
;
_chemical_formula_sum "Si O2"
_cell_formula_units_Z 48
_cell_length_a 10.313578
_cell_length_b 27.941590
_cell_length_c 9.063086
_cell_angle_alpha 90.000000
_cell_angle_beta 90.000000
_cell_angle_gamma 90.000000
_cell_volume 2611.779894
_symmetry_space_group_name_H-M "I M M 2"
_symmetry_group_IT_number 44
_symmetry_cell_setting 'orthorhombic'
loop_
_space_group_symop_operation_xyz
x,y,z
-x,-y,z
-x,y,z
x,-y,z
1/2+x,1/2+y,1/2+z
1/2-x,1/2-y,1/2+z
1/2-x,1/2+y,1/2+z
1/2+x,1/2-y,1/2+z
loop_
_atom_site_type_symbol
_atom_site_label
_atom_site_fract_x
_atom_site_fract_y
_atom_site_fract_z
Si Si1 0.857837 0.402120 0.797180
Si Si2 0.148163 0.556208 0.110228
Si Si3 0.226765 0.699338 0.786179
Si Si4 0.146512 0.784213 0.585045
Si Si5 0.355839 0.374197 0.602474
Si Si6 0.849146 0.877661 0.760982
O O1 0.867585 0.344899 0.828161
O O2 0.749295 0.411804 0.670569
O O3 0.000000 0.420138 0.744787
O O4 0.814474 0.429759 0.943613
O O5 0.161151 0.500000 0.130184
O O6 0.252847 0.579426 0.219478
O O7 0.000000 0.572933 0.145463
O O8 0.153231 0.738736 0.691143
O O9 0.343856 0.676855 0.687535
O O10 0.273359 0.724307 0.936272
O O11 0.195941 0.831393 0.669369
O O12 0.000000 0.792194 0.536144
O O13 0.500000 0.394935 0.627236
O O14 0.327271 0.365672 0.431626
O O15 0.000000 0.891301 0.729877
#
# Coordination Sequence:
#
# PCOD8189456 Si02
#       6
#     8   8   8   8   8   8
#     4   9  19  36  58  81 111 147 188 237 280 335
#     4  10  21  39  61  86 113 146 190 239 292 345
#     4  10  20  34  56  80 113 148 194 231 276 332
#     4  11  21  35  54  80 114 152 190 234 282 333
#     4   9  19  35  57  80 112 149 185 231 283 333
#     4  10  20  37  58  83 113 148 188 235 285 338
#
# _framework density 18.378270000000001
#
# number of rings (size 3 to 8) (size 9 to 14) (size 15 to 20)
#    1.000    1.167    1.667    2.000    0.000    1.667 
#    0.000    5.000    0.000    3.000    0.000    0.000 
#    0.000    0.000    0.000    0.000    0.000    0.000 
#
# Total GULP energy -297411.746641 kJ/mol
# GULP energy per Si atom -12392.156110 kJ/mol
# Density = 1.833644 g / cm^3
# Si number density = 18.378270 Si / 1000 Ang^3
#
#
#
# Elastic Constant Matrix: (Units=GPa)
#
#
# Indices 1 2 3 4 5 6 
#
# 1 88.6582 20.7085 49.7699 0.0034 0.0051 -0.0009
# 2 20.7085 58.6068 21.0714 -0.0086 -0.0021 0.0002
# 3 49.7699 21.0714 106.2260 0.0185 0.0249 -0.0029
# 4 0.0034 -0.0086 0.0185 28.3504 0.0025 -0.0007
# 5 0.0051 -0.0021 0.0249 0.0025 32.4559 0.0038
# 6 -0.0009 0.0002 -0.0029 -0.0007 0.0038 24.6146
#
#
#
# Elastic Compliance Matrix: (Units=1/GPa)
#
#
# Indices 1 2 3 4 5 6 
#
# 1 0.015827 -0.003151 -0.006790 0.000002 0.000003 0.000000
# 2 -0.003151 0.019001 -0.002293 0.000008 0.000003 -0.000001
# 3 -0.006790 -0.002293 0.013050 -0.000008 -0.000009 0.000001
# 4 0.000002 0.000008 -0.000008 0.035273 -0.000003 0.000001
# 5 0.000003 0.000003 -0.000009 -0.000003 0.030811 -0.000005
# 6 0.000000 -0.000001 0.000001 0.000001 -0.000005 0.040626
#
#
# Mechanical properties :
#
#
# Convention : Reuss Voigt Hill
#
# Bulk Modulus (GPa) = 42.71743 48.51006 45.61374
# Shear Modulus (GPa) = 26.75804 27.88028 27.31916
#
# Velocity S-wave (km/s) = 3.81985 3.89912 3.85969
# Velocity P-wave (km/s) = 6.53826 6.83546 6.68851
#
# Compressibility (1/GPa) = 0.02340965
#
# Stress axis : x y z
#
# Youngs Moduli (GPa) = 63.18224 52.62997 76.62717
#
# Poissons Ratio (x) = 0.16584 0.52033
# Poissons Ratio (y) = 0.19909 0.17568
# Poissons Ratio (z) = 0.42904 0.12066
#
# Static dielectric constant tensor:
#      x y z
#    x 3.339660 0.000000 -0.000010 
#    y 0.000000 3.107420 0.000000 
#    z -0.000010 0.000000 3.310910 
# 
# 
# High freq. dielectric constant tensor:
#      x y z
#    x 1.713650 0.000000 0.000000 
#    y 0.000000 1.686460 0.000000 
#    z 0.000000 0.000000 1.715410 
# 
# From -- ./inp_files/4914.got.cif
#   From: 2010.03.12/outbox.cif.g09.slc.cpg/sg44_3_cif.got.tgz:4914.got - 2010.04.14 02:36:11.
