data_PCOD8189804
_publ_section_title
;
Structure prediction by ZEFSAII (Michael W. Deem and Ramdas Pophale) SiO2 
 PCOD8189804
Probable space group: I M M 2
;
_chemical_formula_sum "Si O2"
_cell_formula_units_Z 56
_cell_length_a 7.852419
_cell_length_b 21.802599
_cell_length_c 14.726155
_cell_angle_alpha 90.000000
_cell_angle_beta 90.000000
_cell_angle_gamma 90.000000
_cell_volume 2521.164015
_symmetry_space_group_name_H-M "I M M 2"
_symmetry_group_IT_number 44
_symmetry_cell_setting 'orthorhombic'
loop_
_space_group_symop_operation_xyz
x,y,z
-x,-y,z
-x,y,z
x,-y,z
1/2+x,1/2+y,1/2+z
1/2-x,1/2-y,1/2+z
1/2-x,1/2+y,1/2+z
1/2+x,1/2-y,1/2+z
loop_
_atom_site_type_symbol
_atom_site_label
_atom_site_fract_x
_atom_site_fract_y
_atom_site_fract_z
Si Si1 0.302618 0.749498 0.435560
Si Si2 0.194831 0.934066 0.339075
Si Si3 0.699339 0.877918 0.513572
Si Si4 0.309556 0.845128 0.072945
Si Si5 0.297712 0.308997 0.758043
Si Si6 0.500000 0.427654 0.330718
Si Si7 0.000000 0.072991 0.036732
Si Si8 0.306329 0.072300 0.707677
O O1 0.500000 0.737754 0.452686
O O2 0.237423 0.809817 0.488389
O O3 0.205004 0.691767 0.478518
O O4 0.265726 0.756456 0.327704
O O5 0.207777 0.925977 0.447745
O O6 0.279161 0.875395 0.289559
O O7 0.000000 0.936586 0.309356
O O8 0.279730 0.000000 0.312355
O O9 0.500000 0.884784 0.496263
O O10 0.746962 0.892581 0.616646
O O11 0.500000 0.872953 0.077693
O O12 0.275483 0.798050 0.157015
O O13 0.171380 0.900011 0.082153
O O14 0.500000 0.307754 0.757143
O O15 0.500000 0.500000 0.329154
O O16 0.500000 0.404008 0.432969
O O17 0.326453 0.403944 0.283374
O O18 0.000000 0.000000 0.048466
O O19 0.500000 0.088724 0.737688
O O20 0.289322 0.000000 0.690466
#
# Coordination Sequence:
#
# PCOD8189804 Si02
#       8
#     8   8   8   8   8   4   4   8
#     4  10  20  40  64  92 132 175 218 277 335 398
#     4   9  18  30  50  82 121 167 214 263 326 394
#     4   9  18  31  51  81 122 167 212 264 326 390
#     4  12  25  46  72 101 134 175 225 278 345 412
#     4  10  20  39  63  94 134 176 220 278 336 394
#     4   9  20  38  60  85 117 161 209 263 328 383
#     4  11  26  50  74  97 133 175 224 291 346 401
#     4   9  17  31  52  82 124 168 213 269 324 383
#
# _framework density 22.211963000000001
#
# number of rings (size 3 to 8) (size 9 to 14) (size 15 to 20)
#    0.000    2.143    1.429    1.286    1.000    3.429 
#    2.571    1.429    0.000    0.000    0.000    0.000 
#    0.000    0.000    0.000    0.000    0.000    0.000 
#
# Total GULP energy -347120.209789 kJ/mol
# GULP energy per Si atom -12397.150350 kJ/mol
# Density = 2.216141 g / cm^3
# Si number density = 22.211963 Si / 1000 Ang^3
#
#
#
# Elastic Constant Matrix: (Units=GPa)
#
#
# Indices 1 2 3 4 5 6 
#
# 1 104.2979 21.0378 31.5451 0.0003 0.0000 -0.0001
# 2 21.0378 64.6852 14.2599 0.0001 0.0000 -0.0001
# 3 31.5451 14.2599 102.9476 0.0006 0.0000 -0.0003
# 4 0.0003 0.0001 0.0006 26.5491 0.0000 -0.0001
# 5 0.0000 0.0000 0.0000 0.0000 32.3030 0.0001
# 6 -0.0001 -0.0001 -0.0003 -0.0001 0.0001 16.2734
#
#
#
# Elastic Compliance Matrix: (Units=1/GPa)
#
#
# Indices 1 2 3 4 5 6 
#
# 1 0.011086 -0.002947 -0.002989 0.000000 0.000000 0.000000
# 2 -0.002947 0.016730 -0.001414 0.000000 0.000000 0.000000
# 3 -0.002989 -0.001414 0.010825 0.000000 0.000000 0.000000
# 4 0.000000 0.000000 0.000000 0.037666 0.000000 0.000000
# 5 0.000000 0.000000 0.000000 0.000000 0.030957 0.000000
# 6 0.000000 0.000000 0.000000 0.000000 0.000000 0.061450
#
#
# Mechanical properties :
#
#
# Convention : Reuss Voigt Hill
#
# Bulk Modulus (GPa) = 41.76866 45.06848 43.41857
# Shear Modulus (GPa) = 26.12403 28.69763 27.41083
#
# Velocity S-wave (km/s) = 3.43319 3.59833 3.51673
# Velocity P-wave (km/s) = 5.87887 6.13173 6.00663
#
# Compressibility (1/GPa) = 0.02394139
#
# Stress axis : x y z
#
# Youngs Moduli (GPa) = 90.20142 59.77407 92.37493
#
# Poissons Ratio (x) = 0.17614 0.27610
# Poissons Ratio (y) = 0.26580 0.13065
# Poissons Ratio (z) = 0.26960 0.08454
#
# Static dielectric constant tensor:
#      x y z
#    x 3.925410 0.000000 0.000000 
#    y 0.000000 3.922490 0.000000 
#    z 0.000000 0.000000 4.123930 
# 
# 
# High freq. dielectric constant tensor:
#      x y z
#    x 1.868240 0.000000 0.000000 
#    y 0.000000 1.855580 0.000000 
#    z 0.000000 0.000000 1.873610 
# 
# From -- ./inp_files/16512.got.cif
#   From: 2010.03.12/outbox.cif.g09.slc.cpg/sg44_9_cif.got.tgz:16512.got - 2010.04.14 02:36:11.
