data_PCOD8189445
_publ_section_title
;
Structure prediction by ZEFSAII (Michael W. Deem and Ramdas Pophale) SiO2 
 PCOD8189445
Probable space group: I M M 2
;
_chemical_formula_sum "Si O2"
_cell_formula_units_Z 56
_cell_length_a 8.810350
_cell_length_b 22.668384
_cell_length_c 14.238844
_cell_angle_alpha 90.000000
_cell_angle_beta 90.000000
_cell_angle_gamma 90.000000
_cell_volume 2843.730621
_symmetry_space_group_name_H-M "I M M 2"
_symmetry_group_IT_number 44
_symmetry_cell_setting 'orthorhombic'
loop_
_space_group_symop_operation_xyz
x,y,z
-x,-y,z
-x,y,z
x,-y,z
1/2+x,1/2+y,1/2+z
1/2-x,1/2-y,1/2+z
1/2-x,1/2+y,1/2+z
1/2+x,1/2-y,1/2+z
loop_
_atom_site_type_symbol
_atom_site_label
_atom_site_fract_x
_atom_site_fract_y
_atom_site_fract_z
Si Si1 0.825398 0.776223 0.378150
Si Si2 0.319718 0.148184 0.667147
Si Si3 0.674488 0.345473 0.360213
Si Si4 0.174693 0.220499 0.165596
Si Si5 0.320975 0.392733 0.986532
Si Si6 0.678722 0.000000 0.159780
Si Si7 0.176554 0.109515 0.058406
Si Si8 0.180264 0.500000 0.874256
O O1 0.723084 0.719143 0.396953
O O2 0.800746 0.799513 0.272650
O O3 0.774763 0.828837 0.446262
O O4 0.000000 0.757986 0.393943
O O5 0.500000 0.143598 0.658287
O O6 0.273430 0.130673 0.773178
O O7 0.254838 0.214503 0.648824
O O8 0.241202 0.104166 0.593121
O O9 0.500000 0.342507 0.328987
O O10 0.697816 0.390983 0.446048
O O11 0.247710 0.170463 0.099624
O O12 0.000000 0.226298 0.139307
O O13 0.500000 0.403448 0.984889
O O14 0.242255 0.442225 0.924807
O O15 0.734319 0.943474 0.104052
O O16 0.739426 0.000000 0.266791
O O17 0.500000 0.000000 0.160557
O O18 0.000000 0.103900 0.086301
O O19 0.000000 0.500000 0.879908
#
# Coordination Sequence:
#
# PCOD8189445 Si02
#       8
#     8   8   8   8   8   4   8   4
#     4   9  18  32  53  83 117 150 182 222 279 338
#     4  10  20  36  57  82 116 152 185 228 281 335
#     4  10  20  34  55  85 116 147 188 233 277 331
#     4   8  15  30  53  81 111 145 182 217 264 328
#     4  11  22  37  59  85 112 147 191 235 279 333
#     4  11  25  41  58  83 112 141 181 230 274 325
#     4  10  20  36  58  80 108 148 188 227 274 326
#     4  11  25  43  60  83 114 147 183 226 280 335
#
# _framework density 19.692442
#
# number of rings (size 3 to 8) (size 9 to 14) (size 15 to 20)
#    0.000    2.143    0.000    4.286    0.000    5.714 
#    0.000    5.714    0.000    2.571    0.000    0.000 
#    0.000    0.000    0.000    0.000    0.000    0.000 
#
# Total GULP energy -347198.047717 kJ/mol
# GULP energy per Si atom -12399.930276 kJ/mol
# Density = 1.964762 g / cm^3
# Si number density = 19.692442 Si / 1000 Ang^3
#
#
#
# Elastic Constant Matrix: (Units=GPa)
#
#
# Indices 1 2 3 4 5 6 
#
# 1 71.2833 35.4334 45.5522 0.0000 0.0000 0.0000
# 2 35.4334 71.9835 62.6871 -0.0001 0.0000 0.0000
# 3 45.5522 62.6871 126.7360 -0.0002 0.0000 0.0000
# 4 0.0000 -0.0001 -0.0002 29.7951 0.0000 0.0000
# 5 0.0000 0.0000 0.0000 0.0000 32.1466 0.0000
# 6 0.0000 0.0000 0.0000 0.0000 0.0000 28.4589
#
#
#
# Elastic Compliance Matrix: (Units=1/GPa)
#
#
# Indices 1 2 3 4 5 6 
#
# 1 0.019666 -0.006192 -0.004006 0.000000 0.000000 0.000000
# 2 -0.006192 0.026354 -0.010810 0.000000 0.000000 0.000000
# 3 -0.004006 -0.010810 0.014677 0.000000 0.000000 0.000000
# 4 0.000000 0.000000 0.000000 0.033563 0.000000 0.000000
# 5 0.000000 0.000000 0.000000 0.000000 0.031108 0.000000
# 6 0.000000 0.000000 0.000000 0.000000 0.000000 0.035138
#
#
# Mechanical properties :
#
#
# Convention : Reuss Voigt Hill
#
# Bulk Modulus (GPa) = 53.52795 61.92757 57.72776
# Shear Modulus (GPa) = 23.95231 26.50211 25.22721
#
# Velocity S-wave (km/s) = 3.49136 3.67250 3.58307
# Velocity P-wave (km/s) = 6.59498 7.03553 6.81881
#
# Compressibility (1/GPa) = 0.01868183
#
# Stress axis : x y z
#
# Youngs Moduli (GPa) = 50.84825 37.94522 68.13403
#
# Poissons Ratio (x) = 0.23496 0.27293
# Poissons Ratio (y) = 0.31486 0.73651
# Poissons Ratio (z) = 0.20369 0.41018
#
# Static dielectric constant tensor:
#      x y z
#    x 3.427320 0.000000 0.000000 
#    y 0.000000 3.570200 0.000000 
#    z 0.000000 0.000000 3.727740 
# 
# 
# High freq. dielectric constant tensor:
#      x y z
#    x 1.756980 0.000000 0.000000 
#    y 0.000000 1.748070 0.000000 
#    z 0.000000 0.000000 1.782970 
# 
# From -- ./inp_files/16557.got.cif
#   From: 2010.03.12/outbox.cif.g09.slc.cpg/sg44_9_cif.got.tgz:16557.got - 2010.04.14 02:36:11.
