data_PCOD8189078
_publ_section_title
;
Structure prediction by ZEFSAII (Michael W. Deem and Ramdas Pophale) SiO2 
 PCOD8189078
Probable space group: I M M 2
;
_chemical_formula_sum "Si O2"
_cell_formula_units_Z 48
_cell_length_a 7.775625
_cell_length_b 19.792872
_cell_length_c 15.226836
_cell_angle_alpha 90.000000
_cell_angle_beta 90.000000
_cell_angle_gamma 90.000000
_cell_volume 2343.439758
_symmetry_space_group_name_H-M "I M M 2"
_symmetry_group_IT_number 44
_symmetry_cell_setting 'orthorhombic'
loop_
_space_group_symop_operation_xyz
x,y,z
-x,-y,z
-x,y,z
x,-y,z
1/2+x,1/2+y,1/2+z
1/2-x,1/2-y,1/2+z
1/2-x,1/2+y,1/2+z
1/2+x,1/2-y,1/2+z
loop_
_atom_site_type_symbol
_atom_site_label
_atom_site_fract_x
_atom_site_fract_y
_atom_site_fract_z
Si Si1 0.308213 0.390096 0.376460
Si Si2 0.500000 0.080662 0.562019
Si Si3 0.500000 0.075855 0.753020
Si Si4 0.195938 0.749611 0.339017
Si Si5 0.692195 0.330273 0.010307
Si Si6 0.296007 0.713271 0.644111
Si Si7 0.203813 0.073818 0.069227
O O1 0.500000 0.417590 0.355548
O O2 0.315163 0.308979 0.378759
O O3 0.239478 0.419139 0.468018
O O4 0.176989 0.411298 0.301933
O O5 0.500000 0.113996 0.659917
O O6 0.673140 0.109203 0.518759
O O7 0.500000 0.000000 0.552393
O O8 0.500000 0.000000 0.721882
O O9 0.205373 0.810136 0.407982
O O10 0.264873 0.771313 0.243255
O O11 0.000000 0.721868 0.329262
O O12 0.500000 0.357734 0.029511
O O13 0.722271 0.266999 0.075138
O O14 0.500000 0.713331 0.635487
O O15 0.221794 0.637815 0.622879
O O16 0.000000 0.075656 0.075136
O O17 0.271508 0.000000 0.103413
#
# Coordination Sequence:
#
# PCOD8189078 Si02
#       7
#     8   4   4   8   8   8   8
#     4  11  21  35  58  90 122 160 203 253 308 372
#     4  11  26  46  66  87 120 166 208 258 318 371
#     4  11  24  40  58  85 123 164 204 252 311 373
#     4  10  21  36  59  91 122 157 205 254 308 363
#     4  11  23  41  64  93 124 158 207 261 310 365
#     4  10  19  36  61  91 125 162 206 256 304 366
#     4   9  18  33  56  87 124 166 205 248 310 373
#
# _framework density 20.482710000000001
#
# number of rings (size 3 to 8) (size 9 to 14) (size 15 to 20)
#    0.000    1.667    3.333    1.500    1.167    4.000 
#    0.000    2.500    0.000    3.000    0.000    0.000 
#    0.000    0.000    0.000    0.000    0.000    0.000 
#
# Total GULP energy -297475.571328 kJ/mol
# GULP energy per Si atom -12394.815472 kJ/mol
# Density = 2.043609 g / cm^3
# Si number density = 20.482710 Si / 1000 Ang^3
#
#
#
# Elastic Constant Matrix: (Units=GPa)
#
#
# Indices 1 2 3 4 5 6 
#
# 1 86.9778 30.3935 26.8677 0.0000 0.0000 0.0000
# 2 30.3935 122.7185 30.3165 0.0000 0.0000 0.0000
# 3 26.8677 30.3165 99.8302 0.0001 0.0000 0.0000
# 4 0.0000 0.0000 0.0001 28.8783 0.0000 0.0000
# 5 0.0000 0.0000 0.0000 0.0000 23.3453 0.0000
# 6 0.0000 0.0000 0.0000 0.0000 0.0000 13.2559
#
#
#
# Elastic Compliance Matrix: (Units=1/GPa)
#
#
# Indices 1 2 3 4 5 6 
#
# 1 0.013264 -0.002598 -0.002781 0.000000 0.000000 0.000000
# 2 -0.002598 0.009319 -0.002131 0.000000 0.000000 0.000000
# 3 -0.002781 -0.002131 0.011412 0.000000 0.000000 0.000000
# 4 0.000000 0.000000 0.000000 0.034628 0.000000 0.000000
# 5 0.000000 0.000000 0.000000 0.000000 0.042835 0.000000
# 6 0.000000 0.000000 0.000000 0.000000 0.000000 0.075438
#
#
# Mechanical properties :
#
#
# Convention : Reuss Voigt Hill
#
# Bulk Modulus (GPa) = 52.69823 53.85353 53.27588
# Shear Modulus (GPa) = 24.01064 27.89249 25.95156
#
# Velocity S-wave (km/s) = 3.42751 3.69420 3.56335
# Velocity P-wave (km/s) = 6.43800 6.67424 6.55718
#
# Compressibility (1/GPa) = 0.01897597
#
# Stress axis : x y z
#
# Youngs Moduli (GPa) = 75.39168 107.31277 87.62362
#
# Poissons Ratio (x) = 0.27881 0.24366
# Poissons Ratio (y) = 0.19588 0.18669
# Poissons Ratio (z) = 0.20965 0.22864
#
# Static dielectric constant tensor:
#      x y z
#    x 3.393330 0.000000 0.000000 
#    y 0.000000 4.159020 0.000000 
#    z 0.000000 0.000000 3.716730 
# 
# 
# High freq. dielectric constant tensor:
#      x y z
#    x 1.793450 0.000000 0.000000 
#    y 0.000000 1.797900 0.000000 
#    z 0.000000 0.000000 1.794140 
# 
# From -- ./inp_files/16224.got.cif
#   From: 2010.03.12/outbox.cif.g09.slc.cpg/sg44_9_cif.got.tgz:16224.got - 2010.04.14 02:36:11.
