data_PCOD8189585
_publ_section_title
;
Structure prediction by ZEFSAII (Michael W. Deem and Ramdas Pophale) SiO2 
 PCOD8189585
Probable space group: I M M 2
;
_chemical_formula_sum "Si O2"
_cell_formula_units_Z 56
_cell_length_a 9.528553
_cell_length_b 17.023542
_cell_length_c 17.348920
_cell_angle_alpha 90.000000
_cell_angle_beta 90.000000
_cell_angle_gamma 90.000000
_cell_volume 2814.163494
_symmetry_space_group_name_H-M "I M M 2"
_symmetry_group_IT_number 44
_symmetry_cell_setting 'orthorhombic'
loop_
_space_group_symop_operation_xyz
x,y,z
-x,-y,z
-x,y,z
x,-y,z
1/2+x,1/2+y,1/2+z
1/2-x,1/2-y,1/2+z
1/2-x,1/2+y,1/2+z
1/2+x,1/2-y,1/2+z
loop_
_atom_site_type_symbol
_atom_site_label
_atom_site_fract_x
_atom_site_fract_y
_atom_site_fract_z
Si Si1 0.850470 0.089074 0.372660
Si Si2 0.849487 0.409149 0.996447
Si Si3 0.336327 0.592853 0.449279
Si Si4 0.663224 0.174047 0.643817
Si Si5 0.846156 0.643195 0.753245
Si Si6 0.664066 0.180063 0.081776
Si Si7 0.839736 0.176151 0.788455
O O1 0.764175 0.132568 0.440871
O O2 0.769883 0.088795 0.291757
O O3 0.000000 0.132859 0.364085
O O4 0.877359 0.000000 0.396894
O O5 0.854585 0.500000 0.975804
O O6 0.820522 0.399724 0.086885
O O7 0.000000 0.369711 0.976693
O O8 0.500000 0.606902 0.470124
O O9 0.305252 0.500000 0.439970
O O10 0.237251 0.628294 0.515681
O O11 0.297595 0.637720 0.369910
O O12 0.500000 0.197954 0.658243
O O13 0.746940 0.241846 0.598175
O O14 0.734761 0.144726 0.722629
O O15 0.830852 0.632780 0.661909
O O16 0.820739 0.730358 0.786650
O O17 0.000000 0.614345 0.778707
O O18 0.500000 0.198421 0.060904
O O19 0.000000 0.153446 0.767301
#
# Coordination Sequence:
#
# PCOD8189585 Si02
#       7
#     8   8   8   8   8   8   8
#     4  10  21  34  50  78 111 140 177 225 272 322
#     4   9  19  35  53  76 109 147 182 217 267 331
#     4  10  22  40  61  86 118 156 195 238 292 350
#     4  10  20  35  58  85 112 146 189 235 284 335
#     4   9  19  36  56  77 106 145 186 228 276 333
#     4  10  22  39  58  83 113 147 190 237 285 339
#     4   9  20  38  57  81 113 147 187 232 281 338
#
# _framework density 19.899339999999999
#
# number of rings (size 3 to 8) (size 9 to 14) (size 15 to 20)
#    0.000    2.429    0.000    2.143    2.000    6.857 
#    0.000    2.857    0.000    0.000    0.000    0.000 
#    0.000    0.000    0.000    0.000    0.000    0.000 
#
# Total GULP energy -346932.140093 kJ/mol
# GULP energy per Si atom -12390.433575 kJ/mol
# Density = 1.985405 g / cm^3
# Si number density = 19.899340 Si / 1000 Ang^3
#
#
#
# Elastic Constant Matrix: (Units=GPa)
#
#
# Indices 1 2 3 4 5 6 
#
# 1 166.6995 31.0562 94.4332 0.0000 0.0000 0.0000
# 2 31.0562 38.4794 40.3973 0.0000 0.0000 0.0000
# 3 94.4332 40.3973 148.5247 0.0000 0.0000 0.0000
# 4 0.0000 0.0000 0.0000 31.1608 0.0000 0.0000
# 5 0.0000 0.0000 0.0000 0.0000 40.5201 0.0000
# 6 0.0000 0.0000 0.0000 0.0000 0.0000 13.7896
#
#
#
# Elastic Compliance Matrix: (Units=1/GPa)
#
#
# Indices 1 2 3 4 5 6 
#
# 1 0.009469 -0.001850 -0.005517 0.000000 0.000000 0.000000
# 2 -0.001850 0.036736 -0.008816 0.000000 0.000000 0.000000
# 3 -0.005517 -0.008816 0.012639 0.000000 0.000000 0.000000
# 4 0.000000 0.000000 0.000000 0.032092 0.000000 0.000000
# 5 0.000000 0.000000 0.000000 0.000000 0.024679 0.000000
# 6 0.000000 0.000000 0.000000 0.000000 0.000000 0.072518
#
#
# Mechanical properties :
#
#
# Convention : Reuss Voigt Hill
#
# Bulk Modulus (GPa) = 37.76749 76.16412 56.96581
# Shear Modulus (GPa) = 21.80319 29.61522 25.70921
#
# Velocity S-wave (km/s) = 3.31369 3.86197 3.59829
# Velocity P-wave (km/s) = 5.80182 7.63179 6.77884
#
# Compressibility (1/GPa) = 0.02647780
#
# Stress axis : x y z
#
# Youngs Moduli (GPa) = 105.60862 27.22125 79.12298
#
# Poissons Ratio (x) = 0.05036 0.43654
# Poissons Ratio (y) = 0.19538 0.69752
# Poissons Ratio (z) = 0.58267 0.23997
#
# Static dielectric constant tensor:
#      x y z
#    x 4.133920 0.000000 0.000000 
#    y 0.000000 3.331230 0.000000 
#    z 0.000000 0.000000 3.670150 
# 
# 
# High freq. dielectric constant tensor:
#      x y z
#    x 1.791410 0.000000 0.000000 
#    y 0.000000 1.745630 0.000000 
#    z 0.000000 0.000000 1.782720 
# 
# From -- ./inp_files/16474.got.cif
#   From: 2010.03.12/outbox.cif.g09.slc.cpg/sg44_9_cif.got.tgz:16474.got - 2010.04.14 02:36:11.
