data_PCOD8189186
_publ_section_title
;
Structure prediction by ZEFSAII (Michael W. Deem and Ramdas Pophale) SiO2 
 PCOD8189186
Probable space group: I M M 2
;
_chemical_formula_sum "Si O2"
_cell_formula_units_Z 64
_cell_length_a 12.842590
_cell_length_b 14.396015
_cell_length_c 16.876405
_cell_angle_alpha 90.000000
_cell_angle_beta 90.000000
_cell_angle_gamma 90.000000
_cell_volume 3120.145505
_symmetry_space_group_name_H-M "I M M 2"
_symmetry_group_IT_number 44
_symmetry_cell_setting 'orthorhombic'
loop_
_space_group_symop_operation_xyz
x,y,z
-x,-y,z
-x,y,z
x,-y,z
1/2+x,1/2+y,1/2+z
1/2-x,1/2-y,1/2+z
1/2-x,1/2+y,1/2+z
1/2+x,1/2-y,1/2+z
loop_
_atom_site_type_symbol
_atom_site_label
_atom_site_fract_x
_atom_site_fract_y
_atom_site_fract_z
Si Si1 0.615623 0.107031 0.766320
Si Si2 0.172195 0.395001 0.090404
Si Si3 0.113040 0.894367 0.660170
Si Si4 0.191800 0.771850 0.791031
Si Si5 0.698388 0.765433 0.461799
Si Si6 0.118171 0.894055 0.405261
Si Si7 0.619570 0.393149 0.561079
Si Si8 0.802184 0.103944 0.233262
O O1 0.500000 0.127879 0.799525
O O2 0.614042 0.126568 0.672052
O O3 0.697953 0.175082 0.807480
O O4 0.647187 0.000000 0.781992
O O5 0.155208 0.500000 0.064140
O O6 0.295066 0.367601 0.100166
O O7 0.128946 0.332102 0.018769
O O8 0.114606 0.835262 0.740851
O O9 0.000000 0.880818 0.619110
O O10 0.130868 0.000000 0.687410
O O11 0.207657 0.676517 0.742417
O O12 0.142630 0.749909 0.876996
O O13 0.809136 0.816805 0.446886
O O14 0.700996 0.666966 0.508295
O O15 0.123915 0.886193 0.309875
O O16 0.000000 0.874234 0.431417
O O17 0.150421 0.000000 0.431186
O O18 0.500000 0.370003 0.538592
O O19 0.645526 0.500000 0.542653
O O20 0.633543 0.371606 0.654347
O O21 0.755165 0.000000 0.227799
#
# Coordination Sequence:
#
# PCOD8189186 Si02
#       8
#     8   8   8   8   8   8   8   8
#     4   9  18  34  56  77  97 127 167 210 255 301
#     4   9  18  33  52  77 105 130 162 206 257 312
#     4   9  18  34  56  77  97 129 175 220 254 290
#     4  10  20  32  50  76 105 136 167 205 253 306
#     4  11  22  32  48  76 111 143 168 203 259 317
#     4   9  18  34  57  83 108 134 167 211 263 316
#     4  10  21  36  54  76 103 139 181 220 257 300
#     4   9  18  34  56  78 100 130 172 220 261 299
#
# _framework density 20.511863999999999
#
# number of rings (size 3 to 8) (size 9 to 14) (size 15 to 20)
#    0.000    2.500    0.000    3.375    0.000    8.000 
#    0.000    2.500    0.000    1.875    0.000    7.000 
#    0.000    0.000    0.000    0.000    0.000    0.000 
#
# Total GULP energy -396538.533805 kJ/mol
# GULP energy per Si atom -12391.829181 kJ/mol
# Density = 2.046518 g / cm^3
# Si number density = 20.511864 Si / 1000 Ang^3
#
#
#
# Elastic Constant Matrix: (Units=GPa)
#
#
# Indices 1 2 3 4 5 6 
#
# 1 58.1446 25.8791 8.2851 0.0000 0.0000 0.0000
# 2 25.8791 111.8183 50.5653 0.0000 0.0000 0.0000
# 3 8.2851 50.5653 91.6175 0.0000 0.0000 0.0000
# 4 0.0000 0.0000 0.0000 36.4417 0.0000 0.0000
# 5 0.0000 0.0000 0.0000 0.0000 12.6439 0.0000
# 6 0.0000 0.0000 0.0000 0.0000 0.0000 24.7850
#
#
#
# Elastic Compliance Matrix: (Units=1/GPa)
#
#
# Indices 1 2 3 4 5 6 
#
# 1 0.019236 -0.004884 0.000956 0.000000 0.000000 0.000000
# 2 -0.004884 0.013158 -0.006820 0.000000 0.000000 0.000000
# 3 0.000956 -0.006820 0.014593 0.000000 0.000000 0.000000
# 4 0.000000 0.000000 0.000000 0.027441 0.000000 0.000000
# 5 0.000000 0.000000 0.000000 0.000000 0.079089 0.000000
# 6 0.000000 0.000000 0.000000 0.000000 0.000000 0.040347
#
#
# Mechanical properties :
#
#
# Convention : Reuss Voigt Hill
#
# Bulk Modulus (GPa) = 39.23153 47.89328 43.56240
# Shear Modulus (GPa) = 22.33563 26.56419 24.44991
#
# Velocity S-wave (km/s) = 3.30345 3.60260 3.45626
# Velocity P-wave (km/s) = 5.80673 6.38003 6.10012
#
# Compressibility (1/GPa) = 0.02548970
#
# Stress axis : x y z
#
# Youngs Moduli (GPa) = 51.98529 76.00102 68.52750
#
# Poissons Ratio (x) = 0.37122 -0.06553
# Poissons Ratio (y) = 0.25392 0.46738
# Poissons Ratio (z) = -0.04971 0.51835
#
# Static dielectric constant tensor:
#      x y z
#    x 3.503250 0.000000 0.000000 
#    y 0.000000 3.979380 0.000000 
#    z 0.000000 0.000000 3.663610 
# 
# 
# High freq. dielectric constant tensor:
#      x y z
#    x 1.763470 0.000000 0.000000 
#    y 0.000000 1.814850 0.000000 
#    z 0.000000 0.000000 1.794600 
# 
# From -- ./inp_files/21967.got.cif
#   From: 2010.03.12/outbox.cif.g09.slc.cpg/sg44_11_cif.got.tgz:21967.got - 2010.04.14 02:36:11.
