data_PCOD8189059
_publ_section_title
;
Structure prediction by ZEFSAII (Michael W. Deem and Ramdas Pophale) SiO2 
 PCOD8189059
Probable space group: I M M 2
;
_chemical_formula_sum "Si O2"
_cell_formula_units_Z 64
_cell_length_a 28.093927
_cell_length_b 8.780324
_cell_length_c 12.795323
_cell_angle_alpha 90.000000
_cell_angle_beta 90.000000
_cell_angle_gamma 90.000000
_cell_volume 3156.270710
_symmetry_space_group_name_H-M "I M M 2"
_symmetry_group_IT_number 44
_symmetry_cell_setting 'orthorhombic'
loop_
_space_group_symop_operation_xyz
x,y,z
-x,-y,z
-x,y,z
x,-y,z
1/2+x,1/2+y,1/2+z
1/2-x,1/2-y,1/2+z
1/2-x,1/2+y,1/2+z
1/2+x,1/2-y,1/2+z
loop_
_atom_site_type_symbol
_atom_site_label
_atom_site_fract_x
_atom_site_fract_y
_atom_site_fract_z
Si Si1 0.421422 0.668207 0.786010
Si Si2 0.799784 0.680078 0.996100
Si Si3 0.184999 0.168993 0.214332
Si Si4 0.100263 0.323579 0.487896
Si Si5 0.445523 0.319599 0.189980
Si Si6 0.207120 0.678066 0.418894
Si Si7 0.947774 0.822900 0.067566
Si Si8 0.882899 0.818109 0.884779
O O1 0.443224 0.500000 0.809320
O O2 0.366372 0.650008 0.762830
O O3 0.429895 0.775898 0.885585
O O4 0.445138 0.748182 0.684105
O O5 0.803400 0.500000 0.996017
O O6 0.745228 0.731577 0.987758
O O7 0.830322 0.746261 0.897689
O O8 0.819289 0.744863 0.104951
O O9 0.214121 0.267025 0.299128
O O10 0.207845 0.000000 0.199317
O O11 0.092137 0.500000 0.510114
O O12 0.079638 0.229841 0.583885
O O13 0.155774 0.285062 0.469371
O O14 0.500000 0.255894 0.199140
O O15 0.447597 0.500000 0.194505
O O16 0.411603 0.258533 0.283489
O O17 0.217973 0.500000 0.422445
O O18 0.000000 0.798476 0.019733
O O19 0.935120 0.000000 0.081562
O O20 0.911171 0.752638 0.985427
O O21 0.879118 0.000000 0.883472
#
# Coordination Sequence:
#
# PCOD8189059 Si02
#       8
#     8   8   8   8   8   8   8   8
#     4   9  17  32  56  84 113 147 188 236 291 351
#     4  12  24  37  58  88 121 161 206 249 301 369
#     4  10  19  36  59  83 114 151 190 241 302 359
#     4  10  22  39  60  85 118 157 198 247 305 363
#     4  10  22  40  64  91 120 161 211 259 306 366
#     4  10  22  40  60  86 118 157 204 256 311 367
#     4   9  16  29  54  86 114 143 184 235 292 351
#     4  10  20  38  60  85 117 155 201 255 307 356
#
# _framework density 20.277094000000002
#
# number of rings (size 3 to 8) (size 9 to 14) (size 15 to 20)
#    0.000    2.000    1.250    2.625    0.000    5.750 
#    0.000    3.750    0.000    1.875    0.000    0.000 
#    0.000    0.000    0.000    0.000    0.000    0.000 
#
# Total GULP energy -396670.917795 kJ/mol
# GULP energy per Si atom -12395.966181 kJ/mol
# Density = 2.023094 g / cm^3
# Si number density = 20.277094 Si / 1000 Ang^3
#
#
#
# Elastic Constant Matrix: (Units=GPa)
#
#
# Indices 1 2 3 4 5 6 
#
# 1 63.3915 23.9465 36.6319 0.0000 0.0000 0.0000
# 2 23.9465 67.9764 28.6800 0.0000 0.0000 0.0000
# 3 36.6319 28.6800 119.8847 0.0000 0.0000 0.0000
# 4 0.0000 0.0000 0.0000 23.4310 0.0000 0.0000
# 5 0.0000 0.0000 0.0000 0.0000 23.0844 0.0000
# 6 0.0000 0.0000 0.0000 0.0000 0.0000 19.8321
#
#
#
# Elastic Compliance Matrix: (Units=1/GPa)
#
#
# Indices 1 2 3 4 5 6 
#
# 1 0.020650 -0.005130 -0.005083 0.000000 0.000000 0.000000
# 2 -0.005130 0.017637 -0.002652 0.000000 0.000000 0.000000
# 3 -0.005083 -0.002652 0.010529 0.000000 0.000000 0.000000
# 4 0.000000 0.000000 0.000000 0.042678 0.000000 0.000000
# 5 0.000000 0.000000 0.000000 0.000000 0.043319 0.000000
# 6 0.000000 0.000000 0.000000 0.000000 0.000000 0.050423
#
#
# Mechanical properties :
#
#
# Convention : Reuss Voigt Hill
#
# Bulk Modulus (GPa) = 43.31455 47.75217 45.53336
# Shear Modulus (GPa) = 22.86643 24.06911 23.46777
#
# Velocity S-wave (km/s) = 3.36176 3.44904 3.40568
# Velocity P-wave (km/s) = 6.03956 6.28189 6.16191
#
# Compressibility (1/GPa) = 0.02308693
#
# Stress axis : x y z
#
# Youngs Moduli (GPa) = 48.42632 56.69890 94.97820
#
# Poissons Ratio (x) = 0.29087 0.48273
# Poissons Ratio (y) = 0.24843 0.25186
# Poissons Ratio (z) = 0.24613 0.15035
#
# Static dielectric constant tensor:
#      x y z
#    x 3.723170 0.000000 0.000000 
#    y 0.000000 3.562270 0.000000 
#    z 0.000000 0.000000 3.826180 
# 
# 
# High freq. dielectric constant tensor:
#      x y z
#    x 1.789970 0.000000 0.000000 
#    y 0.000000 1.769690 0.000000 
#    z 0.000000 0.000000 1.797780 
# 
# From -- ./inp_files/15068.got.cif
#   From: 2010.03.12/outbox.cif.g09.slc.cpg/sg44_8_cif.got.tgz:15068.got - 2010.04.14 02:36:11.
