data_PCOD8189194
_publ_section_title
;
Structure prediction by ZEFSAII (Michael W. Deem and Ramdas Pophale) SiO2 
 PCOD8189194
Probable space group: I M M 2
;
_chemical_formula_sum "Si O2"
_cell_formula_units_Z 56
_cell_length_a 23.191078
_cell_length_b 9.195214
_cell_length_c 13.763006
_cell_angle_alpha 90.000000
_cell_angle_beta 90.000000
_cell_angle_gamma 90.000000
_cell_volume 2934.918710
_symmetry_space_group_name_H-M "I M M 2"
_symmetry_group_IT_number 44
_symmetry_cell_setting 'orthorhombic'
loop_
_space_group_symop_operation_xyz
x,y,z
-x,-y,z
-x,y,z
x,-y,z
1/2+x,1/2+y,1/2+z
1/2-x,1/2-y,1/2+z
1/2-x,1/2+y,1/2+z
1/2+x,1/2-y,1/2+z
loop_
_atom_site_type_symbol
_atom_site_label
_atom_site_fract_x
_atom_site_fract_y
_atom_site_fract_z
Si Si1 0.066654 0.666781 0.635850
Si Si2 0.933286 0.170169 0.829359
Si Si3 0.065979 0.832383 0.257753
Si Si4 0.765536 0.333398 0.333726
Si Si5 0.335960 0.169464 0.430920
Si Si6 0.883989 0.667825 0.433160
Si Si7 0.661601 0.167767 0.651531
O O1 0.079037 0.500000 0.665038
O O2 0.085368 0.768711 0.724521
O O3 0.104548 0.715770 0.543669
O O4 0.000000 0.689393 0.608630
O O5 0.896260 0.249673 0.911833
O O6 0.000000 0.204804 0.850709
O O7 0.920251 0.000000 0.831334
O O8 0.075852 0.760735 0.362498
O O9 0.104776 0.760184 0.174482
O O10 0.000000 0.811934 0.226138
O O11 0.083224 0.000000 0.266120
O O12 0.744439 0.500000 0.338322
O O13 0.712881 0.229702 0.359690
O O14 0.817013 0.305618 0.409814
O O15 0.786763 0.291473 0.225299
O O16 0.317744 0.199393 0.542251
O O17 0.344184 0.000000 0.409923
O O18 0.901078 0.500000 0.417832
O O19 0.644553 0.000000 0.667233
#
# Coordination Sequence:
#
# PCOD8189194 Si02
#       7
#     8   8   8   8   8   8   8
#     4   9  17  31  53  81 112 146 185 226 266 314
#     4  10  22  39  57  79 109 143 178 220 271 323
#     4  10  20  32  50  80 114 146 183 227 272 319
#     4   9  19  37  57  79 109 141 176 219 267 319
#     4  11  23  39  60  83 106 138 180 222 268 321
#     4   9  18  33  54  80 111 148 186 223 267 319
#     4   9  21  40  58  78 107 143 182 223 267 320
#
# _framework density 19.080597000000001
#
# number of rings (size 3 to 8) (size 9 to 14) (size 15 to 20)
#    0.000    2.429    0.000    2.571    0.000    8.286 
#    0.000    7.143    0.000    0.000    0.000    0.000 
#    0.000    0.000    0.000    0.000    0.000    0.000 
#
# Total GULP energy -347288.117976 kJ/mol
# GULP energy per Si atom -12403.147071 kJ/mol
# Density = 1.903717 g / cm^3
# Si number density = 19.080597 Si / 1000 Ang^3
#
#
#
# Elastic Constant Matrix: (Units=GPa)
#
#
# Indices 1 2 3 4 5 6 
#
# 1 89.1563 56.5012 55.7007 0.0000 0.0000 0.0000
# 2 56.5012 103.8118 54.6219 0.0000 0.0000 0.0000
# 3 55.7007 54.6219 117.2066 0.0000 0.0000 0.0000
# 4 0.0000 0.0000 0.0000 24.9606 0.0000 0.0000
# 5 0.0000 0.0000 0.0000 0.0000 26.0410 0.0000
# 6 0.0000 0.0000 0.0000 0.0000 0.0000 33.0145
#
#
#
# Elastic Compliance Matrix: (Units=1/GPa)
#
#
# Indices 1 2 3 4 5 6 
#
# 1 0.019693 -0.007676 -0.005781 0.000000 0.000000 0.000000
# 2 -0.007676 0.015754 -0.003694 0.000000 0.000000 0.000000
# 3 -0.005781 -0.003694 0.013001 0.000000 0.000000 0.000000
# 4 0.000000 0.000000 0.000000 0.040063 0.000000 0.000000
# 5 0.000000 0.000000 0.000000 0.000000 0.038401 0.000000
# 6 0.000000 0.000000 0.000000 0.000000 0.000000 0.030290
#
#
# Mechanical properties :
#
#
# Convention : Reuss Voigt Hill
#
# Bulk Modulus (GPa) = 70.69641 71.53581 71.11611
# Shear Modulus (GPa) = 25.48156 26.35994 25.92075
#
# Velocity S-wave (km/s) = 3.65837 3.72089 3.68976
# Velocity P-wave (km/s) = 7.41464 7.48551 7.45016
#
# Compressibility (1/GPa) = 0.01414499
#
# Stress axis : x y z
#
# Youngs Moduli (GPa) = 50.77987 63.47442 76.91726
#
# Poissons Ratio (x) = 0.48724 0.44469
# Poissons Ratio (y) = 0.38980 0.28413
# Poissons Ratio (z) = 0.29358 0.23448
#
# Static dielectric constant tensor:
#      x y z
#    x 3.356710 0.000000 0.000000 
#    y 0.000000 3.491860 0.000000 
#    z 0.000000 0.000000 3.543590 
# 
# 
# High freq. dielectric constant tensor:
#      x y z
#    x 1.734910 0.000000 0.000000 
#    y 0.000000 1.743900 0.000000 
#    z 0.000000 0.000000 1.741560 
# 
# From -- ./inp_files/16492.got.cif
#   From: 2010.03.12/outbox.cif.g09.slc.cpg/sg44_9_cif.got.tgz:16492.got - 2010.04.14 02:36:11.
