data_PCOD8189380
_publ_section_title
;
Structure prediction by ZEFSAII (Michael W. Deem and Ramdas Pophale) SiO2 
 PCOD8189380
Probable space group: I M M 2
;
_chemical_formula_sum "Si O2"
_cell_formula_units_Z 48
_cell_length_a 9.232115
_cell_length_b 7.860367
_cell_length_c 34.350117
_cell_angle_alpha 90.000000
_cell_angle_beta 90.000000
_cell_angle_gamma 90.000000
_cell_volume 2492.712836
_symmetry_space_group_name_H-M "I M M 2"
_symmetry_group_IT_number 44
_symmetry_cell_setting 'orthorhombic'
loop_
_space_group_symop_operation_xyz
x,y,z
-x,-y,z
-x,y,z
x,-y,z
1/2+x,1/2+y,1/2+z
1/2-x,1/2-y,1/2+z
1/2-x,1/2+y,1/2+z
1/2+x,1/2-y,1/2+z
loop_
_atom_site_type_symbol
_atom_site_label
_atom_site_fract_x
_atom_site_fract_y
_atom_site_fract_z
Si Si1 0.672703 0.000000 0.221310
Si Si2 0.831918 0.300327 0.510929
Si Si3 0.335382 0.802832 0.353841
Si Si4 0.828292 0.188016 0.772769
Si Si5 0.834360 0.691051 0.085092
Si Si6 0.169628 0.000000 0.140053
Si Si7 0.662868 0.299247 0.435997
O O1 0.731424 0.168104 0.243623
O O2 0.500000 0.000000 0.217911
O O3 0.738846 0.000000 0.178914
O O4 0.803141 0.500000 0.516268
O O5 0.763890 0.202611 0.547114
O O6 0.758749 0.229522 0.471530
O O7 0.000000 0.256209 0.508773
O O8 0.500000 0.738478 0.358160
O O9 0.263051 0.710081 0.316514
O O10 0.261282 0.758663 0.395279
O O11 0.326201 0.000000 0.344421
O O12 0.000000 0.211215 0.775811
O O13 0.785765 0.000000 0.757156
O O14 0.817646 0.500000 0.102578
O O15 0.784688 0.830331 0.116638
O O16 0.000000 0.728036 0.072880
O O17 0.000000 0.000000 0.149962
O O18 0.500000 0.223592 0.439966
O O19 0.658695 0.500000 0.437310
#
# Coordination Sequence:
#
# PCOD8189380 Si02
#       7
#     4   8   8   8   8   4   8
#     4  10  20  34  54  82 110 138 176 220 266 324
#     4  10  20  34  53  77 109 147 182 221 274 328
#     4   9  15  25  43  69 101 135 176 224 268 310
#     4   9  16  28  48  75 108 141 173 217 270 315
#     4  10  21  38  61  84 105 138 183 225 269 323
#     4  10  22  40  60  82 112 142 172 222 276 324
#     4   9  17  28  45  71 102 138 181 227 270 314
#
# _framework density 19.256131
#
# number of rings (size 3 to 8) (size 9 to 14) (size 15 to 20)
#    0.000    2.500    1.667    1.000    0.000    5.000 
#    0.000    1.667    0.000    1.000    0.000    0.000 
#    0.000    0.000    0.000    0.000    0.000    0.000 
#
# Total GULP energy -297517.281021 kJ/mol
# GULP energy per Si atom -12396.553376 kJ/mol
# Density = 1.921230 g / cm^3
# Si number density = 19.256131 Si / 1000 Ang^3
#
#
#
# Elastic Constant Matrix: (Units=GPa)
#
#
# Indices 1 2 3 4 5 6 
#
# 1 46.2722 29.2202 43.5341 0.0000 0.0000 0.0000
# 2 29.2202 115.2937 72.3030 0.0000 0.0000 0.0000
# 3 43.5341 72.3030 161.6521 0.0000 0.0000 0.0000
# 4 0.0000 0.0000 0.0000 26.3146 0.0000 0.0000
# 5 0.0000 0.0000 0.0000 0.0000 24.3522 0.0000
# 6 0.0000 0.0000 0.0000 0.0000 0.0000 12.0752
#
#
#
# Elastic Compliance Matrix: (Units=1/GPa)
#
#
# Indices 1 2 3 4 5 6 
#
# 1 0.029938 -0.003518 -0.006489 0.000000 0.000000 0.000000
# 2 -0.003518 0.012468 -0.004629 0.000000 0.000000 0.000000
# 3 -0.006489 -0.004629 0.010004 0.000000 0.000000 0.000000
# 4 0.000000 0.000000 0.000000 0.038002 0.000000 0.000000
# 5 0.000000 0.000000 0.000000 0.000000 0.041064 0.000000
# 6 0.000000 0.000000 0.000000 0.000000 0.000000 0.082814
#
#
# Mechanical properties :
#
#
# Convention : Reuss Voigt Hill
#
# Bulk Modulus (GPa) = 43.21969 68.14806 55.68387
# Shear Modulus (GPa) = 19.89849 24.42580 22.16215
#
# Velocity S-wave (km/s) = 3.21808 3.56542 3.39619
# Velocity P-wave (km/s) = 6.02506 7.23994 6.66026
#
# Compressibility (1/GPa) = 0.02313760
#
# Stress axis : x y z
#
# Youngs Moduli (GPa) = 33.40262 80.20362 99.95814
#
# Poissons Ratio (x) = 0.28217 0.64862
# Poissons Ratio (y) = 0.11752 0.46273
# Poissons Ratio (z) = 0.21675 0.37129
#
# Static dielectric constant tensor:
#      x y z
#    x 3.124410 0.000000 0.000000 
#    y 0.000000 3.601420 0.000000 
#    z 0.000000 0.000000 3.576570 
# 
# 
# High freq. dielectric constant tensor:
#      x y z
#    x 1.693960 0.000000 0.000000 
#    y 0.000000 1.756960 0.000000 
#    z 0.000000 0.000000 1.753820 
# 
# From -- ./inp_files/26905.got.cif
#   From: 2010.03.12/outbox.cif.g09.slc.cpg/sg44_14_cif.got.tgz:26905.got - 2010.04.14 02:36:11.
