data_PCOD8189153
_publ_section_title
;
Structure prediction by ZEFSAII (Michael W. Deem and Ramdas Pophale) SiO2 
 PCOD8189153
Probable space group: I M M 2
;
_chemical_formula_sum "Si O2"
_cell_formula_units_Z 40
_cell_length_a 9.314111
_cell_length_b 25.850525
_cell_length_c 9.497928
_cell_angle_alpha 90.000000
_cell_angle_beta 90.000000
_cell_angle_gamma 90.000000
_cell_volume 2286.860378
_symmetry_space_group_name_H-M "I M M 2"
_symmetry_group_IT_number 44
_symmetry_cell_setting 'orthorhombic'
loop_
_space_group_symop_operation_xyz
x,y,z
-x,-y,z
-x,y,z
x,-y,z
1/2+x,1/2+y,1/2+z
1/2-x,1/2-y,1/2+z
1/2-x,1/2+y,1/2+z
1/2+x,1/2-y,1/2+z
loop_
_atom_site_type_symbol
_atom_site_label
_atom_site_fract_x
_atom_site_fract_y
_atom_site_fract_z
Si Si1 0.164255 0.636946 0.047380
Si Si2 0.665853 0.333465 0.310633
Si Si3 0.332729 0.940382 0.305882
Si Si4 0.331945 0.215688 0.309118
Si Si5 0.331861 0.637148 0.623067
O O1 0.255548 0.634953 0.188884
O O2 0.000000 0.635530 0.094021
O O3 0.203918 0.586973 0.953724
O O4 0.199093 0.688747 0.959101
O O5 0.500000 0.333100 0.271904
O O6 0.721358 0.274483 0.320087
O O7 0.695294 0.362547 0.456495
O O8 0.500000 0.932391 0.268931
O O9 0.239431 0.915041 0.182010
O O10 0.290121 0.000000 0.318800
O O11 0.500000 0.210428 0.271454
O O12 0.240664 0.188024 0.188217
O O13 0.500000 0.638119 0.659743
#
# Coordination Sequence:
#
# PCOD8189153 Si02
#       5
#     8   8   8   8   8
#     4   9  18  32  51  74  98 126 164 207 246 288
#     4  10  20  32  47  72 107 138 162 197 243 289
#     4   9  19  38  59  74  92 123 164 208 251 296
#     4   9  18  33  50  70 100 138 174 201 232 282
#     4  10  20  33  50  75 104 131 163 203 246 290
#
# _framework density 17.491230000000002
#
# number of rings (size 3 to 8) (size 9 to 14) (size 15 to 20)
#    0.000    2.600    0.000    3.000    0.000    7.600 
#    0.000    1.000    0.000    3.600    0.000    0.000 
#    0.000    0.000    0.000    0.000    0.000    0.000 
#
# Total GULP energy -248036.529121 kJ/mol
# GULP energy per Si atom -12401.826456 kJ/mol
# Density = 1.745142 g / cm^3
# Si number density = 17.491230 Si / 1000 Ang^3
#
#
#
# Elastic Constant Matrix: (Units=GPa)
#
#
# Indices 1 2 3 4 5 6 
#
# 1 74.0352 47.2316 67.6359 -0.0015 0.0006 0.0016
# 2 47.2316 124.4398 59.3797 0.0004 -0.0001 -0.0011
# 3 67.6359 59.3797 123.7278 -0.0011 0.0020 0.0031
# 4 -0.0015 0.0004 -0.0011 12.3271 -0.0001 -0.0005
# 5 0.0006 -0.0001 0.0020 -0.0001 35.5198 0.0007
# 6 0.0016 -0.0011 0.0031 -0.0005 0.0007 21.3206
#
#
#
# Elastic Compliance Matrix: (Units=1/GPa)
#
#
# Indices 1 2 3 4 5 6 
#
# 1 0.028746 -0.004426 -0.013590 0.000002 0.000000 0.000000
# 2 -0.004426 0.011104 -0.002910 -0.000001 0.000000 0.000001
# 3 -0.013590 -0.002910 0.016908 0.000000 -0.000001 -0.000002
# 4 0.000002 -0.000001 0.000000 0.081122 0.000000 0.000002
# 5 0.000000 0.000000 -0.000001 0.000000 0.028153 -0.000001
# 6 0.000000 0.000001 -0.000002 0.000002 -0.000001 0.046903
#
#
# Mechanical properties :
#
#
# Convention : Reuss Voigt Hill
#
# Bulk Modulus (GPa) = 67.08364 74.52190 70.80277
# Shear Modulus (GPa) = 19.24882 23.69721 21.47301
#
# Velocity S-wave (km/s) = 3.32095 3.68476 3.50758
# Velocity P-wave (km/s) = 7.28979 7.79750 7.54791
#
# Compressibility (1/GPa) = 0.01490676
#
# Stress axis : x y z
#
# Youngs Moduli (GPa) = 34.78766 90.05471 59.14475
#
# Poissons Ratio (x) = 0.39857 0.80377
# Poissons Ratio (y) = 0.15396 0.17210
# Poissons Ratio (z) = 0.47276 0.26205
#
# Static dielectric constant tensor:
#      x y z
#    x 3.218560 0.000000 0.000000 
#    y 0.000000 3.219370 0.000000 
#    z 0.000000 0.000000 3.135420 
# 
# 
# High freq. dielectric constant tensor:
#      x y z
#    x 1.675870 0.000000 0.000000 
#    y 0.000000 1.665200 0.000000 
#    z 0.000000 0.000000 1.673230 
# 
# From -- ./inp_files/4436.got.cif
#   From: 2010.03.12/outbox.cif.g09.slc.cpg/sg44_3_cif.got.tgz:4436.got - 2010.04.14 02:36:11.
