data_PCOD8189968
_publ_section_title
;
Structure prediction by ZEFSAII (Michael W. Deem and Ramdas Pophale) SiO2 
 PCOD8189968
Probable space group: I M M 2
;
_chemical_formula_sum "Si O2"
_cell_formula_units_Z 64
_cell_length_a 8.545989
_cell_length_b 30.919321
_cell_length_c 12.050055
_cell_angle_alpha 90.000000
_cell_angle_beta 90.000000
_cell_angle_gamma 90.000000
_cell_volume 3184.060468
_symmetry_space_group_name_H-M "I M M 2"
_symmetry_group_IT_number 44
_symmetry_cell_setting 'orthorhombic'
loop_
_space_group_symop_operation_xyz
x,y,z
-x,-y,z
-x,y,z
x,-y,z
1/2+x,1/2+y,1/2+z
1/2-x,1/2-y,1/2+z
1/2-x,1/2+y,1/2+z
1/2+x,1/2-y,1/2+z
loop_
_atom_site_type_symbol
_atom_site_label
_atom_site_fract_x
_atom_site_fract_y
_atom_site_fract_z
Si Si1 0.814199 0.297844 0.633900
Si Si2 0.817624 0.201761 0.675292
Si Si3 0.315934 0.125690 0.286115
Si Si4 0.181360 0.330115 0.396840
Si Si5 0.184747 0.374951 0.034302
Si Si6 0.680497 0.578400 0.407050
Si Si7 0.680374 0.548668 0.650288
Si Si8 0.818754 0.451990 0.188614
O O1 0.750416 0.250118 0.660108
O O2 0.743581 0.333114 0.720075
O O3 0.757993 0.309513 0.510828
O O4 0.000000 0.299416 0.641091
O O5 0.789039 0.189455 0.801803
O O6 0.729069 0.169723 0.592745
O O7 0.000000 0.199406 0.647194
O O8 0.500000 0.131617 0.294293
O O9 0.243275 0.124146 0.410083
O O10 0.282693 0.081450 0.221724
O O11 0.203898 0.381146 0.402291
O O12 0.000000 0.319831 0.372795
O O13 0.249648 0.416182 0.103322
O O14 0.000000 0.378549 0.027846
O O15 0.500000 0.593261 0.401354
O O16 0.715800 0.552605 0.519591
O O17 0.720662 0.548526 0.302287
O O18 0.500000 0.558902 0.674738
O O19 0.724224 0.500000 0.686692
O O20 0.798842 0.500000 0.136355
O O21 0.000000 0.442188 0.214963
#
# Coordination Sequence:
#
# PCOD8189968 Si02
#       8
#     8   8   8   8   8   8   8   8
#     4   9  21  39  59  85 119 153 190 241 289 339
#     4  11  23  39  60  88 121 155 194 238 290 349
#     4  10  21  40  62  84 113 154 200 243 285 340
#     4  11  21  38  62  87 119 154 192 242 293 343
#     4  10  22  39  60  85 117 154 196 243 290 341
#     4  11  21  36  59  88 119 152 192 242 292 346
#     4  10  22  39  58  85 121 154 188 238 295 347
#     4  10  21  37  57  83 117 155 195 241 292 346
#
# _framework density 20.100121000000001
#
# number of rings (size 3 to 8) (size 9 to 14) (size 15 to 20)
#    0.000    1.750    2.500    1.500    1.750    2.500 
#    0.000    4.375    0.000    0.000    0.000    0.000 
#    0.000    0.000    0.000    0.000    0.000    0.000 
#
# Total GULP energy -396857.941036 kJ/mol
# GULP energy per Si atom -12401.810657 kJ/mol
# Density = 2.005437 g / cm^3
# Si number density = 20.100121 Si / 1000 Ang^3
#
#
#
# Elastic Constant Matrix: (Units=GPa)
#
#
# Indices 1 2 3 4 5 6 
#
# 1 15.1841 5.0668 13.5166 -0.0003 -0.0001 -0.0001
# 2 5.0668 139.6426 52.2716 -0.0063 -0.0004 -0.0005
# 3 13.5166 52.2716 137.9272 -0.0087 -0.0005 -0.0011
# 4 -0.0003 -0.0063 -0.0087 102.8765 0.0013 0.0009
# 5 -0.0001 -0.0004 -0.0005 0.0013 18.3668 0.0007
# 6 -0.0001 -0.0005 -0.0011 0.0009 0.0007 23.3830
#
#
#
# Elastic Compliance Matrix: (Units=1/GPa)
#
#
# Indices 1 2 3 4 5 6 
#
# 1 0.072153 0.000034 -0.007084 0.000000 0.000000 0.000000
# 2 0.000034 0.008345 -0.003166 0.000000 0.000000 0.000000
# 3 -0.007084 -0.003166 0.009144 0.000001 0.000000 0.000000
# 4 0.000000 0.000000 0.000001 0.009720 -0.000001 0.000000
# 5 0.000000 0.000000 0.000000 -0.000001 0.054446 -0.000002
# 6 0.000000 0.000000 0.000000 0.000000 -0.000002 0.042766
#
#
# Mechanical properties :
#
#
# Convention : Reuss Voigt Hill
#
# Bulk Modulus (GPa) = 14.44869 48.27376 31.36122
# Shear Modulus (GPa) = 20.82667 43.71850 32.27259
#
# Velocity S-wave (km/s) = 3.22241 4.66879 4.01133
# Velocity P-wave (km/s) = 4.58795 7.28919 6.09022
#
# Compressibility (1/GPa) = 0.06921042
#
# Stress axis : x y z
#
# Youngs Moduli (GPa) = 13.85943 119.83244 109.35921
#
# Poissons Ratio (x) = -0.00402 0.77465
# Poissons Ratio (y) = -0.00046 0.34622
# Poissons Ratio (z) = 0.09817 0.37937
#
# Static dielectric constant tensor:
#      x y z
#    x 3.379340 0.000000 0.000000 
#    y 0.000000 3.739000 0.000010 
#    z 0.000000 0.000010 3.922770 
# 
# 
# High freq. dielectric constant tensor:
#      x y z
#    x 1.761180 0.000000 0.000000 
#    y 0.000000 1.795420 0.000000 
#    z 0.000000 0.000000 1.790310 
# 
# From -- ./inp_files/11476.got.cif
#   From: 2010.03.12/outbox.cif.g09.slc.cpg/sg44_6_cif.got.tgz:11476.got - 2010.04.14 02:36:11.
