data_PCOD8189840
_publ_section_title
;
Structure prediction by ZEFSAII (Michael W. Deem and Ramdas Pophale) SiO2 
 PCOD8189840
Probable space group: I M M 2
;
_chemical_formula_sum "Si O2"
_cell_formula_units_Z 48
_cell_length_a 9.721592
_cell_length_b 9.244607
_cell_length_c 30.545541
_cell_angle_alpha 90.000000
_cell_angle_beta 90.000000
_cell_angle_gamma 90.000000
_cell_volume 2745.197947
_symmetry_space_group_name_H-M "I M M 2"
_symmetry_group_IT_number 44
_symmetry_cell_setting 'orthorhombic'
loop_
_space_group_symop_operation_xyz
x,y,z
-x,-y,z
-x,y,z
x,-y,z
1/2+x,1/2+y,1/2+z
1/2-x,1/2-y,1/2+z
1/2-x,1/2+y,1/2+z
1/2+x,1/2-y,1/2+z
loop_
_atom_site_type_symbol
_atom_site_label
_atom_site_fract_x
_atom_site_fract_y
_atom_site_fract_z
Si Si1 0.657941 0.830232 0.275680
Si Si2 0.658516 0.832331 0.608110
Si Si3 0.658705 0.669475 0.520612
Si Si4 0.841546 0.831446 0.689089
Si Si5 0.151922 0.171722 0.352862
Si Si6 0.338771 0.333183 0.951079
O O1 0.500000 0.791982 0.284918
O O2 0.710419 0.753230 0.231790
O O3 0.742551 0.767231 0.316879
O O4 0.681533 0.000000 0.269601
O O5 0.500000 0.804080 0.620284
O O6 0.704306 0.741774 0.566032
O O7 0.750612 0.778084 0.648438
O O8 0.686404 0.000000 0.597694
O O9 0.500000 0.705724 0.510277
O O10 0.684715 0.500000 0.524618
O O11 0.751457 0.731647 0.482243
O O12 0.000000 0.795038 0.678577
O O13 0.819284 0.000000 0.698142
O O14 0.197308 0.217379 0.401679
O O15 0.000000 0.233546 0.342394
O O16 0.147701 0.000000 0.351076
O O17 0.500000 0.312047 0.960530
O O18 0.296800 0.500000 0.958606
#
# Coordination Sequence:
#
# PCOD8189840 Si02
#       6
#     8   8   8   8   8   8
#     4   9  17  29  46  69  95 122 154 191 230 275
#     4   9  18  33  51  69  91 122 160 199 237 281
#     4  10  21  35  50  72 102 131 160 198 245 295
#     4   9  18  32  48  67  93 123 154 191 235 281
#     4   8  15  29  48  70  95 122 155 195 234 274
#     4   9  18  33  53  75  98 127 165 205 243 287
#
# _framework density 17.485078000000001
#
# number of rings (size 3 to 8) (size 9 to 14) (size 15 to 20)
#    0.000    3.000    0.000    1.500    0.000    4.000 
#    0.000    4.167    0.000    3.000    0.000    0.000 
#    0.000    0.000    0.000    0.000    0.000    0.000 
#
# Total GULP energy -297597.788969 kJ/mol
# GULP energy per Si atom -12399.907874 kJ/mol
# Density = 1.744528 g / cm^3
# Si number density = 17.485078 Si / 1000 Ang^3
#
#
#
# Elastic Constant Matrix: (Units=GPa)
#
#
# Indices 1 2 3 4 5 6 
#
# 1 80.3602 38.3699 91.1298 0.0000 0.0000 0.0000
# 2 38.3699 51.6882 59.7993 0.0000 0.0000 0.0000
# 3 91.1298 59.7993 176.9584 0.0000 0.0000 0.0000
# 4 0.0000 0.0000 0.0000 30.4347 0.0000 0.0000
# 5 0.0000 0.0000 0.0000 0.0000 39.9021 0.0000
# 6 0.0000 0.0000 0.0000 0.0000 0.0000 21.3663
#
#
#
# Elastic Compliance Matrix: (Units=1/GPa)
#
#
# Indices 1 2 3 4 5 6 
#
# 1 0.031638 -0.007612 -0.013720 0.000000 0.000000 0.000000
# 2 -0.007612 0.033598 -0.007433 0.000000 0.000000 0.000000
# 3 -0.013720 -0.007433 0.015229 0.000000 0.000000 0.000000
# 4 0.000000 0.000000 0.000000 0.032857 0.000000 0.000000
# 5 0.000000 0.000000 0.000000 0.000000 0.025061 0.000000
# 6 0.000000 0.000000 0.000000 0.000000 0.000000 0.046803
#
#
# Mechanical properties :
#
#
# Convention : Reuss Voigt Hill
#
# Bulk Modulus (GPa) = 43.60759 76.40054 60.00407
# Shear Modulus (GPa) = 19.97115 26.32115 23.14615
#
# Velocity S-wave (km/s) = 3.38329 3.88409 3.64231
# Velocity P-wave (km/s) = 6.34478 7.99403 7.21667
#
# Compressibility (1/GPa) = 0.02293179
#
# Stress axis : x y z
#
# Youngs Moduli (GPa) = 31.60780 29.76409 65.66579
#
# Poissons Ratio (x) = 0.22658 0.90095
# Poissons Ratio (y) = 0.24061 0.48811
# Poissons Ratio (z) = 0.43367 0.22125
#
# Static dielectric constant tensor:
#      x y z
#    x 3.331940 0.000000 0.000000 
#    y 0.000000 3.033400 0.000000 
#    z 0.000000 0.000000 3.423440 
# 
# 
# High freq. dielectric constant tensor:
#      x y z
#    x 1.674110 0.000000 0.000000 
#    y 0.000000 1.654040 0.000000 
#    z 0.000000 0.000000 1.683800 
# 
# From -- ./inp_files/24784.got.cif
#   From: 2010.03.12/outbox.cif.g09.slc.cpg/sg44_13_cif.got.tgz:24784.got - 2010.04.14 02:36:11.
