data_PCOD8189481
_publ_section_title
;
Structure prediction by ZEFSAII (Michael W. Deem and Ramdas Pophale) SiO2 
 PCOD8189481
Probable space group: I M M 2
;
_chemical_formula_sum "Si O2"
_cell_formula_units_Z 48
_cell_length_a 9.675038
_cell_length_b 7.912496
_cell_length_c 33.534980
_cell_angle_alpha 90.000000
_cell_angle_beta 90.000000
_cell_angle_gamma 90.000000
_cell_volume 2567.226781
_symmetry_space_group_name_H-M "I M M 2"
_symmetry_group_IT_number 44
_symmetry_cell_setting 'orthorhombic'
loop_
_space_group_symop_operation_xyz
x,y,z
-x,-y,z
-x,y,z
x,-y,z
1/2+x,1/2+y,1/2+z
1/2-x,1/2-y,1/2+z
1/2-x,1/2+y,1/2+z
1/2+x,1/2-y,1/2+z
loop_
_atom_site_type_symbol
_atom_site_label
_atom_site_fract_x
_atom_site_fract_y
_atom_site_fract_z
Si Si1 0.837836 0.500000 0.891100
Si Si2 0.664108 0.187336 0.024384
Si Si3 0.165056 0.000000 0.470985
Si Si4 0.658516 0.308021 0.767049
Si Si5 0.346746 0.192626 0.682849
Si Si6 0.342383 0.311279 0.335569
Si Si7 0.155581 0.696846 0.613436
O O1 0.742948 0.500000 0.929595
O O2 0.796412 0.669383 0.867174
O O3 0.000000 0.500000 0.902417
O O4 0.500000 0.182090 0.025679
O O5 0.715663 0.230717 0.069076
O O6 0.718721 0.000000 0.011238
O O7 0.715468 0.332423 0.994453
O O8 0.000000 0.000000 0.464520
O O9 0.500000 0.245935 0.769824
O O10 0.674106 0.500000 0.781251
O O11 0.710579 0.293193 0.721328
O O12 0.750532 0.194565 0.795960
O O13 0.500000 0.259798 0.671416
O O14 0.249535 0.207905 0.644879
O O15 0.353292 0.000000 0.696254
O O16 0.500000 0.276721 0.322729
O O17 0.325966 0.500000 0.354264
O O18 0.157804 0.500000 0.623237
O O19 0.000000 0.768288 0.617006
#
# Coordination Sequence:
#
# PCOD8189481 Si02
#       7
#     4   8   4   8   8   8   8
#     4  10  22  40  56  80 116 144 172 224 278 326
#     4   8  16  32  53  79 109 138 175 225 273 316
#     4  10  20  34  58  84 106 140 182 222 270 328
#     4  10  20  35  56  79 106 142 183 226 274 323
#     4  10  21  34  48  73 109 145 180 222 271 321
#     4  10  21  38  60  82 107 144 183 220 270 326
#     4   9  18  33  53  76 102 137 182 227 270 316
#
# _framework density 18.697219
#
# number of rings (size 3 to 8) (size 9 to 14) (size 15 to 20)
#    0.000    2.500    0.833    2.000    1.167    4.333 
#    0.000    0.833    0.000    1.000    0.000    0.000 
#    0.000    0.000    0.000    0.000    0.000    0.000 
#
# Total GULP energy -297542.361086 kJ/mol
# GULP energy per Si atom -12397.598379 kJ/mol
# Density = 1.865466 g / cm^3
# Si number density = 18.697219 Si / 1000 Ang^3
#
#
#
# Elastic Constant Matrix: (Units=GPa)
#
#
# Indices 1 2 3 4 5 6 
#
# 1 56.3830 34.2641 55.5175 0.0000 0.0000 0.0000
# 2 34.2641 114.1906 64.4558 0.0000 0.0000 0.0000
# 3 55.5175 64.4558 129.7845 0.0000 0.0000 0.0000
# 4 0.0000 0.0000 0.0000 26.6866 0.0000 0.0000
# 5 0.0000 0.0000 0.0000 0.0000 34.6688 0.0000
# 6 0.0000 0.0000 0.0000 0.0000 0.0000 15.5597
#
#
#
# Elastic Compliance Matrix: (Units=1/GPa)
#
#
# Indices 1 2 3 4 5 6 
#
# 1 0.031163 -0.002538 -0.012070 0.000000 0.000000 0.000000
# 2 -0.002538 0.012375 -0.005060 0.000000 0.000000 0.000000
# 3 -0.012070 -0.005060 0.015382 0.000000 0.000000 0.000000
# 4 0.000000 0.000000 0.000000 0.037472 0.000000 0.000000
# 5 0.000000 0.000000 0.000000 0.000000 0.028844 0.000000
# 6 0.000000 0.000000 0.000000 0.000000 0.000000 0.064269
#
#
# Mechanical properties :
#
#
# Convention : Reuss Voigt Hill
#
# Bulk Modulus (GPa) = 51.06465 67.64811 59.35638
# Shear Modulus (GPa) = 21.24327 25.12438 23.18383
#
# Velocity S-wave (km/s) = 3.37437 3.66970 3.52513
# Velocity P-wave (km/s) = 6.52323 7.36308 6.95584
#
# Compressibility (1/GPa) = 0.01958302
#
# Stress axis : x y z
#
# Youngs Moduli (GPa) = 32.08952 80.80721 65.01315
#
# Poissons Ratio (x) = 0.20506 0.78472
# Poissons Ratio (y) = 0.08143 0.32900
# Poissons Ratio (z) = 0.38733 0.40892
#
# Static dielectric constant tensor:
#      x y z
#    x 3.241350 0.000000 0.000000 
#    y 0.000000 3.728900 0.000000 
#    z 0.000000 0.000000 3.290430 
# 
# 
# High freq. dielectric constant tensor:
#      x y z
#    x 1.699580 0.000000 0.000000 
#    y 0.000000 1.739950 0.000000 
#    z 0.000000 0.000000 1.717080 
# 
# From -- ./inp_files/26876.got.cif
#   From: 2010.03.12/outbox.cif.g09.slc.cpg/sg44_14_cif.got.tgz:26876.got - 2010.04.14 02:36:11.
