data_PCOD8189652
_publ_section_title
;
Structure prediction by ZEFSAII (Michael W. Deem and Ramdas Pophale) SiO2 
 PCOD8189652
Probable space group: I M M 2
;
_chemical_formula_sum "Si O2"
_cell_formula_units_Z 64
_cell_length_a 24.495306
_cell_length_b 8.959690
_cell_length_c 14.976317
_cell_angle_alpha 90.000000
_cell_angle_beta 90.000000
_cell_angle_gamma 90.000000
_cell_volume 3286.857507
_symmetry_space_group_name_H-M "I M M 2"
_symmetry_group_IT_number 44
_symmetry_cell_setting 'orthorhombic'
loop_
_space_group_symop_operation_xyz
x,y,z
-x,-y,z
-x,y,z
x,-y,z
1/2+x,1/2+y,1/2+z
1/2-x,1/2-y,1/2+z
1/2-x,1/2+y,1/2+z
1/2+x,1/2-y,1/2+z
loop_
_atom_site_type_symbol
_atom_site_label
_atom_site_fract_x
_atom_site_fract_y
_atom_site_fract_z
Si Si1 0.284639 0.831682 0.247310
Si Si2 0.858063 0.172414 0.460210
Si Si3 0.936973 0.170322 0.962862
Si Si4 0.837511 0.828146 0.263096
Si Si5 0.852260 0.324522 0.084835
Si Si6 0.260035 0.829844 0.044726
Si Si7 0.108406 0.172544 0.771427
Si Si8 0.563483 0.173801 0.096727
O O1 0.225106 0.776981 0.278585
O O2 0.289186 0.821797 0.140483
O O3 0.329458 0.723200 0.290422
O O4 0.295961 0.000000 0.280463
O O5 0.871000 0.191378 0.354748
O O6 0.799099 0.244650 0.476576
O O7 0.906064 0.249865 0.514420
O O8 0.855153 0.000000 0.487869
O O9 0.926877 0.204985 0.859018
O O10 0.000000 0.197905 0.984138
O O11 0.919841 0.000000 0.984388
O O12 0.903508 0.283070 0.024102
O O13 0.864795 0.729517 0.185771
O O14 0.836940 0.000000 0.230207
O O15 0.843237 0.500000 0.084648
O O16 0.798718 0.247152 0.044943
O O17 0.252299 0.000000 0.013473
O O18 0.082645 0.265541 0.691498
O O19 0.107722 0.000000 0.744451
O O20 0.500000 0.207448 0.084025
O O21 0.577274 0.000000 0.094086
#
# Coordination Sequence:
#
# PCOD8189652 Si02
#       8
#     8   8   8   8   8   8   8   8
#     4   9  18  34  55  82 119 159 193 230 287 355
#     4  11  22  37  61  92 121 154 201 250 296 350
#     4  10  23  43  63  85 117 157 201 248 303 362
#     4   9  21  40  60  85 122 161 197 243 301 359
#     4  11  23  39  62  90 119 153 201 252 299 352
#     4  10  20  36  58  85 122 161 194 234 292 356
#     4  11  22  36  59  90 120 153 198 248 297 353
#     4  11  24  41  60  84 120 165 204 242 297 358
#
# _framework density 19.471485000000001
#
# number of rings (size 3 to 8) (size 9 to 14) (size 15 to 20)
#    0.000    1.750    1.250    3.750    1.750    5.750 
#    0.000    0.625    0.000    0.750    0.000    0.000 
#    0.000    0.000    0.000    0.000    0.000    0.000 
#
# Total GULP energy -396942.248368 kJ/mol
# GULP energy per Si atom -12404.445262 kJ/mol
# Density = 1.942717 g / cm^3
# Si number density = 19.471485 Si / 1000 Ang^3
#
#
#
# Elastic Constant Matrix: (Units=GPa)
#
#
# Indices 1 2 3 4 5 6 
#
# 1 89.5160 64.1391 50.9605 0.0000 0.0000 0.0000
# 2 64.1391 122.8437 54.5653 0.0000 0.0000 0.0000
# 3 50.9605 54.5653 89.1916 0.0000 0.0000 0.0000
# 4 0.0000 0.0000 0.0000 26.3241 0.0000 0.0000
# 5 0.0000 0.0000 0.0000 0.0000 29.3326 0.0000
# 6 0.0000 0.0000 0.0000 0.0000 0.0000 27.1579
#
#
#
# Elastic Compliance Matrix: (Units=1/GPa)
#
#
# Indices 1 2 3 4 5 6 
#
# 1 0.020724 -0.007636 -0.007169 0.000000 0.000000 0.000000
# 2 -0.007636 0.013991 -0.004197 0.000000 0.000000 0.000000
# 3 -0.007169 -0.004197 0.017876 0.000000 0.000000 0.000000
# 4 0.000000 0.000000 0.000000 0.037988 0.000000 0.000000
# 5 0.000000 0.000000 0.000000 0.000000 0.034092 0.000000
# 6 0.000000 0.000000 0.000000 0.000000 0.000000 0.036822
#
#
# Mechanical properties :
#
#
# Convention : Reuss Voigt Hill
#
# Bulk Modulus (GPa) = 68.55477 71.20901 69.88189
# Shear Modulus (GPa) = 24.46684 25.35534 24.91109
#
# Velocity S-wave (km/s) = 3.54863 3.61249 3.58070
# Velocity P-wave (km/s) = 7.21627 7.35190 7.28440
#
# Compressibility (1/GPa) = 0.01458688
#
# Stress axis : x y z
#
# Youngs Moduli (GPa) = 48.25394 71.47261 55.94217
#
# Poissons Ratio (x) = 0.54575 0.40107
# Poissons Ratio (y) = 0.36846 0.23478
# Poissons Ratio (z) = 0.34595 0.29996
#
# Static dielectric constant tensor:
#      x y z
#    x 3.471380 0.000000 0.000000 
#    y 0.000000 3.598290 0.000000 
#    z 0.000000 0.000000 3.488450 
# 
# 
# High freq. dielectric constant tensor:
#      x y z
#    x 1.750260 0.000000 0.000000 
#    y 0.000000 1.764240 0.000000 
#    z 0.000000 0.000000 1.757140 
# 
# From -- ./inp_files/19492.got.cif
#   From: 2010.03.12/outbox.cif.g09.slc.cpg/sg44_10_cif.got.tgz:19492.got - 2010.04.14 02:36:11.
