data_PCOD8189744
_publ_section_title
;
Structure prediction by ZEFSAII (Michael W. Deem and Ramdas Pophale) SiO2 
 PCOD8189744
Probable space group: I M M 2
;
_chemical_formula_sum "Si O2"
_cell_formula_units_Z 56
_cell_length_a 13.927760
_cell_length_b 30.847266
_cell_length_c 6.762508
_cell_angle_alpha 90.000000
_cell_angle_beta 90.000000
_cell_angle_gamma 90.000000
_cell_volume 2905.398747
_symmetry_space_group_name_H-M "I M M 2"
_symmetry_group_IT_number 44
_symmetry_cell_setting 'orthorhombic'
loop_
_space_group_symop_operation_xyz
x,y,z
-x,-y,z
-x,y,z
x,-y,z
1/2+x,1/2+y,1/2+z
1/2-x,1/2-y,1/2+z
1/2-x,1/2+y,1/2+z
1/2+x,1/2-y,1/2+z
loop_
_atom_site_type_symbol
_atom_site_label
_atom_site_fract_x
_atom_site_fract_y
_atom_site_fract_z
Si Si1 0.245488 0.452149 0.254910
Si Si2 0.749861 0.602049 0.641738
Si Si3 0.608662 0.418107 0.975158
Si Si4 0.395037 0.673873 0.161585
Si Si5 0.889477 0.757806 0.328530
Si Si6 0.260339 0.302023 0.513356
Si Si7 0.611054 0.949998 0.408107
O O1 0.236185 0.500000 0.350632
O O2 0.259644 0.416501 0.422148
O O3 0.333839 0.453994 0.099441
O O4 0.150871 0.440343 0.127749
O O5 0.653677 0.589243 0.758997
O O6 0.760428 0.654061 0.634603
O O7 0.842320 0.581850 0.747766
O O8 0.500000 0.433481 0.942344
O O9 0.617849 0.375871 0.109189
O O10 0.500000 0.681623 0.259080
O O11 0.314198 0.688137 0.311162
O O12 0.387516 0.699054 0.956917
O O13 0.841861 0.719032 0.455628
O O14 0.825634 0.767943 0.134996
O O15 0.000000 0.745355 0.272674
O O16 0.500000 0.938850 0.411310
O O17 0.630982 0.000000 0.348632
#
# Coordination Sequence:
#
# PCOD8189744 Si02
#       7
#     8   8   8   8   8   8   8
#     4  10  21  38  58  85 121 158 197 243 296 353
#     4  11  22  35  62  92 119 152 197 246 299 351
#     4  10  21  37  58  85 117 155 200 245 287 345
#     4  10  20  37  61  85 110 150 199 241 288 353
#     4  11  24  40  60  88 118 154 199 245 300 362
#     4  12  22  39  64  86 121 156 195 250 303 349
#     4   9  20  40  63  86 117 157 198 241 291 353
#
# _framework density 19.274463999999998
#
# number of rings (size 3 to 8) (size 9 to 14) (size 15 to 20)
#    0.000    1.571    4.286    0.857    0.000    3.143 
#    0.000    1.429    0.000    0.000    0.000    0.000 
#    0.000    0.000    0.000    0.000    0.000    0.000 
#
# Total GULP energy -347206.512408 kJ/mol
# GULP energy per Si atom -12400.232586 kJ/mol
# Density = 1.923059 g / cm^3
# Si number density = 19.274464 Si / 1000 Ang^3
#
#
#
# Elastic Constant Matrix: (Units=GPa)
#
#
# Indices 1 2 3 4 5 6 
#
# 1 149.8070 39.2610 46.5799 0.0330 -0.0223 -0.0019
# 2 39.2610 65.4761 27.2405 0.0519 -0.0268 -0.0139
# 3 46.5799 27.2405 79.7837 0.2200 -0.1225 -0.0320
# 4 0.0330 0.0519 0.2200 28.8178 -0.0121 -0.0067
# 5 -0.0223 -0.0268 -0.1225 -0.0121 23.8538 -0.0033
# 6 -0.0019 -0.0139 -0.0320 -0.0067 -0.0033 26.3605
#
#
#
# Elastic Compliance Matrix: (Units=1/GPa)
#
#
# Indices 1 2 3 4 5 6 
#
# 1 0.008857 -0.003683 -0.003914 0.000026 -0.000016 -0.000006
# 2 -0.003683 0.019333 -0.004451 0.000003 -0.000005 0.000005
# 3 -0.003914 -0.004451 0.016339 -0.000112 0.000075 0.000017
# 4 0.000026 0.000003 -0.000112 0.034702 0.000017 0.000009
# 5 -0.000016 -0.000005 0.000075 0.000017 0.041922 0.000005
# 6 -0.000006 0.000005 0.000017 0.000009 0.000005 0.037936
#
#
# Mechanical properties :
#
#
# Convention : Reuss Voigt Hill
#
# Bulk Modulus (GPa) = 48.93717 57.91442 53.42579
# Shear Modulus (GPa) = 26.31654 27.93878 27.12766
#
# Velocity S-wave (km/s) = 3.69908 3.81139 3.75566
# Velocity P-wave (km/s) = 6.60977 7.03430 6.82534
#
# Compressibility (1/GPa) = 0.02043437
#
# Stress axis : x y z
#
# Youngs Moduli (GPa) = 112.90025 51.72593 61.20362
#
# Poissons Ratio (x) = 0.19050 0.23954
# Poissons Ratio (y) = 0.41579 0.27239
# Poissons Ratio (z) = 0.44188 0.23021
#
# Static dielectric constant tensor:
#      x y z
#    x 3.639730 0.000100 0.000260 
#    y 0.000100 3.492990 -0.000220 
#    z 0.000260 -0.000220 3.379800 
# 
# 
# High freq. dielectric constant tensor:
#      x y z
#    x 1.751370 0.000000 0.000010 
#    y 0.000000 1.748390 -0.000020 
#    z 0.000010 -0.000020 1.750490 
# 
# From -- ./inp_files/1681.got.cif
#   From: 2010.03.12/outbox.cif.g09.slc.cpg/sg44_1_cif.got.tgz:1681.got - 2010.04.14 02:36:11.
