data_PCOD8189889
_publ_section_title
;
Structure prediction by ZEFSAII (Michael W. Deem and Ramdas Pophale) SiO2 
 PCOD8189889
Probable space group: I M M 2
;
_chemical_formula_sum "Si O2"
_cell_formula_units_Z 48
_cell_length_a 7.522352
_cell_length_b 9.128232
_cell_length_c 34.480007
_cell_angle_alpha 90.000000
_cell_angle_beta 90.000000
_cell_angle_gamma 90.000000
_cell_volume 2367.596377
_symmetry_space_group_name_H-M "I M M 2"
_symmetry_group_IT_number 44
_symmetry_cell_setting 'orthorhombic'
loop_
_space_group_symop_operation_xyz
x,y,z
-x,-y,z
-x,y,z
x,-y,z
1/2+x,1/2+y,1/2+z
1/2-x,1/2-y,1/2+z
1/2-x,1/2+y,1/2+z
1/2+x,1/2-y,1/2+z
loop_
_atom_site_type_symbol
_atom_site_label
_atom_site_fract_x
_atom_site_fract_y
_atom_site_fract_z
Si Si1 0.000000 0.675256 0.911731
Si Si2 0.500000 0.328291 0.330893
Si Si3 0.290045 0.665621 0.610760
Si Si4 0.710283 0.828990 0.962200
Si Si5 0.298090 0.339982 0.036466
Si Si6 0.710976 0.663266 0.696089
Si Si7 0.200713 0.670844 0.270497
O O1 0.000000 0.721762 0.867183
O O2 0.820234 0.741176 0.930022
O O3 0.000000 0.500000 0.915854
O O4 0.500000 0.500000 0.342884
O O5 0.675853 0.287979 0.306580
O O6 0.500000 0.671285 0.607585
O O7 0.222717 0.500000 0.603247
O O8 0.209789 0.772832 0.579111
O O9 0.225547 0.718751 0.653532
O O10 0.500000 0.804192 0.955141
O O11 0.758128 0.000000 0.960035
O O12 0.779822 0.769371 0.003942
O O13 0.500000 0.364722 0.025158
O O14 0.201962 0.500000 0.035552
O O15 0.500000 0.664561 0.696358
O O16 0.783550 0.500000 0.702846
O O17 0.783437 0.761833 0.731103
O O18 0.200460 0.500000 0.263145
O O19 0.000000 0.728065 0.279020
#
# Coordination Sequence:
#
# PCOD8189889 Si02
#       7
#     4   4   8   8   8   8   8
#     4  12  26  42  64  94 126 156 192 246 304 360
#     4  10  22  40  58  84 118 148 190 242 286 352
#     4   9  18  32  51  76 107 146 191 237 282 339
#     4  10  22  42  67  90 116 157 202 243 293 358
#     4  10  21  36  53  78 113 149 188 237 290 343
#     4   8  15  30  51  75 105 142 186 233 282 337
#     4   9  18  34  57  81 108 147 188 231 288 345
#
# _framework density 20.273724999999999
#
# number of rings (size 3 to 8) (size 9 to 14) (size 15 to 20)
#    0.000    2.500    0.000    2.750    1.167    4.333 
#    1.500    3.333    0.000    0.000    0.000    0.000 
#    0.000    0.000    0.000    0.000    0.000    0.000 
#
# Total GULP energy -297467.662762 kJ/mol
# GULP energy per Si atom -12394.485948 kJ/mol
# Density = 2.022758 g / cm^3
# Si number density = 20.273725 Si / 1000 Ang^3
#
#
#
# Elastic Constant Matrix: (Units=GPa)
#
#
# Indices 1 2 3 4 5 6 
#
# 1 67.4321 40.1685 43.6482 0.0000 0.0000 0.0000
# 2 40.1685 129.0725 84.7752 0.0000 0.0000 0.0000
# 3 43.6482 84.7752 165.2527 0.0000 0.0000 0.0000
# 4 0.0000 0.0000 0.0000 41.4430 0.0000 0.0000
# 5 0.0000 0.0000 0.0000 0.0000 40.7403 0.0000
# 6 0.0000 0.0000 0.0000 0.0000 0.0000 18.8856
#
#
#
# Elastic Compliance Matrix: (Units=1/GPa)
#
#
# Indices 1 2 3 4 5 6 
#
# 1 0.019153 -0.003978 -0.003018 0.000000 0.000000 0.000000
# 2 -0.003978 0.012511 -0.005367 0.000000 0.000000 0.000000
# 3 -0.003018 -0.005367 0.009602 0.000000 0.000000 0.000000
# 4 0.000000 0.000000 0.000000 0.024130 0.000000 0.000000
# 5 0.000000 0.000000 0.000000 0.000000 0.024546 0.000000
# 6 0.000000 0.000000 0.000000 0.000000 0.000000 0.052950
#
#
# Mechanical properties :
#
#
# Convention : Reuss Voigt Hill
#
# Bulk Modulus (GPa) = 60.46468 77.66011 69.06240
# Shear Modulus (GPa) = 28.87969 33.09149 30.98559
#
# Velocity S-wave (km/s) = 3.77833 4.04448 3.91367
# Velocity P-wave (km/s) = 6.99452 7.75882 7.38656
#
# Compressibility (1/GPa) = 0.01653858
#
# Stress axis : x y z
#
# Youngs Moduli (GPa) = 52.21080 79.92969 104.14539
#
# Poissons Ratio (x) = 0.31799 0.31431
# Poissons Ratio (y) = 0.20772 0.55899
# Poissons Ratio (z) = 0.15757 0.42901
#
# Static dielectric constant tensor:
#      x y z
#    x 3.577770 0.000000 0.000000 
#    y 0.000000 3.816050 0.000000 
#    z 0.000000 0.000000 3.910010 
# 
# 
# High freq. dielectric constant tensor:
#      x y z
#    x 1.784810 0.000000 0.000000 
#    y 0.000000 1.787010 0.000000 
#    z 0.000000 0.000000 1.793700 
# 
# From -- ./inp_files/26941.got.cif
#   From: 2010.03.12/outbox.cif.g09.slc.cpg/sg44_14_cif.got.tgz:26941.got - 2010.04.14 02:36:11.
