data_PCOD8189200
_publ_section_title
;
Structure prediction by ZEFSAII (Michael W. Deem and Ramdas Pophale) SiO2 
 PCOD8189200
Probable space group: I M M 2
;
_chemical_formula_sum "Si O2"
_cell_formula_units_Z 56
_cell_length_a 9.196008
_cell_length_b 16.524496
_cell_length_c 19.377496
_cell_angle_alpha 90.000000
_cell_angle_beta 90.000000
_cell_angle_gamma 90.000000
_cell_volume 2944.592616
_symmetry_space_group_name_H-M "I M M 2"
_symmetry_group_IT_number 44
_symmetry_cell_setting 'orthorhombic'
loop_
_space_group_symop_operation_xyz
x,y,z
-x,-y,z
-x,y,z
x,-y,z
1/2+x,1/2+y,1/2+z
1/2-x,1/2-y,1/2+z
1/2-x,1/2+y,1/2+z
1/2+x,1/2-y,1/2+z
loop_
_atom_site_type_symbol
_atom_site_label
_atom_site_fract_x
_atom_site_fract_y
_atom_site_fract_z
Si Si1 0.663145 0.089603 0.322320
Si Si2 0.329996 0.655416 0.290922
Si Si3 0.668334 0.763553 0.417660
Si Si4 0.826971 0.500000 0.071091
Si Si5 0.672656 0.000000 0.732766
Si Si6 0.837103 0.737637 0.663533
Si Si7 0.667521 0.658647 0.033592
Si Si8 0.669940 0.411114 0.683055
O O1 0.500000 0.107843 0.294357
O O2 0.705183 0.152115 0.380931
O O3 0.775320 0.098047 0.260624
O O4 0.672132 0.000000 0.354954
O O5 0.500000 0.632228 0.284836
O O6 0.291928 0.687583 0.368072
O O7 0.234344 0.577959 0.272464
O O8 0.293055 0.729051 0.239013
O O9 0.500000 0.757734 0.439415
O O10 0.768582 0.769053 0.485499
O O11 0.781347 0.500000 0.152146
O O12 0.761874 0.577124 0.031041
O O13 0.000000 0.500000 0.062770
O O14 0.500000 0.000000 0.740016
O O15 0.818270 0.811345 0.611637
O O16 0.739414 0.661590 0.639186
O O17 0.000000 0.704497 0.663869
O O18 0.500000 0.641150 0.013737
O O19 0.500000 0.399235 0.682276
O O20 0.712850 0.500000 0.653285
#
# Coordination Sequence:
#
# PCOD8189200 Si02
#       8
#     8   8   8   4   4   8   8   8
#     4   9  17  31  51  76 109 147 182 214 256 320
#     4  10  20  38  62  86 116 154 198 242 292 358
#     4  10  21  37  57  83 114 155 196 232 284 351
#     4  11  23  39  59  89 127 164 201 240 299 367
#     4  11  23  37  61  95 121 148 195 258 311 347
#     4  10  20  37  59  82 110 148 192 235 287 354
#     4  11  24  39  58  85 119 155 194 245 300 356
#     4  10  20  32  51  82 113 140 179 233 282 326
#
# _framework density 19.017911000000002
#
# number of rings (size 3 to 8) (size 9 to 14) (size 15 to 20)
#    0.000    1.857    2.857    1.286    1.000    4.286 
#    0.000    0.000    1.571    0.000    0.000    0.000 
#    0.000    0.000    0.000    0.000    0.000    0.000 
#
# Total GULP energy -347126.282614 kJ/mol
# GULP energy per Si atom -12397.367236 kJ/mol
# Density = 1.897463 g / cm^3
# Si number density = 19.017911 Si / 1000 Ang^3
#
#
#
# Elastic Constant Matrix: (Units=GPa)
#
#
# Indices 1 2 3 4 5 6 
#
# 1 89.5777 59.5294 32.1126 0.0000 0.0000 0.0000
# 2 59.5294 100.5885 18.9977 0.0000 0.0000 0.0000
# 3 32.1126 18.9977 63.1944 0.0000 0.0000 0.0000
# 4 0.0000 0.0000 0.0000 24.1379 0.0000 0.0000
# 5 0.0000 0.0000 0.0000 0.0000 24.8867 0.0000
# 6 0.0000 0.0000 0.0000 0.0000 0.0000 34.6643
#
#
#
# Elastic Compliance Matrix: (Units=1/GPa)
#
#
# Indices 1 2 3 4 5 6 
#
# 1 0.021258 -0.011175 -0.007443 0.000000 0.000000 0.000000
# 2 -0.011175 0.016415 0.000744 0.000000 0.000000 0.000000
# 3 -0.007443 0.000744 0.019383 0.000000 0.000000 0.000000
# 4 0.000000 0.000000 0.000000 0.041429 0.000000 0.000000
# 5 0.000000 0.000000 0.000000 0.000000 0.040182 0.000000
# 6 0.000000 0.000000 0.000000 0.000000 0.000000 0.028848
#
#
# Mechanical properties :
#
#
# Convention : Reuss Voigt Hill
#
# Bulk Modulus (GPa) = 46.93198 52.73780 49.83489
# Shear Modulus (GPa) = 23.76823 26.25250 25.01036
#
# Velocity S-wave (km/s) = 3.53906 3.71942 3.63036
# Velocity P-wave (km/s) = 6.43671 6.79972 6.62071
#
# Compressibility (1/GPa) = 0.02130743
#
# Stress axis : x y z
#
# Youngs Moduli (GPa) = 47.04060 60.92163 51.59245
#
# Poissons Ratio (x) = 0.68081 0.38400
# Poissons Ratio (y) = 0.52569 -0.03839
# Poissons Ratio (z) = 0.35012 -0.04533
#
# Static dielectric constant tensor:
#      x y z
#    x 3.547790 0.000000 0.000000 
#    y 0.000000 3.628470 0.000000 
#    z 0.000000 0.000000 3.298350 
# 
# 
# High freq. dielectric constant tensor:
#      x y z
#    x 1.738170 0.000000 0.000000 
#    y 0.000000 1.744220 0.000000 
#    z 0.000000 0.000000 1.715720 
# 
# From -- ./inp_files/23132.got.cif
#   From: 2010.03.12/outbox.cif.g09.slc.cpg/sg44_12_cif.got.tgz:23132.got - 2010.04.14 02:36:11.
