data_PCOD8189326
_publ_section_title
;
Structure prediction by ZEFSAII (Michael W. Deem and Ramdas Pophale) SiO2 
 PCOD8189326
Probable space group: I M M 2
;
_chemical_formula_sum "Si O2"
_cell_formula_units_Z 64
_cell_length_a 18.133527
_cell_length_b 9.181438
_cell_length_c 20.592787
_cell_angle_alpha 90.000000
_cell_angle_beta 90.000000
_cell_angle_gamma 90.000000
_cell_volume 3428.531284
_symmetry_space_group_name_H-M "I M M 2"
_symmetry_group_IT_number 44
_symmetry_cell_setting 'orthorhombic'
loop_
_space_group_symop_operation_xyz
x,y,z
-x,-y,z
-x,y,z
x,-y,z
1/2+x,1/2+y,1/2+z
1/2-x,1/2-y,1/2+z
1/2-x,1/2+y,1/2+z
1/2+x,1/2-y,1/2+z
loop_
_atom_site_type_symbol
_atom_site_label
_atom_site_fract_x
_atom_site_fract_y
_atom_site_fract_z
Si Si1 0.586892 0.669075 0.002120
Si Si2 0.085967 0.169670 0.734816
Si Si3 0.587679 0.164417 0.875011
Si Si4 0.914423 0.169259 0.248375
Si Si5 0.912528 0.160639 0.879553
Si Si6 0.161482 0.668340 0.620348
Si Si7 0.335065 0.332920 0.617971
Si Si8 0.085255 0.329539 0.003640
O O1 0.500000 0.691783 0.010822
O O2 0.607605 0.500000 0.997537
O O3 0.626581 0.738873 0.063105
O O4 0.616849 0.747333 0.937291
O O5 0.113323 0.208749 0.807735
O O6 0.132356 0.272999 0.688488
O O7 0.000000 0.204947 0.725337
O O8 0.100888 0.000000 0.719329
O O9 0.500000 0.166591 0.874995
O O10 0.616616 0.240784 0.809599
O O11 0.618392 0.000000 0.878110
O O12 0.868999 0.221346 0.185865
O O13 0.000000 0.203404 0.235214
O O14 0.901911 0.000000 0.263816
O O15 0.000000 0.154710 0.878248
O O16 0.881262 0.000000 0.895999
O O17 0.884220 0.270917 0.934637
O O18 0.138925 0.500000 0.612192
O O19 0.248421 0.689316 0.619649
O O20 0.357543 0.500000 0.605667
O O21 0.367633 0.237118 0.560925
O O22 0.097023 0.500000 0.003807
O O23 0.000000 0.285830 0.013456
#
# Coordination Sequence:
#
# PCOD8189326 Si02
#       8
#     8   8   8   8   8   8   8   8
#     4  10  20  35  56  79 103 135 174 212 254 310
#     4   9  18  34  56  80 104 134 173 211 252 309
#     4   9  17  30  51  80 109 132 161 209 262 305
#     4   9  17  32  55  78  99 130 173 214 253 303
#     4   8  15  30  53  78 103 133 170 211 255 307
#     4  11  23  36  51  75 106 138 175 218 260 302
#     4  10  22  38  53  72 103 143 181 213 251 306
#     4  10  20  33  53  82 109 133 169 217 263 305
#
# _framework density 18.666885000000001
#
# number of rings (size 3 to 8) (size 9 to 14) (size 15 to 20)
#    0.000    2.500    0.000    3.000    0.000    7.250 
#    0.000    3.750    0.000    3.000    0.000    0.000 
#    0.000    0.000    0.000    0.000    0.000    0.000 
#
# Total GULP energy -396823.225428 kJ/mol
# GULP energy per Si atom -12400.725795 kJ/mol
# Density = 1.862440 g / cm^3
# Si number density = 18.666885 Si / 1000 Ang^3
#
#
#
# Elastic Constant Matrix: (Units=GPa)
#
#
# Indices 1 2 3 4 5 6 
#
# 1 45.4368 46.0131 46.7027 0.0000 0.0000 0.0000
# 2 46.0131 108.4424 82.7274 0.0000 0.0000 0.0000
# 3 46.7027 82.7274 168.2208 0.0000 0.0000 0.0000
# 4 0.0000 0.0000 0.0000 29.0320 0.0000 0.0000
# 5 0.0000 0.0000 0.0000 0.0000 -7.3435 0.0000
# 6 0.0000 0.0000 0.0000 0.0000 0.0000 20.8651
#
#
#
# Elastic Compliance Matrix: (Units=1/GPa)
#
#
# Indices 1 2 3 4 5 6 
#
# 1 0.040597 -0.013807 -0.004481 0.000000 0.000000 0.000000
# 2 -0.013807 0.019454 -0.005734 0.000000 0.000000 0.000000
# 3 -0.004481 -0.005734 0.010008 0.000000 0.000000 0.000000
# 4 0.000000 0.000000 0.000000 0.034445 0.000000 0.000000
# 5 0.000000 0.000000 0.000000 0.000000 -0.136176 0.000000
# 6 0.000000 0.000000 0.000000 0.000000 0.000000 0.047927
#
#
# Mechanical properties :
#
#
# Convention : Reuss Voigt Hill
#
# Bulk Modulus (GPa) = 45.42262 74.77626 60.09944
# Shear Modulus (GPa) = 69.79596 18.28784 44.04190
#
# Velocity S-wave (km/s) = 6.12139 3.13340 4.86259
# Velocity P-wave (km/s) = 8.62253 7.29631 7.98699
#
# Compressibility (1/GPa) = 0.02201546
#
# Stress axis : x y z
#
# Youngs Moduli (GPa) = 24.63264 51.40242 99.91712
#
# Poissons Ratio (x) = 0.70974 0.44768
# Poissons Ratio (y) = 0.34011 0.57292
# Poissons Ratio (z) = 0.11037 0.29474
#
# Static dielectric constant tensor:
#      x y z
#    x 3.102480 0.000000 0.000000 
#    y 0.000000 3.533810 0.000000 
#    z 0.000000 0.000000 3.688430 
# 
# 
# High freq. dielectric constant tensor:
#      x y z
#    x 1.689400 0.000000 0.000000 
#    y 0.000000 1.729280 0.000000 
#    z 0.000000 0.000000 1.742870 
# 
# From -- ./inp_files/24377.got.cif
#   From: 2010.03.12/outbox.cif.g09.slc.cpg/sg44_13_cif.got.tgz:24377.got - 2010.04.14 02:36:11.
