data_PCOD8189355
_publ_section_title
;
Structure prediction by ZEFSAII (Michael W. Deem and Ramdas Pophale) SiO2 
 PCOD8189355
Probable space group: I M M 2
;
_chemical_formula_sum "Si O2"
_cell_formula_units_Z 48
_cell_length_a 7.778144
_cell_length_b 9.379952
_cell_length_c 34.513341
_cell_angle_alpha 90.000000
_cell_angle_beta 90.000000
_cell_angle_gamma 90.000000
_cell_volume 2518.045640
_symmetry_space_group_name_H-M "I M M 2"
_symmetry_group_IT_number 44
_symmetry_cell_setting 'orthorhombic'
loop_
_space_group_symop_operation_xyz
x,y,z
-x,-y,z
-x,y,z
x,-y,z
1/2+x,1/2+y,1/2+z
1/2-x,1/2-y,1/2+z
1/2-x,1/2+y,1/2+z
1/2+x,1/2-y,1/2+z
loop_
_atom_site_type_symbol
_atom_site_label
_atom_site_fract_x
_atom_site_fract_y
_atom_site_fract_z
Si Si1 0.296009 0.659732 0.247690
Si Si2 0.294277 0.840025 0.176336
Si Si3 0.000000 0.164665 0.380727
Si Si4 0.808826 0.330239 0.592310
Si Si5 0.812797 0.831041 0.011228
Si Si6 0.500000 0.829817 0.959827
Si Si7 0.197118 0.664875 0.822443
O O1 0.500000 0.657616 0.244914
O O2 0.220903 0.500000 0.249609
O O3 0.219618 0.737619 0.209723
O O4 0.239143 0.743753 0.285960
O O5 0.500000 0.840923 0.176113
O O6 0.229547 0.783384 0.134034
O O7 0.226309 0.000000 0.184366
O O8 0.000000 0.265249 0.417513
O O9 0.173724 0.200764 0.357258
O O10 0.000000 0.000000 0.393435
O O11 0.815238 0.500000 0.592326
O O12 0.703028 0.272341 0.555340
O O13 0.000000 0.268008 0.587590
O O14 0.666774 0.770983 0.982760
O O15 0.000000 0.784774 0.995237
O O16 0.793593 0.000000 0.012610
O O17 0.500000 0.000000 0.956362
O O18 0.210672 0.500000 0.810377
O O19 0.000000 0.702809 0.834536
#
# Coordination Sequence:
#
# PCOD8189355 Si02
#       7
#     8   8   4   8   8   4   8
#     4   9  16  26  43  70 102 133 167 204 244 294
#     4   8  13  21  38  64  92 128 171 209 246 288
#     4  10  22  38  56  78 102 128 164 206 248 302
#     4   8  12  21  39  63  91 126 169 210 246 284
#     4   9  16  27  46  72 101 131 163 203 250 294
#     4  10  20  34  52  76 104 130 160 204 254 302
#     4   9  18  34  55  75  97 128 164 204 248 291
#
# _framework density 19.062404000000001
#
# number of rings (size 3 to 8) (size 9 to 14) (size 15 to 20)
#    0.000    3.167    0.833    1.500    0.000    3.333 
#    0.000    0.000    1.833    1.000    0.000    0.000 
#    0.000    0.000    0.000    0.000    0.000    0.000 
#
# Total GULP energy -297408.440656 kJ/mol
# GULP energy per Si atom -12392.018361 kJ/mol
# Density = 1.901902 g / cm^3
# Si number density = 19.062404 Si / 1000 Ang^3
#
#
#
# Elastic Constant Matrix: (Units=GPa)
#
#
# Indices 1 2 3 4 5 6 
#
# 1 94.5529 24.5824 62.9574 0.0000 0.0000 0.0000
# 2 24.5824 63.2073 60.4138 0.0000 0.0000 0.0000
# 3 62.9574 60.4138 167.2209 0.0000 0.0000 0.0000
# 4 0.0000 0.0000 0.0000 25.6796 0.0000 0.0000
# 5 0.0000 0.0000 0.0000 0.0000 5.7342 0.0000
# 6 0.0000 0.0000 0.0000 0.0000 0.0000 6.5754
#
#
#
# Elastic Compliance Matrix: (Units=1/GPa)
#
#
# Indices 1 2 3 4 5 6 
#
# 1 0.014131 -0.000627 -0.005093 0.000000 0.000000 0.000000
# 2 -0.000627 0.024194 -0.008504 0.000000 0.000000 0.000000
# 3 -0.005093 -0.008504 0.010970 0.000000 0.000000 0.000000
# 4 0.000000 0.000000 0.000000 0.038941 0.000000 0.000000
# 5 0.000000 0.000000 0.000000 0.000000 0.174393 0.000000
# 6 0.000000 0.000000 0.000000 0.000000 0.000000 0.152082
#
#
# Mechanical properties :
#
#
# Convention : Reuss Voigt Hill
#
# Bulk Modulus (GPa) = 47.97553 68.98756 58.48155
# Shear Modulus (GPa) = 11.10840 19.39968 15.25404
#
# Velocity S-wave (km/s) = 2.41662 3.19359 2.83188
# Velocity P-wave (km/s) = 5.74534 7.06170 6.43726
#
# Compressibility (1/GPa) = 0.02084396
#
# Stress axis : x y z
#
# Youngs Moduli (GPa) = 70.76835 41.33332 91.15551
#
# Poissons Ratio (x) = 0.02593 0.46429
# Poissons Ratio (y) = 0.04439 0.77523
# Poissons Ratio (z) = 0.36045 0.35152
#
# Static dielectric constant tensor:
#      x y z
#    x 3.409740 0.000000 0.000000 
#    y 0.000000 3.174830 0.000000 
#    z 0.000000 0.000000 3.617080 
# 
# 
# High freq. dielectric constant tensor:
#      x y z
#    x 1.726440 0.000000 0.000000 
#    y 0.000000 1.690140 0.000000 
#    z 0.000000 0.000000 1.746070 
# 
# From -- ./inp_files/26947.got.cif
#   From: 2010.03.12/outbox.cif.g09.slc.cpg/sg44_14_cif.got.tgz:26947.got - 2010.04.14 02:36:11.
