data_PCOD8189178
_publ_section_title
;
Structure prediction by ZEFSAII (Michael W. Deem and Ramdas Pophale) SiO2 
 PCOD8189178
Probable space group: I M M 2
;
_chemical_formula_sum "Si O2"
_cell_formula_units_Z 64
_cell_length_a 15.372943
_cell_length_b 9.217607
_cell_length_c 23.035173
_cell_angle_alpha 90.000000
_cell_angle_beta 90.000000
_cell_angle_gamma 90.000000
_cell_volume 3264.124257
_symmetry_space_group_name_H-M "I M M 2"
_symmetry_group_IT_number 44
_symmetry_cell_setting 'orthorhombic'
loop_
_space_group_symop_operation_xyz
x,y,z
-x,-y,z
-x,y,z
x,-y,z
1/2+x,1/2+y,1/2+z
1/2-x,1/2-y,1/2+z
1/2-x,1/2+y,1/2+z
1/2+x,1/2-y,1/2+z
loop_
_atom_site_type_symbol
_atom_site_label
_atom_site_fract_x
_atom_site_fract_y
_atom_site_fract_z
Si Si1 0.598907 0.331625 0.391910
Si Si2 0.233267 0.829413 0.221053
Si Si3 0.332851 0.338740 0.595953
Si Si4 0.643969 0.834899 0.043988
Si Si5 0.593952 0.170189 0.167329
Si Si6 0.600893 0.329657 0.927957
Si Si7 0.722866 0.829166 0.835816
Si Si8 0.401057 0.843664 0.501344
O O1 0.500000 0.281763 0.372959
O O2 0.596627 0.500000 0.406704
O O3 0.673332 0.297059 0.344249
O O4 0.636028 0.256106 0.450016
O O5 0.178089 0.795928 0.163251
O O6 0.331020 0.768392 0.208913
O O7 0.194647 0.738313 0.274146
O O8 0.231760 0.000000 0.236531
O O9 0.372108 0.500000 0.592741
O O10 0.245450 0.330337 0.558383
O O11 0.397462 0.227863 0.565001
O O12 0.595642 0.772019 0.101257
O O13 0.615063 0.000000 0.028617
O O14 0.619842 0.728375 0.992200
O O15 0.500000 0.205743 0.195372
O O16 0.613251 0.000000 0.161532
O O17 0.500000 0.301456 0.911714
O O18 0.622628 0.500000 0.925606
O O19 0.663137 0.244925 0.883979
O O20 0.703933 0.000000 0.836519
O O21 0.500000 0.869626 0.485760
O O22 0.352461 0.000000 0.501610
#
# Coordination Sequence:
#
# PCOD8189178 Si02
#       8
#     8   8   8   8   8   8   8   8
#     4   9  19  36  56  79 110 145 177 211 258 320
#     4   9  19  35  53  74 102 136 176 218 256 303
#     4   9  18  33  53  77 104 137 173 206 253 316
#     4   9  17  31  54  82 109 136 169 210 254 307
#     4   8  14  27  50  79 108 138 170 204 248 306
#     4  11  24  39  55  78 108 141 178 222 272 321
#     4  11  23  38  57  79 104 140 184 225 266 312
#     4  10  20  32  49  77 107 132 166 214 263 310
#
# _framework density 19.607098000000001
#
# number of rings (size 3 to 8) (size 9 to 14) (size 15 to 20)
#    0.000    2.500    0.000    3.750    0.000    7.750 
#    0.000    2.500    0.000    1.500    0.000    0.000 
#    0.000    0.000    0.000    0.000    0.000    0.000 
#
# Total GULP energy -396554.100936 kJ/mol
# GULP energy per Si atom -12392.315654 kJ/mol
# Density = 1.956247 g / cm^3
# Si number density = 19.607098 Si / 1000 Ang^3
#
#
#
# Elastic Constant Matrix: (Units=GPa)
#
#
# Indices 1 2 3 4 5 6 
#
# 1 46.1912 25.5315 21.8909 0.0000 0.0000 0.0000
# 2 25.5315 87.1890 45.7270 0.0000 0.0000 0.0000
# 3 21.8909 45.7270 93.1093 0.0000 0.0000 0.0000
# 4 0.0000 0.0000 0.0000 33.2606 0.0000 0.0000
# 5 0.0000 0.0000 0.0000 0.0000 16.1781 0.0000
# 6 0.0000 0.0000 0.0000 0.0000 0.0000 21.9427
#
#
#
# Elastic Compliance Matrix: (Units=1/GPa)
#
#
# Indices 1 2 3 4 5 6 
#
# 1 0.026547 -0.006062 -0.003264 0.000000 0.000000 0.000000
# 2 -0.006062 0.016832 -0.006841 0.000000 0.000000 0.000000
# 3 -0.003264 -0.006841 0.014867 0.000000 0.000000 0.000000
# 4 0.000000 0.000000 0.000000 0.030066 0.000000 0.000000
# 5 0.000000 0.000000 0.000000 0.000000 0.061812 0.000000
# 6 0.000000 0.000000 0.000000 0.000000 0.000000 0.045573
#
#
# Mechanical properties :
#
#
# Convention : Reuss Voigt Hill
#
# Bulk Modulus (GPa) = 38.59276 45.86536 42.22906
# Shear Modulus (GPa) = 21.12651 23.16563 22.14607
#
# Velocity S-wave (km/s) = 3.28608 3.44101 3.36444
# Velocity P-wave (km/s) = 5.84154 6.26342 6.05615
#
# Compressibility (1/GPa) = 0.02591160
#
# Stress axis : x y z
#
# Youngs Moduli (GPa) = 37.66951 59.40930 67.26083
#
# Poissons Ratio (x) = 0.36011 0.21957
# Poissons Ratio (y) = 0.22834 0.46016
# Poissons Ratio (z) = 0.12297 0.40645
#
# Static dielectric constant tensor:
#      x y z
#    x 3.582410 0.000000 0.000000 
#    y 0.000000 3.603120 0.000000 
#    z 0.000000 0.000000 3.439260 
# 
# 
# High freq. dielectric constant tensor:
#      x y z
#    x 1.756040 0.000000 0.000000 
#    y 0.000000 1.749090 0.000000 
#    z 0.000000 0.000000 1.757790 
# 
# From -- ./inp_files/25774.got.cif
#   From: 2010.03.12/outbox.cif.g09.slc.cpg/sg44_13_cif.got.tgz:25774.got - 2010.04.14 02:36:11.
