data_PCOD8189720
_publ_section_title
;
Structure prediction by ZEFSAII (Michael W. Deem and Ramdas Pophale) SiO2 
 PCOD8189720
Probable space group: I M M 2
;
_chemical_formula_sum "Si O2"
_cell_formula_units_Z 64
_cell_length_a 14.186601
_cell_length_b 25.975508
_cell_length_c 9.161125
_cell_angle_alpha 90.000000
_cell_angle_beta 90.000000
_cell_angle_gamma 90.000000
_cell_volume 3375.912744
_symmetry_space_group_name_H-M "I M M 2"
_symmetry_group_IT_number 44
_symmetry_cell_setting 'orthorhombic'
loop_
_space_group_symop_operation_xyz
x,y,z
-x,-y,z
-x,y,z
x,-y,z
1/2+x,1/2+y,1/2+z
1/2-x,1/2-y,1/2+z
1/2-x,1/2+y,1/2+z
1/2+x,1/2-y,1/2+z
loop_
_atom_site_type_symbol
_atom_site_label
_atom_site_fract_x
_atom_site_fract_y
_atom_site_fract_z
Si Si1 0.389415 0.349693 0.307050
Si Si2 0.893890 0.440909 0.778132
Si Si3 0.390231 0.559651 0.090867
Si Si4 0.890786 0.660811 0.368444
Si Si5 0.390342 0.945850 0.955867
Si Si6 0.760822 0.874487 0.389264
Si Si7 0.229004 0.175110 0.080689
Si Si8 0.762611 0.706303 0.132425
O O1 0.500000 0.336320 0.309582
O O2 0.370350 0.406320 0.236797
O O3 0.346576 0.349366 0.468967
O O4 0.335678 0.304804 0.216465
O O5 0.889195 0.500000 0.827641
O O6 0.847504 0.434127 0.616373
O O7 0.835062 0.407026 0.891105
O O8 0.000000 0.419773 0.784302
O O9 0.500000 0.560109 0.053529
O O10 0.356006 0.500000 0.112025
O O11 0.340687 0.588173 0.955132
O O12 0.872911 0.599639 0.341285
O O13 0.835428 0.673912 0.517246
O O14 0.851482 0.687725 0.226427
O O15 0.000000 0.674956 0.392045
O O16 0.500000 0.952738 0.988510
O O17 0.349411 0.000000 0.893063
O O18 0.787958 0.856852 0.227219
O O19 0.742301 0.822661 0.479139
O O20 0.212185 0.234949 0.107593
#
# Coordination Sequence:
#
# PCOD8189720 Si02
#       8
#     8   8   8   8   8   8   8   8
#     4   9  20  40  62  81 108 149 191 229 279 336
#     4   9  17  30  50  79 113 144 175 215 266 329
#     4   9  19  38  61  84 112 146 185 231 283 341
#     4  10  20  37  57  81 111 148 190 228 276 335
#     4   8  14  28  51  77 105 137 175 217 259 315
#     4  11  20  34  58  82 115 151 181 227 289 336
#     4  11  22  38  57  83 113 144 191 244 278 322
#     4  10  23  39  54  79 116 150 186 236 281 328
#
# _framework density 18.957834999999999
#
# number of rings (size 3 to 8) (size 9 to 14) (size 15 to 20)
#    0.000    2.375    1.250    2.625    0.000    2.000 
#    0.000   11.250    0.000    3.000    0.000    0.000 
#    0.000    0.000    0.000    0.000    0.000    0.000 
#
# Total GULP energy -396559.946502 kJ/mol
# GULP energy per Si atom -12392.498328 kJ/mol
# Density = 1.891469 g / cm^3
# Si number density = 18.957835 Si / 1000 Ang^3
#
#
#
# Elastic Constant Matrix: (Units=GPa)
#
#
# Indices 1 2 3 4 5 6 
#
# 1 103.5595 48.0408 52.3426 0.0002 0.0007 0.0002
# 2 48.0408 120.2798 59.7723 0.0024 0.0006 0.0000
# 3 52.3426 59.7723 119.4197 0.0021 0.0016 0.0004
# 4 0.0002 0.0024 0.0021 21.3383 0.0012 0.0006
# 5 0.0007 0.0006 0.0016 0.0012 22.7520 0.0002
# 6 0.0002 0.0000 0.0004 0.0006 0.0002 24.2057
#
#
#
# Elastic Compliance Matrix: (Units=1/GPa)
#
#
# Indices 1 2 3 4 5 6 
#
# 1 0.013274 -0.003208 -0.004212 0.000001 0.000000 0.000000
# 2 -0.003208 0.011842 -0.004521 -0.000001 0.000000 0.000000
# 3 -0.004212 -0.004521 0.012483 -0.000001 -0.000001 0.000000
# 4 0.000001 -0.000001 -0.000001 0.046864 -0.000003 -0.000001
# 5 0.000000 0.000000 -0.000001 -0.000003 0.043952 0.000000
# 6 0.000000 0.000000 0.000000 -0.000001 0.000000 0.041313
#
#
# Mechanical properties :
#
#
# Convention : Reuss Voigt Hill
#
# Bulk Modulus (GPa) = 72.90931 73.73004 73.31967
# Shear Modulus (GPa) = 25.22932 25.86608 25.54770
#
# Velocity S-wave (km/s) = 3.65199 3.69779 3.67496
# Velocity P-wave (km/s) = 7.50499 7.56357 7.53433
#
# Compressibility (1/GPa) = 0.01371567
#
# Stress axis : x y z
#
# Youngs Moduli (GPa) = 75.33770 84.44465 80.11013
#
# Poissons Ratio (x) = 0.27094 0.33742
# Poissons Ratio (y) = 0.24172 0.36217
# Poissons Ratio (z) = 0.31732 0.38177
#
# Static dielectric constant tensor:
#      x y z
#    x 3.397570 0.000000 0.000000 
#    y 0.000000 3.890590 0.000010 
#    z 0.000000 0.000010 3.365460 
# 
# 
# High freq. dielectric constant tensor:
#      x y z
#    x 1.725900 0.000000 0.000000 
#    y 0.000000 1.748750 0.000000 
#    z 0.000000 0.000000 1.726050 
# 
# From -- ./inp_files/7563.got.cif
#   From: 2010.03.12/outbox.cif.g09.slc.cpg/sg44_4_cif.got.tgz:7563.got - 2010.04.14 02:36:11.
