data_PCOD8189309
_publ_section_title
;
Structure prediction by ZEFSAII (Michael W. Deem and Ramdas Pophale) SiO2 
 PCOD8189309
Probable space group: I M M 2
;
_chemical_formula_sum "Si O2"
_cell_formula_units_Z 48
_cell_length_a 9.556628
_cell_length_b 22.960394
_cell_length_c 11.907574
_cell_angle_alpha 90.000000
_cell_angle_beta 90.000000
_cell_angle_gamma 90.000000
_cell_volume 2612.806853
_symmetry_space_group_name_H-M "I M M 2"
_symmetry_group_IT_number 44
_symmetry_cell_setting 'orthorhombic'
loop_
_space_group_symop_operation_xyz
x,y,z
-x,-y,z
-x,y,z
x,-y,z
1/2+x,1/2+y,1/2+z
1/2-x,1/2-y,1/2+z
1/2-x,1/2+y,1/2+z
1/2+x,1/2-y,1/2+z
loop_
_atom_site_type_symbol
_atom_site_label
_atom_site_fract_x
_atom_site_fract_y
_atom_site_fract_z
Si Si1 0.841373 0.857676 0.625000
Si Si2 0.834964 0.934337 0.198556
Si Si3 0.663683 0.616550 0.461132
Si Si4 0.344501 0.933202 0.771298
Si Si5 0.163917 0.838352 0.369866
Si Si6 0.657154 0.728603 0.325546
O O1 0.734161 0.906323 0.665000
O O2 0.796418 0.841478 0.499840
O O3 0.828980 0.801867 0.704838
O O4 0.000000 0.882323 0.627561
O O5 0.783623 0.896887 0.305928
O O6 0.000000 0.941169 0.201135
O O7 0.769062 0.000000 0.200215
O O8 0.790788 0.897673 0.088131
O O9 0.500000 0.603053 0.439611
O O10 0.754911 0.574457 0.383806
O O11 0.696203 0.683428 0.426118
O O12 0.500000 0.905414 0.785544
O O13 0.359928 0.000000 0.743457
O O14 0.238365 0.782096 0.319928
O O15 0.000000 0.829658 0.349484
O O16 0.500000 0.751755 0.344361
#
# Coordination Sequence:
#
# PCOD8189309 Si02
#       6
#     8   8   8   8   8   8
#     4   9  20  37  53  75 106 140 182 220 261 324
#     4   9  18  33  54  81 110 141 182 227 268 317
#     4   9  18  34  56  80 107 142 181 222 268 321
#     4  10  20  33  52  80 109 137 175 223 271 316
#     4  10  21  35  55  81 106 139 181 224 268 320
#     4   9  19  34  52  76 107 140 177 223 272 324
#
# _framework density 18.371047999999998
#
# number of rings (size 3 to 8) (size 9 to 14) (size 15 to 20)
#    0.000    2.667    0.000    2.000    2.333    6.000 
#    0.000    2.500    0.000    1.500    0.000    0.000 
#    0.000    0.000    0.000    0.000    0.000    0.000 
#
# Total GULP energy -297531.658906 kJ/mol
# GULP energy per Si atom -12397.152454 kJ/mol
# Density = 1.832924 g / cm^3
# Si number density = 18.371048 Si / 1000 Ang^3
#
#
#
# Elastic Constant Matrix: (Units=GPa)
#
#
# Indices 1 2 3 4 5 6 
#
# 1 68.2717 39.4271 32.0320 -0.0001 0.0001 0.0000
# 2 39.4271 114.6717 59.1121 -0.0002 0.0000 0.0000
# 3 32.0320 59.1121 125.5880 -0.0001 -0.0001 0.0000
# 4 -0.0001 -0.0002 -0.0001 19.4187 0.0000 0.0000
# 5 0.0001 0.0000 -0.0001 0.0000 11.1757 0.0000
# 6 0.0000 0.0000 0.0000 0.0000 0.0000 30.6824
#
#
#
# Elastic Compliance Matrix: (Units=1/GPa)
#
#
# Indices 1 2 3 4 5 6 
#
# 1 0.018771 -0.005263 -0.002310 0.000000 0.000000 0.000000
# 2 -0.005263 0.012990 -0.004772 0.000000 0.000000 0.000000
# 3 -0.002310 -0.004772 0.010798 0.000000 0.000000 0.000000
# 4 0.000000 0.000000 0.000000 0.051497 0.000000 0.000000
# 5 0.000000 0.000000 0.000000 0.000000 0.089480 0.000000
# 6 0.000000 0.000000 0.000000 0.000000 0.000000 0.032592
#
#
# Mechanical properties :
#
#
# Convention : Reuss Voigt Hill
#
# Bulk Modulus (GPa) = 55.96525 63.29710 59.63118
# Shear Modulus (GPa) = 20.26154 24.11937 22.19046
#
# Velocity S-wave (km/s) = 3.32461 3.62733 3.47926
# Velocity P-wave (km/s) = 6.72810 7.21616 6.97640
#
# Compressibility (1/GPa) = 0.01786823
#
# Stress axis : x y z
#
# Youngs Moduli (GPa) = 53.27457 76.98315 92.61109
#
# Poissons Ratio (x) = 0.40515 0.21397
# Poissons Ratio (y) = 0.28037 0.44192
# Poissons Ratio (z) = 0.12309 0.36735
#
# Static dielectric constant tensor:
#      x y z
#    x 3.343090 0.000000 0.000000 
#    y 0.000000 3.311000 0.000000 
#    z 0.000000 0.000000 3.487040 
# 
# 
# High freq. dielectric constant tensor:
#      x y z
#    x 1.695160 0.000000 0.000000 
#    y 0.000000 1.706550 0.000000 
#    z 0.000000 0.000000 1.715240 
# 
# From -- ./inp_files/11135.got.cif
#   From: 2010.03.12/outbox.cif.g09.slc.cpg/sg44_6_cif.got.tgz:11135.got - 2010.04.14 02:36:11.
