data_PCOD8189861
_publ_section_title
;
Structure prediction by ZEFSAII (Michael W. Deem and Ramdas Pophale) SiO2 
 PCOD8189861
Probable space group: I M M 2
;
_chemical_formula_sum "Si O2"
_cell_formula_units_Z 48
_cell_length_a 9.052188
_cell_length_b 7.783380
_cell_length_c 33.781233
_cell_angle_alpha 90.000000
_cell_angle_beta 90.000000
_cell_angle_gamma 90.000000
_cell_volume 2380.111464
_symmetry_space_group_name_H-M "I M M 2"
_symmetry_group_IT_number 44
_symmetry_cell_setting 'orthorhombic'
loop_
_space_group_symop_operation_xyz
x,y,z
-x,-y,z
-x,y,z
x,-y,z
1/2+x,1/2+y,1/2+z
1/2-x,1/2-y,1/2+z
1/2-x,1/2+y,1/2+z
1/2+x,1/2-y,1/2+z
loop_
_atom_site_type_symbol
_atom_site_label
_atom_site_fract_x
_atom_site_fract_y
_atom_site_fract_z
Si Si1 0.666349 0.798940 0.558300
Si Si2 0.823414 0.000000 0.186413
Si Si3 0.668271 0.690716 0.325772
Si Si4 0.835252 0.805921 0.399604
Si Si5 0.667139 0.304263 0.473496
Si Si6 0.824774 0.500000 0.770239
Si Si7 0.825944 0.799735 0.637890
O O1 0.500000 0.732270 0.567929
O O2 0.729063 0.713671 0.518170
O O3 0.774888 0.748026 0.593856
O O4 0.665074 0.000000 0.551331
O O5 0.773736 0.000000 0.231532
O O6 0.759411 0.174856 0.167649
O O7 0.000000 0.000000 0.182788
O O8 0.500000 0.732790 0.336529
O O9 0.685935 0.500000 0.307084
O O10 0.753796 0.691974 0.367122
O O11 0.724387 0.830552 0.294381
O O12 0.761093 0.804199 0.442625
O O13 0.000000 0.733533 0.404132
O O14 0.834160 0.000000 0.383929
O O15 0.500000 0.233463 0.473035
O O16 0.674752 0.500000 0.459719
O O17 0.000000 0.500000 0.760358
O O18 0.000000 0.767691 0.641833
O O19 0.786612 0.000000 0.647093
#
# Coordination Sequence:
#
# PCOD8189861 Si02
#       7
#     8   4   8   8   8   4   8
#     4   9  18  34  56  83 116 155 200 251 308 366
#     4  12  26  42  66  96 130 166 208 258 310 378
#     4  10  21  39  65  92 118 155 199 243 298 364
#     4  11  23  37  55  81 116 157 203 252 304 358
#     4  10  21  35  53  81 116 155 202 250 299 360
#     4  10  22  42  64  92 126 158 200 252 306 368
#     4  10  22  41  65  93 126 165 209 258 313 374
#
# _framework density 20.167124999999999
#
# number of rings (size 3 to 8) (size 9 to 14) (size 15 to 20)
#    0.000    1.833    0.833    2.750    1.167    7.333 
#    0.000    3.333    0.000    0.000    0.000    0.000 
#    0.000    0.000    0.000    0.000    0.000    0.000 
#
# Total GULP energy -297626.247719 kJ/mol
# GULP energy per Si atom -12401.093655 kJ/mol
# Density = 2.012122 g / cm^3
# Si number density = 20.167125 Si / 1000 Ang^3
#
#
#
# Elastic Constant Matrix: (Units=GPa)
#
#
# Indices 1 2 3 4 5 6 
#
# 1 110.4348 46.0351 71.1253 0.0000 0.0000 0.0000
# 2 46.0351 100.3557 58.6962 0.0000 0.0000 0.0000
# 3 71.1253 58.6962 141.9049 0.0000 0.0000 0.0000
# 4 0.0000 0.0000 0.0000 26.0162 0.0000 0.0000
# 5 0.0000 0.0000 0.0000 0.0000 37.8930 0.0000
# 6 0.0000 0.0000 0.0000 0.0000 0.0000 21.4672
#
#
#
# Elastic Compliance Matrix: (Units=1/GPa)
#
#
# Indices 1 2 3 4 5 6 
#
# 1 0.014054 -0.003069 -0.005774 0.000000 0.000000 0.000000
# 2 -0.003069 0.013815 -0.004176 0.000000 0.000000 0.000000
# 3 -0.005774 -0.004176 0.011668 0.000000 0.000000 0.000000
# 4 0.000000 0.000000 0.000000 0.038438 0.000000 0.000000
# 5 0.000000 0.000000 0.000000 0.000000 0.026390 0.000000
# 6 0.000000 0.000000 0.000000 0.000000 0.000000 0.046583
#
#
# Mechanical properties :
#
#
# Convention : Reuss Voigt Hill
#
# Bulk Modulus (GPa) = 74.08594 78.26763 76.17678
# Shear Modulus (GPa) = 27.55043 28.86453 28.20748
#
# Velocity S-wave (km/s) = 3.70010 3.78731 3.74396
# Velocity P-wave (km/s) = 7.42092 7.61700 7.51960
#
# Compressibility (1/GPa) = 0.01349784
#
# Stress axis : x y z
#
# Youngs Moduli (GPa) = 71.15653 72.38558 85.70138
#
# Poissons Ratio (x) = 0.22218 0.49487
# Poissons Ratio (y) = 0.21840 0.35788
# Poissons Ratio (z) = 0.41088 0.30227
#
# Static dielectric constant tensor:
#      x y z
#    x 3.642670 0.000000 0.000000 
#    y 0.000000 3.751760 0.000000 
#    z 0.000000 0.000000 3.550580 
# 
# 
# High freq. dielectric constant tensor:
#      x y z
#    x 1.778560 0.000000 0.000000 
#    y 0.000000 1.797520 0.000000 
#    z 0.000000 0.000000 1.783620 
# 
# From -- ./inp_files/26976.got.cif
#   From: 2010.03.12/outbox.cif.g09.slc.cpg/sg44_14_cif.got.tgz:26976.got - 2010.04.14 02:36:11.
