data_PCOD8189361
_publ_section_title
;
Structure prediction by ZEFSAII (Michael W. Deem and Ramdas Pophale) SiO2 
 PCOD8189361
Probable space group: I M M 2
;
_chemical_formula_sum "Si O2"
_cell_formula_units_Z 64
_cell_length_a 27.676964
_cell_length_b 18.081316
_cell_length_c 6.811369
_cell_angle_alpha 90.000000
_cell_angle_beta 90.000000
_cell_angle_gamma 90.000000
_cell_volume 3408.653794
_symmetry_space_group_name_H-M "I M M 2"
_symmetry_group_IT_number 44
_symmetry_cell_setting 'orthorhombic'
loop_
_space_group_symop_operation_xyz
x,y,z
-x,-y,z
-x,y,z
x,-y,z
1/2+x,1/2+y,1/2+z
1/2-x,1/2-y,1/2+z
1/2-x,1/2+y,1/2+z
1/2+x,1/2-y,1/2+z
loop_
_atom_site_type_symbol
_atom_site_label
_atom_site_fract_x
_atom_site_fract_y
_atom_site_fract_z
Si Si1 0.943786 0.803514 0.246230
Si Si2 0.394332 0.582042 0.474317
Si Si3 0.701019 0.299419 0.011143
Si Si4 0.054079 0.080541 0.576716
Si Si5 0.858368 0.703469 0.242853
Si Si6 0.694311 0.184875 0.349490
Si Si7 0.704580 0.415023 0.314347
Si Si8 0.806031 0.587177 0.497140
O O1 0.925551 0.853597 0.068001
O O2 0.932912 0.851815 0.437155
O O3 0.914972 0.725785 0.255548
O O4 0.000000 0.784702 0.219081
O O5 0.404426 0.500000 0.565557
O O6 0.407295 0.581345 0.247017
O O7 0.336901 0.599983 0.477836
O O8 0.684436 0.245904 0.186220
O O9 0.691858 0.380309 0.101312
O O10 0.670405 0.276955 0.818848
O O11 0.756985 0.294681 0.960747
O O12 0.000000 0.091154 0.661562
O O13 0.057325 0.000000 0.468714
O O14 0.847501 0.631910 0.378569
O O15 0.846933 0.684857 0.015978
O O16 0.694357 0.106874 0.230104
O O17 0.709935 0.500000 0.265995
O O18 0.755030 0.385495 0.404780
O O19 0.815093 0.500000 0.473187
#
# Coordination Sequence:
#
# PCOD8189361 Si02
#       8
#     8   8   8   8   8   8   8   8
#     4  11  23  36  55  82 108 142 190 236 276 324
#     4  10  20  34  52  77 113 155 189 226 267 310
#     4  11  19  33  53  82 115 150 184 216 264 325
#     4   9  18  34  54  77 109 150 192 230 267 307
#     4  11  23  37  59  80 112 150 181 226 282 333
#     4  11  20  33  57  81 109 148 181 218 267 333
#     4  10  20  35  53  79 117 151 187 227 265 319
#     4  10  23  40  57  83 111 141 182 228 278 342
#
# _framework density 18.775741
#
# number of rings (size 3 to 8) (size 9 to 14) (size 15 to 20)
#    0.000    1.625    2.500    3.000    1.750    3.250 
#    0.000    0.625    0.000    0.375    0.000    0.000 
#    0.000    0.000    0.000    0.000    0.000    0.000 
#
# Total GULP energy -396609.693675 kJ/mol
# GULP energy per Si atom -12394.052927 kJ/mol
# Density = 1.873301 g / cm^3
# Si number density = 18.775741 Si / 1000 Ang^3
#
#
#
# Elastic Constant Matrix: (Units=GPa)
#
#
# Indices 1 2 3 4 5 6 
#
# 1 97.4060 51.2289 29.0830 0.0000 0.0000 0.0000
# 2 51.2289 92.3933 41.9042 0.0000 0.0000 0.0000
# 3 29.0830 41.9042 84.6568 0.0000 0.0000 0.0000
# 4 0.0000 0.0000 0.0000 36.7550 0.0000 0.0000
# 5 0.0000 0.0000 0.0000 0.0000 18.5336 0.0000
# 6 0.0000 0.0000 0.0000 0.0000 0.0000 33.6234
#
#
#
# Elastic Compliance Matrix: (Units=1/GPa)
#
#
# Indices 1 2 3 4 5 6 
#
# 1 0.014603 -0.007507 -0.001301 0.000000 0.000000 0.000000
# 2 -0.007507 0.017815 -0.006240 0.000000 0.000000 0.000000
# 3 -0.001301 -0.006240 0.015348 0.000000 0.000000 0.000000
# 4 0.000000 0.000000 0.000000 0.027207 0.000000 0.000000
# 5 0.000000 0.000000 0.000000 0.000000 0.053956 0.000000
# 6 0.000000 0.000000 0.000000 0.000000 0.000000 0.029741
#
#
# Mechanical properties :
#
#
# Convention : Reuss Voigt Hill
#
# Bulk Modulus (GPa) = 56.58786 57.65425 57.12106
# Shear Modulus (GPa) = 25.68641 27.93173 26.80907
#
# Velocity S-wave (km/s) = 3.70275 3.86119 3.78280
# Velocity P-wave (km/s) = 6.96310 7.11701 7.04047
#
# Compressibility (1/GPa) = 0.01767163
#
# Stress axis : x y z
#
# Youngs Moduli (GPa) = 68.48032 56.13116 65.15576
#
# Poissons Ratio (x) = 0.42136 0.08476
# Poissons Ratio (y) = 0.51406 0.40654
# Poissons Ratio (z) = 0.08909 0.35023
#
# Static dielectric constant tensor:
#      x y z
#    x 3.417790 0.000000 0.000000 
#    y 0.000000 3.426950 0.000000 
#    z 0.000000 0.000000 3.588650 
# 
# 
# High freq. dielectric constant tensor:
#      x y z
#    x 1.710710 0.000000 0.000000 
#    y 0.000000 1.715410 0.000000 
#    z 0.000000 0.000000 1.730560 
# 
# From -- ./inp_files/3105.got.cif
#   From: 2010.03.12/outbox.cif.g09.slc.cpg/sg44_2_cif.got.tgz:3105.got - 2010.04.14 02:36:11.
