data_PCOD8189888
_publ_section_title
;
Structure prediction by ZEFSAII (Michael W. Deem and Ramdas Pophale) SiO2 
 PCOD8189888
Probable space group: I M M 2
;
_chemical_formula_sum "Si O2"
_cell_formula_units_Z 48
_cell_length_a 9.113570
_cell_length_b 7.495620
_cell_length_c 34.270101
_cell_angle_alpha 90.000000
_cell_angle_beta 90.000000
_cell_angle_gamma 90.000000
_cell_volume 2341.054258
_symmetry_space_group_name_H-M "I M M 2"
_symmetry_group_IT_number 44
_symmetry_cell_setting 'orthorhombic'
loop_
_space_group_symop_operation_xyz
x,y,z
-x,-y,z
-x,y,z
x,-y,z
1/2+x,1/2+y,1/2+z
1/2-x,1/2-y,1/2+z
1/2-x,1/2+y,1/2+z
1/2+x,1/2-y,1/2+z
loop_
_atom_site_type_symbol
_atom_site_label
_atom_site_fract_x
_atom_site_fract_y
_atom_site_fract_z
Si Si1 0.840189 0.297748 0.825020
Si Si2 0.669673 0.500000 0.201863
Si Si3 0.328514 0.291614 0.561534
Si Si4 0.834043 0.710361 0.399646
Si Si5 0.169105 0.000000 0.609839
Si Si6 0.329050 0.710347 0.750484
Si Si7 0.663100 0.211248 0.985747
O O1 0.864532 0.500000 0.813112
O O2 0.772650 0.293236 0.867965
O O3 0.732573 0.217396 0.792134
O O4 0.000000 0.200929 0.824733
O O5 0.500000 0.500000 0.214791
O O6 0.686827 0.500000 0.155804
O O7 0.746714 0.320050 0.217009
O O8 0.500000 0.253529 0.564653
O O9 0.291595 0.500000 0.568012
O O10 0.275303 0.223989 0.518920
O O11 0.245532 0.179147 0.594222
O O12 0.822327 0.500000 0.396713
O O13 0.786012 0.778316 0.442847
O O14 0.000000 0.773665 0.391226
O O15 0.000000 0.000000 0.596889
O O16 0.500000 0.756837 0.749483
O O17 0.302282 0.500000 0.743488
O O18 0.500000 0.285268 0.995231
O O19 0.656956 0.000000 0.984476
#
# Coordination Sequence:
#
# PCOD8189888 Si02
#       7
#     8   4   8   8   4   8   8
#     4  10  21  36  53  77 112 152 194 240 289 343
#     4  11  25  43  65  93 123 155 195 247 303 361
#     4  10  21  38  62  90 121 158 197 246 304 356
#     4   9  18  32  52  79 110 147 193 242 288 342
#     4  11  25  43  63  91 123 157 201 245 293 363
#     4  10  22  41  65  90 118 157 200 244 296 358
#     4   8  15  31  54  79 110 151 198 242 287 347
#
# _framework density 20.503581000000001
#
# number of rings (size 3 to 8) (size 9 to 14) (size 15 to 20)
#    0.000    2.333    0.000    3.000    1.167    6.000 
#    1.500    5.000    0.000    0.000    0.000    0.000 
#    0.000    0.000    0.000    0.000    0.000    0.000 
#
# Total GULP energy -297516.577356 kJ/mol
# GULP energy per Si atom -12396.524057 kJ/mol
# Density = 2.045691 g / cm^3
# Si number density = 20.503581 Si / 1000 Ang^3
#
#
#
# Elastic Constant Matrix: (Units=GPa)
#
#
# Indices 1 2 3 4 5 6 
#
# 1 165.9379 51.7929 85.7508 0.0000 0.0000 0.0000
# 2 51.7929 69.7635 41.8219 0.0000 0.0000 0.0000
# 3 85.7508 41.8219 131.8039 0.0000 0.0000 0.0000
# 4 0.0000 0.0000 0.0000 40.2455 0.0000 0.0000
# 5 0.0000 0.0000 0.0000 0.0000 37.0416 0.0000
# 6 0.0000 0.0000 0.0000 0.0000 0.0000 25.3975
#
#
#
# Elastic Compliance Matrix: (Units=1/GPa)
#
#
# Indices 1 2 3 4 5 6 
#
# 1 0.010055 -0.004376 -0.005153 0.000000 0.000000 0.000000
# 2 -0.004376 0.019605 -0.003374 0.000000 0.000000 0.000000
# 3 -0.005153 -0.003374 0.012010 0.000000 0.000000 0.000000
# 4 0.000000 0.000000 0.000000 0.024848 0.000000 0.000000
# 5 0.000000 0.000000 0.000000 0.000000 0.026997 0.000000
# 6 0.000000 0.000000 0.000000 0.000000 0.000000 0.039374
#
#
# Mechanical properties :
#
#
# Convention : Reuss Voigt Hill
#
# Bulk Modulus (GPa) = 63.03329 80.69295 71.86312
# Shear Modulus (GPa) = 30.49082 33.07955 31.78518
#
# Velocity S-wave (km/s) = 3.86047 4.02102 3.94156
# Velocity P-wave (km/s) = 7.11901 7.81019 7.47260
#
# Compressibility (1/GPa) = 0.01586463
#
# Stress axis : x y z
#
# Youngs Moduli (GPa) = 99.45097 51.00645 83.26094
#
# Poissons Ratio (x) = 0.22319 0.42908
# Poissons Ratio (y) = 0.43516 0.28093
# Poissons Ratio (z) = 0.51251 0.17210
#
# Static dielectric constant tensor:
#      x y z
#    x 3.901760 0.000000 0.000000 
#    y 0.000000 3.345060 0.000000 
#    z 0.000000 0.000000 3.898600 
# 
# 
# High freq. dielectric constant tensor:
#      x y z
#    x 1.806120 0.000000 0.000000 
#    y 0.000000 1.794320 0.000000 
#    z 0.000000 0.000000 1.801790 
# 
# From -- ./inp_files/26981.got.cif
#   From: 2010.03.12/outbox.cif.g09.slc.cpg/sg44_14_cif.got.tgz:26981.got - 2010.04.14 02:36:11.
