data_PCOD8189020
_publ_section_title
;
Structure prediction by ZEFSAII (Michael W. Deem and Ramdas Pophale) SiO2 
 PCOD8189020
Probable space group: I M M 2
;
_chemical_formula_sum "Si O2"
_cell_formula_units_Z 48
_cell_length_a 9.129727
_cell_length_b 7.553929
_cell_length_c 38.186748
_cell_angle_alpha 90.000000
_cell_angle_beta 90.000000
_cell_angle_gamma 90.000000
_cell_volume 2633.560896
_symmetry_space_group_name_H-M "I M M 2"
_symmetry_group_IT_number 44
_symmetry_cell_setting 'orthorhombic'
loop_
_space_group_symop_operation_xyz
x,y,z
-x,-y,z
-x,y,z
x,-y,z
1/2+x,1/2+y,1/2+z
1/2-x,1/2-y,1/2+z
1/2-x,1/2+y,1/2+z
1/2+x,1/2-y,1/2+z
loop_
_atom_site_type_symbol
_atom_site_label
_atom_site_fract_x
_atom_site_fract_y
_atom_site_fract_z
Si Si1 0.325623 0.000000 0.191950
Si Si2 0.825361 0.500000 0.020446
Si Si3 0.826115 0.802713 0.641138
Si Si4 0.672575 0.299774 0.389900
Si Si5 0.673597 0.000000 0.441332
Si Si6 0.329804 0.798588 0.819259
Si Si7 0.671133 0.500000 0.765573
Si Si8 0.829777 0.296376 0.563898
O O1 0.266803 0.827223 0.171285
O O2 0.500000 0.000000 0.194098
O O3 0.262019 0.000000 0.230370
O O4 0.765311 0.323063 0.038218
O O5 0.000000 0.500000 0.022548
O O6 0.765736 0.500000 0.980669
O O7 0.772653 0.735248 0.603320
O O8 0.000000 0.800807 0.641521
O O9 0.764966 0.000000 0.648278
O O10 0.500000 0.282168 0.385005
O O11 0.719567 0.500000 0.399249
O O12 0.743747 0.237302 0.353646
O O13 0.730262 0.174753 0.421096
O O14 0.500000 0.000000 0.442343
O O15 0.500000 0.775809 0.827861
O O16 0.283373 0.674471 0.787131
O O17 0.290276 0.000000 0.808881
O O18 0.500000 0.500000 0.756542
O O19 0.805124 0.500000 0.553448
O O20 0.000000 0.242538 0.560681
#
# Coordination Sequence:
#
# PCOD8189020 Si02
#       8
#     4   4   8   8   4   8   4   8
#     4  10  20  33  51  78 101 127 171 217 260 306
#     4  11  23  36  52  80 115 149 181 219 270 328
#     4   9  16  30  55  78  97 126 167 214 263 313
#     4   9  17  31  53  77  98 127 171 216 253 293
#     4   9  19  34  50  71 105 143 173 203 255 318
#     4   9  18  33  52  73  99 133 169 203 247 303
#     4  10  21  35  49  69 103 141 167 195 249 312
#     4  10  19  35  60  82 102 136 181 227 273 323
#
# _framework density 18.226272000000002
#
# number of rings (size 3 to 8) (size 9 to 14) (size 15 to 20)
#    0.000    2.500    1.667    0.750    0.000    2.333 
#    0.000    4.167    0.000    2.000    0.000    0.000 
#    0.000    0.000    0.000    0.000    0.000    0.000 
#
# Total GULP energy -297600.985396 kJ/mol
# GULP energy per Si atom -12400.041058 kJ/mol
# Density = 1.818479 g / cm^3
# Si number density = 18.226272 Si / 1000 Ang^3
#
#
#
# Elastic Constant Matrix: (Units=GPa)
#
#
# Indices 1 2 3 4 5 6 
#
# 1 35.9743 36.1505 43.8098 0.0000 0.0000 0.0000
# 2 36.1505 143.0274 89.2367 0.0000 0.0000 0.0000
# 3 43.8098 89.2367 167.2241 0.0000 0.0000 0.0000
# 4 0.0000 0.0000 0.0000 28.0400 0.0000 0.0000
# 5 0.0000 0.0000 0.0000 0.0000 27.7007 0.0000
# 6 0.0000 0.0000 0.0000 0.0000 0.0000 17.7070
#
#
#
# Elastic Compliance Matrix: (Units=1/GPa)
#
#
# Indices 1 2 3 4 5 6 
#
# 1 0.043884 -0.005875 -0.008362 0.000000 0.000000 0.000000
# 2 -0.005875 0.011268 -0.004474 0.000000 0.000000 0.000000
# 3 -0.008362 -0.004474 0.010558 0.000000 0.000000 0.000000
# 4 0.000000 0.000000 0.000000 0.035663 0.000000 0.000000
# 5 0.000000 0.000000 0.000000 0.000000 0.036100 0.000000
# 6 0.000000 0.000000 0.000000 0.000000 0.000000 0.056475
#
#
# Mechanical properties :
#
#
# Convention : Reuss Voigt Hill
#
# Bulk Modulus (GPa) = 35.34915 76.06887 55.70901
# Shear Modulus (GPa) = 20.76415 26.49145 23.62780
#
# Velocity S-wave (km/s) = 3.37893 3.81658 3.60441
# Velocity P-wave (km/s) = 5.88724 7.82612 6.92488
#
# Compressibility (1/GPa) = 0.02828923
#
# Stress axis : x y z
#
# Youngs Moduli (GPa) = 22.78711 88.74853 94.71415
#
# Poissons Ratio (x) = 0.52137 0.79200
# Poissons Ratio (y) = 0.13387 0.42373
# Poissons Ratio (z) = 0.19055 0.39704
#
# Static dielectric constant tensor:
#      x y z
#    x 3.028910 0.000000 0.000000 
#    y 0.000000 3.716080 0.000000 
#    z 0.000000 0.000000 3.409530 
# 
# 
# High freq. dielectric constant tensor:
#      x y z
#    x 1.672560 0.000000 0.000000 
#    y 0.000000 1.725320 0.000000 
#    z 0.000000 0.000000 1.703810 
# 
# From -- ./inp_files/27036.got.cif
#   From: 2010.03.12/outbox.cif.g09.slc.cpg/sg44_14_cif.got.tgz:27036.got - 2010.04.14 02:36:11.
