data_PCOD8189336
_publ_section_title
;
Structure prediction by ZEFSAII (Michael W. Deem and Ramdas Pophale) SiO2 
 PCOD8189336
Probable space group: I M M 2
;
_chemical_formula_sum "Si O2"
_cell_formula_units_Z 64
_cell_length_a 32.053258
_cell_length_b 8.890694
_cell_length_c 11.745018
_cell_angle_alpha 90.000000
_cell_angle_beta 90.000000
_cell_angle_gamma 90.000000
_cell_volume 3347.044827
_symmetry_space_group_name_H-M "I M M 2"
_symmetry_group_IT_number 44
_symmetry_cell_setting 'orthorhombic'
loop_
_space_group_symop_operation_xyz
x,y,z
-x,-y,z
-x,y,z
x,-y,z
1/2+x,1/2+y,1/2+z
1/2-x,1/2-y,1/2+z
1/2-x,1/2+y,1/2+z
1/2+x,1/2-y,1/2+z
loop_
_atom_site_type_symbol
_atom_site_label
_atom_site_fract_x
_atom_site_fract_y
_atom_site_fract_z
Si Si1 0.187828 0.175825 0.928350
Si Si2 0.320863 0.332343 0.172497
Si Si3 0.355907 0.678876 0.830954
Si Si4 0.548533 0.676492 0.458320
Si Si5 0.283672 0.825244 0.966255
Si Si6 0.906248 0.166046 0.546971
Si Si7 0.451113 0.165138 0.229912
Si Si8 0.378552 0.178310 0.591815
O O1 0.179052 0.228385 0.800266
O O2 0.235532 0.214842 0.952897
O O3 0.177916 0.000000 0.947364
O O4 0.158411 0.272474 0.008934
O O5 0.300795 0.500000 0.165940
O O6 0.368106 0.338972 0.133468
O O7 0.294698 0.218991 0.095052
O O8 0.353989 0.500000 0.815060
O O9 0.310552 0.732361 0.874226
O O10 0.368508 0.758819 0.715796
O O11 0.390847 0.725435 0.924308
O O12 0.500000 0.717702 0.480329
O O13 0.556264 0.500000 0.467529
O O14 0.563759 0.727584 0.332773
O O15 0.576595 0.758758 0.552400
O O16 0.292874 0.000000 0.946013
O O17 0.940066 0.273854 0.604375
O O18 0.925849 0.000000 0.533351
O O19 0.500000 0.151425 0.234503
O O20 0.430804 0.000000 0.246605
O O21 0.381050 0.000000 0.596663
#
# Coordination Sequence:
#
# PCOD8189336 Si02
#       8
#     8   8   8   8   8   8   8   8
#     4  10  22  38  57  83 116 152 191 237 287 346
#     4   9  19  36  55  76 106 145 185 229 279 333
#     4  10  22  41  61  80 112 156 196 239 292 350
#     4  10  21  39  63  88 118 157 197 239 291 352
#     4  10  21  36  56  85 114 147 191 239 290 340
#     4   9  18  34  57  80 104 146 192 229 276 336
#     4  10  20  33  54  87 122 150 181 232 292 343
#     4  12  25  39  60  89 118 152 196 247 297 350
#
# _framework density 19.121345999999999
#
# number of rings (size 3 to 8) (size 9 to 14) (size 15 to 20)
#    0.000    2.000    0.000    4.125    1.750    6.500 
#    0.000    0.625    0.000    0.750    0.000    0.000 
#    0.000    0.000    0.000    0.000    0.000    0.000 
#
# Total GULP energy -396812.952687 kJ/mol
# GULP energy per Si atom -12400.404771 kJ/mol
# Density = 1.907782 g / cm^3
# Si number density = 19.121346 Si / 1000 Ang^3
#
#
#
# Elastic Constant Matrix: (Units=GPa)
#
#
# Indices 1 2 3 4 5 6 
#
# 1 66.6445 53.4858 60.5431 0.0000 0.0000 0.0000
# 2 53.4858 117.0976 62.1668 0.0000 0.0000 0.0000
# 3 60.5431 62.1668 152.0587 0.0000 0.0000 0.0000
# 4 0.0000 0.0000 0.0000 23.2059 0.0000 0.0000
# 5 0.0000 0.0000 0.0000 0.0000 22.6180 0.0000
# 6 0.0000 0.0000 0.0000 0.0000 0.0000 27.4492
#
#
#
# Elastic Compliance Matrix: (Units=1/GPa)
#
#
# Indices 1 2 3 4 5 6 
#
# 1 0.029821 -0.009346 -0.008052 0.000000 0.000000 0.000000
# 2 -0.009346 0.013836 -0.001936 0.000000 0.000000 0.000000
# 3 -0.008052 -0.001936 0.010574 0.000000 0.000000 0.000000
# 4 0.000000 0.000000 0.000000 0.043092 0.000000 0.000000
# 5 0.000000 0.000000 0.000000 0.000000 0.044213 0.000000
# 6 0.000000 0.000000 0.000000 0.000000 0.000000 0.036431
#
#
# Mechanical properties :
#
#
# Convention : Reuss Voigt Hill
#
# Bulk Modulus (GPa) = 64.25477 76.46578 70.36028
# Shear Modulus (GPa) = 22.54051 25.29496 23.91774
#
# Velocity S-wave (km/s) = 3.43711 3.64107 3.54056
# Velocity P-wave (km/s) = 7.03052 7.59954 7.32056
#
# Compressibility (1/GPa) = 0.01556305
#
# Stress axis : x y z
#
# Youngs Moduli (GPa) = 33.53362 72.27305 94.57301
#
# Poissons Ratio (x) = 0.67547 0.76153
# Poissons Ratio (y) = 0.31341 0.18306
# Poissons Ratio (z) = 0.27002 0.13989
#
# Static dielectric constant tensor:
#      x y z
#    x 3.434270 0.000000 0.000000 
#    y 0.000000 3.705000 0.000000 
#    z 0.000000 0.000000 3.607750 
# 
# 
# High freq. dielectric constant tensor:
#      x y z
#    x 1.737540 0.000000 0.000000 
#    y 0.000000 1.749940 0.000000 
#    z 0.000000 0.000000 1.746850 
# 
# From -- ./inp_files/15035.got.cif
#   From: 2010.03.12/outbox.cif.g09.slc.cpg/sg44_8_cif.got.tgz:15035.got - 2010.04.14 02:36:11.
