data_PCOD8189527
_publ_section_title
;
Structure prediction by ZEFSAII (Michael W. Deem and Ramdas Pophale) SiO2 
 PCOD8189527
Probable space group: I M M 2
;
_chemical_formula_sum "Si O2"
_cell_formula_units_Z 64
_cell_length_a 13.733351
_cell_length_b 24.222438
_cell_length_c 9.685576
_cell_angle_alpha 90.000000
_cell_angle_beta 90.000000
_cell_angle_gamma 90.000000
_cell_volume 3221.957639
_symmetry_space_group_name_H-M "I M M 2"
_symmetry_group_IT_number 44
_symmetry_cell_setting 'orthorhombic'
loop_
_space_group_symop_operation_xyz
x,y,z
-x,-y,z
-x,y,z
x,-y,z
1/2+x,1/2+y,1/2+z
1/2-x,1/2-y,1/2+z
1/2-x,1/2+y,1/2+z
1/2+x,1/2-y,1/2+z
loop_
_atom_site_type_symbol
_atom_site_label
_atom_site_fract_x
_atom_site_fract_y
_atom_site_fract_z
Si Si1 0.692343 0.062721 0.393100
Si Si2 0.111836 0.885859 0.445664
Si Si3 0.107209 0.435658 0.607970
Si Si4 0.285675 0.564586 0.441948
Si Si5 0.613107 0.268679 0.433347
Si Si6 0.799423 0.844870 0.720400
Si Si7 0.611099 0.640451 0.641200
Si Si8 0.389226 0.843663 0.569683
O O1 0.807779 0.065768 0.429889
O O2 0.666536 0.086629 0.241304
O O3 0.627636 0.097586 0.498977
O O4 0.659092 0.000000 0.411027
O O5 0.140414 0.848758 0.577420
O O6 0.123829 0.850369 0.305288
O O7 0.000000 0.908029 0.459945
O O8 0.093085 0.500000 0.630660
O O9 0.170127 0.425399 0.469280
O O10 0.000000 0.407506 0.594589
O O11 0.309495 0.500000 0.416726
O O12 0.320827 0.600011 0.310529
O O13 0.338050 0.585189 0.581905
O O14 0.500000 0.278210 0.407133
O O15 0.667956 0.289266 0.296708
O O16 0.650367 0.304635 0.564569
O O17 0.636348 0.204691 0.460384
O O18 0.683810 0.838931 0.698206
O O19 0.500000 0.631261 0.602806
O O20 0.500000 0.838218 0.623333
#
# Coordination Sequence:
#
# PCOD8189527 Si02
#       8
#     8   8   8   8   8   8   8   8
#     4  10  20  35  55  83 116 150 189 238 290 340
#     4  10  20  35  58  89 120 151 193 240 291 352
#     4   9  17  31  53  77 104 142 187 235 279 325
#     4  10  20  36  54  79 114 153 195 233 282 349
#     4   9  19  39  62  83 113 153 193 235 293 358
#     4  10  22  37  57  86 119 156 187 244 301 349
#     4   9  18  34  59  85 112 149 190 237 287 343
#     4  10  22  38  59  84 114 153 197 240 289 355
#
# _framework density 19.863699
#
# number of rings (size 3 to 8) (size 9 to 14) (size 15 to 20)
#    0.000    2.375    1.250    0.750    0.000    6.250 
#    0.000    1.250    0.000    0.750    0.000    0.000 
#    0.000    0.000    0.000    0.000    0.000    0.000 
#
# Total GULP energy -396574.951105 kJ/mol
# GULP energy per Si atom -12392.967222 kJ/mol
# Density = 1.981849 g / cm^3
# Si number density = 19.863699 Si / 1000 Ang^3
#
#
#
# Elastic Constant Matrix: (Units=GPa)
#
#
# Indices 1 2 3 4 5 6 
#
# 1 83.8150 27.3371 33.9355 -0.0012 -0.0003 0.0000
# 2 27.3371 86.7903 31.2053 -0.0026 -0.0005 -0.0003
# 3 33.9355 31.2053 107.1231 -0.0096 -0.0011 0.0000
# 4 -0.0012 -0.0026 -0.0096 18.5370 -0.0007 -0.0001
# 5 -0.0003 -0.0005 -0.0011 -0.0007 30.4651 -0.0001
# 6 0.0000 -0.0003 0.0000 -0.0001 -0.0001 21.0061
#
#
#
# Elastic Compliance Matrix: (Units=1/GPa)
#
#
# Indices 1 2 3 4 5 6 
#
# 1 0.014462 -0.003248 -0.003635 -0.000001 0.000000 0.000000
# 2 -0.003248 0.013600 -0.002933 0.000000 0.000000 0.000000
# 3 -0.003635 -0.002933 0.011341 0.000005 0.000000 0.000000
# 4 -0.000001 0.000000 0.000005 0.053946 0.000001 0.000000
# 5 0.000000 0.000000 0.000000 0.000001 0.032824 0.000000
# 6 0.000000 0.000000 0.000000 0.000000 0.000000 0.047605
#
#
# Mechanical properties :
#
#
# Convention : Reuss Voigt Hill
#
# Bulk Modulus (GPa) = 50.58017 51.40934 50.99476
# Shear Modulus (GPa) = 24.99984 26.35167 25.67576
#
# Velocity S-wave (km/s) = 3.55148 3.64624 3.59917
# Velocity P-wave (km/s) = 6.50663 6.60787 6.55745
#
# Compressibility (1/GPa) = 0.01977059
#
# Stress axis : x y z
#
# Youngs Moduli (GPa) = 69.14497 73.53172 88.17601
#
# Poissons Ratio (x) = 0.23885 0.32055
# Poissons Ratio (y) = 0.22460 0.25858
# Poissons Ratio (z) = 0.25136 0.21564
#
# Static dielectric constant tensor:
#      x y z
#    x 3.860140 0.000000 0.000000 
#    y 0.000000 3.352190 0.000000 
#    z 0.000000 0.000000 3.584920 
# 
# 
# High freq. dielectric constant tensor:
#      x y z
#    x 1.782660 0.000000 0.000000 
#    y 0.000000 1.748420 0.000000 
#    z 0.000000 0.000000 1.769070 
# 
# From -- ./inp_files/7583.got.cif
#   From: 2010.03.12/outbox.cif.g09.slc.cpg/sg44_4_cif.got.tgz:7583.got - 2010.04.14 02:36:11.
