data_PCOD8189395
_publ_section_title
;
Structure prediction by ZEFSAII (Michael W. Deem and Ramdas Pophale) SiO2 
 PCOD8189395
Probable space group: I M M 2
;
_chemical_formula_sum "Si O2"
_cell_formula_units_Z 64
_cell_length_a 9.012876
_cell_length_b 9.342980
_cell_length_c 41.298041
_cell_angle_alpha 90.000000
_cell_angle_beta 90.000000
_cell_angle_gamma 90.000000
_cell_volume 3477.589103
_symmetry_space_group_name_H-M "I M M 2"
_symmetry_group_IT_number 44
_symmetry_cell_setting 'orthorhombic'
loop_
_space_group_symop_operation_xyz
x,y,z
-x,-y,z
-x,y,z
x,-y,z
1/2+x,1/2+y,1/2+z
1/2-x,1/2-y,1/2+z
1/2-x,1/2+y,1/2+z
1/2+x,1/2-y,1/2+z
loop_
_atom_site_type_symbol
_atom_site_label
_atom_site_fract_x
_atom_site_fract_y
_atom_site_fract_z
Si Si1 0.673530 0.665288 0.596770
Si Si2 0.167174 0.670206 0.975567
Si Si3 0.829635 0.830400 0.539716
Si Si4 0.832826 0.829794 0.784482
Si Si5 0.672633 0.166299 0.848527
Si Si6 0.172633 0.833701 0.411522
Si Si7 0.329635 0.169600 0.720333
Si Si8 0.826470 0.665288 0.663278
O O1 0.500000 0.695293 0.599997
O O2 0.707721 0.500000 0.589078
O O3 0.738560 0.760963 0.568491
O O4 0.750000 0.713046 0.630024
O O5 0.169478 0.500000 0.975157
O O6 0.239736 0.727755 0.942469
O O7 0.000000 0.729375 0.978409
O O8 0.261803 0.726347 0.005974
O O9 0.000000 0.781587 0.541433
O O10 0.813691 0.000000 0.542630
O O11 0.760264 0.772245 0.817580
O O12 0.738197 0.773653 0.754075
O O13 0.000000 0.770625 0.781640
O O14 0.830522 0.000000 0.784891
O O15 0.500000 0.194636 0.842123
O O16 0.729640 0.250000 0.880024
O O17 0.706075 0.000000 0.854189
O O18 0.000000 0.805364 0.417926
O O19 0.206074 0.000000 0.405859
O O20 0.500000 0.218412 0.718616
O O21 0.238561 0.239037 0.691557
O O22 0.313690 0.000000 0.717418
O O23 0.792279 0.500000 0.670970
O O24 0.000000 0.695294 0.660052
#
# Coordination Sequence:
#
# PCOD8189395 Si02
#       8
#     8   8   8   8   8   8   8   8
#     4  10  21  37  56  77 103 136 171 206 249 301
#     4   9  17  30  49  72  98 129 164 203 248 296
#     4  10  20  34  54  79 104 132 169 211 253 298
#     4   9  17  30  49  72  98 129 164 203 248 296
#     4   9  17  30  48  69  94 125 161 200 243 293
#     4   9  17  30  48  69  94 125 161 200 243 293
#     4  10  20  34  54  79 104 132 169 211 253 298
#     4  10  21  37  56  77 103 136 171 206 249 301
#
# _framework density 18.403554
#
# number of rings (size 3 to 8) (size 9 to 14) (size 15 to 20)
#    0.000    2.500    0.000    2.250    0.000    7.000 
#    0.000    1.250    0.000    4.500    0.000    0.000 
#    0.000    0.000    0.000    0.000    0.000    0.000 
#
# Total GULP energy -396870.570109 kJ/mol
# GULP energy per Si atom -12402.205316 kJ/mol
# Density = 1.836167 g / cm^3
# Si number density = 18.403554 Si / 1000 Ang^3
#
#
#
# Elastic Constant Matrix: (Units=GPa)
#
#
# Indices 1 2 3 4 5 6 
#
# 1 114.2802 28.6511 75.3542 0.0000 0.0000 0.0000
# 2 28.6511 27.1434 39.1073 0.0000 0.0000 0.0000
# 3 75.3542 39.1073 169.8198 0.0000 0.0000 0.0000
# 4 0.0000 0.0000 0.0000 29.6533 0.0000 0.0000
# 5 0.0000 0.0000 0.0000 0.0000 41.9588 0.0000
# 6 0.0000 0.0000 0.0000 0.0000 0.0000 20.4965
#
#
#
# Elastic Compliance Matrix: (Units=1/GPa)
#
#
# Indices 1 2 3 4 5 6 
#
# 1 0.013549 -0.008440 -0.004069 0.000000 0.000000 0.000000
# 2 -0.008440 0.060392 -0.010162 0.000000 0.000000 0.000000
# 3 -0.004069 -0.010162 0.010034 0.000000 0.000000 0.000000
# 4 0.000000 0.000000 0.000000 0.033723 0.000000 0.000000
# 5 0.000000 0.000000 0.000000 0.000000 0.023833 0.000000
# 6 0.000000 0.000000 0.000000 0.000000 0.000000 0.048789
#
#
# Mechanical properties :
#
#
# Convention : Reuss Voigt Hill
#
# Bulk Modulus (GPa) = 25.88438 66.38541 46.13490
# Shear Modulus (GPa) = 20.11756 29.63046 24.87401
#
# Velocity S-wave (km/s) = 3.30985 4.01688 3.68038
# Velocity P-wave (km/s) = 5.35744 7.59369 6.57139
#
# Compressibility (1/GPa) = 0.03863333
#
# Stress axis : x y z
#
# Youngs Moduli (GPa) = 73.80564 16.55858 99.65908
#
# Poissons Ratio (x) = 0.13975 0.40547
# Poissons Ratio (y) = 0.62291 1.01278
# Poissons Ratio (z) = 0.30028 0.16828
#
# Static dielectric constant tensor:
#      x y z
#    x 3.576810 0.000000 0.000000 
#    y 0.000000 3.069050 0.000000 
#    z 0.000000 0.000000 3.613650 
# 
# 
# High freq. dielectric constant tensor:
#      x y z
#    x 1.726420 0.000000 0.000000 
#    y 0.000000 1.676230 0.000000 
#    z 0.000000 0.000000 1.730100 
# 
# From -- ./inp_files/27200.got.cif
#   From: 2010.03.12/outbox.cif.g09.slc.cpg/sg44_14_cif.got.tgz:27200.got - 2010.04.14 02:36:11.
