data_PCOD8189735
_publ_section_title
;
Structure prediction by ZEFSAII (Michael W. Deem and Ramdas Pophale) SiO2 
 PCOD8189735
Probable space group: I M M 2
;
_chemical_formula_sum "Si O2"
_cell_formula_units_Z 64
_cell_length_a 17.856359
_cell_length_b 13.280931
_cell_length_c 13.689035
_cell_angle_alpha 90.000000
_cell_angle_beta 90.000000
_cell_angle_gamma 90.000000
_cell_volume 3246.341944
_symmetry_space_group_name_H-M "I M M 2"
_symmetry_group_IT_number 44
_symmetry_cell_setting 'orthorhombic'
loop_
_space_group_symop_operation_xyz
x,y,z
-x,-y,z
-x,y,z
x,-y,z
1/2+x,1/2+y,1/2+z
1/2-x,1/2-y,1/2+z
1/2-x,1/2+y,1/2+z
1/2+x,1/2-y,1/2+z
loop_
_atom_site_type_symbol
_atom_site_label
_atom_site_fract_x
_atom_site_fract_y
_atom_site_fract_z
Si Si1 0.777062 0.616053 0.021460
Si Si2 0.085444 0.250198 0.041527
Si Si3 0.913062 0.115565 0.225933
Si Si4 0.585659 0.304701 0.326027
Si Si5 0.223894 0.888035 0.733609
Si Si6 0.086319 0.616733 0.499240
Si Si7 0.911572 0.391014 0.717269
Si Si8 0.815415 0.759735 0.367684
O O1 0.779955 0.500000 0.988528
O O2 0.861551 0.652381 0.044495
O O3 0.726169 0.630201 0.117626
O O4 0.743487 0.684438 0.936361
O O5 0.107858 0.175246 0.127996
O O6 0.000000 0.289283 0.051104
O O7 0.095232 0.186214 0.942122
O O8 0.866571 0.156756 0.316957
O O9 0.000000 0.127875 0.251770
O O10 0.891260 0.000000 0.208325
O O11 0.500000 0.324878 0.293765
O O12 0.637753 0.383913 0.270023
O O13 0.612863 0.192340 0.295170
O O14 0.272077 0.803746 0.786749
O O15 0.254838 0.000000 0.757366
O O16 0.096779 0.500000 0.471675
O O17 0.116964 0.637115 0.608793
O O18 0.133573 0.683445 0.426601
O O19 0.000000 0.648737 0.489272
O O20 0.878143 0.500000 0.749638
O O21 0.000000 0.400813 0.711305
#
# Coordination Sequence:
#
# PCOD8189735 Si02
#       8
#     8   8   8   8   8   8   8   8
#     4  11  24  42  61  90 128 160 199 253 303 356
#     4  10  21  40  63  89 121 161 202 248 302 355
#     4  10  22  41  65  93 121 153 202 256 302 359
#     4  10  20  37  60  86 115 155 204 246 298 361
#     4  11  24  40  58  84 122 160 199 252 303 356
#     4   9  18  33  56  88 121 155 201 252 301 358
#     4   8  15  30  53  82 115 145 180 236 292 340
#     4  12  21  39  64  85 118 164 200 245 306 366
#
# _framework density 19.714497999999999
#
# number of rings (size 3 to 8) (size 9 to 14) (size 15 to 20)
#    0.000    1.875    2.500    2.625    0.000    1.500 
#    0.000    3.125    0.000    1.500    0.000    0.000 
#    0.000    0.000    0.000    0.000    0.000    0.000 
#
# Total GULP energy -396822.090245 kJ/mol
# GULP energy per Si atom -12400.690320 kJ/mol
# Density = 1.966963 g / cm^3
# Si number density = 19.714498 Si / 1000 Ang^3
#
#
#
# Elastic Constant Matrix: (Units=GPa)
#
#
# Indices 1 2 3 4 5 6 
#
# 1 73.2245 35.9115 26.3651 0.0000 0.0000 0.0000
# 2 35.9115 101.0458 40.0065 0.0000 0.0000 0.0000
# 3 26.3651 40.0065 85.7276 0.0000 0.0000 0.0000
# 4 0.0000 0.0000 0.0000 24.6926 0.0000 0.0000
# 5 0.0000 0.0000 0.0000 0.0000 26.3587 0.0000
# 6 0.0000 0.0000 0.0000 0.0000 0.0000 30.6898
#
#
#
# Elastic Compliance Matrix: (Units=1/GPa)
#
#
# Indices 1 2 3 4 5 6 
#
# 1 0.017138 -0.004911 -0.002979 0.000000 0.000000 0.000000
# 2 -0.004911 0.013547 -0.004811 0.000000 0.000000 0.000000
# 3 -0.002979 -0.004811 0.014826 0.000000 0.000000 0.000000
# 4 0.000000 0.000000 0.000000 0.040498 0.000000 0.000000
# 5 0.000000 0.000000 0.000000 0.000000 0.037938 0.000000
# 6 0.000000 0.000000 0.000000 0.000000 0.000000 0.032584
#
#
# Mechanical properties :
#
#
# Convention : Reuss Voigt Hill
#
# Bulk Modulus (GPa) = 49.73143 51.61821 50.67482
# Shear Modulus (GPa) = 26.50593 26.86255 26.68424
#
# Velocity S-wave (km/s) = 3.67071 3.69532 3.68303
# Velocity P-wave (km/s) = 6.57617 6.66685 6.62166
#
# Compressibility (1/GPa) = 0.02010801
#
# Stress axis : x y z
#
# Youngs Moduli (GPa) = 58.35043 73.81705 67.44774
#
# Poissons Ratio (x) = 0.36255 0.20090
# Poissons Ratio (y) = 0.28658 0.32452
# Poissons Ratio (z) = 0.17380 0.35517
#
# Static dielectric constant tensor:
#      x y z
#    x 3.556800 0.000000 0.000000 
#    y 0.000000 3.707120 0.000000 
#    z 0.000000 0.000000 3.637820 
# 
# 
# High freq. dielectric constant tensor:
#      x y z
#    x 1.763390 0.000000 0.000000 
#    y 0.000000 1.766790 0.000000 
#    z 0.000000 0.000000 1.775370 
# 
# From -- ./inp_files/13433.got.cif
#   From: 2010.03.12/outbox.cif.g09.slc.cpg/sg44_7_cif.got.tgz:13433.got - 2010.04.14 02:36:11.
