data_PCOD8189852
_publ_section_title
;
Structure prediction by ZEFSAII (Michael W. Deem and Ramdas Pophale) SiO2 
 PCOD8189852
Probable space group: I M M 2
;
_chemical_formula_sum "Si O2"
_cell_formula_units_Z 40
_cell_length_a 9.150731
_cell_length_b 7.642834
_cell_length_c 29.554122
_cell_angle_alpha 90.000000
_cell_angle_beta 90.000000
_cell_angle_gamma 90.000000
_cell_volume 2066.941940
_symmetry_space_group_name_H-M "I M M 2"
_symmetry_group_IT_number 44
_symmetry_cell_setting 'orthorhombic'
loop_
_space_group_symop_operation_xyz
x,y,z
-x,-y,z
-x,y,z
x,-y,z
1/2+x,1/2+y,1/2+z
1/2-x,1/2-y,1/2+z
1/2-x,1/2+y,1/2+z
1/2+x,1/2-y,1/2+z
loop_
_atom_site_type_symbol
_atom_site_label
_atom_site_fract_x
_atom_site_fract_y
_atom_site_fract_z
Si Si1 0.827015 0.000000 0.051741
Si Si2 0.660656 0.701502 0.306637
Si Si3 0.335819 0.706269 0.894894
Si Si4 0.171392 0.298090 0.219338
Si Si5 0.328667 0.799300 0.484874
Si Si6 0.173044 0.000000 0.152261
O O1 0.775932 0.824322 0.025831
O O2 0.757186 0.000000 0.101954
O O3 0.000000 0.000000 0.055363
O O4 0.500000 0.791393 0.310596
O O5 0.639028 0.500000 0.296554
O O6 0.749306 0.721557 0.352445
O O7 0.749448 0.777940 0.264057
O O8 0.500000 0.783005 0.894784
O O9 0.338371 0.500000 0.891801
O O10 0.255198 0.766578 0.940401
O O11 0.210959 0.500000 0.208076
O O12 0.224231 0.176409 0.177881
O O13 0.000000 0.277297 0.228414
O O14 0.500000 0.777680 0.475077
O O15 0.289773 0.000000 0.497317
O O16 0.000000 0.000000 0.148477
#
# Coordination Sequence:
#
# PCOD8189852 Si02
#       6
#     4   8   8   8   8   4
#     4   9  18  32  53  81 107 135 177 225 270 317
#     4  10  21  35  52  76 106 140 177 218 266 319
#     4  10  21  35  52  76 106 140 177 218 266 319
#     4   9  18  33  52  75 106 140 175 219 267 315
#     4   9  18  33  52  75 106 140 175 219 267 315
#     4   9  18  32  53  81 107 135 177 225 270 317
#
# _framework density 19.352260999999999
#
# number of rings (size 3 to 8) (size 9 to 14) (size 15 to 20)
#    0.000    2.600    0.000    1.200    2.800    3.200 
#    0.000    4.000    0.000    2.400    0.000    5.600 
#    0.000    0.000    0.000    0.000    0.000    0.000 
#
# Total GULP energy -247944.534314 kJ/mol
# GULP energy per Si atom -12397.226716 kJ/mol
# Density = 1.930821 g / cm^3
# Si number density = 19.352261 Si / 1000 Ang^3
#
#
#
# Elastic Constant Matrix: (Units=GPa)
#
#
# Indices 1 2 3 4 5 6 
#
# 1 83.7433 30.8639 59.4394 0.0000 0.0000 0.0000
# 2 30.8639 87.2703 72.8635 0.0000 0.0000 0.0000
# 3 59.4394 72.8635 185.6638 0.0000 0.0000 0.0000
# 4 0.0000 0.0000 0.0000 34.0161 0.0000 0.0000
# 5 0.0000 0.0000 0.0000 0.0000 27.8845 0.0000
# 6 0.0000 0.0000 0.0000 0.0000 0.0000 13.6387
#
#
#
# Elastic Compliance Matrix: (Units=1/GPa)
#
#
# Indices 1 2 3 4 5 6 
#
# 1 0.015687 -0.002015 -0.004231 0.000000 0.000000 0.000000
# 2 -0.002015 0.017302 -0.006145 0.000000 0.000000 0.000000
# 3 -0.004231 -0.006145 0.009152 0.000000 0.000000 0.000000
# 4 0.000000 0.000000 0.000000 0.029398 0.000000 0.000000
# 5 0.000000 0.000000 0.000000 0.000000 0.035862 0.000000
# 6 0.000000 0.000000 0.000000 0.000000 0.000000 0.073321
#
#
# Mechanical properties :
#
#
# Convention : Reuss Voigt Hill
#
# Bulk Modulus (GPa) = 57.60843 75.89011 66.74927
# Shear Modulus (GPa) = 23.66401 28.00856 25.83629
#
# Velocity S-wave (km/s) = 3.50065 3.80847 3.65780
# Velocity P-wave (km/s) = 6.79503 7.65764 7.23919
#
# Compressibility (1/GPa) = 0.01735857
#
# Stress axis : x y z
#
# Youngs Moduli (GPa) = 63.74589 57.79731 109.26189
#
# Poissons Ratio (x) = 0.11647 0.46233
# Poissons Ratio (y) = 0.12845 0.67141
# Poissons Ratio (z) = 0.26973 0.35516
#
# Static dielectric constant tensor:
#      x y z
#    x 3.603350 0.000000 0.000000 
#    y 0.000000 3.657160 0.000000 
#    z 0.000000 0.000000 3.765590 
# 
# 
# High freq. dielectric constant tensor:
#      x y z
#    x 1.731690 0.000000 0.000000 
#    y 0.000000 1.755520 0.000000 
#    z 0.000000 0.000000 1.751620 
# 
# From -- ./inp_files/4615.got.cif
#   From: 2010.03.12/outbox.cif.g09.slc.cpg/sg44_3_cif.got.tgz:4615.got - 2010.04.14 02:36:11.
