data_PCOD8189407
_publ_section_title
;
Structure prediction by ZEFSAII (Michael W. Deem and Ramdas Pophale) SiO2 
 PCOD8189407
Probable space group: I M M 2
;
_chemical_formula_sum "Si O2"
_cell_formula_units_Z 48
_cell_length_a 9.169278
_cell_length_b 9.045408
_cell_length_c 30.847545
_cell_angle_alpha 90.000000
_cell_angle_beta 90.000000
_cell_angle_gamma 90.000000
_cell_volume 2558.491081
_symmetry_space_group_name_H-M "I M M 2"
_symmetry_group_IT_number 44
_symmetry_cell_setting 'orthorhombic'
loop_
_space_group_symop_operation_xyz
x,y,z
-x,-y,z
-x,y,z
x,-y,z
1/2+x,1/2+y,1/2+z
1/2-x,1/2-y,1/2+z
1/2-x,1/2+y,1/2+z
1/2+x,1/2-y,1/2+z
loop_
_atom_site_type_symbol
_atom_site_label
_atom_site_fract_x
_atom_site_fract_y
_atom_site_fract_z
Si Si1 0.671478 0.669892 0.886210
Si Si2 0.173180 0.331467 0.628726
Si Si3 0.826469 0.833349 0.713864
Si Si4 0.331156 0.172769 0.551090
Si Si5 0.668465 0.828087 0.299388
Si Si6 0.167667 0.827165 0.962650
O O1 0.500000 0.691681 0.883082
O O2 0.714269 0.500000 0.895794
O O3 0.740660 0.722677 0.841041
O O4 0.732560 0.772697 0.923738
O O5 0.227770 0.500000 0.626944
O O6 0.233107 0.259035 0.673022
O O7 0.235995 0.241971 0.588754
O O8 0.000000 0.321944 0.626543
O O9 0.769054 0.760719 0.758233
O O10 0.000000 0.830091 0.713778
O O11 0.766529 0.000000 0.710542
O O12 0.500000 0.206611 0.560434
O O13 0.281449 0.244743 0.506007
O O14 0.298417 0.000000 0.548442
O O15 0.500000 0.789975 0.308342
O O16 0.689995 0.000000 0.289139
O O17 0.000000 0.789488 0.951748
O O18 0.191924 0.000000 0.969808
#
# Coordination Sequence:
#
# PCOD8189407 Si02
#       6
#     8   8   8   8   8   8
#     4  10  21  36  54  78 108 140 174 214 262 314
#     4  10  20  34  54  80 109 141 177 216 259 308
#     4   9  17  30  50  76 104 135 175 221 263 305
#     4  10  21  37  57  80 106 137 174 216 262 312
#     4   9  17  31  52  75 100 134 176 219 262 310
#     4  10  21  37  57  79 103 135 176 218 260 310
#
# _framework density 18.761057000000001
#
# number of rings (size 3 to 8) (size 9 to 14) (size 15 to 20)
#    0.000    2.333    0.000    2.500    0.000    7.333 
#    0.000    2.500    0.000    3.000    0.000    0.000 
#    0.000    0.000    0.000    0.000    0.000    0.000 
#
# Total GULP energy -297686.975185 kJ/mol
# GULP energy per Si atom -12403.623966 kJ/mol
# Density = 1.871836 g / cm^3
# Si number density = 18.761057 Si / 1000 Ang^3
#
#
#
# Elastic Constant Matrix: (Units=GPa)
#
#
# Indices 1 2 3 4 5 6 
#
# 1 43.3132 33.3497 46.2288 0.0000 0.0000 0.0000
# 2 33.3497 110.5253 76.8768 0.0000 0.0000 0.0000
# 3 46.2288 76.8768 163.8035 0.0000 0.0000 0.0000
# 4 0.0000 0.0000 0.0000 41.1097 0.0000 0.0000
# 5 0.0000 0.0000 0.0000 0.0000 29.6809 0.0000
# 6 0.0000 0.0000 0.0000 0.0000 0.0000 24.1533
#
#
#
# Elastic Compliance Matrix: (Units=1/GPa)
#
#
# Indices 1 2 3 4 5 6 
#
# 1 0.035159 -0.005504 -0.007340 0.000000 0.000000 0.000000
# 2 -0.005504 0.014294 -0.005155 0.000000 0.000000 0.000000
# 3 -0.007340 -0.005155 0.010596 0.000000 0.000000 0.000000
# 4 0.000000 0.000000 0.000000 0.024325 0.000000 0.000000
# 5 0.000000 0.000000 0.000000 0.000000 0.033692 0.000000
# 6 0.000000 0.000000 0.000000 0.000000 0.000000 0.041402
#
#
# Mechanical properties :
#
#
# Convention : Reuss Voigt Hill
#
# Bulk Modulus (GPa) = 41.57706 70.06141 55.81923
# Shear Modulus (GPa) = 24.57212 29.73456 27.15334
#
# Velocity S-wave (km/s) = 3.62296 3.98541 3.80850
# Velocity P-wave (km/s) = 6.30163 7.65527 7.01120
#
# Compressibility (1/GPa) = 0.02405173
#
# Stress axis : x y z
#
# Youngs Moduli (GPa) = 28.44220 69.95825 94.37695
#
# Poissons Ratio (x) = 0.38503 0.69269
# Poissons Ratio (y) = 0.15654 0.48655
# Poissons Ratio (z) = 0.20875 0.36066
#
# Static dielectric constant tensor:
#      x y z
#    x 3.191830 0.000000 0.000000 
#    y 0.000000 3.576570 0.000000 
#    z 0.000000 0.000000 3.599660 
# 
# 
# High freq. dielectric constant tensor:
#      x y z
#    x 1.701130 0.000000 0.000000 
#    y 0.000000 1.737950 0.000000 
#    z 0.000000 0.000000 1.743580 
# 
# From -- ./inp_files/26322.got.cif
#   From: 2010.03.12/outbox.cif.g09.slc.cpg/sg44_14_cif.got.tgz:26322.got - 2010.04.14 02:36:11.
