data_PCOD8189290
_publ_section_title
;
Structure prediction by ZEFSAII (Michael W. Deem and Ramdas Pophale) SiO2 
 PCOD8189290
Probable space group: I M M 2
;
_chemical_formula_sum "Si O2"
_cell_formula_units_Z 64
_cell_length_a 9.095871
_cell_length_b 16.085707
_cell_length_c 22.982993
_cell_angle_alpha 90.000000
_cell_angle_beta 90.000000
_cell_angle_gamma 90.000000
_cell_volume 3362.722510
_symmetry_space_group_name_H-M "I M M 2"
_symmetry_group_IT_number 44
_symmetry_cell_setting 'orthorhombic'
loop_
_space_group_symop_operation_xyz
x,y,z
-x,-y,z
-x,y,z
x,-y,z
1/2+x,1/2+y,1/2+z
1/2-x,1/2-y,1/2+z
1/2-x,1/2+y,1/2+z
1/2+x,1/2-y,1/2+z
loop_
_atom_site_type_symbol
_atom_site_label
_atom_site_fract_x
_atom_site_fract_y
_atom_site_fract_z
Si Si1 0.827865 0.762505 0.650750
Si Si2 0.334238 0.091988 0.593935
Si Si3 0.164090 0.876543 0.480522
Si Si4 0.840586 0.695447 0.526785
Si Si5 0.171803 0.089193 0.942807
Si Si6 0.173274 0.902669 0.813894
Si Si7 0.674132 0.593305 0.850385
Si Si8 0.675598 0.258227 0.765790
O O1 0.766072 0.854125 0.636960
O O2 0.799851 0.706708 0.593990
O O3 0.739119 0.718045 0.702503
O O4 0.000000 0.770480 0.665737
O O5 0.500000 0.128672 0.591038
O O6 0.270585 0.084816 0.528685
O O7 0.336110 0.000000 0.620983
O O8 0.152694 0.779451 0.490776
O O9 0.231107 0.893639 0.416430
O O10 0.000000 0.915855 0.485799
O O11 0.714046 0.643531 0.497447
O O12 0.000000 0.651561 0.521616
O O13 0.219248 0.122782 0.879624
O O14 0.000000 0.079338 0.942337
O O15 0.247112 0.000000 0.951953
O O16 0.262317 0.834891 0.776801
O O17 0.000000 0.890901 0.802533
O O18 0.215930 0.000000 0.800883
O O19 0.500000 0.599331 0.849924
O O20 0.723603 0.500000 0.829158
O O21 0.733612 0.668633 0.809319
O O22 0.500000 0.254203 0.765008
#
# Coordination Sequence:
#
# PCOD8189290 Si02
#       8
#     8   8   8   8   8   8   8   8
#     4  10  22  39  55  71  97 136 179 216 256 314
#     4  10  20  33  51  79 111 136 164 208 257 305
#     4   9  17  31  53  79 107 139 172 205 249 312
#     4   9  18  32  51  76 102 130 168 214 263 311
#     4   9  18  32  51  77 106 135 169 208 254 312
#     4   9  19  36  56  79 110 146 178 209 256 322
#     4   9  18  33  54  80 109 142 179 217 261 316
#     4  11  22  36  56  80 106 138 180 229 270 304
#
# _framework density 19.032198000000001
#
# number of rings (size 3 to 8) (size 9 to 14) (size 15 to 20)
#    0.000    2.500    0.000    3.750    0.000    6.500 
#    0.000    3.125    0.000    5.250    0.000    0.000 
#    0.000    0.000    0.000    0.000    0.000    0.000 
#
# Total GULP energy -396512.410182 kJ/mol
# GULP energy per Si atom -12391.012818 kJ/mol
# Density = 1.898888 g / cm^3
# Si number density = 19.032198 Si / 1000 Ang^3
#
#
#
# Elastic Constant Matrix: (Units=GPa)
#
#
# Indices 1 2 3 4 5 6 
#
# 1 55.4973 22.2863 24.5470 0.0000 0.0000 0.0000
# 2 22.2863 69.7115 41.6934 0.0000 0.0000 0.0000
# 3 24.5470 41.6934 97.4284 0.0000 0.0000 0.0000
# 4 0.0000 0.0000 0.0000 11.9630 0.0000 0.0000
# 5 0.0000 0.0000 0.0000 0.0000 32.4603 0.0000
# 6 0.0000 0.0000 0.0000 0.0000 0.0000 21.7228
#
#
#
# Elastic Compliance Matrix: (Units=1/GPa)
#
#
# Indices 1 2 3 4 5 6 
#
# 1 0.021442 -0.004870 -0.003318 0.000000 0.000000 0.000000
# 2 -0.004870 0.020386 -0.007497 0.000000 0.000000 0.000000
# 3 -0.003318 -0.007497 0.014308 0.000000 0.000000 0.000000
# 4 0.000000 0.000000 0.000000 0.083591 0.000000 0.000000
# 5 0.000000 0.000000 0.000000 0.000000 0.030807 0.000000
# 6 0.000000 0.000000 0.000000 0.000000 0.000000 0.046035
#
#
# Mechanical properties :
#
#
# Convention : Reuss Voigt Hill
#
# Bulk Modulus (GPa) = 40.37878 44.41006 42.39442
# Shear Modulus (GPa) = 19.51643 22.16992 20.84318
#
# Velocity S-wave (km/s) = 3.20573 3.41671 3.31290
# Velocity P-wave (km/s) = 5.91307 6.24100 6.07924
#
# Compressibility (1/GPa) = 0.02476548
#
# Stress axis : x y z
#
# Youngs Moduli (GPa) = 46.63664 49.05440 69.89064
#
# Poissons Ratio (x) = 0.23892 0.23191
# Poissons Ratio (y) = 0.22714 0.52395
# Poissons Ratio (z) = 0.15475 0.36774
#
# Static dielectric constant tensor:
#      x y z
#    x 3.385470 0.000000 0.000000 
#    y 0.000000 3.538950 0.000000 
#    z 0.000000 0.000000 3.535290 
# 
# 
# High freq. dielectric constant tensor:
#      x y z
#    x 1.725540 0.000000 0.000000 
#    y 0.000000 1.732480 0.000000 
#    z 0.000000 0.000000 1.738720 
# 
# From -- ./inp_files/23323.got.cif
#   From: 2010.03.12/outbox.cif.g09.slc.cpg/sg44_12_cif.got.tgz:23323.got - 2010.04.14 02:36:11.
