data_PCOD8189207
_publ_section_title
;
Structure prediction by ZEFSAII (Michael W. Deem and Ramdas Pophale) SiO2 
 PCOD8189207
Probable space group: I M M 2
;
_chemical_formula_sum "Si O2"
_cell_formula_units_Z 56
_cell_length_a 9.062798
_cell_length_b 18.324013
_cell_length_c 20.647806
_cell_angle_alpha 90.000000
_cell_angle_beta 90.000000
_cell_angle_gamma 90.000000
_cell_volume 3428.915655
_symmetry_space_group_name_H-M "I M M 2"
_symmetry_group_IT_number 44
_symmetry_cell_setting 'orthorhombic'
loop_
_space_group_symop_operation_xyz
x,y,z
-x,-y,z
-x,y,z
x,-y,z
1/2+x,1/2+y,1/2+z
1/2-x,1/2-y,1/2+z
1/2-x,1/2+y,1/2+z
1/2+x,1/2-y,1/2+z
loop_
_atom_site_type_symbol
_atom_site_label
_atom_site_fract_x
_atom_site_fract_y
_atom_site_fract_z
Si Si1 0.827346 0.582895 0.704330
Si Si2 0.336834 0.217568 0.130188
Si Si3 0.671394 0.914121 0.443319
Si Si4 0.327158 0.154787 0.577650
Si Si5 0.326272 0.083468 0.710647
Si Si6 0.824652 0.156345 0.323285
Si Si7 0.833909 0.209940 0.770225
O O1 0.794127 0.500000 0.684191
O O2 0.783051 0.634078 0.642831
O O3 0.733388 0.602851 0.767300
O O4 0.000000 0.595134 0.721560
O O5 0.500000 0.218236 0.099961
O O6 0.234414 0.262387 0.081023
O O7 0.334710 0.254529 0.200028
O O8 0.500000 0.894842 0.430311
O O9 0.725998 0.884944 0.512822
O O10 0.775237 0.876349 0.391297
O O11 0.696731 0.000000 0.441315
O O12 0.500000 0.162130 0.578487
O O13 0.273049 0.106991 0.638796
O O14 0.500000 0.095781 0.718018
O O15 0.244374 0.131112 0.765436
O O16 0.281144 0.000000 0.721786
O O17 0.757770 0.237665 0.317863
O O18 0.000000 0.161002 0.319263
O O19 0.000000 0.200289 0.797009
#
# Coordination Sequence:
#
# PCOD8189207 Si02
#       7
#     8   8   8   8   8   8   8
#     4   9  17  30  47  66  90 120 150 180 219 268
#     4   8  15  27  43  63  86 113 145 182 222 261
#     4  10  20  33  47  63  87 121 156 184 214 259
#     4   9  17  29  45  64  88 121 155 182 213 258
#     4   9  16  27  45  70  97 120 145 183 227 264
#     4  11  21  31  44  64  90 118 150 188 228 265
#     4   9  17  30  46  63  86 118 153 184 220 268
#
# _framework density 16.331693000000001
#
# number of rings (size 3 to 8) (size 9 to 14) (size 15 to 20)
#    0.000    2.714    0.000    3.429    0.000    8.286 
#    0.000    0.000    0.000    2.571    0.000    1.000 
#    0.000    3.429    0.000    0.000    0.000    0.000 
#
# Total GULP energy -347113.916869 kJ/mol
# GULP energy per Si atom -12396.925602 kJ/mol
# Density = 1.629452 g / cm^3
# Si number density = 16.331693 Si / 1000 Ang^3
#
#
#
# Elastic Constant Matrix: (Units=GPa)
#
#
# Indices 1 2 3 4 5 6 
#
# 1 69.4421 51.0395 34.2089 0.0000 0.0000 0.0000
# 2 51.0395 142.2702 46.8598 0.0000 0.0000 0.0000
# 3 34.2089 46.8598 52.4759 0.0000 0.0000 0.0000
# 4 0.0000 0.0000 0.0000 25.3875 0.0000 0.0000
# 5 0.0000 0.0000 0.0000 0.0000 8.0170 0.0000
# 6 0.0000 0.0000 0.0000 0.0000 0.0000 28.5957
#
#
#
# Elastic Compliance Matrix: (Units=1/GPa)
#
#
# Indices 1 2 3 4 5 6 
#
# 1 0.023277 -0.004750 -0.010933 0.000000 0.000000 0.000000
# 2 -0.004750 0.010927 -0.006661 0.000000 0.000000 0.000000
# 3 -0.010933 -0.006661 0.032132 0.000000 0.000000 0.000000
# 4 0.000000 0.000000 0.000000 0.039389 0.000000 0.000000
# 5 0.000000 0.000000 0.000000 0.000000 0.124735 0.000000
# 6 0.000000 0.000000 0.000000 0.000000 0.000000 0.034970
#
#
# Mechanical properties :
#
#
# Convention : Reuss Voigt Hill
#
# Bulk Modulus (GPa) = 46.19311 58.71162 52.45237
# Shear Modulus (GPa) = 15.75624 21.20539 18.48081
#
# Velocity S-wave (km/s) = 3.10944 3.60727 3.36756
# Velocity P-wave (km/s) = 6.42162 7.30598 6.87803
#
# Compressibility (1/GPa) = 0.02164825
#
# Stress axis : x y z
#
# Youngs Moduli (GPa) = 42.96011 91.51812 31.12186
#
# Poissons Ratio (x) = 0.43469 0.34026
# Poissons Ratio (y) = 0.20405 0.20730
# Poissons Ratio (z) = 0.46969 0.60961
#
# Static dielectric constant tensor:
#      x y z
#    x 3.123720 0.000000 0.000000 
#    y 0.000000 3.366570 0.000000 
#    z 0.000000 0.000000 2.857660 
# 
# 
# High freq. dielectric constant tensor:
#      x y z
#    x 1.627350 0.000000 0.000000 
#    y 0.000000 1.634560 0.000000 
#    z 0.000000 0.000000 1.585250 
# 
# From -- ./inp_files/20676.got.cif
#   From: 2010.03.12/outbox.cif.g09.slc.cpg/sg44_11_cif.got.tgz:20676.got - 2010.04.14 02:36:11.
