data_PCOD8189283
_publ_section_title
;
Structure prediction by ZEFSAII (Michael W. Deem and Ramdas Pophale) SiO2 
 PCOD8189283
Probable space group: I M M 2
;
_chemical_formula_sum "Si O2"
_cell_formula_units_Z 52
_cell_length_a 7.674853
_cell_length_b 14.223490
_cell_length_c 26.633910
_cell_angle_alpha 90.000000
_cell_angle_beta 90.000000
_cell_angle_gamma 90.000000
_cell_volume 2907.442708
_symmetry_space_group_name_H-M "I M M 2"
_symmetry_group_IT_number 44
_symmetry_cell_setting 'orthorhombic'
loop_
_space_group_symop_operation_xyz
x,y,z
-x,-y,z
-x,y,z
x,-y,z
1/2+x,1/2+y,1/2+z
1/2-x,1/2-y,1/2+z
1/2-x,1/2+y,1/2+z
1/2+x,1/2-y,1/2+z
loop_
_atom_site_type_symbol
_atom_site_label
_atom_site_fract_x
_atom_site_fract_y
_atom_site_fract_z
Si Si1 0.699416 0.889771 0.966330
Si Si2 0.807852 0.105719 0.404124
Si Si3 0.000000 0.390343 0.977581
Si Si4 0.299784 0.108156 0.210342
Si Si5 0.794961 0.604247 0.351866
Si Si6 0.000000 0.794648 0.028381
Si Si7 0.000000 0.108364 0.132751
Si Si8 0.803565 0.710295 0.809661
O O1 0.500000 0.859282 0.977135
O O2 0.750220 0.865759 0.908930
O O3 0.826223 0.834289 0.002903
O O4 0.722057 0.000000 0.976290
O O5 0.669249 0.137511 0.445339
O O6 0.810072 0.169297 0.354713
O O7 0.000000 0.113312 0.428585
O O8 0.764183 0.000000 0.386895
O O9 0.000000 0.500000 0.994684
O O10 0.000000 0.319597 0.024888
O O11 0.500000 0.130184 0.194928
O O12 0.235253 0.173611 0.256167
O O13 0.174779 0.130444 0.163851
O O14 0.279107 0.000000 0.227254
O O15 0.720216 0.500000 0.340863
O O16 0.707822 0.676445 0.312705
O O17 0.000000 0.604053 0.344066
O O18 0.000000 0.821516 0.086308
O O19 0.000000 0.000000 0.114648
O O20 0.000000 0.674588 0.816649
#
# Coordination Sequence:
#
# PCOD8189283 Si02
#       8
#     8   8   4   8   8   4   4   8
#     4   9  19  34  51  77 112 143 173 215 264 319
#     4  10  20  33  51  77 111 145 173 208 256 312
#     4  10  22  38  52  76 114 144 178 223 259 307
#     4   9  20  37  54  75 106 136 165 211 267 318
#     4   9  19  33  47  70 108 147 181 214 251 304
#     4  12  22  34  58  82 100 140 186 222 268 320
#     4  10  22  38  56  80 102 128 174 225 271 319
#     4  11  20  30  50  78 104 140 181 214 255 315
#
# _framework density 17.885133
#
# number of rings (size 3 to 8) (size 9 to 14) (size 15 to 20)
#    0.000    2.154    0.769    3.462    3.231    3.385 
#    0.000    1.538    0.000    0.923    0.000    0.000 
#    0.000    0.000    0.000    0.000    0.000    0.000 
#
# Total GULP energy -322392.503676 kJ/mol
# GULP energy per Si atom -12399.711680 kJ/mol
# Density = 1.784443 g / cm^3
# Si number density = 17.885133 Si / 1000 Ang^3
#
#
#
# Elastic Constant Matrix: (Units=GPa)
#
#
# Indices 1 2 3 4 5 6 
#
# 1 90.4559 40.0453 45.7465 0.0000 0.0000 0.0000
# 2 40.0453 98.1947 74.2800 0.0000 0.0000 0.0000
# 3 45.7465 74.2800 106.9653 0.0000 0.0000 0.0000
# 4 0.0000 0.0000 0.0000 30.6776 0.0000 0.0000
# 5 0.0000 0.0000 0.0000 0.0000 18.1682 0.0000
# 6 0.0000 0.0000 0.0000 0.0000 0.0000 14.0109
#
#
#
# Elastic Compliance Matrix: (Units=1/GPa)
#
#
# Indices 1 2 3 4 5 6 
#
# 1 0.014405 -0.002558 -0.004384 0.000000 0.000000 0.000000
# 2 -0.002558 0.021908 -0.014119 0.000000 0.000000 0.000000
# 3 -0.004384 -0.014119 0.021029 0.000000 0.000000 0.000000
# 4 0.000000 0.000000 0.000000 0.032597 0.000000 0.000000
# 5 0.000000 0.000000 0.000000 0.000000 0.055041 0.000000
# 6 0.000000 0.000000 0.000000 0.000000 0.000000 0.071373
#
#
# Mechanical properties :
#
#
# Convention : Reuss Voigt Hill
#
# Bulk Modulus (GPa) = 65.71143 68.41771 67.06457
# Shear Modulus (GPa) = 18.97182 21.60760 20.28971
#
# Velocity S-wave (km/s) = 3.26046 3.47959 3.37181
# Velocity P-wave (km/s) = 7.14106 7.38108 7.26206
#
# Compressibility (1/GPa) = 0.01521805
#
# Stress axis : x y z
#
# Youngs Moduli (GPa) = 69.42124 45.64586 47.55381
#
# Poissons Ratio (x) = 0.11676 0.20849
# Poissons Ratio (y) = 0.17758 0.67143
# Poissons Ratio (z) = 0.30436 0.64449
#
# Static dielectric constant tensor:
#      x y z
#    x 3.453720 0.000000 0.000000 
#    y 0.000000 3.486260 0.000000 
#    z 0.000000 0.000000 2.964650 
# 
# 
# High freq. dielectric constant tensor:
#      x y z
#    x 1.708860 0.000000 0.000000 
#    y 0.000000 1.692730 0.000000 
#    z 0.000000 0.000000 1.645000 
# 
# From -- ./inp_files/22985.got.cif
#   From: 2010.03.12/outbox.cif.g09.slc.cpg/sg44_12_cif.got.tgz:22985.got - 2010.04.14 02:36:11.
