data_PCOD8189513
_publ_section_title
;
Structure prediction by ZEFSAII (Michael W. Deem and Ramdas Pophale) SiO2 
 PCOD8189513
Probable space group: I M M 2
;
_chemical_formula_sum "Si O2"
_cell_formula_units_Z 56
_cell_length_a 9.165357
_cell_length_b 14.245456
_cell_length_c 22.676087
_cell_angle_alpha 90.000000
_cell_angle_beta 90.000000
_cell_angle_gamma 90.000000
_cell_volume 2960.696267
_symmetry_space_group_name_H-M "I M M 2"
_symmetry_group_IT_number 44
_symmetry_cell_setting 'orthorhombic'
loop_
_space_group_symop_operation_xyz
x,y,z
-x,-y,z
-x,y,z
x,-y,z
1/2+x,1/2+y,1/2+z
1/2-x,1/2-y,1/2+z
1/2-x,1/2+y,1/2+z
1/2+x,1/2-y,1/2+z
loop_
_atom_site_type_symbol
_atom_site_label
_atom_site_fract_x
_atom_site_fract_y
_atom_site_fract_z
Si Si1 0.837579 0.854106 0.520620
Si Si2 0.170447 0.890165 0.299061
Si Si3 0.666708 0.898938 0.631479
Si Si4 0.172802 0.299861 0.908406
Si Si5 0.161600 0.355572 0.564797
Si Si6 0.833581 0.101156 0.954269
Si Si7 0.170754 0.800223 0.175680
O O1 0.759539 0.911553 0.572047
O O2 0.743437 0.860545 0.460978
O O3 0.848165 0.749333 0.542667
O O4 0.000000 0.894820 0.508642
O O5 0.264728 0.838233 0.347873
O O6 0.217783 0.840810 0.238420
O O7 0.000000 0.874779 0.312284
O O8 0.209412 0.000000 0.296410
O O9 0.500000 0.881641 0.612295
O O10 0.716320 0.810693 0.671890
O O11 0.683024 0.000000 0.665358
O O12 0.218241 0.189235 0.914374
O O13 0.000000 0.313912 0.909582
O O14 0.244545 0.412500 0.514483
O O15 0.247065 0.361189 0.626416
O O16 0.000000 0.397949 0.573967
O O17 0.000000 0.120403 0.972673
O O18 0.817839 0.000000 0.920416
O O19 0.000000 0.814023 0.165028
#
# Coordination Sequence:
#
# PCOD8189513 Si02
#       7
#     8   8   8   8   8   8   8
#     4   9  17  30  49  73 103 136 166 200 245 295
#     4  10  22  39  56  73  96 131 174 216 258 305
#     4   9  17  30  50  76 104 133 166 205 250 303
#     4  10  20  35  55  77 102 133 171 215 257 298
#     4   9  17  29  48  76 106 133 164 204 247 288
#     4   9  18  33  53  77 106 139 170 200 245 309
#     4   9  18  34  53  72  99 135 172 209 252 304
#
# _framework density 18.914470000000001
#
# number of rings (size 3 to 8) (size 9 to 14) (size 15 to 20)
#    0.000    2.714    0.000    1.286    0.000    6.571 
#    0.000    2.143    0.000    0.857    0.000    0.000 
#    0.000    0.000    0.000    0.000    0.000    0.000 
#
# Total GULP energy -346996.871086 kJ/mol
# GULP energy per Si atom -12392.745396 kJ/mol
# Density = 1.887142 g / cm^3
# Si number density = 18.914470 Si / 1000 Ang^3
#
#
#
# Elastic Constant Matrix: (Units=GPa)
#
#
# Indices 1 2 3 4 5 6 
#
# 1 87.1896 37.5641 59.6184 0.0000 0.0000 0.0000
# 2 37.5641 118.5258 56.1427 0.0000 0.0000 0.0000
# 3 59.6184 56.1427 128.3903 0.0000 0.0000 0.0000
# 4 0.0000 0.0000 0.0000 19.5843 0.0000 0.0000
# 5 0.0000 0.0000 0.0000 0.0000 33.0957 0.0000
# 6 0.0000 0.0000 0.0000 0.0000 0.0000 11.4509
#
#
#
# Elastic Compliance Matrix: (Units=1/GPa)
#
#
# Indices 1 2 3 4 5 6 
#
# 1 0.017212 -0.002105 -0.007072 0.000000 0.000000 0.000000
# 2 -0.002105 0.010899 -0.003788 0.000000 0.000000 0.000000
# 3 -0.007072 -0.003788 0.012729 0.000000 0.000000 0.000000
# 4 0.000000 0.000000 0.000000 0.051061 0.000000 0.000000
# 5 0.000000 0.000000 0.000000 0.000000 0.030215 0.000000
# 6 0.000000 0.000000 0.000000 0.000000 0.000000 0.087329
#
#
# Mechanical properties :
#
#
# Convention : Reuss Voigt Hill
#
# Bulk Modulus (GPa) = 67.07318 71.19513 69.13416
# Shear Modulus (GPa) = 20.80342 24.87822 22.84082
#
# Velocity S-wave (km/s) = 3.32002 3.63064 3.47880
# Velocity P-wave (km/s) = 7.08767 7.43624 7.26405
#
# Compressibility (1/GPa) = 0.01490909
#
# Stress axis : x y z
#
# Youngs Moduli (GPa) = 58.09984 91.75546 78.56047
#
# Poissons Ratio (x) = 0.19316 0.55556
# Poissons Ratio (y) = 0.12231 0.29760
# Poissons Ratio (z) = 0.41087 0.34759
#
# Static dielectric constant tensor:
#      x y z
#    x 3.679490 0.000000 0.000000 
#    y 0.000000 3.610100 0.000000 
#    z 0.000000 0.000000 3.268950 
# 
# 
# High freq. dielectric constant tensor:
#      x y z
#    x 1.737050 0.000000 0.000000 
#    y 0.000000 1.745700 0.000000 
#    z 0.000000 0.000000 1.703410 
# 
# From -- ./inp_files/23009.got.cif
#   From: 2010.03.12/outbox.cif.g09.slc.cpg/sg44_12_cif.got.tgz:23009.got - 2010.04.14 02:36:11.
