data_PCOD8189867
_publ_section_title
;
Structure prediction by ZEFSAII (Michael W. Deem and Ramdas Pophale) SiO2 
 PCOD8189867
Probable space group: I M M 2
;
_chemical_formula_sum "Si O2"
_cell_formula_units_Z 40
_cell_length_a 29.659393
_cell_length_b 8.513792
_cell_length_c 7.662137
_cell_angle_alpha 90.000000
_cell_angle_beta 90.000000
_cell_angle_gamma 90.000000
_cell_volume 1934.796118
_symmetry_space_group_name_H-M "I M M 2"
_symmetry_group_IT_number 44
_symmetry_cell_setting 'orthorhombic'
loop_
_space_group_symop_operation_xyz
x,y,z
-x,-y,z
-x,y,z
x,-y,z
1/2+x,1/2+y,1/2+z
1/2-x,1/2-y,1/2+z
1/2-x,1/2+y,1/2+z
1/2+x,1/2-y,1/2+z
loop_
_atom_site_type_symbol
_atom_site_label
_atom_site_fract_x
_atom_site_fract_y
_atom_site_fract_z
Si Si1 0.947939 0.316246 0.306980
Si Si2 0.297090 0.679454 0.141073
Si Si3 0.388521 0.683586 0.514890
Si Si4 0.111984 0.683394 0.629814
Si Si5 0.798501 0.683882 0.006797
O O1 0.939634 0.500000 0.277658
O O2 0.930973 0.225836 0.135310
O O3 0.923066 0.258674 0.483477
O O4 0.000000 0.274826 0.332027
O O5 0.302470 0.500000 0.083695
O O6 0.337685 0.777909 0.053368
O O7 0.303158 0.700551 0.344846
O O8 0.246638 0.741047 0.102991
O O9 0.379141 0.500000 0.522132
O O10 0.398220 0.731882 0.313807
O O11 0.345557 0.776653 0.603649
O O12 0.107896 0.500000 0.665728
O O13 0.796033 0.500000 0.957509
#
# Coordination Sequence:
#
# PCOD8189867 Si02
#       5
#     8   8   8   8   8
#     4  10  23  43  66  91 118 156 205 251 302 363
#     4  10  21  35  54  83 116 153 196 242 295 351
#     4  11  23  39  61  89 124 160 198 248 304 357
#     4  10  21  39  63  88 119 159 202 249 301 357
#     4  10  21  36  55  82 116 157 200 238 291 355
#
# _framework density 20.674012999999999
#
# number of rings (size 3 to 8) (size 9 to 14) (size 15 to 20)
#    0.000    1.800    0.000    6.000    2.800    6.000 
#    0.000    2.000    0.000    0.000    0.000    0.000 
#    0.000    0.000    0.000    0.000    0.000    0.000 
#
# Total GULP energy -247881.861236 kJ/mol
# GULP energy per Si atom -12394.093062 kJ/mol
# Density = 2.062696 g / cm^3
# Si number density = 20.674013 Si / 1000 Ang^3
#
#
#
# Elastic Constant Matrix: (Units=GPa)
#
#
# Indices 1 2 3 4 5 6 
#
# 1 142.6321 38.6382 55.8962 0.0000 0.0000 0.0000
# 2 38.6382 74.7633 35.0667 0.0000 0.0000 0.0000
# 3 55.8962 35.0667 82.9762 0.0000 0.0000 0.0000
# 4 0.0000 0.0000 0.0000 22.1640 0.0000 0.0000
# 5 0.0000 0.0000 0.0000 0.0000 37.7019 0.0000
# 6 0.0000 0.0000 0.0000 0.0000 0.0000 32.3674
#
#
#
# Elastic Compliance Matrix: (Units=1/GPa)
#
#
# Indices 1 2 3 4 5 6 
#
# 1 0.009880 -0.002475 -0.005610 0.000000 0.000000 0.000000
# 2 -0.002475 0.017302 -0.005645 0.000000 0.000000 0.000000
# 3 -0.005610 -0.005645 0.018216 0.000000 0.000000 0.000000
# 4 0.000000 0.000000 0.000000 0.045118 0.000000 0.000000
# 5 0.000000 0.000000 0.000000 0.000000 0.026524 0.000000
# 6 0.000000 0.000000 0.000000 0.000000 0.000000 0.030895
#
#
# Mechanical properties :
#
#
# Convention : Reuss Voigt Hill
#
# Bulk Modulus (GPa) = 55.74318 62.17488 58.95903
# Shear Modulus (GPa) = 27.56733 29.83134 28.69934
#
# Velocity S-wave (km/s) = 3.65558 3.80273 3.72988
# Velocity P-wave (km/s) = 6.69620 7.02995 6.86510
#
# Compressibility (1/GPa) = 0.01793941
#
# Stress axis : x y z
#
# Youngs Moduli (GPa) = 101.21672 57.79588 54.89654
#
# Poissons Ratio (x) = 0.14304 0.30794
# Poissons Ratio (y) = 0.25050 0.30989
# Poissons Ratio (z) = 0.56778 0.32626
#
# Static dielectric constant tensor:
#      x y z
#    x 4.368570 0.000000 0.000000 
#    y 0.000000 3.569420 0.000000 
#    z 0.000000 0.000000 3.601640 
# 
# 
# High freq. dielectric constant tensor:
#      x y z
#    x 1.821320 0.000000 0.000000 
#    y 0.000000 1.806920 0.000000 
#    z 0.000000 0.000000 1.795070 
# 
# From -- ./inp_files/4432.got.cif
#   From: 2010.03.12/outbox.cif.g09.slc.cpg/sg44_3_cif.got.tgz:4432.got - 2010.04.14 02:36:11.
