data_PCOD8189564
_publ_section_title
;
Structure prediction by ZEFSAII (Michael W. Deem and Ramdas Pophale) SiO2 
 PCOD8189564
Probable space group: I M M 2
;
_chemical_formula_sum "Si O2"
_cell_formula_units_Z 64
_cell_length_a 18.275183
_cell_length_b 8.888995
_cell_length_c 20.612424
_cell_angle_alpha 90.000000
_cell_angle_beta 90.000000
_cell_angle_gamma 90.000000
_cell_volume 3348.447266
_symmetry_space_group_name_H-M "I M M 2"
_symmetry_group_IT_number 44
_symmetry_cell_setting 'orthorhombic'
loop_
_space_group_symop_operation_xyz
x,y,z
-x,-y,z
-x,y,z
x,-y,z
1/2+x,1/2+y,1/2+z
1/2-x,1/2-y,1/2+z
1/2-x,1/2+y,1/2+z
1/2+x,1/2-y,1/2+z
loop_
_atom_site_type_symbol
_atom_site_label
_atom_site_fract_x
_atom_site_fract_y
_atom_site_fract_z
Si Si1 0.585175 0.326983 0.559710
Si Si2 0.656498 0.823305 0.438976
Si Si3 0.833646 0.326579 0.176042
Si Si4 0.418401 0.823506 0.057566
Si Si5 0.327389 0.673607 0.313825
Si Si6 0.160653 0.168670 0.671613
Si Si7 0.325706 0.326760 0.947334
Si Si8 0.175294 0.826646 0.303658
O O1 0.500000 0.304406 0.573080
O O2 0.604702 0.500000 0.544933
O O3 0.607996 0.224407 0.499577
O O4 0.627607 0.275376 0.623304
O O5 0.626115 0.731777 0.375751
O O6 0.740818 0.778097 0.452194
O O7 0.647706 0.000000 0.426645
O O8 0.854781 0.500000 0.165595
O O9 0.747156 0.299433 0.170740
O O10 0.861519 0.275050 0.247610
O O11 0.500000 0.753515 0.054623
O O12 0.380848 0.782219 0.125303
O O13 0.422821 0.000000 0.053822
O O14 0.371685 0.769760 0.996990
O O15 0.302249 0.500000 0.323219
O O16 0.370127 0.688205 0.245253
O O17 0.259821 0.786521 0.310752
O O18 0.145684 0.000000 0.646503
O O19 0.332860 0.500000 0.967256
O O20 0.359127 0.298815 0.875135
O O21 0.167700 0.000000 0.283125
#
# Coordination Sequence:
#
# PCOD8189564 Si02
#       8
#     8   8   8   8   8   8   8   8
#     4  11  24  39  54  76 108 145 184 223 264 316
#     4  10  20  35  57  84 110 137 175 220 267 321
#     4  10  20  35  57  84 110 137 175 220 267 321
#     4  11  24  37  50  74 106 139 178 221 262 308
#     4   9  17  31  53  82 111 137 172 218 266 316
#     4   9  19  35  56  81 106 136 174 214 259 315
#     4   9  19  35  56  81 106 136 174 214 259 315
#     4   9  17  31  53  82 111 137 172 218 266 316
#
# _framework density 19.113336
#
# number of rings (size 3 to 8) (size 9 to 14) (size 15 to 20)
#    0.000    2.250    0.000    4.500    0.000   11.000 
#    0.000    1.250    0.000    1.500    0.000    0.000 
#    0.000    0.000    0.000    0.000    0.000    0.000 
#
# Total GULP energy -396714.001601 kJ/mol
# GULP energy per Si atom -12397.312550 kJ/mol
# Density = 1.906983 g / cm^3
# Si number density = 19.113336 Si / 1000 Ang^3
#
#
#
# Elastic Constant Matrix: (Units=GPa)
#
#
# Indices 1 2 3 4 5 6 
#
# 1 35.0405 29.8141 22.6861 0.0000 0.0000 0.0000
# 2 29.8141 74.5395 40.1889 0.0000 0.0000 0.0000
# 3 22.6861 40.1889 121.6430 0.0000 0.0000 0.0000
# 4 0.0000 0.0000 0.0000 39.8695 0.0000 0.0000
# 5 0.0000 0.0000 0.0000 0.0000 -9.3935 0.0000
# 6 0.0000 0.0000 0.0000 0.0000 0.0000 22.6280
#
#
#
# Elastic Compliance Matrix: (Units=1/GPa)
#
#
# Indices 1 2 3 4 5 6 
#
# 1 0.044095 -0.016065 -0.002916 0.000000 0.000000 0.000000
# 2 -0.016065 0.022176 -0.004331 0.000000 0.000000 0.000000
# 3 -0.002916 -0.004331 0.010195 0.000000 0.000000 0.000000
# 4 0.000000 0.000000 0.000000 0.025082 0.000000 0.000000
# 5 0.000000 0.000000 0.000000 0.000000 -0.106457 0.000000
# 6 0.000000 0.000000 0.000000 0.000000 0.000000 0.044193
#
#
# Mechanical properties :
#
#
# Convention : Reuss Voigt Hill
#
# Bulk Modulus (GPa) = 33.50795 46.28902 39.89849
# Shear Modulus (GPa) = 52.16201 19.85641 36.00921
#
# Velocity S-wave (km/s) = 5.22974 3.22666 4.34520
# Velocity P-wave (km/s) = 7.35093 6.17677 6.78928
#
# Compressibility (1/GPa) = 0.02984366
#
# Stress axis : x y z
#
# Youngs Moduli (GPa) = 22.67830 45.09346 98.08364
#
# Poissons Ratio (x) = 0.72442 0.28602
# Poissons Ratio (y) = 0.36432 0.42476
# Poissons Ratio (z) = 0.06613 0.19528
#
# Static dielectric constant tensor:
#      x y z
#    x 3.192720 0.000000 0.000000 
#    y 0.000000 3.539590 0.000000 
#    z 0.000000 0.000000 3.905400 
# 
# 
# High freq. dielectric constant tensor:
#      x y z
#    x 1.697690 0.000000 0.000000 
#    y 0.000000 1.753250 0.000000 
#    z 0.000000 0.000000 1.766610 
# 
# From -- ./inp_files/23297.got.cif
#   From: 2010.03.12/outbox.cif.g09.slc.cpg/sg44_12_cif.got.tgz:23297.got - 2010.04.14 02:36:11.
