data_PCOD8189310
_publ_section_title
;
Structure prediction by ZEFSAII (Michael W. Deem and Ramdas Pophale) SiO2 
 PCOD8189310
Probable space group: I M M 2
;
_chemical_formula_sum "Si O2"
_cell_formula_units_Z 48
_cell_length_a 9.059322
_cell_length_b 9.155276
_cell_length_c 30.745434
_cell_angle_alpha 90.000000
_cell_angle_beta 90.000000
_cell_angle_gamma 90.000000
_cell_volume 2550.044537
_symmetry_space_group_name_H-M "I M M 2"
_symmetry_group_IT_number 44
_symmetry_cell_setting 'orthorhombic'
loop_
_space_group_symop_operation_xyz
x,y,z
-x,-y,z
-x,y,z
x,-y,z
1/2+x,1/2+y,1/2+z
1/2-x,1/2-y,1/2+z
1/2-x,1/2+y,1/2+z
1/2+x,1/2-y,1/2+z
loop_
_atom_site_type_symbol
_atom_site_label
_atom_site_fract_x
_atom_site_fract_y
_atom_site_fract_z
Si Si1 0.663047 0.673265 0.689530
Si Si2 0.327785 0.831321 0.849543
Si Si3 0.669989 0.327983 0.015773
Si Si4 0.827230 0.831023 0.937805
Si Si5 0.166639 0.326488 0.772757
Si Si6 0.327481 0.669557 0.592303
O O1 0.500000 0.736977 0.699760
O O2 0.654298 0.500000 0.690463
O O3 0.776434 0.731087 0.725885
O O4 0.713438 0.720861 0.641272
O O5 0.500000 0.802373 0.855597
O O6 0.247483 0.778440 0.893226
O O7 0.270083 0.736807 0.809812
O O8 0.292272 0.000000 0.840036
O O9 0.500000 0.283352 0.009606
O O10 0.691771 0.500000 0.016166
O O11 0.727704 0.265827 0.061116
O O12 0.764368 0.263318 0.976745
O O13 0.000000 0.802279 0.933697
O O14 0.791358 0.000000 0.947216
O O15 0.175324 0.500000 0.775140
O O16 0.000000 0.270181 0.779048
O O17 0.500000 0.696772 0.582776
O O18 0.289063 0.500000 0.584987
#
# Coordination Sequence:
#
# PCOD8189310 Si02
#       6
#     8   8   8   8   8   8
#     4   8  15  30  52  77 105 137 175 219 262 306
#     4  10  21  37  57  80 106 138 176 216 260 311
#     4  11  24  38  52  76 110 143 175 213 259 311
#     4  10  21  38  60  82 103 132 173 218 263 313
#     4  10  20  33  52  80 111 142 177 216 260 310
#     4   9  18  34  57  82 105 134 176 221 264 312
#
# _framework density 18.8232
#
# number of rings (size 3 to 8) (size 9 to 14) (size 15 to 20)
#    0.000    2.333    0.000    3.500    0.000    8.000 
#    0.000    2.500    0.000    1.000    0.000    0.000 
#    0.000    0.000    0.000    0.000    0.000    0.000 
#
# Total GULP energy -297634.032636 kJ/mol
# GULP energy per Si atom -12401.418026 kJ/mol
# Density = 1.878036 g / cm^3
# Si number density = 18.823200 Si / 1000 Ang^3
#
#
#
# Elastic Constant Matrix: (Units=GPa)
#
#
# Indices 1 2 3 4 5 6 
#
# 1 103.6122 38.9249 65.5521 0.0000 0.0000 0.0000
# 2 38.9249 42.4359 41.8976 0.0000 0.0000 0.0000
# 3 65.5521 41.8976 145.0886 0.0000 0.0000 0.0000
# 4 0.0000 0.0000 0.0000 27.4863 0.0000 0.0000
# 5 0.0000 0.0000 0.0000 0.0000 40.0002 0.0000
# 6 0.0000 0.0000 0.0000 0.0000 0.0000 28.0823
#
#
#
# Elastic Compliance Matrix: (Units=1/GPa)
#
#
# Indices 1 2 3 4 5 6 
#
# 1 0.016443 -0.010838 -0.004299 0.000000 0.000000 0.000000
# 2 -0.010838 0.040106 -0.006685 0.000000 0.000000 0.000000
# 3 -0.004299 -0.006685 0.010765 0.000000 0.000000 0.000000
# 4 0.000000 0.000000 0.000000 0.036382 0.000000 0.000000
# 5 0.000000 0.000000 0.000000 0.000000 0.025000 0.000000
# 6 0.000000 0.000000 0.000000 0.000000 0.000000 0.035610
#
#
# Mechanical properties :
#
#
# Convention : Reuss Voigt Hill
#
# Bulk Modulus (GPa) = 42.24720 64.87624 53.56172
# Shear Modulus (GPa) = 23.16531 28.76457 25.96494
#
# Velocity S-wave (km/s) = 3.51191 3.91339 3.71807
# Velocity P-wave (km/s) = 6.24000 7.41353 6.85194
#
# Compressibility (1/GPa) = 0.02367021
#
# Stress axis : x y z
#
# Youngs Moduli (GPa) = 60.81628 24.93382 92.89091
#
# Poissons Ratio (x) = 0.27022 0.39938
# Poissons Ratio (y) = 0.65910 0.62098
# Poissons Ratio (z) = 0.26148 0.16668
#
# Static dielectric constant tensor:
#      x y z
#    x 3.624030 0.000000 0.000000 
#    y 0.000000 3.190970 0.000000 
#    z 0.000000 0.000000 3.692950 
# 
# 
# High freq. dielectric constant tensor:
#      x y z
#    x 1.740510 0.000000 0.000000 
#    y 0.000000 1.704000 0.000000 
#    z 0.000000 0.000000 1.747810 
# 
# From -- ./inp_files/26857.got.cif
#   From: 2010.03.12/outbox.cif.g09.slc.cpg/sg44_14_cif.got.tgz:26857.got - 2010.04.14 02:36:11.
