data_PCOD8189085
_publ_section_title
;
Structure prediction by ZEFSAII (Michael W. Deem and Ramdas Pophale) SiO2 
 PCOD8189085
Probable space group: I M M 2
;
_chemical_formula_sum "Si O2"
_cell_formula_units_Z 40
_cell_length_a 11.632987
_cell_length_b 8.934319
_cell_length_c 19.735794
_cell_angle_alpha 90.000000
_cell_angle_beta 90.000000
_cell_angle_gamma 90.000000
_cell_volume 2051.196662
_symmetry_space_group_name_H-M "I M M 2"
_symmetry_group_IT_number 44
_symmetry_cell_setting 'orthorhombic'
loop_
_space_group_symop_operation_xyz
x,y,z
-x,-y,z
-x,y,z
x,-y,z
1/2+x,1/2+y,1/2+z
1/2-x,1/2-y,1/2+z
1/2-x,1/2+y,1/2+z
1/2+x,1/2-y,1/2+z
loop_
_atom_site_type_symbol
_atom_site_label
_atom_site_fract_x
_atom_site_fract_y
_atom_site_fract_z
Si Si1 0.132074 0.171713 0.677370
Si Si2 0.867282 0.825165 0.927218
Si Si3 0.000000 0.169385 0.468766
Si Si4 0.249942 0.821946 0.299750
Si Si5 0.727567 0.324215 0.034515
Si Si6 0.000000 0.168645 0.308911
O O1 0.165263 0.276227 0.739823
O O2 0.215957 0.208448 0.614538
O O3 0.000000 0.203483 0.656601
O O4 0.146512 0.000000 0.700304
O O5 0.792238 0.743277 0.870641
O O6 0.000000 0.790214 0.913336
O O7 0.841338 0.000000 0.924241
O O8 0.835368 0.762558 0.001956
O O9 0.885279 0.244906 0.498075
O O10 0.000000 0.177419 0.389152
O O11 0.000000 0.000000 0.496813
O O12 0.120381 0.758230 0.283559
O O13 0.246973 0.000000 0.307819
O O14 0.742675 0.500000 0.020318
O O15 0.000000 0.000000 0.282366
#
# Coordination Sequence:
#
# PCOD8189085 Si02
#       6
#     8   8   4   8   8   4
#     4  10  21  38  60  86 118 152 186 232 288 337
#     4  11  24  40  57  82 118 153 187 234 290 338
#     4   9  14  30  60  88 108 135 180 231 282 336
#     4  11  22  38  61  85 113 152 195 234 279 338
#     4  10  19  36  63  87 110 145 190 233 280 342
#     4   9  18  34  58  84 110 143 184 233 284 334
#
# _framework density 19.500812
#
# number of rings (size 3 to 8) (size 9 to 14) (size 15 to 20)
#    0.000    1.800    3.000    1.800    0.000    5.200 
#    1.800    3.500    0.000    0.000    0.000    0.000 
#    0.000    0.000    0.000    0.000    0.000    0.000 
#
# Total GULP energy -247948.709547 kJ/mol
# GULP energy per Si atom -12397.435477 kJ/mol
# Density = 1.945643 g / cm^3
# Si number density = 19.500812 Si / 1000 Ang^3
#
#
#
# Elastic Constant Matrix: (Units=GPa)
#
#
# Indices 1 2 3 4 5 6 
#
# 1 94.2809 48.3417 40.4959 0.0000 0.0000 0.0000
# 2 48.3417 68.2980 37.0216 0.0000 0.0000 0.0000
# 3 40.4959 37.0216 85.8793 0.0000 0.0000 0.0000
# 4 0.0000 0.0000 0.0000 30.7402 0.0000 0.0000
# 5 0.0000 0.0000 0.0000 0.0000 37.4929 0.0000
# 6 0.0000 0.0000 0.0000 0.0000 0.0000 25.7373
#
#
#
# Elastic Compliance Matrix: (Units=1/GPa)
#
#
# Indices 1 2 3 4 5 6 
#
# 1 0.017556 -0.010360 -0.003812 0.000000 0.000000 0.000000
# 2 -0.010360 0.025220 -0.005987 0.000000 0.000000 0.000000
# 3 -0.003812 -0.005987 0.016023 0.000000 0.000000 0.000000
# 4 0.000000 0.000000 0.000000 0.032531 0.000000 0.000000
# 5 0.000000 0.000000 0.000000 0.000000 0.026672 0.000000
# 6 0.000000 0.000000 0.000000 0.000000 0.000000 0.038854
#
#
# Mechanical properties :
#
#
# Convention : Reuss Voigt Hill
#
# Bulk Modulus (GPa) = 54.11122 55.57520 54.84321
# Shear Modulus (GPa) = 24.59020 26.96734 25.77877
#
# Velocity S-wave (km/s) = 3.55489 3.72275 3.63978
# Velocity P-wave (km/s) = 6.68267 6.85852 6.77116
#
# Compressibility (1/GPa) = 0.01848046
#
# Stress axis : x y z
#
# Youngs Moduli (GPa) = 56.96072 39.65177 62.41075
#
# Poissons Ratio (x) = 0.41078 0.23794
# Poissons Ratio (y) = 0.59009 0.37364
# Poissons Ratio (z) = 0.21716 0.23739
#
# Static dielectric constant tensor:
#      x y z
#    x 3.818060 0.000000 0.000000 
#    y 0.000000 3.326470 0.000000 
#    z 0.000000 0.000000 3.426970 
# 
# 
# High freq. dielectric constant tensor:
#      x y z
#    x 1.768060 0.000000 0.000000 
#    y 0.000000 1.733030 0.000000 
#    z 0.000000 0.000000 1.757040 
# 
# From -- ./inp_files/22799.got.cif
#   From: 2010.03.12/outbox.cif.g09.slc.cpg/sg44_12_cif.got.tgz:22799.got - 2010.04.14 02:36:11.
