data_PCOD8189978
_publ_section_title
;
Structure prediction by ZEFSAII (Michael W. Deem and Ramdas Pophale) SiO2 
 PCOD8189978
Probable space group: I M M 2
;
_chemical_formula_sum "Si O2"
_cell_formula_units_Z 48
_cell_length_a 8.667630
_cell_length_b 23.387453
_cell_length_c 11.817327
_cell_angle_alpha 90.000000
_cell_angle_beta 90.000000
_cell_angle_gamma 90.000000
_cell_volume 2395.535135
_symmetry_space_group_name_H-M "I M M 2"
_symmetry_group_IT_number 44
_symmetry_cell_setting 'orthorhombic'
loop_
_space_group_symop_operation_xyz
x,y,z
-x,-y,z
-x,y,z
x,-y,z
1/2+x,1/2+y,1/2+z
1/2-x,1/2-y,1/2+z
1/2-x,1/2+y,1/2+z
1/2+x,1/2-y,1/2+z
loop_
_atom_site_type_symbol
_atom_site_label
_atom_site_fract_x
_atom_site_fract_y
_atom_site_fract_z
Si Si1 0.678698 0.363083 0.264920
Si Si2 0.181643 0.565651 0.469269
Si Si3 0.817166 0.653307 0.656025
Si Si4 0.816844 0.728253 0.111815
Si Si5 0.674347 0.845648 0.406009
Si Si6 0.174711 0.435822 0.080481
O O1 0.500000 0.352659 0.288497
O O2 0.751572 0.391607 0.375597
O O3 0.752119 0.302044 0.226550
O O4 0.703801 0.406971 0.163220
O O5 0.247539 0.500000 0.463484
O O6 0.224551 0.594603 0.590076
O O7 0.000000 0.562928 0.451322
O O8 0.736689 0.707015 0.596622
O O9 0.745571 0.652045 0.783090
O O10 0.000000 0.662232 0.654996
O O11 0.000000 0.722640 0.117029
O O12 0.750489 0.697019 0.998733
O O13 0.500000 0.825387 0.386405
O O14 0.682863 0.909433 0.455623
O O15 0.227126 0.500000 0.067474
O O16 0.000000 0.429185 0.129515
#
# Coordination Sequence:
#
# PCOD8189978 Si02
#       6
#     8   8   8   8   8   8
#     4  11  22  36  57  84 114 150 195 244 289 338
#     4  10  22  39  58  84 121 161 198 238 289 349
#     4  10  21  37  58  85 115 151 192 236 284 344
#     4  10  21  38  59  84 114 148 188 238 298 353
#     4   8  17  34  54  79 110 141 181 229 279 340
#     4   9  17  32  56  83 111 145 184 229 284 340
#
# _framework density 20.037277
#
# number of rings (size 3 to 8) (size 9 to 14) (size 15 to 20)
#    0.000    2.333    0.000    3.500    2.333    4.000 
#    0.000    6.667    0.000    0.000    0.000    4.667 
#    0.000    0.000    0.000    0.000    0.000    0.000 
#
# Total GULP energy -297418.047594 kJ/mol
# GULP energy per Si atom -12392.418650 kJ/mol
# Density = 1.999167 g / cm^3
# Si number density = 20.037277 Si / 1000 Ang^3
#
#
#
# Elastic Constant Matrix: (Units=GPa)
#
#
# Indices 1 2 3 4 5 6 
#
# 1 42.0840 25.0467 22.7201 0.0000 -0.0001 0.0000
# 2 25.0467 103.9193 31.1308 0.0002 0.0001 0.0000
# 3 22.7201 31.1308 119.4964 0.0007 0.0000 0.0000
# 4 0.0000 0.0002 0.0007 23.3524 0.0000 0.0000
# 5 -0.0001 0.0001 0.0000 0.0000 13.9854 0.0000
# 6 0.0000 0.0000 0.0000 0.0000 0.0000 27.3459
#
#
#
# Elastic Compliance Matrix: (Units=1/GPa)
#
#
# Indices 1 2 3 4 5 6 
#
# 1 0.029459 -0.005881 -0.004069 0.000000 0.000000 0.000000
# 2 -0.005881 0.011612 -0.001907 0.000000 0.000000 0.000000
# 3 -0.004069 -0.001907 0.009639 0.000000 0.000000 0.000000
# 4 0.000000 0.000000 0.000000 0.042822 0.000000 0.000000
# 5 0.000000 0.000000 0.000000 0.000000 0.071503 0.000000
# 6 0.000000 0.000000 0.000000 0.000000 0.000000 0.036569
#
#
# Mechanical properties :
#
#
# Convention : Reuss Voigt Hill
#
# Bulk Modulus (GPa) = 37.04333 47.03275 42.03804
# Shear Modulus (GPa) = 21.33871 25.37687 23.35779
#
# Velocity S-wave (km/s) = 3.26690 3.56263 3.41796
# Velocity P-wave (km/s) = 5.72342 6.35977 6.04997
#
# Compressibility (1/GPa) = 0.02699541
#
# Stress axis : x y z
#
# Youngs Moduli (GPa) = 33.94542 86.12092 103.74701
#
# Poissons Ratio (x) = 0.50651 0.42214
# Poissons Ratio (y) = 0.19964 0.19782
# Poissons Ratio (z) = 0.13812 0.16421
#
# Static dielectric constant tensor:
#      x y z
#    x 3.314880 0.000000 0.000000 
#    y 0.000000 3.811090 0.000000 
#    z 0.000000 0.000000 3.867490 
# 
# 
# High freq. dielectric constant tensor:
#      x y z
#    x 1.749420 0.000000 0.000000 
#    y 0.000000 1.788580 0.000000 
#    z 0.000000 0.000000 1.784690 
# 
# From -- ./inp_files/11141.got.cif
#   From: 2010.03.12/outbox.cif.g09.slc.cpg/sg44_6_cif.got.tgz:11141.got - 2010.04.14 02:36:11.
