data_PCOD8189605
_publ_section_title
;
Structure prediction by ZEFSAII (Michael W. Deem and Ramdas Pophale) SiO2 
 PCOD8189605
Probable space group: I M M 2
;
_chemical_formula_sum "Si O2"
_cell_formula_units_Z 48
_cell_length_a 19.721533
_cell_length_b 13.895740
_cell_length_c 9.142386
_cell_angle_alpha 90.000000
_cell_angle_beta 90.000000
_cell_angle_gamma 90.000000
_cell_volume 2505.427868
_symmetry_space_group_name_H-M "I M M 2"
_symmetry_group_IT_number 44
_symmetry_cell_setting 'orthorhombic'
loop_
_space_group_symop_operation_xyz
x,y,z
-x,-y,z
-x,y,z
x,-y,z
1/2+x,1/2+y,1/2+z
1/2-x,1/2-y,1/2+z
1/2-x,1/2+y,1/2+z
1/2+x,1/2-y,1/2+z
loop_
_atom_site_type_symbol
_atom_site_label
_atom_site_fract_x
_atom_site_fract_y
_atom_site_fract_z
Si Si1 0.422576 0.798422 0.181300
Si Si2 0.807292 0.204805 0.859765
Si Si3 0.177051 0.712455 0.177753
Si Si4 0.921679 0.500000 0.823821
Si Si5 0.920446 0.000000 0.527119
Si Si6 0.688958 0.500000 0.256103
Si Si7 0.825658 0.500000 0.105500
Si Si8 0.421873 0.301034 0.887468
O O1 0.500000 0.767730 0.212350
O O2 0.376876 0.731188 0.280830
O O3 0.409826 0.909504 0.218597
O O4 0.404967 0.778647 0.011602
O O5 0.742327 0.241725 0.771581
O O6 0.802398 0.089502 0.865742
O O7 0.805689 0.255926 0.014783
O O8 0.154018 0.599820 0.185404
O O9 0.114922 0.773964 0.237909
O O10 0.000000 0.500000 0.886832
O O11 0.863199 0.500000 0.947935
O O12 0.884854 0.000000 0.684303
O O13 0.897402 0.094001 0.438315
O O14 0.000000 0.000000 0.559697
O O15 0.742841 0.500000 0.118085
O O16 0.500000 0.302960 0.847267
#
# Coordination Sequence:
#
# PCOD8189605 Si02
#       8
#     8   8   8   4   4   4   4   8
#     4  10  20  36  60  89 118 154 199 241 290 353
#     4  11  22  39  60  87 120 154 202 243 298 350
#     4  11  24  40  61  87 121 159 199 249 297 353
#     4  10  20  35  60  92 121 156 199 242 291 355
#     4  10  20  37  62  89 118 158 201 241 299 357
#     4  10  22  37  61  89 121 154 198 248 294 358
#     4  10  22  39  57  90 120 154 202 241 300 356
#     4  10  22  39  60  89 122 158 199 247 296 352
#
# _framework density 19.158404000000001
#
# number of rings (size 3 to 8) (size 9 to 14) (size 15 to 20)
#    0.000    1.667    3.333    1.000    2.333    2.667 
#    0.000    4.167    0.000    0.000    0.000    0.000 
#    0.000    0.000    0.000    0.000    0.000    0.000 
#
# Total GULP energy -297511.692658 kJ/mol
# GULP energy per Si atom -12396.320527 kJ/mol
# Density = 1.911480 g / cm^3
# Si number density = 19.158404 Si / 1000 Ang^3
#
#
#
# Elastic Constant Matrix: (Units=GPa)
#
#
# Indices 1 2 3 4 5 6 
#
# 1 62.4038 41.0996 38.9600 0.0000 0.0000 0.0000
# 2 41.0996 113.0280 28.2008 0.0000 0.0000 0.0000
# 3 38.9600 28.2008 83.2690 0.0000 0.0000 0.0000
# 4 0.0000 0.0000 0.0000 22.8302 0.0000 0.0000
# 5 0.0000 0.0000 0.0000 0.0000 37.9457 0.0000
# 6 0.0000 0.0000 0.0000 0.0000 0.0000 24.8744
#
#
#
# Elastic Compliance Matrix: (Units=1/GPa)
#
#
# Indices 1 2 3 4 5 6 
#
# 1 0.027285 -0.007358 -0.010274 0.000000 0.000000 0.000000
# 2 -0.007358 0.011648 -0.000502 0.000000 0.000000 0.000000
# 3 -0.010274 -0.000502 0.016986 0.000000 0.000000 0.000000
# 4 0.000000 0.000000 0.000000 0.043802 0.000000 0.000000
# 5 0.000000 0.000000 0.000000 0.000000 0.026353 0.000000
# 6 0.000000 0.000000 0.000000 0.000000 0.000000 0.040202
#
#
# Mechanical properties :
#
#
# Convention : Reuss Voigt Hill
#
# Bulk Modulus (GPa) = 50.88846 52.80238 51.84542
# Shear Modulus (GPa) = 23.91242 27.15941 25.53592
#
# Velocity S-wave (km/s) = 3.53674 3.76922 3.65483
# Velocity P-wave (km/s) = 6.58009 6.82374 6.70303
#
# Compressibility (1/GPa) = 0.01965082
#
# Stress axis : x y z
#
# Youngs Moduli (GPa) = 36.64998 85.84992 58.87038
#
# Poissons Ratio (x) = 0.63169 0.60485
# Poissons Ratio (y) = 0.26967 0.02957
# Poissons Ratio (z) = 0.37655 0.04312
#
# Static dielectric constant tensor:
#      x y z
#    x 3.633110 0.000000 0.000000 
#    y 0.000000 3.810900 0.000000 
#    z 0.000000 0.000000 3.274540 
# 
# 
# High freq. dielectric constant tensor:
#      x y z
#    x 1.754770 0.000000 0.000000 
#    y 0.000000 1.761490 0.000000 
#    z 0.000000 0.000000 1.721950 
# 
# From -- ./inp_files/8145.got.cif
#   From: 2010.03.12/outbox.cif.g09.slc.cpg/sg44_5_cif.got.tgz:8145.got - 2010.04.14 02:36:11.
