data_PCOD8189774
_publ_section_title
;
Structure prediction by ZEFSAII (Michael W. Deem and Ramdas Pophale) SiO2 
 PCOD8189774
Probable space group: I M M 2
;
_chemical_formula_sum "Si O2"
_cell_formula_units_Z 40
_cell_length_a 9.140797
_cell_length_b 20.356543
_cell_length_c 11.704956
_cell_angle_alpha 90.000000
_cell_angle_beta 90.000000
_cell_angle_gamma 90.000000
_cell_volume 2178.000006
_symmetry_space_group_name_H-M "I M M 2"
_symmetry_group_IT_number 44
_symmetry_cell_setting 'orthorhombic'
loop_
_space_group_symop_operation_xyz
x,y,z
-x,-y,z
-x,y,z
x,-y,z
1/2+x,1/2+y,1/2+z
1/2-x,1/2-y,1/2+z
1/2-x,1/2+y,1/2+z
1/2+x,1/2-y,1/2+z
loop_
_atom_site_type_symbol
_atom_site_label
_atom_site_fract_x
_atom_site_fract_y
_atom_site_fract_z
Si Si1 0.335253 0.637472 0.189170
Si Si2 0.829112 0.000000 0.304343
Si Si3 0.334939 0.257905 0.361907
Si Si4 0.172929 0.381371 0.403693
Si Si5 0.171695 0.500000 0.564523
Si Si6 0.327570 0.632239 0.931296
O O1 0.500000 0.608216 0.192065
O O2 0.336717 0.713878 0.231648
O O3 0.233596 0.596611 0.278032
O O4 0.271108 0.633226 0.061915
O O5 0.782152 0.936775 0.376978
O O6 0.748352 0.000000 0.185166
O O7 0.000000 0.000000 0.278969
O O8 0.500000 0.249761 0.408988
O O9 0.248121 0.311861 0.439719
O O10 0.253662 0.188637 0.360697
O O11 0.220460 0.435604 0.495218
O O12 0.000000 0.372614 0.396960
O O13 0.000000 0.500000 0.584968
O O14 0.500000 0.645266 0.925341
#
# Coordination Sequence:
#
# PCOD8189774 Si02
#       6
#     8   4   8   8   4   8
#     4   8  18  35  55  83 112 142 183 227 279 331
#     4  10  24  39  56  84 112 151 195 230 281 342
#     4   9  19  35  55  85 111 143 188 229 278 333
#     4   9  18  35  57  83 111 146 186 227 280 331
#     4  10  22  39  58  82 118 153 185 232 287 340
#     4  10  20  38  58  81 116 150 184 233 285 338
#
# _framework density 18.365470999999999
#
# number of rings (size 3 to 8) (size 9 to 14) (size 15 to 20)
#    1.200    1.600    0.000    0.600    0.000    5.600 
#    0.000    7.000    0.000    0.000    0.000    0.000 
#    0.000    0.000    0.000    0.000    0.000    0.000 
#
# Total GULP energy -247838.462820 kJ/mol
# GULP energy per Si atom -12391.923141 kJ/mol
# Density = 1.832367 g / cm^3
# Si number density = 18.365471 Si / 1000 Ang^3
#
#
#
# Elastic Constant Matrix: (Units=GPa)
#
#
# Indices 1 2 3 4 5 6 
#
# 1 74.5138 56.8324 46.4563 0.0000 0.0000 0.0000
# 2 56.8324 145.6710 65.3017 0.0003 -0.0001 0.0000
# 3 46.4563 65.3017 130.1060 0.0003 -0.0001 0.0000
# 4 0.0000 0.0003 0.0003 27.7409 -0.0001 0.0000
# 5 0.0000 -0.0001 -0.0001 -0.0001 26.5453 0.0000
# 6 0.0000 0.0000 0.0000 0.0000 0.0000 23.1187
#
#
#
# Elastic Compliance Matrix: (Units=1/GPa)
#
#
# Indices 1 2 3 4 5 6 
#
# 1 0.020844 -0.006188 -0.004337 0.000000 0.000000 0.000000
# 2 -0.006188 0.010695 -0.003158 0.000000 0.000000 0.000000
# 3 -0.004337 -0.003158 0.010820 0.000000 0.000000 0.000000
# 4 0.000000 0.000000 0.000000 0.036048 0.000000 0.000000
# 5 0.000000 0.000000 0.000000 0.000000 0.037671 0.000000
# 6 0.000000 0.000000 0.000000 0.000000 0.000000 0.043255
#
#
# Mechanical properties :
#
#
# Convention : Reuss Voigt Hill
#
# Bulk Modulus (GPa) = 66.70140 76.38573 71.54356
# Shear Modulus (GPa) = 26.08294 27.59433 26.83864
#
# Velocity S-wave (km/s) = 3.77266 3.88043 3.82693
# Velocity P-wave (km/s) = 7.44144 7.85871 7.65292
#
# Compressibility (1/GPa) = 0.01499219
#
# Stress axis : x y z
#
# Youngs Moduli (GPa) = 47.97605 93.50349 92.42354
#
# Poissons Ratio (x) = 0.57859 0.40082
# Poissons Ratio (y) = 0.29687 0.29191
# Poissons Ratio (z) = 0.20806 0.29532
#
# Static dielectric constant tensor:
#      x y z
#    x 3.314260 0.000000 0.000000 
#    y 0.000000 3.293520 0.000000 
#    z 0.000000 0.000000 3.244780 
# 
# 
# High freq. dielectric constant tensor:
#      x y z
#    x 1.712750 0.000000 0.000000 
#    y 0.000000 1.703240 0.000000 
#    z 0.000000 0.000000 1.698940 
# 
# From -- ./inp_files/11010.got.cif
#   From: 2010.03.12/outbox.cif.g09.slc.cpg/sg44_6_cif.got.tgz:11010.got - 2010.04.14 02:36:11.
