data_PCOD8189514
_publ_section_title
;
Structure prediction by ZEFSAII (Michael W. Deem and Ramdas Pophale) SiO2 
 PCOD8189514
Probable space group: I M M 2
;
_chemical_formula_sum "Si O2"
_cell_formula_units_Z 64
_cell_length_a 13.384920
_cell_length_b 17.518499
_cell_length_c 13.791820
_cell_angle_alpha 90.000000
_cell_angle_beta 90.000000
_cell_angle_gamma 90.000000
_cell_volume 3233.957089
_symmetry_space_group_name_H-M "I M M 2"
_symmetry_group_IT_number 44
_symmetry_cell_setting 'orthorhombic'
loop_
_space_group_symop_operation_xyz
x,y,z
-x,-y,z
-x,y,z
x,-y,z
1/2+x,1/2+y,1/2+z
1/2-x,1/2-y,1/2+z
1/2-x,1/2+y,1/2+z
1/2+x,1/2-y,1/2+z
loop_
_atom_site_type_symbol
_atom_site_label
_atom_site_fract_x
_atom_site_fract_y
_atom_site_fract_z
Si Si1 0.292873 0.414050 0.331400
Si Si2 0.892109 0.414483 0.213750
Si Si3 0.616429 0.088736 0.148305
Si Si4 0.262273 0.810578 0.996137
Si Si5 0.382244 0.819337 0.533676
Si Si6 0.882788 0.914774 0.632758
Si Si7 0.117800 0.827758 0.439534
Si Si8 0.207717 0.410519 0.858156
O O1 0.330210 0.500000 0.354355
O O2 0.174946 0.411742 0.309187
O O3 0.305978 0.361439 0.424396
O O4 0.350557 0.380895 0.237142
O O5 0.902413 0.500000 0.174817
O O6 0.000000 0.380892 0.243403
O O7 0.844434 0.368611 0.124796
O O8 0.500000 0.112844 0.145643
O O9 0.678927 0.137839 0.072268
O O10 0.660374 0.105709 0.253918
O O11 0.628660 0.000000 0.120967
O O12 0.178182 0.758983 0.046055
O O13 0.343525 0.759378 0.937490
O O14 0.500000 0.803144 0.538132
O O15 0.358163 0.863800 0.434817
O O16 0.849829 0.859947 0.545360
O O17 0.000000 0.921941 0.630333
O O18 0.834953 0.000000 0.620504
O O19 0.177806 0.878792 0.360744
O O20 0.000000 0.832847 0.417600
O O21 0.206322 0.500000 0.882843
#
# Coordination Sequence:
#
# PCOD8189514 Si02
#       8
#     8   8   8   8   8   8   8   8
#     4  10  20  35  55  77 103 136 176 224 270 314
#     4   9  18  33  54  79 104 132 170 215 265 319
#     4  10  22  41  62  80 102 140 192 244 284 323
#     4  11  23  37  53  78 111 147 189 229 271 328
#     4  10  21  35  54  82 115 146 173 215 277 338
#     4   9  18  34  57  83 108 137 175 218 268 326
#     4  10  21  35  55  85 118 149 179 222 284 346
#     4  10  20  35  58  85 111 143 187 233 277 330
#
# _framework density 19.789997
#
# number of rings (size 3 to 8) (size 9 to 14) (size 15 to 20)
#    0.000    2.125    0.000    3.375    0.000    8.500 
#    0.000    4.375    0.000    1.875    0.000    0.000 
#    0.000    0.000    0.000    0.000    0.000    0.000 
#
# Total GULP energy -396703.546311 kJ/mol
# GULP energy per Si atom -12396.985822 kJ/mol
# Density = 1.974495 g / cm^3
# Si number density = 19.789997 Si / 1000 Ang^3
#
#
#
# Elastic Constant Matrix: (Units=GPa)
#
#
# Indices 1 2 3 4 5 6 
#
# 1 55.9590 21.5779 3.3588 0.0002 0.0000 0.0000
# 2 21.5779 90.7551 40.7195 0.0001 0.0000 0.0000
# 3 3.3588 40.7195 61.8248 0.0002 0.0001 0.0000
# 4 0.0002 0.0001 0.0002 16.6151 0.0000 0.0000
# 5 0.0000 0.0000 0.0001 0.0000 25.7302 0.0000
# 6 0.0000 0.0000 0.0000 0.0000 0.0000 27.4432
#
#
#
# Elastic Compliance Matrix: (Units=1/GPa)
#
#
# Indices 1 2 3 4 5 6 
#
# 1 0.020036 -0.006069 0.002908 0.000000 0.000000 0.000000
# 2 -0.006069 0.017479 -0.011182 0.000000 0.000000 0.000000
# 3 0.002908 -0.011182 0.023382 0.000000 0.000000 0.000000
# 4 0.000000 0.000000 0.000000 0.060186 0.000000 0.000000
# 5 0.000000 0.000000 0.000000 0.000000 0.038865 0.000000
# 6 0.000000 0.000000 0.000000 0.000000 0.000000 0.036439
#
#
# Mechanical properties :
#
#
# Convention : Reuss Voigt Hill
#
# Bulk Modulus (GPa) = 31.04507 37.76125 34.40316
# Shear Modulus (GPa) = 21.20369 23.48322 22.34345
#
# Velocity S-wave (km/s) = 3.27683 3.44847 3.36375
# Velocity P-wave (km/s) = 5.48070 5.91425 5.70160
#
# Compressibility (1/GPa) = 0.03221124
#
# Stress axis : x y z
#
# Youngs Moduli (GPa) = 49.91088 57.21238 42.76857
#
# Poissons Ratio (x) = 0.34720 -0.12439
# Poissons Ratio (y) = 0.30289 0.47825
# Poissons Ratio (z) = -0.14516 0.63976
#
# Static dielectric constant tensor:
#      x y z
#    x 3.733040 0.000000 0.000000 
#    y 0.000000 3.709380 0.000000 
#    z 0.000000 0.000000 3.398220 
# 
# 
# High freq. dielectric constant tensor:
#      x y z
#    x 1.782920 0.000000 0.000000 
#    y 0.000000 1.770450 0.000000 
#    z 0.000000 0.000000 1.754920 
# 
# From -- ./inp_files/13464.got.cif
#   From: 2010.03.12/outbox.cif.g09.slc.cpg/sg44_7_cif.got.tgz:13464.got - 2010.04.14 02:36:11.
