data_PCOD8189563
_publ_section_title
;
Structure prediction by ZEFSAII (Michael W. Deem and Ramdas Pophale) SiO2 
 PCOD8189563
Probable space group: I M M 2
;
_chemical_formula_sum "Si O2"
_cell_formula_units_Z 64
_cell_length_a 15.146794
_cell_length_b 21.933624
_cell_length_c 9.726769
_cell_angle_alpha 90.000000
_cell_angle_beta 90.000000
_cell_angle_gamma 90.000000
_cell_volume 3231.466925
_symmetry_space_group_name_H-M "I M M 2"
_symmetry_group_IT_number 44
_symmetry_cell_setting 'orthorhombic'
loop_
_space_group_symop_operation_xyz
x,y,z
-x,-y,z
-x,y,z
x,-y,z
1/2+x,1/2+y,1/2+z
1/2-x,1/2-y,1/2+z
1/2-x,1/2+y,1/2+z
1/2+x,1/2-y,1/2+z
loop_
_atom_site_type_symbol
_atom_site_label
_atom_site_fract_x
_atom_site_fract_y
_atom_site_fract_z
Si Si1 0.678882 0.431416 0.909960
Si Si2 0.897509 0.250440 0.057777
Si Si3 0.403509 0.864306 0.736440
Si Si4 0.403053 0.427674 0.186897
Si Si5 0.726286 0.356470 0.649618
Si Si6 0.377545 0.933218 0.470071
Si Si7 0.402335 0.823327 0.284988
Si Si8 0.750798 0.428072 0.387607
O O1 0.652267 0.500000 0.859589
O O2 0.680330 0.383159 0.786192
O O3 0.772603 0.433679 0.984378
O O4 0.614255 0.406466 0.029547
O O5 0.870244 0.300654 0.171269
O O6 0.837773 0.191974 0.080641
O O7 0.000000 0.232945 0.073588
O O8 0.878572 0.275429 0.904863
O O9 0.500000 0.855940 0.806073
O O10 0.415808 0.912897 0.615130
O O11 0.336505 0.888961 0.849164
O O12 0.500000 0.403065 0.230542
O O13 0.400629 0.500000 0.190128
O O14 0.330873 0.403629 0.295275
O O15 0.821924 0.324479 0.675914
O O16 0.734216 0.413693 0.547063
O O17 0.410782 0.890551 0.348212
O O18 0.414000 0.000000 0.435113
O O19 0.500000 0.807947 0.220370
O O20 0.767456 0.500000 0.368510
#
# Coordination Sequence:
#
# PCOD8189563 Si02
#       8
#     8   8   8   8   8   8   8   8
#     4   9  17  33  55  86 119 151 200 252 293 349
#     4   9  21  41  62  84 113 152 208 261 302 353
#     4  10  20  35  57  83 115 153 196 248 295 350
#     4   9  18  35  58  81 114 159 200 241 289 348
#     4  11  23  36  63  87 119 163 196 247 314 363
#     4   9  15  28  54  85 113 146 189 236 286 343
#     4   9  20  38  57  83 118 155 196 242 291 357
#     4  11  23  38  56  91 132 163 196 241 307 381
#
# _framework density 19.805246
#
# number of rings (size 3 to 8) (size 9 to 14) (size 15 to 20)
#    0.000    2.375    1.250    1.875    1.750    3.750 
#    0.000    0.000    0.000    3.750    0.000    0.000 
#    0.000    0.000    0.000    0.000    0.000    0.000 
#
# Total GULP energy -396648.368405 kJ/mol
# GULP energy per Si atom -12395.261513 kJ/mol
# Density = 1.976017 g / cm^3
# Si number density = 19.805246 Si / 1000 Ang^3
#
#
#
# Elastic Constant Matrix: (Units=GPa)
#
#
# Indices 1 2 3 4 5 6 
#
# 1 102.9494 26.5088 39.3697 0.0000 0.0000 0.0000
# 2 26.5088 63.9208 16.1148 0.0000 0.0000 0.0000
# 3 39.3697 16.1148 75.2773 0.0000 0.0000 0.0000
# 4 0.0000 0.0000 0.0000 23.3736 0.0000 0.0000
# 5 0.0000 0.0000 0.0000 0.0000 35.0164 0.0000
# 6 0.0000 0.0000 0.0000 0.0000 0.0000 19.3026
#
#
#
# Elastic Compliance Matrix: (Units=1/GPa)
#
#
# Indices 1 2 3 4 5 6 
#
# 1 0.012995 -0.003885 -0.005965 0.000000 0.000000 0.000000
# 2 -0.003885 0.017699 -0.001757 0.000000 0.000000 0.000000
# 3 -0.005965 -0.001757 0.016780 0.000000 0.000000 0.000000
# 4 0.000000 0.000000 0.000000 0.042783 0.000000 0.000000
# 5 0.000000 0.000000 0.000000 0.000000 0.028558 0.000000
# 6 0.000000 0.000000 0.000000 0.000000 0.000000 0.051806
#
#
# Mechanical properties :
#
#
# Convention : Reuss Voigt Hill
#
# Bulk Modulus (GPa) = 41.22037 45.12600 43.17318
# Shear Modulus (GPa) = 24.76216 26.21547 25.48882
#
# Velocity S-wave (km/s) = 3.53977 3.64216 3.59133
# Velocity P-wave (km/s) = 6.12900 6.36565 6.24845
#
# Compressibility (1/GPa) = 0.02425985
#
# Stress axis : x y z
#
# Youngs Moduli (GPa) = 76.95297 56.50163 59.59578
#
# Poissons Ratio (x) = 0.21954 0.35546
# Poissons Ratio (y) = 0.29900 0.10469
# Poissons Ratio (z) = 0.45899 0.09926
#
# Static dielectric constant tensor:
#      x y z
#    x 3.808840 0.000000 0.000000 
#    y 0.000000 3.402480 0.000000 
#    z 0.000000 0.000000 3.373150 
# 
# 
# High freq. dielectric constant tensor:
#      x y z
#    x 1.780540 0.000000 0.000000 
#    y 0.000000 1.755880 0.000000 
#    z 0.000000 0.000000 1.750500 
# 
# From -- ./inp_files/7536.got.cif
#   From: 2010.03.12/outbox.cif.g09.slc.cpg/sg44_4_cif.got.tgz:7536.got - 2010.04.14 02:36:11.
