data_PCOD8189551
_publ_section_title
;
Structure prediction by ZEFSAII (Michael W. Deem and Ramdas Pophale) SiO2 
 PCOD8189551
Probable space group: I M M 2
;
_chemical_formula_sum "Si O2"
_cell_formula_units_Z 48
_cell_length_a 9.127553
_cell_length_b 37.405652
_cell_length_c 7.591185
_cell_angle_alpha 90.000000
_cell_angle_beta 90.000000
_cell_angle_gamma 90.000000
_cell_volume 2591.798105
_symmetry_space_group_name_H-M "I M M 2"
_symmetry_group_IT_number 44
_symmetry_cell_setting 'orthorhombic'
loop_
_space_group_symop_operation_xyz
x,y,z
-x,-y,z
-x,y,z
x,-y,z
1/2+x,1/2+y,1/2+z
1/2-x,1/2-y,1/2+z
1/2-x,1/2+y,1/2+z
1/2+x,1/2-y,1/2+z
loop_
_atom_site_type_symbol
_atom_site_label
_atom_site_fract_x
_atom_site_fract_y
_atom_site_fract_z
Si Si1 0.831492 0.958892 0.076590
Si Si2 0.329060 0.041490 0.722654
Si Si3 0.669908 0.213925 0.107412
Si Si4 0.328061 0.840200 0.409170
Si Si5 0.829780 0.285937 0.209414
Si Si6 0.173010 0.915145 0.419327
O O1 0.782107 0.935163 0.240856
O O2 0.000000 0.952060 0.024451
O O3 0.805612 0.000000 0.129264
O O4 0.730172 0.947553 0.914047
O O5 0.500000 0.050371 0.715304
O O6 0.246119 0.064826 0.580864
O O7 0.296527 0.000000 0.684447
O O8 0.500000 0.222519 0.129809
O O9 0.715976 0.181693 0.234678
O O10 0.751274 0.249639 0.160079
O O11 0.709382 0.202447 0.908359
O O12 0.500000 0.849839 0.412374
O O13 0.280724 0.817709 0.580801
O O14 0.231394 0.875280 0.408396
O O15 0.000000 0.278164 0.184998
O O16 0.000000 0.915151 0.448021
#
# Coordination Sequence:
#
# PCOD8189551 Si02
#       6
#     8   8   8   8   8   8
#     4   9  19  37  60  85 115 152 194 239 286 337
#     4  10  21  37  60  89 118 152 194 238 286 342
#     4  10  20  35  57  81 106 139 181 229 280 333
#     4  10  22  38  53  79 116 151 188 234 287 341
#     4  10  20  35  57  82 108 139 180 228 279 335
#     4  11  23  38  58  85 119 156 195 240 289 342
#
# _framework density 18.519960999999999
#
# number of rings (size 3 to 8) (size 9 to 14) (size 15 to 20)
#    0.000    2.000    1.667    1.500    0.000    5.667 
#    0.000    3.333    0.000    0.000    0.000    0.000 
#    0.000    0.000    0.000    0.000    0.000    0.000 
#
# Total GULP energy -297687.499096 kJ/mol
# GULP energy per Si atom -12403.645796 kJ/mol
# Density = 1.847781 g / cm^3
# Si number density = 18.519961 Si / 1000 Ang^3
#
#
#
# Elastic Constant Matrix: (Units=GPa)
#
#
# Indices 1 2 3 4 5 6 
#
# 1 76.9347 70.1290 71.1909 0.0199 0.0059 -0.0024
# 2 70.1290 137.1249 103.7704 -0.0118 0.0023 -0.0003
# 3 71.1909 103.7704 181.0969 0.0642 -0.0092 0.0008
# 4 0.0199 -0.0118 0.0642 68.4739 -0.0133 0.0001
# 5 0.0059 0.0023 -0.0092 -0.0133 25.8088 0.0040
# 6 -0.0024 -0.0003 0.0008 0.0001 0.0040 36.5403
#
#
#
# Elastic Compliance Matrix: (Units=1/GPa)
#
#
# Indices 1 2 3 4 5 6 
#
# 1 0.026408 -0.009975 -0.004665 -0.000005 -0.000007 0.000002
# 2 -0.009975 0.016644 -0.005616 0.000011 -0.000001 0.000000
# 3 -0.004665 -0.005616 0.010574 -0.000010 0.000005 -0.000001
# 4 -0.000005 0.000011 -0.000010 0.014604 0.000008 0.000000
# 5 -0.000007 -0.000001 0.000005 0.000008 0.038746 -0.000004
# 6 0.000002 0.000000 -0.000001 0.000000 -0.000004 0.027367
#
#
# Mechanical properties :
#
#
# Convention : Reuss Voigt Hill
#
# Bulk Modulus (GPa) = 76.26000 98.37079 87.31540
# Shear Modulus (GPa) = 27.89766 36.16902 32.03334
#
# Velocity S-wave (km/s) = 3.88539 4.42404 4.16344
# Velocity P-wave (km/s) = 7.83549 8.90660 8.38816
#
# Compressibility (1/GPa) = 0.01311303
#
# Stress axis : x y z
#
# Youngs Moduli (GPa) = 37.86783 60.08185 94.57277
#
# Poissons Ratio (x) = 0.59932 0.44121
# Poissons Ratio (y) = 0.37773 0.53111
# Poissons Ratio (z) = 0.17667 0.33741
#
# Static dielectric constant tensor:
#      x y z
#    x 3.437050 -0.000030 0.000010 
#    y -0.000030 3.114850 -0.000110 
#    z 0.000010 -0.000110 3.897190 
# 
# 
# High freq. dielectric constant tensor:
#      x y z
#    x 1.719340 0.000000 0.000000 
#    y 0.000000 1.715070 0.000000 
#    z 0.000000 0.000000 1.736410 
# 
# From -- ./inp_files/4907.got.cif
#   From: 2010.03.12/outbox.cif.g09.slc.cpg/sg44_3_cif.got.tgz:4907.got - 2010.04.14 02:36:11.
