data_PCOD8189147
_publ_section_title
;
Structure prediction by ZEFSAII (Michael W. Deem and Ramdas Pophale) SiO2 
 PCOD8189147
Probable space group: I M M 2
;
_chemical_formula_sum "Si O2"
_cell_formula_units_Z 64
_cell_length_a 18.892212
_cell_length_b 14.157436
_cell_length_c 13.315815
_cell_angle_alpha 90.000000
_cell_angle_beta 90.000000
_cell_angle_gamma 90.000000
_cell_volume 3561.518218
_symmetry_space_group_name_H-M "I M M 2"
_symmetry_group_IT_number 44
_symmetry_cell_setting 'orthorhombic'
loop_
_space_group_symop_operation_xyz
x,y,z
-x,-y,z
-x,y,z
x,-y,z
1/2+x,1/2+y,1/2+z
1/2-x,1/2-y,1/2+z
1/2-x,1/2+y,1/2+z
1/2+x,1/2-y,1/2+z
loop_
_atom_site_type_symbol
_atom_site_label
_atom_site_fract_x
_atom_site_fract_y
_atom_site_fract_z
Si Si1 0.421019 0.781252 0.912290
Si Si2 0.579428 0.890165 0.118407
Si Si3 0.724946 0.784110 0.834222
Si Si4 0.786449 0.891343 0.019284
Si Si5 0.782033 0.390882 0.731054
Si Si6 0.920425 0.105701 0.535655
Si Si7 0.162595 0.888239 0.726875
Si Si8 0.923195 0.890081 0.916192
O O1 0.500000 0.805680 0.870525
O O2 0.360523 0.797866 0.828491
O O3 0.405603 0.838395 0.013920
O O4 0.415324 0.670123 0.937737
O O5 0.500000 0.866991 0.157859
O O6 0.636839 0.861729 0.203434
O O7 0.588972 0.000000 0.093651
O O8 0.746615 0.820346 0.944422
O O9 0.751125 0.675463 0.819359
O O10 0.759183 0.845547 0.744314
O O11 0.870908 0.872216 0.010200
O O12 0.768976 0.000000 0.987649
O O13 0.765351 0.872302 0.132899
O O14 0.777557 0.500000 0.766435
O O15 0.868591 0.146562 0.621309
O O16 0.000000 0.107683 0.580398
O O17 0.898707 0.000000 0.503803
O O18 0.112558 0.848215 0.815504
O O19 0.168014 0.000000 0.729899
O O20 0.000000 0.842092 0.935891
O O21 0.934626 0.000000 0.898046
#
# Coordination Sequence:
#
# PCOD8189147 Si02
#       8
#     8   8   8   8   8   8   8   8
#     4  10  20  32  47  70  98 131 168 205 246 297
#     4   9  17  31  53  77 100 128 164 210 261 305
#     4  11  20  31  51  70  98 133 166 204 252 292
#     4   9  18  33  51  70  97 130 165 207 251 298
#     4  10  20  34  51  73 101 134 169 206 251 304
#     4   9  17  30  48  70  99 129 155 193 249 306
#     4   9  17  27  45  73  99 123 154 196 249 303
#     4   8  13  23  41  66  94 122 154 192 234 284
#
# _framework density 17.969864999999999
#
# number of rings (size 3 to 8) (size 9 to 14) (size 15 to 20)
#    0.000    2.625    1.250    2.250    0.000    2.500 
#    0.000    3.125    0.000    0.750    0.000    0.000 
#    0.000    0.000    0.000    0.000    0.000    0.000 
#
# Total GULP energy -396542.920941 kJ/mol
# GULP energy per Si atom -12391.966279 kJ/mol
# Density = 1.792896 g / cm^3
# Si number density = 17.969865 Si / 1000 Ang^3
#
#
#
# Elastic Constant Matrix: (Units=GPa)
#
#
# Indices 1 2 3 4 5 6 
#
# 1 148.3529 28.0517 35.1890 0.0000 0.0000 0.0000
# 2 28.0517 53.2111 20.8234 0.0000 0.0000 0.0000
# 3 35.1890 20.8234 34.6616 0.0000 0.0000 0.0000
# 4 0.0000 0.0000 0.0000 19.8860 0.0000 0.0000
# 5 0.0000 0.0000 0.0000 0.0000 22.2240 0.0000
# 6 0.0000 0.0000 0.0000 0.0000 0.0000 21.7161
#
#
#
# Elastic Compliance Matrix: (Units=1/GPa)
#
#
# Indices 1 2 3 4 5 6 
#
# 1 0.008972 -0.001524 -0.008193 0.000000 0.000000 0.000000
# 2 -0.001524 0.024828 -0.013369 0.000000 0.000000 0.000000
# 3 -0.008193 -0.013369 0.045200 0.000000 0.000000 0.000000
# 4 0.000000 0.000000 0.000000 0.050287 0.000000 0.000000
# 5 0.000000 0.000000 0.000000 0.000000 0.044996 0.000000
# 6 0.000000 0.000000 0.000000 0.000000 0.000000 0.046049
#
#
# Mechanical properties :
#
#
# Convention : Reuss Voigt Hill
#
# Bulk Modulus (GPa) = 30.46150 44.92819 37.69484
# Shear Modulus (GPa) = 18.02145 22.90932 20.46538
#
# Velocity S-wave (km/s) = 3.17025 3.57441 3.37838
# Velocity P-wave (km/s) = 5.51261 6.48779 6.01998
#
# Compressibility (1/GPa) = 0.03282832
#
# Stress axis : x y z
#
# Youngs Moduli (GPa) = 111.45489 40.27707 22.12381
#
# Poissons Ratio (x) = 0.06136 0.18127
# Poissons Ratio (y) = 0.16981 0.29577
# Poissons Ratio (z) = 0.91320 0.53847
#
# Static dielectric constant tensor:
#      x y z
#    x 3.755650 0.000000 0.000000 
#    y 0.000000 3.357840 0.000000 
#    z 0.000000 0.000000 2.869370 
# 
# 
# High freq. dielectric constant tensor:
#      x y z
#    x 1.706190 0.000000 0.000000 
#    y 0.000000 1.692250 0.000000 
#    z 0.000000 0.000000 1.641820 
# 
# From -- ./inp_files/18614.got.cif
#   From: 2010.03.12/outbox.cif.g09.slc.cpg/sg44_10_cif.got.tgz:18614.got - 2010.04.14 02:36:11.
