data_PCOD8189449
_publ_section_title
;
Structure prediction by ZEFSAII (Michael W. Deem and Ramdas Pophale) SiO2 
 PCOD8189449
Probable space group: I M M 2
;
_chemical_formula_sum "Si O2"
_cell_formula_units_Z 48
_cell_length_a 8.837241
_cell_length_b 10.287295
_cell_length_c 27.925638
_cell_angle_alpha 90.000000
_cell_angle_beta 90.000000
_cell_angle_gamma 90.000000
_cell_volume 2538.756198
_symmetry_space_group_name_H-M "I M M 2"
_symmetry_group_IT_number 44
_symmetry_cell_setting 'orthorhombic'
loop_
_space_group_symop_operation_xyz
x,y,z
-x,-y,z
-x,y,z
x,-y,z
1/2+x,1/2+y,1/2+z
1/2-x,1/2-y,1/2+z
1/2-x,1/2+y,1/2+z
1/2+x,1/2-y,1/2+z
loop_
_atom_site_type_symbol
_atom_site_label
_atom_site_fract_x
_atom_site_fract_y
_atom_site_fract_z
Si Si1 0.820999 0.000000 0.690161
Si Si2 0.822607 0.246256 0.540028
Si Si3 0.176114 0.732738 0.247461
Si Si4 0.674870 0.652171 0.341027
Si Si5 0.322132 0.000000 0.586319
Si Si6 0.678241 0.000000 0.094619
Si Si7 0.173174 0.648822 0.437597
Si Si8 0.674086 0.500000 0.696220
O O1 0.768064 0.871545 0.717114
O O2 0.760072 0.000000 0.636831
O O3 0.000000 0.000000 0.688953
O O4 0.759451 0.371268 0.568620
O O5 0.792611 0.263743 0.483675
O O6 0.000000 0.222596 0.550495
O O7 0.724796 0.125127 0.556356
O O8 0.227768 0.731022 0.302504
O O9 0.000000 0.698689 0.243764
O O10 0.213430 0.874813 0.227647
O O11 0.500000 0.684196 0.333180
O O12 0.709593 0.500000 0.334411
O O13 0.722920 0.697811 0.394007
O O14 0.500000 0.000000 0.595328
O O15 0.723034 0.000000 0.149646
O O16 0.500000 0.000000 0.089111
O O17 0.209617 0.500000 0.451286
O O18 0.000000 0.662820 0.421254
O O19 0.500000 0.500000 0.679841
#
# Coordination Sequence:
#
# PCOD8189449 Si02
#       8
#     4   8   8   8   4   4   8   4
#     4  12  24  40  61  86 113 148 197 244 286 340
#     4  10  20  38  61  87 116 150 192 238 284 340
#     4  11  22  39  61  85 116 153 192 236 286 342
#     4  10  20  34  55  86 119 147 188 237 284 337
#     4  12  26  40  55  82 119 158 195 234 286 346
#     4  10  20  36  61  88 111 144 191 236 282 334
#     4   9  17  33  59  87 114 145 187 234 286 342
#     4  10  24  40  55  82 117 150 189 232 280 340
#
# _framework density 18.906896
#
# number of rings (size 3 to 8) (size 9 to 14) (size 15 to 20)
#    0.000    1.667    1.667    3.500    0.000    6.000 
#    0.000    0.833    0.000    2.000    0.000    0.000 
#    0.000    0.000    0.000    0.000    0.000    0.000 
#
# Total GULP energy -297710.822728 kJ/mol
# GULP energy per Si atom -12404.617614 kJ/mol
# Density = 1.886386 g / cm^3
# Si number density = 18.906896 Si / 1000 Ang^3
#
#
#
# Elastic Constant Matrix: (Units=GPa)
#
#
# Indices 1 2 3 4 5 6 
#
# 1 96.7177 53.9664 53.1447 0.0000 0.0000 0.0000
# 2 53.9664 125.7259 57.2791 0.0000 0.0000 0.0000
# 3 53.1447 57.2791 127.7156 0.0000 0.0000 0.0000
# 4 0.0000 0.0000 0.0000 43.6582 0.0000 0.0000
# 5 0.0000 0.0000 0.0000 0.0000 36.5902 0.0000
# 6 0.0000 0.0000 0.0000 0.0000 0.0000 7.7843
#
#
#
# Elastic Compliance Matrix: (Units=1/GPa)
#
#
# Indices 1 2 3 4 5 6 
#
# 1 0.015261 -0.004597 -0.004289 0.000000 0.000000 0.000000
# 2 -0.004597 0.011381 -0.003191 0.000000 0.000000 0.000000
# 3 -0.004289 -0.003191 0.011046 0.000000 0.000000 0.000000
# 4 0.000000 0.000000 0.000000 0.022905 0.000000 0.000000
# 5 0.000000 0.000000 0.000000 0.000000 0.027330 0.000000
# 6 0.000000 0.000000 0.000000 0.000000 0.000000 0.128463
#
#
# Mechanical properties :
#
#
# Convention : Reuss Voigt Hill
#
# Bulk Modulus (GPa) = 73.88887 75.43774 74.66330
# Shear Modulus (GPa) = 20.40393 29.99114 25.19754
#
# Velocity S-wave (km/s) = 3.28865 3.98710 3.65460
# Velocity P-wave (km/s) = 7.32021 7.82190 7.57521
#
# Compressibility (1/GPa) = 0.01353384
#
# Stress axis : x y z
#
# Youngs Moduli (GPa) = 65.52750 87.86690 90.53176
#
# Poissons Ratio (x) = 0.40389 0.38827
# Poissons Ratio (y) = 0.30121 0.28893
# Poissons Ratio (z) = 0.28103 0.28042
#
# Static dielectric constant tensor:
#      x y z
#    x 3.445270 0.000000 0.000000 
#    y 0.000000 3.409290 0.000000 
#    z 0.000000 0.000000 3.600440 
# 
# 
# High freq. dielectric constant tensor:
#      x y z
#    x 1.734560 0.000000 0.000000 
#    y 0.000000 1.722850 0.000000 
#    z 0.000000 0.000000 1.749620 
# 
# From -- ./inp_files/27076.got.cif
#   From: 2010.03.12/outbox.cif.g09.slc.cpg/sg44_14_cif.got.tgz:27076.got - 2010.04.14 02:36:11.
