data_PCOD8189231
_publ_section_title
;
Structure prediction by ZEFSAII (Michael W. Deem and Ramdas Pophale) SiO2 
 PCOD8189231
Probable space group: I M M 2
;
_chemical_formula_sum "Si O2"
_cell_formula_units_Z 64
_cell_length_a 27.620781
_cell_length_b 8.950342
_cell_length_c 14.292910
_cell_angle_alpha 90.000000
_cell_angle_beta 90.000000
_cell_angle_gamma 90.000000
_cell_volume 3533.427981
_symmetry_space_group_name_H-M "I M M 2"
_symmetry_group_IT_number 44
_symmetry_cell_setting 'orthorhombic'
loop_
_space_group_symop_operation_xyz
x,y,z
-x,-y,z
-x,y,z
x,-y,z
1/2+x,1/2+y,1/2+z
1/2-x,1/2-y,1/2+z
1/2-x,1/2+y,1/2+z
1/2+x,1/2-y,1/2+z
loop_
_atom_site_type_symbol
_atom_site_label
_atom_site_fract_x
_atom_site_fract_y
_atom_site_fract_z
Si Si1 0.364323 0.675647 0.435630
Si Si2 0.555976 0.171216 0.551522
Si Si3 0.174964 0.826295 0.568941
Si Si4 0.232004 0.334402 0.301543
Si Si5 0.172919 0.676613 0.751705
Si Si6 0.555622 0.172967 0.765916
Si Si7 0.265166 0.335948 0.512458
Si Si8 0.140915 0.175172 0.363857
O O1 0.363831 0.500000 0.414987
O O2 0.414350 0.723000 0.482491
O O3 0.358166 0.758516 0.336969
O O4 0.321034 0.718199 0.508119
O O5 0.500000 0.193419 0.526328
O O6 0.565575 0.218005 0.658595
O O7 0.571532 0.000000 0.535713
O O8 0.149956 0.734165 0.653537
O O9 0.232187 0.784475 0.565240
O O10 0.148584 0.781238 0.472534
O O11 0.170153 0.000000 0.590778
O O12 0.229332 0.500000 0.255498
O O13 0.271598 0.233076 0.249984
O O14 0.247388 0.350964 0.407493
O O15 0.179584 0.256207 0.296166
O O16 0.171363 0.500000 0.757812
O O17 0.500000 0.204290 0.791733
O O18 0.587563 0.274222 0.834302
O O19 0.568412 0.000000 0.782028
O O20 0.260600 0.500000 0.560817
O O21 0.147583 0.000000 0.349784
#
# Coordination Sequence:
#
# PCOD8189231 Si02
#       8
#     8   8   8   8   8   8   8   8
#     4  10  20  34  53  77 105 136 171 211 256 306
#     4   9  19  36  56  78 103 131 166 208 255 307
#     4  10  20  33  49  72 104 140 175 211 253 301
#     4   9  17  31  49  69  98 133 168 207 248 294
#     4  11  21  33  51  74 103 139 177 215 253 298
#     4   9  19  36  56  77 103 135 169 208 256 308
#     4   8  16  30  46  67  96 130 167 205 243 288
#     4  10  20  33  52  78 106 136 171 213 258 305
#
# _framework density 18.112722999999999
#
# number of rings (size 3 to 8) (size 9 to 14) (size 15 to 20)
#    0.000    2.500    0.000    4.125    0.000    7.000 
#    0.000    3.750    0.000    0.750    0.000    3.500 
#    0.000    0.000    0.000    0.000    0.000    0.000 
#
# Total GULP energy -396737.883821 kJ/mol
# GULP energy per Si atom -12398.058869 kJ/mol
# Density = 1.807150 g / cm^3
# Si number density = 18.112723 Si / 1000 Ang^3
#
#
#
# Elastic Constant Matrix: (Units=GPa)
#
#
# Indices 1 2 3 4 5 6 
#
# 1 86.8136 41.2740 43.6112 0.0000 0.0000 0.0000
# 2 41.2740 107.6148 51.0841 0.0000 0.0000 0.0000
# 3 43.6112 51.0841 84.7605 0.0000 0.0000 0.0000
# 4 0.0000 0.0000 0.0000 29.7980 0.0000 0.0000
# 5 0.0000 0.0000 0.0000 0.0000 22.9043 0.0000
# 6 0.0000 0.0000 0.0000 0.0000 0.0000 30.5361
#
#
#
# Elastic Compliance Matrix: (Units=1/GPa)
#
#
# Indices 1 2 3 4 5 6 
#
# 1 0.016273 -0.003175 -0.006459 0.000000 0.000000 0.000000
# 2 -0.003175 0.013636 -0.006584 0.000000 0.000000 0.000000
# 3 -0.006459 -0.006584 0.019090 0.000000 0.000000 0.000000
# 4 0.000000 0.000000 0.000000 0.033559 0.000000 0.000000
# 5 0.000000 0.000000 0.000000 0.000000 0.043660 0.000000
# 6 0.000000 0.000000 0.000000 0.000000 0.000000 0.032748
#
#
# Mechanical properties :
#
#
# Convention : Reuss Voigt Hill
#
# Bulk Modulus (GPa) = 60.38278 61.23639 60.80959
# Shear Modulus (GPa) = 25.39043 26.19566 25.79305
#
# Velocity S-wave (km/s) = 3.74812 3.80710 3.77773
# Velocity P-wave (km/s) = 7.22086 7.29433 7.25769
#
# Compressibility (1/GPa) = 0.01656101
#
# Stress axis : x y z
#
# Youngs Moduli (GPa) = 61.44993 73.33648 52.38401
#
# Poissons Ratio (x) = 0.23286 0.33837
# Poissons Ratio (y) = 0.19511 0.34492
# Poissons Ratio (z) = 0.39693 0.48288
#
# Static dielectric constant tensor:
#      x y z
#    x 3.232750 0.000000 0.000000 
#    y 0.000000 3.383190 0.000000 
#    z 0.000000 0.000000 3.341060 
# 
# 
# High freq. dielectric constant tensor:
#      x y z
#    x 1.677060 0.000000 0.000000 
#    y 0.000000 1.709800 0.000000 
#    z 0.000000 0.000000 1.695480 
# 
# From -- ./inp_files/19505.got.cif
#   From: 2010.03.12/outbox.cif.g09.slc.cpg/sg44_10_cif.got.tgz:19505.got - 2010.04.14 02:36:11.
