data_PCOD8189848
_publ_section_title
;
Structure prediction by ZEFSAII (Michael W. Deem and Ramdas Pophale) SiO2 
 PCOD8189848
Probable space group: I M M 2
;
_chemical_formula_sum "Si O2"
_cell_formula_units_Z 48
_cell_length_a 18.712652
_cell_length_b 21.014337
_cell_length_c 6.495481
_cell_angle_alpha 90.000000
_cell_angle_beta 90.000000
_cell_angle_gamma 90.000000
_cell_volume 2554.243815
_symmetry_space_group_name_H-M "I M M 2"
_symmetry_group_IT_number 44
_symmetry_cell_setting 'orthorhombic'
loop_
_space_group_symop_operation_xyz
x,y,z
-x,-y,z
-x,y,z
x,-y,z
1/2+x,1/2+y,1/2+z
1/2-x,1/2-y,1/2+z
1/2-x,1/2+y,1/2+z
1/2+x,1/2-y,1/2+z
loop_
_atom_site_type_symbol
_atom_site_label
_atom_site_fract_x
_atom_site_fract_y
_atom_site_fract_z
Si Si1 0.422682 0.925616 0.429500
Si Si2 0.827269 0.262428 0.933019
Si Si3 0.638644 0.857058 0.781481
Si Si4 0.808922 0.177793 0.280674
Si Si5 0.417863 0.254780 0.045626
Si Si6 0.792229 0.575823 0.647797
O O1 0.500000 0.897062 0.361608
O O2 0.410101 0.910088 0.670736
O O3 0.361602 0.901022 0.274754
O O4 0.424615 0.000000 0.407682
O O5 0.751730 0.267643 0.816094
O O6 0.892686 0.264166 0.773518
O O7 0.825361 0.321589 0.089491
O O8 0.838006 0.196082 0.054338
O O9 0.590037 0.807362 0.904380
O O10 0.697840 0.892776 0.922276
O O11 0.870529 0.186150 0.453638
O O12 0.776686 0.106380 0.264570
O O13 0.500000 0.276762 0.050624
O O14 0.781611 0.500000 0.635224
#
# Coordination Sequence:
#
# PCOD8189848 Si02
#       6
#     8   8   8   8   8   8
#     4  10  21  35  51  76 116 160 196 232 275 330
#     4  11  20  35  60  82 114 151 186 237 299 352
#     4  11  20  35  55  81 116 150 192 233 286 345
#     4  11  20  38  60  83 115 154 193 239 298 350
#     4  11  24  37  58  90 120 148 190 245 304 358
#     4  11  23  38  57  84 116 157 207 248 284 345
#
# _framework density 18.792255000000001
#
# number of rings (size 3 to 8) (size 9 to 14) (size 15 to 20)
#    0.000    1.167    5.000    2.000    0.000    6.000 
#    0.000    1.667    0.000    0.500    0.000    0.000 
#    0.000    0.000    0.000    0.000    0.000    0.000 
#
# Total GULP energy -297433.671207 kJ/mol
# GULP energy per Si atom -12393.069634 kJ/mol
# Density = 1.874948 g / cm^3
# Si number density = 18.792255 Si / 1000 Ang^3
#
#
#
# Elastic Constant Matrix: (Units=GPa)
#
#
# Indices 1 2 3 4 5 6 
#
# 1 114.5243 39.8930 44.9855 0.0000 0.0000 0.0000
# 2 39.8930 81.0463 42.5472 0.0000 0.0000 0.0000
# 3 44.9855 42.5472 110.7223 0.0000 0.0000 0.0000
# 4 0.0000 0.0000 0.0000 29.7835 0.0000 0.0000
# 5 0.0000 0.0000 0.0000 0.0000 24.1050 0.0000
# 6 0.0000 0.0000 0.0000 0.0000 0.0000 23.9741
#
#
#
# Elastic Compliance Matrix: (Units=1/GPa)
#
#
# Indices 1 2 3 4 5 6 
#
# 1 0.011319 -0.003955 -0.003079 0.000000 0.000000 0.000000
# 2 -0.003955 0.016839 -0.004864 0.000000 0.000000 0.000000
# 3 -0.003079 -0.004864 0.012152 0.000000 0.000000 0.000000
# 4 0.000000 0.000000 0.000000 0.033576 0.000000 0.000000
# 5 0.000000 0.000000 0.000000 0.000000 0.041485 0.000000
# 6 0.000000 0.000000 0.000000 0.000000 0.000000 0.041712
#
#
# Mechanical properties :
#
#
# Convention : Reuss Voigt Hill
#
# Bulk Modulus (GPa) = 60.55580 62.34939 61.45260
# Shear Modulus (GPa) = 26.82667 27.49700 27.16184
#
# Velocity S-wave (km/s) = 3.78238 3.82934 3.80593
# Velocity P-wave (km/s) = 7.16721 7.26650 7.21703
#
# Compressibility (1/GPa) = 0.01651369
#
# Stress axis : x y z
#
# Youngs Moduli (GPa) = 88.34792 59.38695 82.29414
#
# Poissons Ratio (x) = 0.23488 0.25338
# Poissons Ratio (y) = 0.34942 0.40025
# Poissons Ratio (z) = 0.27202 0.28884
#
# Static dielectric constant tensor:
#      x y z
#    x 3.618980 0.000000 0.000000 
#    y 0.000000 3.311250 0.000000 
#    z 0.000000 0.000000 3.761240 
# 
# 
# High freq. dielectric constant tensor:
#      x y z
#    x 1.705350 0.000000 0.000000 
#    y 0.000000 1.706490 0.000000 
#    z 0.000000 0.000000 1.749710 
# 
# From -- ./inp_files/2032.got.cif
#   From: 2010.03.12/outbox.cif.g09.slc.cpg/sg44_2_cif.got.tgz:2032.got - 2010.04.14 02:36:11.
