data_PCOD8189787
_publ_section_title
;
Structure prediction by ZEFSAII (Michael W. Deem and Ramdas Pophale) SiO2 
 PCOD8189787
Probable space group: I M M 2
;
_chemical_formula_sum "Si O2"
_cell_formula_units_Z 64
_cell_length_a 30.533151
_cell_length_b 8.862508
_cell_length_c 11.980490
_cell_angle_alpha 90.000000
_cell_angle_beta 90.000000
_cell_angle_gamma 90.000000
_cell_volume 3241.924128
_symmetry_space_group_name_H-M "I M M 2"
_symmetry_group_IT_number 44
_symmetry_cell_setting 'orthorhombic'
loop_
_space_group_symop_operation_xyz
x,y,z
-x,-y,z
-x,y,z
x,-y,z
1/2+x,1/2+y,1/2+z
1/2-x,1/2-y,1/2+z
1/2-x,1/2+y,1/2+z
1/2+x,1/2-y,1/2+z
loop_
_atom_site_type_symbol
_atom_site_label
_atom_site_fract_x
_atom_site_fract_y
_atom_site_fract_z
Si Si1 0.449924 0.825652 0.671240
Si Si2 0.375838 0.678052 0.526049
Si Si3 0.376142 0.321591 0.268745
Si Si4 0.294572 0.321271 0.128125
Si Si5 0.548893 0.171653 0.128363
Si Si6 0.569293 0.671117 0.904043
Si Si7 0.197575 0.677514 0.172227
Si Si8 0.328827 0.329469 0.893461
O O1 0.500000 0.804803 0.632125
O O2 0.419287 0.742498 0.582827
O O3 0.443840 0.758884 0.793451
O O4 0.436245 0.000000 0.675066
O O5 0.376206 0.500000 0.542843
O O6 0.375200 0.726585 0.397438
O O7 0.331813 0.741534 0.580277
O O8 0.378847 0.500000 0.254001
O O9 0.332290 0.256048 0.209604
O O10 0.419181 0.253254 0.213921
O O11 0.296010 0.500000 0.136540
O O12 0.247113 0.259851 0.164023
O O13 0.302431 0.270504 0.000853
O O14 0.500000 0.178703 0.179531
O O15 0.564577 0.000000 0.112138
O O16 0.546721 0.250994 0.008632
O O17 0.552325 0.500000 0.893095
O O18 0.620734 0.674521 0.925889
O O19 0.195234 0.500000 0.151156
O O20 0.179947 0.714131 0.294466
O O21 0.314998 0.500000 0.859272
#
# Coordination Sequence:
#
# PCOD8189787 Si02
#       8
#     8   8   8   8   8   8   8   8
#     4  11  24  41  62  88 121 159 199 249 306 361
#     4  11  24  41  63  88 120 160 203 252 301 358
#     4  10  22  43  65  85 116 160 207 252 298 354
#     4   9  20  40  62  87 120 157 196 245 300 352
#     4  11  24  40  60  90 126 159 196 247 305 362
#     4  11  21  37  64  92 123 160 199 246 298 356
#     4  11  23  38  62  91 123 160 198 245 302 360
#     4  10  20  38  63  88 121 158 198 248 298 351
#
# _framework density 19.741361000000001
#
# number of rings (size 3 to 8) (size 9 to 14) (size 15 to 20)
#    0.000    1.500    2.500    2.250    1.750    5.500 
#    0.000    4.375    0.000    0.000    0.000    0.000 
#    0.000    0.000    0.000    0.000    0.000    0.000 
#
# Total GULP energy -396914.010484 kJ/mol
# GULP energy per Si atom -12403.562828 kJ/mol
# Density = 1.969643 g / cm^3
# Si number density = 19.741361 Si / 1000 Ang^3
#
#
#
# Elastic Constant Matrix: (Units=GPa)
#
#
# Indices 1 2 3 4 5 6 
#
# 1 114.0100 29.1262 60.5099 0.0000 0.0000 0.0000
# 2 29.1262 64.3491 52.8990 0.0000 0.0000 0.0000
# 3 60.5099 52.8990 137.8330 0.0000 0.0000 0.0000
# 4 0.0000 0.0000 0.0000 11.0501 0.0000 0.0000
# 5 0.0000 0.0000 0.0000 0.0000 16.4908 0.0000
# 6 0.0000 0.0000 0.0000 0.0000 0.0000 26.0677
#
#
#
# Elastic Compliance Matrix: (Units=1/GPa)
#
#
# Indices 1 2 3 4 5 6 
#
# 1 0.011540 -0.001547 -0.004473 0.000000 0.000000 0.000000
# 2 -0.001547 0.022910 -0.008114 0.000000 0.000000 0.000000
# 3 -0.004473 -0.008114 0.012333 0.000000 0.000000 0.000000
# 4 0.000000 0.000000 0.000000 0.090497 0.000000 0.000000
# 5 0.000000 0.000000 0.000000 0.000000 0.060640 0.000000
# 6 0.000000 0.000000 0.000000 0.000000 0.000000 0.038362
#
#
# Mechanical properties :
#
#
# Convention : Reuss Voigt Hill
#
# Bulk Modulus (GPa) = 54.00426 66.80692 60.40559
# Shear Modulus (GPa) = 18.46927 22.29884 20.38405
#
# Velocity S-wave (km/s) = 3.06201 3.36452 3.21683
# Velocity P-wave (km/s) = 6.31795 7.00056 6.66800
#
# Compressibility (1/GPa) = 0.01851706
#
# Stress axis : x y z
#
# Youngs Moduli (GPa) = 86.65450 43.64841 81.08527
#
# Poissons Ratio (x) = 0.06751 0.36267
# Poissons Ratio (y) = 0.13402 0.65791
# Poissons Ratio (z) = 0.38757 0.35416
#
# Static dielectric constant tensor:
#      x y z
#    x 3.871060 0.000000 0.000000 
#    y 0.000000 3.586820 0.000000 
#    z 0.000000 0.000000 3.651110 
# 
# 
# High freq. dielectric constant tensor:
#      x y z
#    x 1.784920 0.000000 0.000000 
#    y 0.000000 1.764370 0.000000 
#    z 0.000000 0.000000 1.773040 
# 
# From -- ./inp_files/15028.got.cif
#   From: 2010.03.12/outbox.cif.g09.slc.cpg/sg44_8_cif.got.tgz:15028.got - 2010.04.14 02:36:11.
