data_PCOD8189299
_publ_section_title
;
Structure prediction by ZEFSAII (Michael W. Deem and Ramdas Pophale) SiO2 
 PCOD8189299
Probable space group: I M M 2
;
_chemical_formula_sum "Si O2"
_cell_formula_units_Z 64
_cell_length_a 9.667376
_cell_length_b 18.526563
_cell_length_c 18.565117
_cell_angle_alpha 90.000000
_cell_angle_beta 90.000000
_cell_angle_gamma 90.000000
_cell_volume 3325.072801
_symmetry_space_group_name_H-M "I M M 2"
_symmetry_group_IT_number 44
_symmetry_cell_setting 'orthorhombic'
loop_
_space_group_symop_operation_xyz
x,y,z
-x,-y,z
-x,y,z
x,-y,z
1/2+x,1/2+y,1/2+z
1/2-x,1/2-y,1/2+z
1/2-x,1/2+y,1/2+z
1/2+x,1/2-y,1/2+z
loop_
_atom_site_type_symbol
_atom_site_label
_atom_site_fract_x
_atom_site_fract_y
_atom_site_fract_z
Si Si1 0.347876 0.420008 0.595210
Si Si2 0.836034 0.698977 0.657646
Si Si3 0.842068 0.417729 0.196661
Si Si4 0.336217 0.582327 0.930603
Si Si5 0.847723 0.336747 0.335525
Si Si6 0.848524 0.921327 0.926085
Si Si7 0.155707 0.822066 0.299214
Si Si8 0.337667 0.650432 0.080742
O O1 0.500000 0.392072 0.622166
O O2 0.321623 0.500000 0.627837
O O3 0.220257 0.369895 0.615574
O O4 0.351195 0.424842 0.510659
O O5 0.759692 0.694686 0.734282
O O6 0.798540 0.769236 0.609169
O O7 0.000000 0.693078 0.669834
O O8 0.830775 0.500000 0.222785
O O9 0.785620 0.365231 0.259811
O O10 0.745266 0.407182 0.127926
O O11 0.000000 0.397411 0.176128
O O12 0.500000 0.579487 0.928302
O O13 0.277404 0.500000 0.937577
O O14 0.284872 0.617659 0.854851
O O15 0.291613 0.633450 0.998158
O O16 0.758023 0.361355 0.402341
O O17 0.854276 0.251457 0.343491
O O18 0.000000 0.371026 0.343142
O O19 0.000000 0.900417 0.896372
O O20 0.805863 0.000000 0.895368
O O21 0.000000 0.842947 0.271816
O O22 0.500000 0.636298 0.090684
#
# Coordination Sequence:
#
# PCOD8189299 Si02
#       8
#     8   8   8   8   8   8   8   8
#     4   9  20  39  60  82 111 150 193 233 283 351
#     4  11  23  37  58  88 120 150 189 243 297 348
#     4  10  20  34  53  79 112 150 190 231 283 348
#     4   9  19  37  61  87 112 145 195 246 288 340
#     4  10  20  33  52  78 112 152 191 233 282 341
#     4   9  19  35  54  79 111 145 184 230 278 336
#     4  10  21  38  60  82 111 152 195 235 284 347
#     4  10  21  37  58  84 115 149 189 238 293 349
#
# _framework density 19.247699000000001
#
# number of rings (size 3 to 8) (size 9 to 14) (size 15 to 20)
#    0.000    2.250    1.250    1.875    1.750    4.250 
#    0.000    3.125    0.000    0.750    0.000    0.000 
#    0.000    0.000    0.000    0.000    0.000    0.000 
#
# Total GULP energy -396562.964178 kJ/mol
# GULP energy per Si atom -12392.592631 kJ/mol
# Density = 1.920389 g / cm^3
# Si number density = 19.247699 Si / 1000 Ang^3
#
#
#
# Elastic Constant Matrix: (Units=GPa)
#
#
# Indices 1 2 3 4 5 6 
#
# 1 72.6343 42.1048 37.6133 0.0000 0.0000 0.0000
# 2 42.1048 107.5796 55.5982 0.0000 0.0000 0.0000
# 3 37.6133 55.5982 88.5260 0.0000 0.0000 0.0000
# 4 0.0000 0.0000 0.0000 27.6329 0.0000 0.0000
# 5 0.0000 0.0000 0.0000 0.0000 32.7804 0.0000
# 6 0.0000 0.0000 0.0000 0.0000 0.0000 22.6784
#
#
#
# Elastic Compliance Matrix: (Units=1/GPa)
#
#
# Indices 1 2 3 4 5 6 
#
# 1 0.019249 -0.004896 -0.005103 0.000000 0.000000 0.000000
# 2 -0.004896 0.015008 -0.007345 0.000000 0.000000 0.000000
# 3 -0.005103 -0.007345 0.018078 0.000000 0.000000 0.000000
# 4 0.000000 0.000000 0.000000 0.036189 0.000000 0.000000
# 5 0.000000 0.000000 0.000000 0.000000 0.030506 0.000000
# 6 0.000000 0.000000 0.000000 0.000000 0.000000 0.044095
#
#
# Mechanical properties :
#
#
# Convention : Reuss Voigt Hill
#
# Bulk Modulus (GPa) = 56.67524 59.93028 58.30276
# Shear Modulus (GPa) = 24.54654 25.51325 25.02989
#
# Velocity S-wave (km/s) = 3.57500 3.64472 3.61003
# Velocity P-wave (km/s) = 6.82276 6.99399 6.90890
#
# Compressibility (1/GPa) = 0.01764439
#
# Stress axis : x y z
#
# Youngs Moduli (GPa) = 51.95193 66.63199 55.31676
#
# Poissons Ratio (x) = 0.32623 0.28231
# Poissons Ratio (y) = 0.25436 0.40632
# Poissons Ratio (z) = 0.26514 0.48943
#
# Static dielectric constant tensor:
#      x y z
#    x 3.501000 0.000000 0.000000 
#    y 0.000000 4.488240 0.000000 
#    z 0.000000 0.000000 3.440470 
# 
# 
# High freq. dielectric constant tensor:
#      x y z
#    x 1.730620 0.000000 0.000000 
#    y 0.000000 1.754430 0.000000 
#    z 0.000000 0.000000 1.744160 
# 
# From -- ./inp_files/23289.got.cif
#   From: 2010.03.12/outbox.cif.g09.slc.cpg/sg44_12_cif.got.tgz:23289.got - 2010.04.14 02:36:11.
