data_PCOD8189927
_publ_section_title
;
Structure prediction by ZEFSAII (Michael W. Deem and Ramdas Pophale) SiO2 
 PCOD8189927
Probable space group: I M M 2
;
_chemical_formula_sum "Si O2"
_cell_formula_units_Z 64
_cell_length_a 12.665282
_cell_length_b 29.660080
_cell_length_c 8.552499
_cell_angle_alpha 90.000000
_cell_angle_beta 90.000000
_cell_angle_gamma 90.000000
_cell_volume 3212.774279
_symmetry_space_group_name_H-M "I M M 2"
_symmetry_group_IT_number 44
_symmetry_cell_setting 'orthorhombic'
loop_
_space_group_symop_operation_xyz
x,y,z
-x,-y,z
-x,y,z
x,-y,z
1/2+x,1/2+y,1/2+z
1/2-x,1/2-y,1/2+z
1/2-x,1/2+y,1/2+z
1/2+x,1/2-y,1/2+z
loop_
_atom_site_type_symbol
_atom_site_label
_atom_site_fract_x
_atom_site_fract_y
_atom_site_fract_z
Si Si1 0.621798 0.363935 0.587540
Si Si2 0.381563 0.550448 0.390807
Si Si3 0.809870 0.549248 0.174223
Si Si4 0.239039 0.203939 0.869145
Si Si5 0.120353 0.729098 0.644712
Si Si6 0.379369 0.048192 0.336411
Si Si7 0.379982 0.856361 0.649142
Si Si8 0.809330 0.640890 0.797070
O O1 0.500000 0.354829 0.626080
O O2 0.643339 0.414910 0.530346
O O3 0.659807 0.330302 0.452581
O O4 0.686885 0.354626 0.746632
O O5 0.500000 0.558768 0.328053
O O6 0.368522 0.500000 0.460327
O O7 0.306785 0.557695 0.241644
O O8 0.854167 0.500000 0.233903
O O9 0.879967 0.592765 0.221803
O O10 0.802943 0.547631 0.986674
O O11 0.166648 0.237910 0.774211
O O12 0.320939 0.177645 0.761416
O O13 0.308337 0.233118 0.990134
O O14 0.121296 0.678163 0.709653
O O15 0.000000 0.742480 0.605795
O O16 0.500000 0.053105 0.396455
O O17 0.350502 0.091924 0.233711
O O18 0.365649 0.000000 0.245281
O O19 0.500000 0.839955 0.629664
O O20 0.320773 0.855285 0.482838
#
# Coordination Sequence:
#
# PCOD8189927 Si02
#       8
#     8   8   8   8   8   8   8   8
#     4  10  21  39  58  82 116 154 194 238 284 336
#     4   9  17  31  53  80 113 155 196 236 285 334
#     4   9  16  29  52  83 115 150 190 233 281 338
#     4  11  23  41  62  90 113 148 190 237 289 353
#     4  11  23  41  63  87 117 150 188 240 291 344
#     4   9  17  31  53  80 114 154 191 230 282 340
#     4  11  21  37  60  87 118 154 191 235 289 344
#     4  10  21  36  58  85 117 153 193 233 283 341
#
# _framework density 19.920479
#
# number of rings (size 3 to 8) (size 9 to 14) (size 15 to 20)
#    0.000    2.000    1.250    3.750    0.000    1.250 
#    0.000   11.875    0.000    0.750    0.000    0.000 
#    0.000    0.000    0.000    0.000    0.000    0.000 
#
# Total GULP energy -396596.298778 kJ/mol
# GULP energy per Si atom -12393.634337 kJ/mol
# Density = 1.987514 g / cm^3
# Si number density = 19.920479 Si / 1000 Ang^3
#
#
#
# Elastic Constant Matrix: (Units=GPa)
#
#
# Indices 1 2 3 4 5 6 
#
# 1 129.7290 41.0011 49.9983 -0.0001 0.0076 0.0001
# 2 41.0011 105.4445 25.7362 0.0014 0.0002 -0.0001
# 3 49.9983 25.7362 63.2592 -0.0023 0.0307 -0.0014
# 4 -0.0001 0.0014 -0.0023 26.6674 0.0024 -0.0007
# 5 0.0076 0.0002 0.0307 0.0024 23.5624 0.0013
# 6 0.0001 -0.0001 -0.0014 -0.0007 0.0013 27.8814
#
#
#
# Elastic Compliance Matrix: (Units=1/GPa)
#
#
# Indices 1 2 3 4 5 6 
#
# 1 0.011666 -0.002538 -0.008188 -0.000001 0.000007 0.000000
# 2 -0.002538 0.011081 -0.002502 -0.000001 0.000004 0.000000
# 3 -0.008188 -0.002502 0.023298 0.000002 -0.000028 0.000001
# 4 -0.000001 -0.000001 0.000002 0.037499 -0.000004 0.000001
# 5 0.000007 0.000004 -0.000028 -0.000004 0.042441 -0.000002
# 6 0.000000 0.000000 0.000001 0.000001 -0.000002 0.035866
#
#
# Mechanical properties :
#
#
# Convention : Reuss Voigt Hill
#
# Bulk Modulus (GPa) = 51.05068 59.10043 55.07556
# Shear Modulus (GPa) = 25.66241 27.73536 26.69889
#
# Velocity S-wave (km/s) = 3.59310 3.73541 3.66495
# Velocity P-wave (km/s) = 6.54956 6.95248 6.75402
#
# Compressibility (1/GPa) = 0.01958838
#
# Stress axis : x y z
#
# Youngs Moduli (GPa) = 85.71746 90.24260 42.92242
#
# Poissons Ratio (x) = 0.22902 0.35146
# Poissons Ratio (y) = 0.21753 0.10741
# Poissons Ratio (z) = 0.70187 0.22583
#
# Static dielectric constant tensor:
#      x y z
#    x 3.580650 0.000000 0.000010 
#    y 0.000000 4.084720 -0.000010 
#    z 0.000010 -0.000010 3.320790 
# 
# 
# High freq. dielectric constant tensor:
#      x y z
#    x 1.774510 0.000000 0.000000 
#    y 0.000000 1.799820 0.000000 
#    z 0.000000 0.000000 1.745930 
# 
# From -- ./inp_files/6385.got.cif
#   From: 2010.03.12/outbox.cif.g09.slc.cpg/sg44_4_cif.got.tgz:6385.got - 2010.04.14 02:36:11.
