data_PCOD8189164
_publ_section_title
;
Structure prediction by ZEFSAII (Michael W. Deem and Ramdas Pophale) SiO2 
 PCOD8189164
Probable space group: I M M 2
;
_chemical_formula_sum "Si O2"
_cell_formula_units_Z 64
_cell_length_a 8.916399
_cell_length_b 30.080533
_cell_length_c 14.229550
_cell_angle_alpha 90.000000
_cell_angle_beta 90.000000
_cell_angle_gamma 90.000000
_cell_volume 3816.508094
_symmetry_space_group_name_H-M "I M M 2"
_symmetry_group_IT_number 44
_symmetry_cell_setting 'orthorhombic'
loop_
_space_group_symop_operation_xyz
x,y,z
-x,-y,z
-x,y,z
x,-y,z
1/2+x,1/2+y,1/2+z
1/2-x,1/2-y,1/2+z
1/2-x,1/2+y,1/2+z
1/2+x,1/2-y,1/2+z
loop_
_atom_site_type_symbol
_atom_site_label
_atom_site_fract_x
_atom_site_fract_y
_atom_site_fract_z
Si Si1 0.323308 0.322076 0.443050
Si Si2 0.677053 0.784614 0.645830
Si Si3 0.824855 0.049998 0.819513
Si Si4 0.673333 0.268395 0.951182
Si Si5 0.823389 0.633523 0.273532
Si Si6 0.171756 0.450598 0.516542
Si Si7 0.828356 0.805116 0.254287
Si Si8 0.174484 0.637427 0.616730
O O1 0.500000 0.325986 0.432832
O O2 0.269590 0.273201 0.416176
O O3 0.243551 0.357214 0.376072
O O4 0.272002 0.331453 0.548749
O O5 0.500000 0.784732 0.626466
O O6 0.763726 0.787817 0.547753
O O7 0.729089 0.828971 0.700601
O O8 0.723836 0.741358 0.705934
O O9 0.740441 0.084384 0.749072
O O10 0.000000 0.059261 0.812981
O O11 0.784286 0.000000 0.786857
O O12 0.776261 0.057332 0.927194
O O13 0.500000 0.254358 0.963556
O O14 0.690753 0.303809 0.866963
O O15 0.000000 0.632174 0.280560
O O16 0.198741 0.500000 0.558896
O O17 0.209944 0.414625 0.597799
O O18 0.000000 0.445008 0.482826
O O19 0.727451 0.846789 0.219849
O O20 0.000000 0.814241 0.227029
O O21 0.000000 0.647722 0.602816
#
# Coordination Sequence:
#
# PCOD8189164 Si02
#       8
#     8   8   8   8   8   8   8   8
#     4  12  22  31  48  72 103 137 169 209 252 294
#     4  10  21  36  52  73 102 133 168 210 253 297
#     4  10  20  32  48  74 105 134 167 207 251 301
#     4  11  22  37  53  71  99 134 174 213 249 297
#     4  11  21  35  52  72 101 137 175 210 249 301
#     4   9  18  32  49  70 100 135 167 204 250 298
#     4  10  21  36  51  71 102 135 167 207 252 295
#     4  11  21  32  50  75 100 133 175 208 243 300
#
# _framework density 16.769255999999999
#
# number of rings (size 3 to 8) (size 9 to 14) (size 15 to 20)
#    0.000    1.500    3.750    2.625    0.000    3.250 
#    0.000    0.000    0.000    0.000    0.000    0.875 
#    0.000    3.000    0.000    0.000    0.000    0.000 
#
# Total GULP energy -396777.435573 kJ/mol
# GULP energy per Si atom -12399.294862 kJ/mol
# Density = 1.673109 g / cm^3
# Si number density = 16.769256 Si / 1000 Ang^3
#
#
#
# Elastic Constant Matrix: (Units=GPa)
#
#
# Indices 1 2 3 4 5 6 
#
# 1 65.5682 47.1679 27.6567 0.0006 -0.0001 0.0000
# 2 47.1679 104.8735 32.4907 0.0005 0.0000 0.0001
# 3 27.6567 32.4907 69.1568 0.0013 0.0003 -0.0003
# 4 0.0006 0.0005 0.0013 25.0519 0.0000 -0.0001
# 5 -0.0001 0.0000 0.0003 0.0000 26.3928 0.0001
# 6 0.0000 0.0001 -0.0003 -0.0001 0.0001 26.5177
#
#
#
# Elastic Compliance Matrix: (Units=1/GPa)
#
#
# Indices 1 2 3 4 5 6 
#
# 1 0.024111 -0.009195 -0.005322 0.000000 0.000000 0.000000
# 2 -0.009195 0.014666 -0.003213 0.000000 0.000000 0.000000
# 3 -0.005322 -0.003213 0.018098 -0.000001 0.000000 0.000000
# 4 0.000000 0.000000 -0.000001 0.039917 0.000000 0.000000
# 5 0.000000 0.000000 0.000000 0.000000 0.037889 0.000000
# 6 0.000000 0.000000 0.000000 0.000000 0.000000 0.037711
#
#
# Mechanical properties :
#
#
# Convention : Reuss Voigt Hill
#
# Bulk Modulus (GPa) = 46.69845 50.46990 48.58417
# Shear Modulus (GPa) = 23.25672 24.41137 23.83404
#
# Velocity S-wave (km/s) = 3.72811 3.81953 3.77410
# Velocity P-wave (km/s) = 6.81468 7.04370 6.93014
#
# Compressibility (1/GPa) = 0.02141399
#
# Stress axis : x y z
#
# Youngs Moduli (GPa) = 41.47477 68.18292 55.25500
#
# Poissons Ratio (x) = 0.62696 0.29408
# Poissons Ratio (y) = 0.38137 0.17754
# Poissons Ratio (z) = 0.22074 0.21908
#
# Static dielectric constant tensor:
#      x y z
#    x 3.175920 0.000000 0.000000 
#    y 0.000000 3.392200 0.000000 
#    z 0.000000 0.000000 2.928870 
# 
# 
# High freq. dielectric constant tensor:
#      x y z
#    x 1.656840 0.000000 0.000000 
#    y 0.000000 1.643420 0.000000 
#    z 0.000000 0.000000 1.611750 
# 
# From -- ./inp_files/17085.got.cif
#   From: 2010.03.12/outbox.cif.g09.slc.cpg/sg44_9_cif.got.tgz:17085.got - 2010.04.14 02:36:11.
