data_PCOD8189736
_publ_section_title
;
Structure prediction by ZEFSAII (Michael W. Deem and Ramdas Pophale) SiO2 
 PCOD8189736
Probable space group: I M M 2
;
_chemical_formula_sum "Si O2"
_cell_formula_units_Z 48
_cell_length_a 27.708730
_cell_length_b 9.973092
_cell_length_c 9.331755
_cell_angle_alpha 90.000000
_cell_angle_beta 90.000000
_cell_angle_gamma 90.000000
_cell_volume 2578.753167
_symmetry_space_group_name_H-M "I M M 2"
_symmetry_group_IT_number 44
_symmetry_cell_setting 'orthorhombic'
loop_
_space_group_symop_operation_xyz
x,y,z
-x,-y,z
-x,y,z
x,-y,z
1/2+x,1/2+y,1/2+z
1/2-x,1/2-y,1/2+z
1/2-x,1/2+y,1/2+z
1/2+x,1/2-y,1/2+z
loop_
_atom_site_type_symbol
_atom_site_label
_atom_site_fract_x
_atom_site_fract_y
_atom_site_fract_z
Si Si1 0.554726 0.000000 0.933940
Si Si2 0.711992 0.654561 0.891612
Si Si3 0.605465 0.739654 0.600105
Si Si4 0.944929 0.000000 0.601035
Si Si5 0.943400 0.000000 0.939548
Si Si6 0.605138 0.730094 0.931347
Si Si7 0.290126 0.844426 0.638160
Si Si8 0.552797 0.000000 0.594639
O O1 0.586033 0.126500 0.984761
O O2 0.500000 0.000000 0.998803
O O3 0.550755 0.000000 0.764646
O O4 0.704738 0.500000 0.836923
O O5 0.662288 0.714632 0.953341
O O6 0.730702 0.755812 0.768866
O O7 0.751057 0.656638 0.015125
O O8 0.586009 0.624652 0.499264
O O9 0.591864 0.705317 0.764605
O O10 0.662342 0.766465 0.584725
O O11 0.579792 0.870283 0.538432
O O12 0.920957 0.870895 0.534812
O O13 0.938353 0.000000 0.770206
O O14 0.000000 0.000000 0.554608
O O15 0.000000 0.000000 0.986718
O O16 0.301626 0.000000 0.683794
O O17 0.500000 0.000000 0.525980
#
# Coordination Sequence:
#
# PCOD8189736 Si02
#       8
#     4   8   8   4   4   8   8   4
#     4   9  18  32  56  89 114 140 187 237 288 345
#     4  10  22  39  60  89 121 153 197 239 293 351
#     4  10  20  37  60  87 115 151 194 245 290 340
#     4  11  23  39  56  81 120 158 195 241 298 351
#     4  11  25  39  56  85 122 158 199 241 292 355
#     4  10  20  37  61  87 113 152 192 246 290 342
#     4  10  22  40  61  89 121 154 193 243 294 349
#     4   9  16  30  56  85 112 140 183 235 292 337
#
# _framework density 18.613645999999999
#
# number of rings (size 3 to 8) (size 9 to 14) (size 15 to 20)
#    0.000    2.000    1.667    1.500    7.000    4.667 
#    0.000    0.833    0.000    3.000    0.000    0.000 
#    0.000    0.000    0.000    0.000    0.000    0.000 
#
# Total GULP energy -297518.328344 kJ/mol
# GULP energy per Si atom -12396.597014 kJ/mol
# Density = 1.857128 g / cm^3
# Si number density = 18.613646 Si / 1000 Ang^3
#
#
#
# Elastic Constant Matrix: (Units=GPa)
#
#
# Indices 1 2 3 4 5 6 
#
# 1 93.0488 60.3724 43.2813 0.0000 0.0000 0.0000
# 2 60.3724 164.7701 51.6359 0.0000 0.0000 0.0000
# 3 43.2813 51.6359 61.5075 0.0000 0.0000 0.0000
# 4 0.0000 0.0000 0.0000 2.9158 0.0000 0.0000
# 5 0.0000 0.0000 0.0000 0.0000 27.0272 0.0000
# 6 0.0000 0.0000 0.0000 0.0000 0.0000 35.9655
#
#
#
# Elastic Compliance Matrix: (Units=1/GPa)
#
#
# Indices 1 2 3 4 5 6 
#
# 1 0.017291 -0.003423 -0.009293 0.000000 0.000000 0.000000
# 2 -0.003423 0.008913 -0.005074 0.000000 0.000000 0.000000
# 3 -0.009293 -0.005074 0.027058 0.000000 0.000000 0.000000
# 4 0.000000 0.000000 0.000000 0.342961 0.000000 0.000000
# 5 0.000000 0.000000 0.000000 0.000000 0.037000 0.000000
# 6 0.000000 0.000000 0.000000 0.000000 0.000000 0.027804
#
#
# Mechanical properties :
#
#
# Convention : Reuss Voigt Hill
#
# Bulk Modulus (GPa) = 56.55959 69.98953 63.27456
# Shear Modulus (GPa) = 9.95022 24.11748 17.03385
#
# Velocity S-wave (km/s) = 2.31458 3.60347 3.02839
# Velocity P-wave (km/s) = 6.13148 7.41594 6.80409
#
# Compressibility (1/GPa) = 0.01768047
#
# Stress axis : x y z
#
# Youngs Moduli (GPa) = 57.83419 112.19025 36.95819
#
# Poissons Ratio (x) = 0.38403 0.34347
# Poissons Ratio (y) = 0.19797 0.18753
# Poissons Ratio (z) = 0.53748 0.56927
#
# Static dielectric constant tensor:
#      x y z
#    x 3.583200 0.000000 0.000000 
#    y 0.000000 3.789060 0.000000 
#    z 0.000000 0.000000 3.140760 
# 
# 
# High freq. dielectric constant tensor:
#      x y z
#    x 1.736110 0.000000 0.000000 
#    y 0.000000 1.742970 0.000000 
#    z 0.000000 0.000000 1.691010 
# 
# From -- ./inp_files/10026.got.cif
#   From: 2010.03.12/outbox.cif.g09.slc.cpg/sg44_6_cif.got.tgz:10026.got - 2010.04.14 02:36:11.
