data_PCOD8189645
_publ_section_title
;
Structure prediction by ZEFSAII (Michael W. Deem and Ramdas Pophale) SiO2 
 PCOD8189645
Probable space group: I M M 2
;
_chemical_formula_sum "Si O2"
_cell_formula_units_Z 56
_cell_length_a 20.078025
_cell_length_b 14.207577
_cell_length_c 9.578446
_cell_angle_alpha 90.000000
_cell_angle_beta 90.000000
_cell_angle_gamma 90.000000
_cell_volume 2732.348332
_symmetry_space_group_name_H-M "I M M 2"
_symmetry_group_IT_number 44
_symmetry_cell_setting 'orthorhombic'
loop_
_space_group_symop_operation_xyz
x,y,z
-x,-y,z
-x,y,z
x,-y,z
1/2+x,1/2+y,1/2+z
1/2-x,1/2-y,1/2+z
1/2-x,1/2+y,1/2+z
1/2+x,1/2-y,1/2+z
loop_
_atom_site_type_symbol
_atom_site_label
_atom_site_fract_x
_atom_site_fract_y
_atom_site_fract_z
Si Si1 0.924130 0.890568 0.227250
Si Si2 0.573642 0.895443 0.338792
Si Si3 0.168578 0.893323 0.727389
Si Si4 0.209333 0.396917 0.433236
Si Si5 0.716473 0.104488 0.242908
Si Si6 0.677357 0.695149 0.928282
Si Si7 0.575639 0.700340 0.448581
O O1 0.882514 0.863459 0.362831
O O2 0.000000 0.860827 0.256285
O O3 0.916993 0.000000 0.197286
O O4 0.893483 0.837743 0.092689
O O5 0.500000 0.885358 0.264754
O O6 0.635971 0.880274 0.234440
O O7 0.579800 0.814217 0.455470
O O8 0.578692 0.000000 0.407708
O O9 0.235013 0.895595 0.816571
O O10 0.183949 0.833982 0.588849
O O11 0.111304 0.840629 0.812638
O O12 0.146042 0.000000 0.691070
O O13 0.172409 0.500000 0.428294
O O14 0.243646 0.383925 0.585687
O O15 0.161200 0.306835 0.412312
O O16 0.752424 0.175926 0.348842
O O17 0.733092 0.000000 0.299279
O O18 0.500000 0.664455 0.438358
#
# Coordination Sequence:
#
# PCOD8189645 Si02
#       7
#     8   8   8   8   8   8   8
#     4  10  22  40  60  83 113 150 189 228 278 342
#     4   9  18  33  55  85 117 148 189 238 280 324
#     4  11  23  37  55  85 118 145 183 239 293 331
#     4  10  22  38  56  80 112 148 186 229 278 335
#     4  10  20  36  58  82 110 150 193 229 276 336
#     4  12  22  37  59  84 115 148 188 234 282 333
#     4  10  20  36  58  82 111 151 193 231 279 339
#
# _framework density 20.495189
#
# number of rings (size 3 to 8) (size 9 to 14) (size 15 to 20)
#    0.000    1.714    0.000    5.143    0.000    3.714 
#    0.000    2.857    0.000    2.143    0.000    1.000 
#    0.000    5.714    0.000    0.000    0.000    0.000 
#
# Total GULP energy -347009.037505 kJ/mol
# GULP energy per Si atom -12393.179911 kJ/mol
# Density = 2.044854 g / cm^3
# Si number density = 20.495189 Si / 1000 Ang^3
#
#
#
# Elastic Constant Matrix: (Units=GPa)
#
#
# Indices 1 2 3 4 5 6 
#
# 1 83.0677 29.1301 40.7794 0.0000 0.0000 0.0000
# 2 29.1301 143.8128 36.7083 0.0000 0.0000 0.0000
# 3 40.7794 36.7083 119.7638 0.0000 0.0000 0.0000
# 4 0.0000 0.0000 0.0000 28.1704 0.0000 0.0000
# 5 0.0000 0.0000 0.0000 0.0000 18.7286 0.0000
# 6 0.0000 0.0000 0.0000 0.0000 0.0000 23.6650
#
#
#
# Elastic Compliance Matrix: (Units=1/GPa)
#
#
# Indices 1 2 3 4 5 6 
#
# 1 0.014904 -0.001870 -0.004502 0.000000 0.000000 0.000000
# 2 -0.001870 0.007778 -0.001747 0.000000 0.000000 0.000000
# 3 -0.004502 -0.001747 0.010418 0.000000 0.000000 0.000000
# 4 0.000000 0.000000 0.000000 0.035498 0.000000 0.000000
# 5 0.000000 0.000000 0.000000 0.000000 0.053394 0.000000
# 6 0.000000 0.000000 0.000000 0.000000 0.000000 0.042257
#
#
# Mechanical properties :
#
#
# Convention : Reuss Voigt Hill
#
# Bulk Modulus (GPa) = 59.30279 62.20889 60.75584
# Shear Modulus (GPa) = 26.86610 30.11457 28.49033
#
# Velocity S-wave (km/s) = 3.62449 3.83737 3.73245
# Velocity P-wave (km/s) = 6.82010 7.07479 6.94861
#
# Compressibility (1/GPa) = 0.01686261
#
# Stress axis : x y z
#
# Youngs Moduli (GPa) = 67.09583 128.56357 95.98612
#
# Poissons Ratio (x) = 0.24039 0.43210
# Poissons Ratio (y) = 0.12546 0.16773
# Poissons Ratio (z) = 0.30204 0.22465
#
# Static dielectric constant tensor:
#      x y z
#    x 3.668780 0.000000 0.000000 
#    y 0.000000 4.264380 0.000000 
#    z 0.000000 0.000000 3.573260 
# 
# 
# High freq. dielectric constant tensor:
#      x y z
#    x 1.785790 0.000000 0.000000 
#    y 0.000000 1.829870 0.000000 
#    z 0.000000 0.000000 1.780470 
# 
# From -- ./inp_files/7374.got.cif
#   From: 2010.03.12/outbox.cif.g09.slc.cpg/sg44_4_cif.got.tgz:7374.got - 2010.04.14 02:36:11.
