data_PCOD8189930
_publ_section_title
;
Structure prediction by ZEFSAII (Michael W. Deem and Ramdas Pophale) SiO2 
 PCOD8189930
Probable space group: I M M 2
;
_chemical_formula_sum "Si O2"
_cell_formula_units_Z 64
_cell_length_a 24.946079
_cell_length_b 8.860671
_cell_length_c 15.181183
_cell_angle_alpha 90.000000
_cell_angle_beta 90.000000
_cell_angle_gamma 90.000000
_cell_volume 3355.633490
_symmetry_space_group_name_H-M "I M M 2"
_symmetry_group_IT_number 44
_symmetry_cell_setting 'orthorhombic'
loop_
_space_group_symop_operation_xyz
x,y,z
-x,-y,z
-x,y,z
x,-y,z
1/2+x,1/2+y,1/2+z
1/2-x,1/2-y,1/2+z
1/2-x,1/2+y,1/2+z
1/2+x,1/2-y,1/2+z
loop_
_atom_site_type_symbol
_atom_site_label
_atom_site_fract_x
_atom_site_fract_y
_atom_site_fract_z
Si Si1 0.743409 0.677326 0.468870
Si Si2 0.560247 0.820283 0.423171
Si Si3 0.337191 0.327342 0.737265
Si Si4 0.720823 0.827841 0.290073
Si Si5 0.646874 0.677891 0.936420
Si Si6 0.604605 0.175764 0.239680
Si Si7 0.853099 0.322105 0.063670
Si Si8 0.937815 0.324568 0.556356
O O1 0.746631 0.500000 0.482493
O O2 0.721399 0.716146 0.372363
O O3 0.802434 0.745357 0.483852
O O4 0.703015 0.744798 0.540218
O O5 0.500000 0.762294 0.442078
O O6 0.580082 0.753125 0.329181
O O7 0.599430 0.761439 0.500336
O O8 0.562052 0.000000 0.420676
O O9 0.353449 0.500000 0.720172
O O10 0.272829 0.305475 0.729453
O O11 0.356043 0.274113 0.833884
O O12 0.366413 0.224535 0.664256
O O13 0.668163 0.792313 0.232977
O O14 0.718934 0.000000 0.327068
O O15 0.654096 0.500000 0.944686
O O16 0.592603 0.732009 0.981536
O O17 0.577154 0.243908 0.152405
O O18 0.591283 0.000000 0.241943
O O19 0.847152 0.500000 0.055521
O O20 0.921464 0.500000 0.550498
O O21 0.000000 0.299882 0.538620
#
# Coordination Sequence:
#
# PCOD8189930 Si02
#       8
#     8   8   8   8   8   8   8   8
#     4  11  21  34  55  82 114 149 186 230 284 342
#     4   9  17  31  54  82 111 146 186 227 272 326
#     4   9  20  36  55  79 111 147 188 237 288 343
#     4   9  17  33  54  80 113 148 187 228 276 334
#     4  10  22  41  61  81 110 150 194 241 295 347
#     4   9  16  30  54  83 116 150 185 226 277 335
#     4  11  21  34  55  84 116 148 188 235 281 338
#     4  10  21  36  58  89 118 150 197 245 287 337
#
# _framework density 19.072403999999999
#
# number of rings (size 3 to 8) (size 9 to 14) (size 15 to 20)
#    0.000    2.250    1.250    3.000    1.750    4.250 
#    0.000    1.250    0.000    3.750    0.000    0.000 
#    0.000    0.000    0.000    0.000    0.000    0.000 
#
# Total GULP energy -396806.256757 kJ/mol
# GULP energy per Si atom -12400.195524 kJ/mol
# Density = 1.902899 g / cm^3
# Si number density = 19.072404 Si / 1000 Ang^3
#
#
#
# Elastic Constant Matrix: (Units=GPa)
#
#
# Indices 1 2 3 4 5 6 
#
# 1 112.7490 33.1433 71.5103 0.0000 0.0000 0.0000
# 2 33.1433 64.1820 38.8589 0.0000 0.0000 0.0000
# 3 71.5103 38.8589 126.3715 0.0000 0.0000 0.0000
# 4 0.0000 0.0000 0.0000 28.6833 0.0000 0.0000
# 5 0.0000 0.0000 0.0000 0.0000 30.8138 0.0000
# 6 0.0000 0.0000 0.0000 0.0000 0.0000 22.1536
#
#
#
# Elastic Compliance Matrix: (Units=1/GPa)
#
#
# Indices 1 2 3 4 5 6 
#
# 1 0.014306 -0.003055 -0.007156 0.000000 0.000000 0.000000
# 2 -0.003055 0.019797 -0.004359 0.000000 0.000000 0.000000
# 3 -0.007156 -0.004359 0.013303 0.000000 0.000000 0.000000
# 4 0.000000 0.000000 0.000000 0.034863 0.000000 0.000000
# 5 0.000000 0.000000 0.000000 0.000000 0.032453 0.000000
# 6 0.000000 0.000000 0.000000 0.000000 0.000000 0.045139
#
#
# Mechanical properties :
#
#
# Convention : Reuss Voigt Hill
#
# Bulk Modulus (GPa) = 54.74495 65.59196 60.16845
# Shear Modulus (GPa) = 25.62914 26.98281 26.30597
#
# Velocity S-wave (km/s) = 3.66974 3.76541 3.71788
# Velocity P-wave (km/s) = 6.83535 7.30548 7.07432
#
# Compressibility (1/GPa) = 0.01826653
#
# Stress axis : x y z
#
# Youngs Moduli (GPa) = 69.90126 50.51179 75.17157
#
# Poissons Ratio (x) = 0.15431 0.53792
# Poissons Ratio (y) = 0.21354 0.32767
# Poissons Ratio (z) = 0.50021 0.22018
#
# Static dielectric constant tensor:
#      x y z
#    x 3.513390 0.000000 0.000000 
#    y 0.000000 3.169190 0.000000 
#    z 0.000000 0.000000 3.544510 
# 
# 
# High freq. dielectric constant tensor:
#      x y z
#    x 1.737250 0.000000 0.000000 
#    y 0.000000 1.710410 0.000000 
#    z 0.000000 0.000000 1.743530 
# 
# From -- ./inp_files/19490.got.cif
#   From: 2010.03.12/outbox.cif.g09.slc.cpg/sg44_10_cif.got.tgz:19490.got - 2010.04.14 02:36:11.
