data_PCOD8189670
_publ_section_title
;
Structure prediction by ZEFSAII (Michael W. Deem and Ramdas Pophale) SiO2 
 PCOD8189670
Probable space group: I M M 2
;
_chemical_formula_sum "Si O2"
_cell_formula_units_Z 56
_cell_length_a 15.812205
_cell_length_b 20.477754
_cell_length_c 8.996724
_cell_angle_alpha 90.000000
_cell_angle_beta 90.000000
_cell_angle_gamma 90.000000
_cell_volume 2913.125234
_symmetry_space_group_name_H-M "I M M 2"
_symmetry_group_IT_number 44
_symmetry_cell_setting 'orthorhombic'
loop_
_space_group_symop_operation_xyz
x,y,z
-x,-y,z
-x,y,z
x,-y,z
1/2+x,1/2+y,1/2+z
1/2-x,1/2-y,1/2+z
1/2-x,1/2+y,1/2+z
1/2+x,1/2-y,1/2+z
loop_
_atom_site_type_symbol
_atom_site_label
_atom_site_fract_x
_atom_site_fract_y
_atom_site_fract_z
Si Si1 0.100857 0.500000 0.880970
Si Si2 0.093735 0.922826 0.943070
Si Si3 0.694248 0.425645 0.169158
Si Si4 0.901172 0.284650 0.138629
Si Si5 0.214251 0.839250 0.124381
Si Si6 0.200624 0.372578 0.929816
Si Si7 0.331681 0.123726 0.878412
Si Si8 0.097356 0.500000 0.541558
O O1 0.126652 0.500000 0.710168
O O2 0.000000 0.500000 0.910386
O O3 0.143679 0.436855 0.953191
O O4 0.153816 0.898624 0.074984
O O5 0.000000 0.896848 0.974833
O O6 0.100414 0.000000 0.945237
O O7 0.119062 0.898656 0.775894
O O8 0.676858 0.500000 0.119649
O O9 0.711323 0.381085 0.023558
O O10 0.777923 0.420344 0.267191
O O11 0.845807 0.220396 0.168723
O O12 0.858891 0.315001 0.991104
O O13 0.895214 0.331440 0.282738
O O14 0.000000 0.268474 0.109319
O O15 0.273201 0.858475 0.262091
O O16 0.276965 0.827254 0.984043
O O17 0.375612 0.068940 0.975501
O O18 0.000000 0.500000 0.522910
#
# Coordination Sequence:
#
# PCOD8189670 Si02
#       8
#     4   8   8   8   8   8   8   4
#     4  11  22  35  57  93 126 148 179 240 313 359
#     4   9  19  35  58  86 115 151 200 248 289 334
#     4   9  17  31  55  83 114 147 185 230 291 343
#     4  11  24  41  57  81 118 158 198 243 287 339
#     4  11  22  38  62  82 117 154 202 235 290 345
#     4  11  22  37  61  88 119 153 191 240 295 360
#     4  10  20  36  59  85 114 156 197 235 281 354
#     4  11  20  33  57  91 120 148 185 238 295 347
#
# _framework density 19.223341000000001
#
# number of rings (size 3 to 8) (size 9 to 14) (size 15 to 20)
#    0.000    1.714    2.857    2.143    2.000    0.000 
#    0.000    3.571    0.000    1.714    0.000    0.000 
#    0.000    0.000    0.000    0.000    0.000    0.000 
#
# Total GULP energy -346971.972769 kJ/mol
# GULP energy per Si atom -12391.856170 kJ/mol
# Density = 1.917959 g / cm^3
# Si number density = 19.223341 Si / 1000 Ang^3
#
#
#
# Elastic Constant Matrix: (Units=GPa)
#
#
# Indices 1 2 3 4 5 6 
#
# 1 103.8446 29.5909 30.0194 0.0000 0.0000 0.0000
# 2 29.5909 68.0174 17.5179 0.0000 0.0000 0.0000
# 3 30.0194 17.5179 93.2390 0.0000 0.0000 0.0000
# 4 0.0000 0.0000 0.0000 27.4340 0.0000 0.0000
# 5 0.0000 0.0000 0.0000 0.0000 23.5649 0.0000
# 6 0.0000 0.0000 0.0000 0.0000 0.0000 25.8977
#
#
#
# Elastic Compliance Matrix: (Units=1/GPa)
#
#
# Indices 1 2 3 4 5 6 
#
# 1 0.011721 -0.004337 -0.002959 0.000000 0.000000 0.000000
# 2 -0.004337 0.017055 -0.001808 0.000000 0.000000 0.000000
# 3 -0.002959 -0.001808 0.012017 0.000000 0.000000 0.000000
# 4 0.000000 0.000000 0.000000 0.036451 0.000000 0.000000
# 5 0.000000 0.000000 0.000000 0.000000 0.042436 0.000000
# 6 0.000000 0.000000 0.000000 0.000000 0.000000 0.038613
#
#
# Mechanical properties :
#
#
# Convention : Reuss Voigt Hill
#
# Bulk Modulus (GPa) = 44.27654 46.59527 45.43591
# Shear Modulus (GPa) = 27.16951 27.91083 27.54017
#
# Velocity S-wave (km/s) = 3.76355 3.81455 3.78913
# Velocity P-wave (km/s) = 6.47830 6.61003 6.54450
#
# Compressibility (1/GPa) = 0.02258532
#
# Stress axis : x y z
#
# Youngs Moduli (GPa) = 85.31694 58.63518 83.21256
#
# Poissons Ratio (x) = 0.25431 0.24621
# Poissons Ratio (y) = 0.37003 0.15044
# Poissons Ratio (z) = 0.25244 0.10600
#
# Static dielectric constant tensor:
#      x y z
#    x 3.609060 0.000000 0.000000 
#    y 0.000000 3.428250 0.000000 
#    z 0.000000 0.000000 3.702970 
# 
# 
# High freq. dielectric constant tensor:
#      x y z
#    x 1.743020 0.000000 0.000000 
#    y 0.000000 1.741060 0.000000 
#    z 0.000000 0.000000 1.751110 
# 
# From -- ./inp_files/7412.got.cif
#   From: 2010.03.12/outbox.cif.g09.slc.cpg/sg44_4_cif.got.tgz:7412.got - 2010.04.14 02:36:11.
