data_PCOD8189697
_publ_section_title
;
Structure prediction by ZEFSAII (Michael W. Deem and Ramdas Pophale) SiO2 
 PCOD8189697
Probable space group: I M M 2
;
_chemical_formula_sum "Si O2"
_cell_formula_units_Z 48
_cell_length_a 23.334992
_cell_length_b 8.546208
_cell_length_c 11.680388
_cell_angle_alpha 90.000000
_cell_angle_beta 90.000000
_cell_angle_gamma 90.000000
_cell_volume 2329.369498
_symmetry_space_group_name_H-M "I M M 2"
_symmetry_group_IT_number 44
_symmetry_cell_setting 'orthorhombic'
loop_
_space_group_symop_operation_xyz
x,y,z
-x,-y,z
-x,y,z
x,-y,z
1/2+x,1/2+y,1/2+z
1/2-x,1/2-y,1/2+z
1/2-x,1/2+y,1/2+z
1/2+x,1/2-y,1/2+z
loop_
_atom_site_type_symbol
_atom_site_label
_atom_site_fract_x
_atom_site_fract_y
_atom_site_fract_z
Si Si1 0.433444 0.816138 0.732110
Si Si2 0.154576 0.319285 0.422426
Si Si3 0.661055 0.678904 0.166951
Si Si4 0.363314 0.685707 0.521424
Si Si5 0.730921 0.182253 0.368129
Si Si6 0.061104 0.818611 0.817331
O O1 0.500000 0.754311 0.728490
O O2 0.404364 0.777439 0.855030
O O3 0.390868 0.736571 0.641118
O O4 0.432860 0.000000 0.708737
O O5 0.154206 0.500000 0.456410
O O6 0.164128 0.216567 0.534668
O O7 0.210107 0.276667 0.347525
O O8 0.679920 0.500000 0.189518
O O9 0.697725 0.789496 0.249529
O O10 0.594815 0.706504 0.199763
O O11 0.355592 0.500000 0.520112
O O12 0.301856 0.759162 0.484387
O O13 0.405972 0.753318 0.425253
O O14 0.743703 0.000000 0.382533
O O15 0.000000 0.733273 0.805257
O O16 0.052701 0.000000 0.844023
#
# Coordination Sequence:
#
# PCOD8189697 Si02
#       6
#     8   8   8   8   8   8
#     4  10  23  42  62  88 126 170 212 254 307 371
#     4  11  24  41  61  85 119 162 206 253 307 369
#     4  10  21  38  59  87 120 153 197 248 304 366
#     4  10  20  36  61  92 124 158 203 256 308 363
#     4  11  23  40  63  89 120 157 202 255 315 373
#     4   8  15  30  54  84 116 150 188 237 293 348
#
# _framework density 20.606435000000001
#
# number of rings (size 3 to 8) (size 9 to 14) (size 15 to 20)
#    0.000    2.000    0.000    4.500    2.333    3.000 
#    0.000    0.000    0.000    9.500    0.000    0.000 
#    0.000    0.000    0.000    0.000    0.000    0.000 
#
# Total GULP energy -297429.526928 kJ/mol
# GULP energy per Si atom -12392.896955 kJ/mol
# Density = 2.055953 g / cm^3
# Si number density = 20.606435 Si / 1000 Ang^3
#
#
#
# Elastic Constant Matrix: (Units=GPa)
#
#
# Indices 1 2 3 4 5 6 
#
# 1 104.4595 21.9293 23.2573 0.0000 0.0000 0.0000
# 2 21.9293 53.6635 16.8913 0.0000 0.0000 0.0000
# 3 23.2573 16.8913 90.3523 0.0000 0.0000 0.0000
# 4 0.0000 0.0000 0.0000 29.1645 0.0000 0.0000
# 5 0.0000 0.0000 0.0000 0.0000 26.8482 0.0000
# 6 0.0000 0.0000 0.0000 0.0000 0.0000 22.8781
#
#
#
# Elastic Compliance Matrix: (Units=1/GPa)
#
#
# Indices 1 2 3 4 5 6 
#
# 1 0.010828 -0.003769 -0.002083 0.000000 0.000000 0.000000
# 2 -0.003769 0.021112 -0.002977 0.000000 0.000000 0.000000
# 3 -0.002083 -0.002977 0.012160 0.000000 0.000000 0.000000
# 4 0.000000 0.000000 0.000000 0.034288 0.000000 0.000000
# 5 0.000000 0.000000 0.000000 0.000000 0.037246 0.000000
# 6 0.000000 0.000000 0.000000 0.000000 0.000000 0.043710
#
#
# Mechanical properties :
#
#
# Convention : Reuss Voigt Hill
#
# Bulk Modulus (GPa) = 37.81672 41.40346 39.61009
# Shear Modulus (GPa) = 26.90833 28.20468 27.55650
#
# Velocity S-wave (km/s) = 3.61754 3.70365 3.66085
# Velocity P-wave (km/s) = 5.98669 6.19883 6.09368
#
# Compressibility (1/GPa) = 0.02644333
#
# Stress axis : x y z
#
# Youngs Moduli (GPa) = 92.35268 47.36669 82.23470
#
# Poissons Ratio (x) = 0.17854 0.17126
# Poissons Ratio (y) = 0.34811 0.24478
# Poissons Ratio (z) = 0.19233 0.14099
#
# Static dielectric constant tensor:
#      x y z
#    x 4.224360 0.000000 0.000000 
#    y 0.000000 3.484240 0.000000 
#    z 0.000000 0.000000 3.599940 
# 
# 
# High freq. dielectric constant tensor:
#      x y z
#    x 1.817140 0.000000 0.000000 
#    y 0.000000 1.792250 0.000000 
#    z 0.000000 0.000000 1.800940 
# 
# From -- ./inp_files/14584.got.cif
#   From: 2010.03.12/outbox.cif.g09.slc.cpg/sg44_8_cif.got.tgz:14584.got - 2010.04.14 02:36:11.
