data_PCOD8189061
_publ_section_title
;
Structure prediction by ZEFSAII (Michael W. Deem and Ramdas Pophale) SiO2 
 PCOD8189061
Probable space group: I M M 2
;
_chemical_formula_sum "Si O2"
_cell_formula_units_Z 48
_cell_length_a 10.018569
_cell_length_b 8.685101
_cell_length_c 28.100377
_cell_angle_alpha 90.000000
_cell_angle_beta 90.000000
_cell_angle_gamma 90.000000
_cell_volume 2445.077974
_symmetry_space_group_name_H-M "I M M 2"
_symmetry_group_IT_number 44
_symmetry_cell_setting 'orthorhombic'
loop_
_space_group_symop_operation_xyz
x,y,z
-x,-y,z
-x,y,z
x,-y,z
1/2+x,1/2+y,1/2+z
1/2-x,1/2-y,1/2+z
1/2-x,1/2+y,1/2+z
1/2+x,1/2-y,1/2+z
loop_
_atom_site_type_symbol
_atom_site_label
_atom_site_fract_x
_atom_site_fract_y
_atom_site_fract_z
Si Si1 0.750889 0.682926 0.506940
Si Si2 0.755263 0.181425 0.725492
Si Si3 0.500000 0.682601 0.675526
Si Si4 0.500000 0.683299 0.566404
Si Si5 0.500000 0.182720 0.063896
Si Si6 0.154189 0.819097 0.410700
Si Si7 0.000000 0.316742 0.670717
Si Si8 0.155609 0.680200 0.823126
O O1 0.748537 0.500000 0.503859
O O2 0.624164 0.745650 0.535895
O O3 0.763780 0.746826 0.454053
O O4 0.873290 0.749161 0.536880
O O5 0.624129 0.260694 0.705742
O O6 0.871856 0.245544 0.693762
O O7 0.786028 0.223567 0.779655
O O8 0.741326 0.000000 0.720592
O O9 0.500000 0.500000 0.673717
O O10 0.500000 0.747061 0.620879
O O11 0.500000 0.500000 0.568991
O O12 0.500000 0.242299 0.117128
O O13 0.500000 0.000000 0.063145
O O14 0.245355 0.774183 0.365816
O O15 0.000000 0.756396 0.406138
O O16 0.148777 0.000000 0.417728
O O17 0.000000 0.500000 0.676337
O O18 0.164993 0.500000 0.811122
O O19 0.000000 0.724285 0.833860
#
# Coordination Sequence:
#
# PCOD8189061 Si02
#       8
#     8   8   4   4   4   8   4   8
#     4  10  19  36  59  86 118 153 196 249 301 351
#     4  12  25  41  61  94 132 158 197 264 323 365
#     4  11  23  43  68  89 120 171 220 253 298 373
#     4   9  20  37  60  89 118 155 208 255 288 347
#     4   9  18  33  58  85 112 151 204 249 284 351
#     4  10  22  39  59  88 121 154 198 250 302 362
#     4  11  21  39  66  91 118 167 216 247 296 373
#     4  10  22  41  64  87 115 160 211 249 297 375
#
# _framework density 19.631277000000001
#
# number of rings (size 3 to 8) (size 9 to 14) (size 15 to 20)
#    0.000    1.667    1.667    3.000    2.333    3.333 
#    0.000    5.000    0.000    0.000    0.000    0.000 
#    0.000    0.000    0.000    0.000    0.000    0.000 
#
# Total GULP energy -297534.833263 kJ/mol
# GULP energy per Si atom -12397.284719 kJ/mol
# Density = 1.958660 g / cm^3
# Si number density = 19.631277 Si / 1000 Ang^3
#
#
#
# Elastic Constant Matrix: (Units=GPa)
#
#
# Indices 1 2 3 4 5 6 
#
# 1 174.0611 33.0395 72.1117 0.0000 0.0000 0.0000
# 2 33.0395 54.8808 41.7728 0.0000 0.0000 0.0000
# 3 72.1117 41.7728 138.5982 0.0000 0.0000 0.0000
# 4 0.0000 0.0000 0.0000 30.3396 0.0000 0.0000
# 5 0.0000 0.0000 0.0000 0.0000 46.7724 0.0000
# 6 0.0000 0.0000 0.0000 0.0000 0.0000 -4.2873
#
#
#
# Elastic Compliance Matrix: (Units=1/GPa)
#
#
# Indices 1 2 3 4 5 6 
#
# 1 0.007490 -0.002002 -0.003293 0.000000 0.000000 0.000000
# 2 -0.002002 0.024181 -0.006246 0.000000 0.000000 0.000000
# 3 -0.003293 -0.006246 0.010811 0.000000 0.000000 0.000000
# 4 0.000000 0.000000 0.000000 0.032960 0.000000 0.000000
# 5 0.000000 0.000000 0.000000 0.000000 0.021380 0.000000
# 6 0.000000 0.000000 0.000000 0.000000 0.000000 -0.233250
#
#
# Mechanical properties :
#
#
# Convention : Reuss Voigt Hill
#
# Bulk Modulus (GPa) = 51.55116 73.48755 62.51935
# Shear Modulus (GPa) = -46.78237 29.27269 -8.75484
#
# Velocity S-wave (km/s) = -4.88695 3.86570 -2.11408
# Velocity P-wave (km/s) = 2.35081 7.57892 5.09479
#
# Compressibility (1/GPa) = 0.01939821
#
# Stress axis : x y z
#
# Youngs Moduli (GPa) = 133.51969 41.35461 92.49656
#
# Poissons Ratio (x) = 0.08280 0.30462
# Poissons Ratio (y) = 0.26733 0.57777
# Poissons Ratio (z) = 0.43972 0.25832
#
# Static dielectric constant tensor:
#      x y z
#    x 3.915790 0.000000 0.000000 
#    y 0.000000 3.374770 0.000000 
#    z 0.000000 0.000000 3.859900 
# 
# 
# High freq. dielectric constant tensor:
#      x y z
#    x 1.785740 0.000000 0.000000 
#    y 0.000000 1.741820 0.000000 
#    z 0.000000 0.000000 1.782170 
# 
# From -- ./inp_files/27068.got.cif
#   From: 2010.03.12/outbox.cif.g09.slc.cpg/sg44_14_cif.got.tgz:27068.got - 2010.04.14 02:36:11.
