data_PCOD8189092
_publ_section_title
;
Structure prediction by ZEFSAII (Michael W. Deem and Ramdas Pophale) SiO2 
 PCOD8189092
Probable space group: I M M 2
;
_chemical_formula_sum "Si O2"
_cell_formula_units_Z 56
_cell_length_a 18.349900
_cell_length_b 8.981591
_cell_length_c 17.402715
_cell_angle_alpha 90.000000
_cell_angle_beta 90.000000
_cell_angle_gamma 90.000000
_cell_volume 2868.164025
_symmetry_space_group_name_H-M "I M M 2"
_symmetry_group_IT_number 44
_symmetry_cell_setting 'orthorhombic'
loop_
_space_group_symop_operation_xyz
x,y,z
-x,-y,z
-x,y,z
x,-y,z
1/2+x,1/2+y,1/2+z
1/2-x,1/2-y,1/2+z
1/2-x,1/2+y,1/2+z
1/2+x,1/2-y,1/2+z
loop_
_atom_site_type_symbol
_atom_site_label
_atom_site_fract_x
_atom_site_fract_y
_atom_site_fract_z
Si Si1 0.309844 0.176312 0.177580
Si Si2 0.582974 0.326732 0.888328
Si Si3 0.584541 0.830797 0.589230
Si Si4 0.083221 0.323108 0.808321
Si Si5 0.318988 0.175026 0.005375
Si Si6 0.651168 0.675355 0.728451
Si Si7 0.161241 0.825316 0.951470
O O1 0.376199 0.233274 0.231113
O O2 0.233730 0.228858 0.214384
O O3 0.310990 0.000000 0.173722
O O4 0.316769 0.242874 0.091750
O O5 0.500000 0.279331 0.873079
O O6 0.589832 0.500000 0.905629
O O7 0.611493 0.241538 0.962875
O O8 0.630810 0.281218 0.814964
O O9 0.500000 0.826358 0.569161
O O10 0.597323 0.767144 0.674015
O O11 0.625402 0.723446 0.530818
O O12 0.613861 0.000000 0.582992
O O13 0.085493 0.500000 0.814734
O O14 0.125210 0.260532 0.881421
O O15 0.000000 0.265003 0.806365
O O16 0.246394 0.216355 0.957763
O O17 0.328643 0.000000 0.011071
O O18 0.640337 0.500000 0.712923
O O19 0.149008 0.000000 0.940194
#
# Coordination Sequence:
#
# PCOD8189092 Si02
#       7
#     8   8   8   8   8   8   8
#     4   9  18  36  60  85 112 146 193 240 283 336
#     4  10  22  38  58  87 119 153 193 235 286 344
#     4  11  23  36  54  84 119 151 187 233 285 343
#     4  10  21  37  59  86 115 150 193 239 286 339
#     4  10  21  38  60  86 114 148 195 241 284 339
#     4  10  19  37  61  82 111 150 192 237 284 339
#     4  11  22  38  59  84 116 151 191 236 284 343
#
# _framework density 19.524685999999999
#
# number of rings (size 3 to 8) (size 9 to 14) (size 15 to 20)
#    0.000    1.857    1.429    2.571    0.000    7.429 
#    0.000    2.857    0.000    0.000    0.000    0.000 
#    0.000    0.000    0.000    0.000    0.000    0.000 
#
# Total GULP energy -347277.108926 kJ/mol
# GULP energy per Si atom -12402.753890 kJ/mol
# Density = 1.948025 g / cm^3
# Si number density = 19.524686 Si / 1000 Ang^3
#
#
#
# Elastic Constant Matrix: (Units=GPa)
#
#
# Indices 1 2 3 4 5 6 
#
# 1 101.9031 28.5725 69.8879 0.0000 0.0000 0.0000
# 2 28.5725 18.2289 20.5819 0.0000 0.0000 0.0000
# 3 69.8879 20.5819 128.8599 0.0000 0.0000 0.0000
# 4 0.0000 0.0000 0.0000 30.1838 0.0000 0.0000
# 5 0.0000 0.0000 0.0000 0.0000 31.8292 0.0000
# 6 0.0000 0.0000 0.0000 0.0000 0.0000 28.3854
#
#
#
# Elastic Compliance Matrix: (Units=1/GPa)
#
#
# Indices 1 2 3 4 5 6 
#
# 1 0.022876 -0.026655 -0.008150 0.000000 0.000000 0.000000
# 2 -0.026655 0.097987 -0.001194 0.000000 0.000000 0.000000
# 3 -0.008150 -0.001194 0.012371 0.000000 0.000000 0.000000
# 4 0.000000 0.000000 0.000000 0.033130 0.000000 0.000000
# 5 0.000000 0.000000 0.000000 0.000000 0.031418 0.000000
# 6 0.000000 0.000000 0.000000 0.000000 0.000000 0.035229
#
#
# Mechanical properties :
#
#
# Convention : Reuss Voigt Hill
#
# Bulk Modulus (GPa) = 16.33031 54.11962 35.22496
# Shear Modulus (GPa) = 15.36469 26.74298 21.05383
#
# Velocity S-wave (km/s) = 2.80828 3.70496 3.28734
# Velocity P-wave (km/s) = 4.34711 6.78830 5.69993
#
# Compressibility (1/GPa) = 0.06123583
#
# Stress axis : x y z
#
# Youngs Moduli (GPa) = 43.71319 10.20549 80.83377
#
# Poissons Ratio (x) = 0.27203 0.65877
# Poissons Ratio (y) = 1.16520 0.09651
# Poissons Ratio (z) = 0.35625 0.01218
#
# Static dielectric constant tensor:
#      x y z
#    x 3.717230 0.000000 0.000000 
#    y 0.000000 3.348850 0.000000 
#    z 0.000000 0.000000 3.703620 
# 
# 
# High freq. dielectric constant tensor:
#      x y z
#    x 1.768350 0.000000 0.000000 
#    y 0.000000 1.738750 0.000000 
#    z 0.000000 0.000000 1.771410 
# 
# From -- ./inp_files/16473.got.cif
#   From: 2010.03.12/outbox.cif.g09.slc.cpg/sg44_9_cif.got.tgz:16473.got - 2010.04.14 02:36:11.
