data_PCOD8189811
_publ_section_title
;
Structure prediction by ZEFSAII (Michael W. Deem and Ramdas Pophale) SiO2 
 PCOD8189811
Probable space group: I M M 2
;
_chemical_formula_sum "Si O2"
_cell_formula_units_Z 48
_cell_length_a 18.297641
_cell_length_b 8.755362
_cell_length_c 15.130803
_cell_angle_alpha 90.000000
_cell_angle_beta 90.000000
_cell_angle_gamma 90.000000
_cell_volume 2423.992024
_symmetry_space_group_name_H-M "I M M 2"
_symmetry_group_IT_number 44
_symmetry_cell_setting 'orthorhombic'
loop_
_space_group_symop_operation_xyz
x,y,z
-x,-y,z
-x,y,z
x,-y,z
1/2+x,1/2+y,1/2+z
1/2-x,1/2-y,1/2+z
1/2-x,1/2+y,1/2+z
1/2+x,1/2-y,1/2+z
loop_
_atom_site_type_symbol
_atom_site_label
_atom_site_fract_x
_atom_site_fract_y
_atom_site_fract_z
Si Si1 0.500000 0.679056 0.711700
Si Si2 0.656660 0.820742 0.454964
Si Si3 0.419185 0.173136 0.023773
Si Si4 0.000000 0.320840 0.026715
Si Si5 0.224124 0.179030 0.593356
Si Si6 0.264436 0.178265 0.284830
Si Si7 0.619785 0.174366 0.827081
O O1 0.500000 0.500000 0.733976
O O2 0.500000 0.706996 0.608167
O O3 0.428604 0.760420 0.748546
O O4 0.572487 0.778122 0.471805
O O5 0.713036 0.749408 0.528417
O O6 0.673900 0.765242 0.354823
O O7 0.669640 0.000000 0.458847
O O8 0.500000 0.220489 0.059290
O O9 0.357368 0.282125 0.061843
O O10 0.400892 0.000000 0.053017
O O11 0.423590 0.184563 0.918240
O O12 0.000000 0.500000 0.054301
O O13 0.232781 0.236352 0.692523
O O14 0.233341 0.000000 0.595140
O O15 0.189852 0.218266 0.334856
O O16 0.270468 0.000000 0.265232
O O17 0.641588 0.000000 0.804346
#
# Coordination Sequence:
#
# PCOD8189811 Si02
#       7
#     4   8   8   4   8   8   8
#     4  12  24  36  56  91 126 159 194 249 314 372
#     4   9  20  38  62  87 118 158 205 252 299 357
#     4  10  21  39  61  87 118 155 200 250 305 363
#     4  10  20  40  64  85 116 163 208 251 300 358
#     4  11  22  39  61  90 122 160 206 253 306 367
#     4  11  22  39  60  90 122 160 208 256 302 359
#     4  11  21  37  60  88 120 158 200 249 305 367
#
# _framework density 19.802045
#
# number of rings (size 3 to 8) (size 9 to 14) (size 15 to 20)
#    0.000    1.500    2.500    3.250    0.000    2.333 
#    1.500    2.500    0.000    0.000    0.000    0.000 
#    0.000    0.000    0.000    0.000    0.000    0.000 
#
# Total GULP energy -297555.759548 kJ/mol
# GULP energy per Si atom -12398.156648 kJ/mol
# Density = 1.975697 g / cm^3
# Si number density = 19.802045 Si / 1000 Ang^3
#
#
#
# Elastic Constant Matrix: (Units=GPa)
#
#
# Indices 1 2 3 4 5 6 
#
# 1 140.4300 22.0674 50.8545 0.0000 0.0000 0.0000
# 2 22.0674 47.0173 27.2712 0.0000 0.0000 0.0000
# 3 50.8545 27.2712 96.7438 0.0000 0.0000 0.0000
# 4 0.0000 0.0000 0.0000 30.2934 0.0000 0.0000
# 5 0.0000 0.0000 0.0000 0.0000 34.1849 0.0000
# 6 0.0000 0.0000 0.0000 0.0000 0.0000 29.3409
#
#
#
# Elastic Compliance Matrix: (Units=1/GPa)
#
#
# Indices 1 2 3 4 5 6 
#
# 1 0.008914 -0.001753 -0.004192 0.000000 0.000000 0.000000
# 2 -0.001753 0.025771 -0.006343 0.000000 0.000000 0.000000
# 3 -0.004192 -0.006343 0.014328 0.000000 0.000000 0.000000
# 4 0.000000 0.000000 0.000000 0.033010 0.000000 0.000000
# 5 0.000000 0.000000 0.000000 0.000000 0.029253 0.000000
# 6 0.000000 0.000000 0.000000 0.000000 0.000000 0.034082
#
#
# Mechanical properties :
#
#
# Convention : Reuss Voigt Hill
#
# Bulk Modulus (GPa) = 40.92025 53.84191 47.38108
# Shear Modulus (GPa) = 28.07730 31.03038 29.55384
#
# Velocity S-wave (km/s) = 3.76958 3.96287 3.86743
# Velocity P-wave (km/s) = 6.29729 6.94177 6.62737
#
# Compressibility (1/GPa) = 0.02443778
#
# Stress axis : x y z
#
# Youngs Moduli (GPa) = 112.17773 38.80396 69.79235
#
# Poissons Ratio (x) = 0.06800 0.29257
# Poissons Ratio (y) = 0.19659 0.44271
# Poissons Ratio (z) = 0.47024 0.24614
#
# Static dielectric constant tensor:
#      x y z
#    x 3.740100 0.000000 0.000000 
#    y 0.000000 3.490340 0.000000 
#    z 0.000000 0.000000 3.702950 
# 
# 
# High freq. dielectric constant tensor:
#      x y z
#    x 1.781180 0.000000 0.000000 
#    y 0.000000 1.755700 0.000000 
#    z 0.000000 0.000000 1.771900 
# 
# From -- ./inp_files/16110.got.cif
#   From: 2010.03.12/outbox.cif.g09.slc.cpg/sg44_9_cif.got.tgz:16110.got - 2010.04.14 02:36:11.
