data_PCOD8189241
_publ_section_title
;
Structure prediction by ZEFSAII (Michael W. Deem and Ramdas Pophale) SiO2 
 PCOD8189241
Probable space group: I M M 2
;
_chemical_formula_sum "Si O2"
_cell_formula_units_Z 64
_cell_length_a 28.382983
_cell_length_b 9.123109
_cell_length_c 14.158122
_cell_angle_alpha 90.000000
_cell_angle_beta 90.000000
_cell_angle_gamma 90.000000
_cell_volume 3666.118943
_symmetry_space_group_name_H-M "I M M 2"
_symmetry_group_IT_number 44
_symmetry_cell_setting 'orthorhombic'
loop_
_space_group_symop_operation_xyz
x,y,z
-x,-y,z
-x,y,z
x,-y,z
1/2+x,1/2+y,1/2+z
1/2-x,1/2-y,1/2+z
1/2-x,1/2+y,1/2+z
1/2+x,1/2-y,1/2+z
loop_
_atom_site_type_symbol
_atom_site_label
_atom_site_fract_x
_atom_site_fract_y
_atom_site_fract_z
Si Si1 0.627076 0.673291 0.085840
Si Si2 0.803415 0.327806 0.451097
Si Si3 0.122521 0.671612 0.298852
Si Si4 0.195824 0.170989 0.956216
Si Si5 0.554146 0.173295 0.959411
Si Si6 0.628090 0.173586 0.589296
Si Si7 0.946667 0.327482 0.935286
Si Si8 0.379344 0.670227 0.302387
O O1 0.626157 0.500000 0.069826
O O2 0.629980 0.716612 0.195299
O O3 0.673316 0.740000 0.037099
O O4 0.579318 0.743200 0.044945
O O5 0.809242 0.500000 0.471959
O O6 0.829485 0.285557 0.353365
O O7 0.749484 0.279602 0.440620
O O8 0.118995 0.500000 0.284389
O O9 0.077767 0.724291 0.360639
O O10 0.121645 0.741628 0.194312
O O11 0.167300 0.211947 0.861554
O O12 0.192269 0.000000 0.979063
O O13 0.175158 0.257728 0.045285
O O14 0.500000 0.220271 0.957148
O O15 0.560830 0.000000 0.974703
O O16 0.582514 0.220098 0.528200
O O17 0.634823 0.000000 0.590590
O O18 0.944833 0.500000 0.920585
O O19 0.924554 0.255640 0.842053
O O20 0.000000 0.271621 0.948446
O O21 0.391203 0.500000 0.311080
#
# Coordination Sequence:
#
# PCOD8189241 Si02
#       8
#     8   8   8   8   8   8   8   8
#     4  10  20  33  50  72  97 124 156 197 239 277
#     4   9  18  33  51  70  94 125 159 194 233 279
#     4   8  15  29  49  71  93 120 155 192 230 275
#     4   9  18  33  50  68  94 126 159 195 233 278
#     4   9  18  33  52  72  95 126 161 193 230 280
#     4   9  17  30  49  72  97 123 154 196 239 278
#     4   9  18  31  47  70  98 125 155 194 238 279
#     4   9  19  34  50  69  94 126 161 194 232 279
#
# _framework density 17.457153999999999
#
# number of rings (size 3 to 8) (size 9 to 14) (size 15 to 20)
#    0.000    3.000    0.000    1.125    0.000    4.000 
#    0.000   10.000    0.000    0.000    0.000    5.250 
#    0.000    0.000    0.000    0.000    0.000    0.000 
#
# Total GULP energy -396769.006815 kJ/mol
# GULP energy per Si atom -12399.031463 kJ/mol
# Density = 1.741742 g / cm^3
# Si number density = 17.457154 Si / 1000 Ang^3
#
#
#
# Elastic Constant Matrix: (Units=GPa)
#
#
# Indices 1 2 3 4 5 6 
#
# 1 162.7002 38.6187 73.2579 0.0000 0.0000 0.0000
# 2 38.6187 33.7911 40.7127 0.0000 0.0000 0.0000
# 3 73.2579 40.7127 153.6951 0.0000 0.0000 0.0000
# 4 0.0000 0.0000 0.0000 24.3871 0.0000 0.0000
# 5 0.0000 0.0000 0.0000 0.0000 13.5108 0.0000
# 6 0.0000 0.0000 0.0000 0.0000 0.0000 26.4914
#
#
#
# Elastic Compliance Matrix: (Units=1/GPa)
#
#
# Indices 1 2 3 4 5 6 
#
# 1 0.008950 -0.007474 -0.002286 0.000000 0.000000 0.000000
# 2 -0.007474 0.049707 -0.009605 0.000000 0.000000 0.000000
# 3 -0.002286 -0.009605 0.010140 0.000000 0.000000 0.000000
# 4 0.000000 0.000000 0.000000 0.041005 0.000000 0.000000
# 5 0.000000 0.000000 0.000000 0.000000 0.074015 0.000000
# 6 0.000000 0.000000 0.000000 0.000000 0.000000 0.037748
#
#
# Mechanical properties :
#
#
# Convention : Reuss Voigt Hill
#
# Bulk Modulus (GPa) = 33.25803 72.81833 53.03818
# Shear Modulus (GPa) = 18.49677 26.05101 22.27389
#
# Velocity S-wave (km/s) = 3.25861 3.86720 3.57587
# Velocity P-wave (km/s) = 5.76634 7.85770 6.89181
#
# Compressibility (1/GPa) = 0.03006793
#
# Stress axis : x y z
#
# Youngs Moduli (GPa) = 111.73688 20.11771 98.61744
#
# Poissons Ratio (x) = 0.15036 0.22544
# Poissons Ratio (y) = 0.83512 0.94719
# Poissons Ratio (z) = 0.25543 0.19322
#
# Static dielectric constant tensor:
#      x y z
#    x 3.381640 0.000000 0.000000 
#    y 0.000000 3.061460 0.000000 
#    z 0.000000 0.000000 3.431710 
# 
# 
# High freq. dielectric constant tensor:
#      x y z
#    x 1.677810 0.000000 0.000000 
#    y 0.000000 1.656270 0.000000 
#    z 0.000000 0.000000 1.677280 
# 
# From -- ./inp_files/17077.got.cif
#   From: 2010.03.12/outbox.cif.g09.slc.cpg/sg44_9_cif.got.tgz:17077.got - 2010.04.14 02:36:11.
