data_PCOD8189600
_publ_section_title
;
Structure prediction by ZEFSAII (Michael W. Deem and Ramdas Pophale) SiO2 
 PCOD8189600
Probable space group: I M M 2
;
_chemical_formula_sum "Si O2"
_cell_formula_units_Z 64
_cell_length_a 28.794882
_cell_length_b 8.915606
_cell_length_c 12.653218
_cell_angle_alpha 90.000000
_cell_angle_beta 90.000000
_cell_angle_gamma 90.000000
_cell_volume 3248.382495
_symmetry_space_group_name_H-M "I M M 2"
_symmetry_group_IT_number 44
_symmetry_cell_setting 'orthorhombic'
loop_
_space_group_symop_operation_xyz
x,y,z
-x,-y,z
-x,y,z
x,-y,z
1/2+x,1/2+y,1/2+z
1/2-x,1/2-y,1/2+z
1/2-x,1/2+y,1/2+z
1/2+x,1/2-y,1/2+z
loop_
_atom_site_type_symbol
_atom_site_label
_atom_site_fract_x
_atom_site_fract_y
_atom_site_fract_z
Si Si1 0.050058 0.668654 0.103980
Si Si2 0.445779 0.677691 0.987769
Si Si3 0.402229 0.178195 0.195549
Si Si4 0.079545 0.174749 0.906749
Si Si5 0.701721 0.833230 0.252462
Si Si6 0.669418 0.830849 0.477117
Si Si7 0.205003 0.675998 0.199329
Si Si8 0.388565 0.177554 0.798724
O O1 0.061820 0.500000 0.067462
O O2 0.088235 0.723657 0.187348
O O3 0.000000 0.676145 0.161243
O O4 0.045750 0.771259 0.999823
O O5 0.500000 0.724331 0.972799
O O6 0.441164 0.500000 0.996767
O O7 0.425022 0.751516 0.092448
O O8 0.414111 0.733293 0.891140
O O9 0.430452 0.239143 0.296920
O O10 0.347864 0.225641 0.207392
O O11 0.406875 0.000000 0.191818
O O12 0.072986 0.000000 0.885084
O O13 0.130276 0.212085 0.949539
O O14 0.704480 0.834889 0.379342
O O15 0.743345 0.728279 0.219800
O O16 0.710281 0.000000 0.207793
O O17 0.693805 0.768222 0.581458
O O18 0.649087 0.000000 0.494896
O O19 0.205342 0.500000 0.202547
O O20 0.165577 0.728275 0.284714
O O21 0.393705 0.000000 0.820852
#
# Coordination Sequence:
#
# PCOD8189600 Si02
#       8
#     8   8   8   8   8   8   8   8
#     4  10  20  36  59  84 114 154 196 237 285 349
#     4  11  25  43  63  90 125 162 203 259 320 372
#     4  10  22  42  65  86 116 159 206 250 296 363
#     4  11  21  34  57  87 117 148 185 241 303 353
#     4   9  20  36  57  86 117 151 197 252 308 361
#     4   9  18  37  57  75 109 155 196 239 290 352
#     4  10  20  35  59  86 117 156 203 253 301 357
#     4  10  21  39  62  87 117 158 207 251 294 359
#
# _framework density 19.702114999999999
#
# number of rings (size 3 to 8) (size 9 to 14) (size 15 to 20)
#    0.000    2.000    1.250    3.000    0.000    7.250 
#    0.000    2.500    0.000    0.000    0.000    0.000 
#    0.000    0.000    0.000    0.000    0.000    0.000 
#
# Total GULP energy -396593.430716 kJ/mol
# GULP energy per Si atom -12393.544710 kJ/mol
# Density = 1.965727 g / cm^3
# Si number density = 19.702115 Si / 1000 Ang^3
#
#
#
# Elastic Constant Matrix: (Units=GPa)
#
#
# Indices 1 2 3 4 5 6 
#
# 1 82.2089 26.5450 41.5217 0.0000 0.0000 0.0000
# 2 26.5450 70.4200 44.3123 0.0000 0.0000 0.0000
# 3 41.5217 44.3123 115.0331 0.0000 0.0000 0.0000
# 4 0.0000 0.0000 0.0000 28.1525 0.0000 0.0000
# 5 0.0000 0.0000 0.0000 0.0000 24.5577 0.0000
# 6 0.0000 0.0000 0.0000 0.0000 0.0000 30.1354
#
#
#
# Elastic Compliance Matrix: (Units=1/GPa)
#
#
# Indices 1 2 3 4 5 6 
#
# 1 0.015353 -0.003036 -0.004372 0.000000 0.000000 0.000000
# 2 -0.003036 0.019344 -0.006356 0.000000 0.000000 0.000000
# 3 -0.004372 -0.006356 0.012720 0.000000 0.000000 0.000000
# 4 0.000000 0.000000 0.000000 0.035521 0.000000 0.000000
# 5 0.000000 0.000000 0.000000 0.000000 0.040720 0.000000
# 6 0.000000 0.000000 0.000000 0.000000 0.000000 0.033184
#
#
# Mechanical properties :
#
#
# Convention : Reuss Voigt Hill
#
# Bulk Modulus (GPa) = 50.27971 54.71334 52.49653
# Shear Modulus (GPa) = 26.17810 26.92130 26.54970
#
# Velocity S-wave (km/s) = 3.64908 3.70052 3.67489
# Velocity P-wave (km/s) = 6.58253 6.78889 6.68651
#
# Compressibility (1/GPa) = 0.01988874
#
# Stress axis : x y z
#
# Youngs Moduli (GPa) = 65.13513 51.69444 78.61856
#
# Poissons Ratio (x) = 0.15695 0.34373
# Poissons Ratio (y) = 0.19776 0.49969
# Poissons Ratio (z) = 0.28478 0.32856
#
# Static dielectric constant tensor:
#      x y z
#    x 3.695740 0.000000 0.000000 
#    y 0.000000 3.463720 0.000000 
#    z 0.000000 0.000000 3.887440 
# 
# 
# High freq. dielectric constant tensor:
#      x y z
#    x 1.769970 0.000000 0.000000 
#    y 0.000000 1.756560 0.000000 
#    z 0.000000 0.000000 1.772410 
# 
# From -- ./inp_files/15103.got.cif
#   From: 2010.03.12/outbox.cif.g09.slc.cpg/sg44_8_cif.got.tgz:15103.got - 2010.04.14 02:36:11.
