data_PCOD8189650
_publ_section_title
;
Structure prediction by ZEFSAII (Michael W. Deem and Ramdas Pophale) SiO2 
 PCOD8189650
Probable space group: I M M 2
;
_chemical_formula_sum "Si O2"
_cell_formula_units_Z 48
_cell_length_a 8.935572
_cell_length_b 30.303230
_cell_length_c 9.056621
_cell_angle_alpha 90.000000
_cell_angle_beta 90.000000
_cell_angle_gamma 90.000000
_cell_volume 2452.321889
_symmetry_space_group_name_H-M "I M M 2"
_symmetry_group_IT_number 44
_symmetry_cell_setting 'orthorhombic'
loop_
_space_group_symop_operation_xyz
x,y,z
-x,-y,z
-x,y,z
x,-y,z
1/2+x,1/2+y,1/2+z
1/2-x,1/2-y,1/2+z
1/2-x,1/2+y,1/2+z
1/2+x,1/2-y,1/2+z
loop_
_atom_site_type_symbol
_atom_site_label
_atom_site_fract_x
_atom_site_fract_y
_atom_site_fract_z
Si Si1 0.178045 0.951224 0.686230
Si Si2 0.671886 0.551052 0.518071
Si Si3 0.328286 0.283570 0.176255
Si Si4 0.325670 0.629281 0.992889
Si Si5 0.674052 0.295383 0.516854
Si Si6 0.176424 0.626522 0.683021
O O1 0.238449 0.914817 0.572016
O O2 0.000000 0.950531 0.690474
O O3 0.234516 0.000000 0.637259
O O4 0.233619 0.940665 0.852254
O O5 0.500000 0.566511 0.530860
O O6 0.687305 0.500000 0.561292
O O7 0.769938 0.578228 0.633968
O O8 0.500000 0.268895 0.152626
O O9 0.288042 0.287200 0.347138
O O10 0.219674 0.247395 0.108575
O O11 0.296594 0.330422 0.102286
O O12 0.500000 0.623845 0.954744
O O13 0.236539 0.638293 0.844350
O O14 0.500000 0.304911 0.542625
O O15 0.765339 0.337901 0.566834
O O16 0.000000 0.628089 0.687923
#
# Coordination Sequence:
#
# PCOD8189650 Si02
#       6
#     8   8   8   8   8   8
#     4   8  15  31  58  88 112 139 183 234 277 325
#     4   9  18  36  62  87 111 144 188 234 281 335
#     4  10  22  39  60  87 115 144 184 234 283 332
#     4  10  20  36  58  83 114 150 188 230 278 332
#     4  11  23  40  62  85 112 146 186 230 278 336
#     4  12  25  38  54  81 118 153 189 232 277 329
#
# _framework density 19.573286
#
# number of rings (size 3 to 8) (size 9 to 14) (size 15 to 20)
#    0.000    2.000    0.000    5.000    0.000    8.333 
#    0.000    4.167    0.000    1.000    0.000    0.000 
#    0.000    0.000    0.000    0.000    0.000    0.000 
#
# Total GULP energy -297682.214602 kJ/mol
# GULP energy per Si atom -12403.425608 kJ/mol
# Density = 1.952874 g / cm^3
# Si number density = 19.573286 Si / 1000 Ang^3
#
#
#
# Elastic Constant Matrix: (Units=GPa)
#
#
# Indices 1 2 3 4 5 6 
#
# 1 89.6554 46.3264 53.2750 0.0000 0.0000 0.0001
# 2 46.3264 105.0894 50.1115 0.0002 -0.0001 0.0000
# 3 53.2750 50.1115 114.9749 -0.0012 0.0001 -0.0003
# 4 0.0000 0.0002 -0.0012 32.7579 -0.0002 -0.0001
# 5 0.0000 -0.0001 0.0001 -0.0002 20.9084 0.0001
# 6 0.0001 0.0000 -0.0003 -0.0001 0.0001 28.4473
#
#
#
# Elastic Compliance Matrix: (Units=1/GPa)
#
#
# Indices 1 2 3 4 5 6 
#
# 1 0.017078 -0.004740 -0.005847 0.000000 0.000000 0.000000
# 2 -0.004740 0.013328 -0.003613 0.000000 0.000000 0.000000
# 3 -0.005847 -0.003613 0.012981 0.000001 0.000000 0.000000
# 4 0.000000 0.000000 0.000001 0.030527 0.000000 0.000000
# 5 0.000000 0.000000 0.000000 0.000000 0.047828 0.000000
# 6 0.000000 0.000000 0.000000 0.000000 0.000000 0.035153
#
#
# Mechanical properties :
#
#
# Convention : Reuss Voigt Hill
#
# Bulk Modulus (GPa) = 66.72307 67.68284 67.20295
# Shear Modulus (GPa) = 26.27575 27.08986 26.68280
#
# Velocity S-wave (km/s) = 3.66789 3.72428 3.69619
# Velocity P-wave (km/s) = 7.21809 7.29026 7.25426
#
# Compressibility (1/GPa) = 0.01498732
#
# Stress axis : x y z
#
# Youngs Moduli (GPa) = 58.55629 75.03058 77.03310
#
# Poissons Ratio (x) = 0.35565 0.45042
# Poissons Ratio (y) = 0.27756 0.27829
# Poissons Ratio (z) = 0.34239 0.27105
#
# Static dielectric constant tensor:
#      x y z
#    x 3.366720 0.000000 0.000000 
#    y 0.000000 3.802350 0.000000 
#    z 0.000000 0.000000 3.630140 
# 
# 
# High freq. dielectric constant tensor:
#      x y z
#    x 1.735350 0.000000 0.000000 
#    y 0.000000 1.778210 0.000000 
#    z 0.000000 0.000000 1.770820 
# 
# From -- ./inp_files/4917.got.cif
#   From: 2010.03.12/outbox.cif.g09.slc.cpg/sg44_3_cif.got.tgz:4917.got - 2010.04.14 02:36:11.
