data_PCOD8189726
_publ_section_title
;
Structure prediction by ZEFSAII (Michael W. Deem and Ramdas Pophale) SiO2 
 PCOD8189726
Probable space group: I M M 2
;
_chemical_formula_sum "Si O2"
_cell_formula_units_Z 56
_cell_length_a 8.890785
_cell_length_b 18.630414
_cell_length_c 17.275502
_cell_angle_alpha 90.000000
_cell_angle_beta 90.000000
_cell_angle_gamma 90.000000
_cell_volume 2861.496968
_symmetry_space_group_name_H-M "I M M 2"
_symmetry_group_IT_number 44
_symmetry_cell_setting 'orthorhombic'
loop_
_space_group_symop_operation_xyz
x,y,z
-x,-y,z
-x,y,z
x,-y,z
1/2+x,1/2+y,1/2+z
1/2-x,1/2-y,1/2+z
1/2-x,1/2+y,1/2+z
1/2+x,1/2-y,1/2+z
loop_
_atom_site_type_symbol
_atom_site_label
_atom_site_fract_x
_atom_site_fract_y
_atom_site_fract_z
Si Si1 0.820955 0.420173 0.131890
Si Si2 0.823988 0.305795 0.549214
Si Si3 0.177358 0.580102 0.427672
Si Si4 0.178067 0.336933 0.280079
Si Si5 0.173896 0.811778 0.214850
Si Si6 0.674830 0.582579 0.846886
Si Si7 0.321890 0.832762 0.484553
O O1 0.754112 0.500000 0.131906
O O2 0.756135 0.379080 0.206222
O O3 0.000000 0.421434 0.133664
O O4 0.762972 0.381088 0.055244
O O5 0.785325 0.381800 0.509011
O O6 0.767768 0.309437 0.636616
O O7 0.747148 0.245647 0.495968
O O8 0.000000 0.289880 0.549294
O O9 0.248126 0.500000 0.427788
O O10 0.247195 0.627615 0.357548
O O11 0.000000 0.574376 0.415572
O O12 0.224088 0.253486 0.271431
O O13 0.000000 0.344291 0.282715
O O14 0.202610 0.885732 0.260819
O O15 0.000000 0.802406 0.191215
O O16 0.500000 0.588694 0.869039
O O17 0.729561 0.500000 0.847523
O O18 0.769455 0.629765 0.906147
O O19 0.500000 0.825804 0.483382
#
# Coordination Sequence:
#
# PCOD8189726 Si02
#       7
#     8   8   8   8   8   8   8
#     4   9  16  26  46  78 109 137 175 224 272 324
#     4  11  22  36  56  84 116 150 191 239 287 338
#     4   9  18  32  52  80 111 142 179 227 282 336
#     4   9  15  28  51  77 105 137 178 226 273 328
#     4  10  20  37  58  81 111 150 194 233 280 346
#     4  10  22  39  59  85 118 154 193 243 300 353
#     4  11  21  36  57  83 116 152 192 237 286 350
#
# _framework density 19.570177000000001
#
# number of rings (size 3 to 8) (size 9 to 14) (size 15 to 20)
#    0.000    2.143    1.429    2.571    0.000    6.000 
#    0.000    0.000    0.000    1.286    0.000    0.000 
#    0.000    0.000    0.000    0.000    0.000    0.000 
#
# Total GULP energy -347173.267857 kJ/mol
# GULP energy per Si atom -12399.045281 kJ/mol
# Density = 1.952563 g / cm^3
# Si number density = 19.570177 Si / 1000 Ang^3
#
#
#
# Elastic Constant Matrix: (Units=GPa)
#
#
# Indices 1 2 3 4 5 6 
#
# 1 49.4580 35.1896 36.3534 0.0000 0.0000 0.0000
# 2 35.1896 138.1976 72.0527 0.0000 0.0000 0.0000
# 3 36.3534 72.0527 110.1456 0.0000 0.0000 0.0000
# 4 0.0000 0.0000 0.0000 33.8520 0.0000 0.0000
# 5 0.0000 0.0000 0.0000 0.0000 28.8504 0.0000
# 6 0.0000 0.0000 0.0000 0.0000 0.0000 18.6812
#
#
#
# Elastic Compliance Matrix: (Units=1/GPa)
#
#
# Indices 1 2 3 4 5 6 
#
# 1 0.027754 -0.003477 -0.006886 0.000000 0.000000 0.000000
# 2 -0.003477 0.011417 -0.006321 0.000000 0.000000 0.000000
# 3 -0.006886 -0.006321 0.015486 0.000000 0.000000 0.000000
# 4 0.000000 0.000000 0.000000 0.029540 0.000000 0.000000
# 5 0.000000 0.000000 0.000000 0.000000 0.034662 0.000000
# 6 0.000000 0.000000 0.000000 0.000000 0.000000 0.053530
#
#
# Mechanical properties :
#
#
# Convention : Reuss Voigt Hill
#
# Bulk Modulus (GPa) = 46.96979 64.99917 55.98448
# Shear Modulus (GPa) = 23.49035 26.55709 25.02372
#
# Velocity S-wave (km/s) = 3.46831 3.68777 3.57972
# Velocity P-wave (km/s) = 6.33180 7.17066 6.76425
#
# Compressibility (1/GPa) = 0.02129028
#
# Stress axis : x y z
#
# Youngs Moduli (GPa) = 36.03036 87.58910 64.57302
#
# Poissons Ratio (x) = 0.30456 0.44463
# Poissons Ratio (y) = 0.12528 0.40816
# Poissons Ratio (z) = 0.24809 0.55364
#
# Static dielectric constant tensor:
#      x y z
#    x 3.108760 0.000000 0.000000 
#    y 0.000000 3.884180 0.000000 
#    z 0.000000 0.000000 3.617950 
# 
# 
# High freq. dielectric constant tensor:
#      x y z
#    x 1.713230 0.000000 0.000000 
#    y 0.000000 1.777100 0.000000 
#    z 0.000000 0.000000 1.771820 
# 
# From -- ./inp_files/16440.got.cif
#   From: 2010.03.12/outbox.cif.g09.slc.cpg/sg44_9_cif.got.tgz:16440.got - 2010.04.14 02:36:11.
