data_PCOD8189263
_publ_section_title
;
Structure prediction by ZEFSAII (Michael W. Deem and Ramdas Pophale) SiO2 
 PCOD8189263
Probable space group: I M M 2
;
_chemical_formula_sum "Si O2"
_cell_formula_units_Z 56
_cell_length_a 19.849377
_cell_length_b 8.999689
_cell_length_c 15.652588
_cell_angle_alpha 90.000000
_cell_angle_beta 90.000000
_cell_angle_gamma 90.000000
_cell_volume 2796.150456
_symmetry_space_group_name_H-M "I M M 2"
_symmetry_group_IT_number 44
_symmetry_cell_setting 'orthorhombic'
loop_
_space_group_symop_operation_xyz
x,y,z
-x,-y,z
-x,y,z
x,-y,z
1/2+x,1/2+y,1/2+z
1/2-x,1/2-y,1/2+z
1/2-x,1/2+y,1/2+z
1/2+x,1/2-y,1/2+z
loop_
_atom_site_type_symbol
_atom_site_label
_atom_site_fract_x
_atom_site_fract_y
_atom_site_fract_z
Si Si1 0.252222 0.668263 0.242210
Si Si2 0.421328 0.323552 0.490315
Si Si3 0.420889 0.829527 0.977708
Si Si4 0.798490 0.676801 0.912058
Si Si5 0.926743 0.840309 0.318332
Si Si6 0.894440 0.668718 0.166246
Si Si7 0.804820 0.824457 0.560915
O O1 0.274586 0.500000 0.264953
O O2 0.266481 0.775802 0.321662
O O3 0.174402 0.673782 0.218513
O O4 0.288000 0.727509 0.156594
O O5 0.500000 0.281825 0.473358
O O6 0.412829 0.500000 0.495464
O O7 0.372122 0.255895 0.417984
O O8 0.393383 0.249112 0.576146
O O9 0.500000 0.806784 0.994422
O O10 0.378780 0.743458 0.048747
O O11 0.400767 0.000000 0.979590
O O12 0.392236 0.767686 0.887170
O O13 0.808550 0.500000 0.914016
O O14 0.750473 0.729894 0.990754
O O15 0.942174 0.761979 0.228061
O O16 0.000000 0.874078 0.356942
O O17 0.887915 0.000000 0.309624
O O18 0.919404 0.500000 0.152687
O O19 0.808771 0.000000 0.554535
#
# Coordination Sequence:
#
# PCOD8189263 Si02
#       7
#     8   8   8   8   8   8   8
#     4  10  22  40  60  87 121 157 200 251 307 373
#     4  11  24  41  62  89 124 168 214 260 316 381
#     4  10  21  36  55  83 117 153 197 248 303 361
#     4  11  23  41  64  93 124 161 209 261 313 371
#     4  10  20  33  50  77 114 154 194 234 287 358
#     4  11  21  36  58  87 120 155 199 252 309 366
#     4  10  21  40  62  86 120 157 199 248 304 371
#
# _framework density 20.027533999999999
#
# number of rings (size 3 to 8) (size 9 to 14) (size 15 to 20)
#    0.000    1.571    1.429    3.429    0.000    9.714 
#    0.000    0.714    0.000    0.857    0.000    0.000 
#    0.000    0.000    0.000    0.000    0.000    0.000 
#
# Total GULP energy -346980.947870 kJ/mol
# GULP energy per Si atom -12392.176710 kJ/mol
# Density = 1.998195 g / cm^3
# Si number density = 20.027534 Si / 1000 Ang^3
#
#
#
# Elastic Constant Matrix: (Units=GPa)
#
#
# Indices 1 2 3 4 5 6 
#
# 1 71.9141 23.4442 33.4377 0.0000 0.0000 0.0000
# 2 23.4442 55.8144 47.8443 0.0000 0.0000 0.0000
# 3 33.4377 47.8443 96.3163 0.0000 0.0000 0.0000
# 4 0.0000 0.0000 0.0000 36.9736 0.0000 0.0000
# 5 0.0000 0.0000 0.0000 0.0000 27.1615 0.0000
# 6 0.0000 0.0000 0.0000 0.0000 0.0000 27.4069
#
#
#
# Elastic Compliance Matrix: (Units=1/GPa)
#
#
# Indices 1 2 3 4 5 6 
#
# 1 0.016993 -0.003624 -0.004099 0.000000 0.000000 0.000000
# 2 -0.003624 0.031976 -0.014626 0.000000 0.000000 0.000000
# 3 -0.004099 -0.014626 0.019071 0.000000 0.000000 0.000000
# 4 0.000000 0.000000 0.000000 0.027046 0.000000 0.000000
# 5 0.000000 0.000000 0.000000 0.000000 0.036817 0.000000
# 6 0.000000 0.000000 0.000000 0.000000 0.000000 0.036487
#
#
# Mechanical properties :
#
#
# Convention : Reuss Voigt Hill
#
# Bulk Modulus (GPa) = 42.84113 48.16636 45.50374
# Shear Modulus (GPa) = 22.63799 26.26299 24.45049
#
# Velocity S-wave (km/s) = 3.36571 3.62518 3.49785
# Velocity P-wave (km/s) = 6.04496 6.45173 6.25165
#
# Compressibility (1/GPa) = 0.02334206
#
# Stress axis : x y z
#
# Youngs Moduli (GPa) = 58.84831 31.27368 52.43628
#
# Poissons Ratio (x) = 0.11333 0.21495
# Poissons Ratio (y) = 0.21325 0.76692
# Poissons Ratio (z) = 0.24124 0.45740
#
# Static dielectric constant tensor:
#      x y z
#    x 3.651050 0.000000 0.000000 
#    y 0.000000 3.855940 0.000000 
#    z 0.000000 0.000000 3.624090 
# 
# 
# High freq. dielectric constant tensor:
#      x y z
#    x 1.780730 0.000000 0.000000 
#    y 0.000000 1.790710 0.000000 
#    z 0.000000 0.000000 1.769850 
# 
# From -- ./inp_files/16452.got.cif
#   From: 2010.03.12/outbox.cif.g09.slc.cpg/sg44_9_cif.got.tgz:16452.got - 2010.04.14 02:36:11.
