data_PCOD8189039
_publ_section_title
;
Structure prediction by ZEFSAII (Michael W. Deem and Ramdas Pophale) SiO2 
 PCOD8189039
Probable space group: I M M 2
;
_chemical_formula_sum "Si O2"
_cell_formula_units_Z 48
_cell_length_a 16.380706
_cell_length_b 14.034659
_cell_length_c 9.778827
_cell_angle_alpha 90.000000
_cell_angle_beta 90.000000
_cell_angle_gamma 90.000000
_cell_volume 2248.129082
_symmetry_space_group_name_H-M "I M M 2"
_symmetry_group_IT_number 44
_symmetry_cell_setting 'orthorhombic'
loop_
_space_group_symop_operation_xyz
x,y,z
-x,-y,z
-x,y,z
x,-y,z
1/2+x,1/2+y,1/2+z
1/2-x,1/2-y,1/2+z
1/2-x,1/2+y,1/2+z
1/2+x,1/2-y,1/2+z
loop_
_atom_site_type_symbol
_atom_site_label
_atom_site_fract_x
_atom_site_fract_y
_atom_site_fract_z
Si Si1 0.189285 0.105731 0.942940
Si Si2 0.000000 0.613869 0.059811
Si Si3 0.591038 0.295964 0.900796
Si Si4 0.374804 0.107815 0.028541
Si Si5 0.797760 0.890224 0.620483
Si Si6 0.500000 0.890922 0.256322
Si Si7 0.854449 0.738353 0.125388
O O1 0.187155 0.120830 0.781164
O O2 0.157239 0.000000 0.976540
O O3 0.277232 0.120053 0.017762
O O4 0.129045 0.183812 0.006999
O O5 0.922839 0.657867 0.136666
O O6 0.000000 0.500000 0.074498
O O7 0.000000 0.656852 0.905274
O O8 0.500000 0.335477 0.871523
O O9 0.648186 0.300666 0.765851
O O10 0.583996 0.183167 0.928926
O O11 0.626217 0.356793 0.027725
O O12 0.415125 0.132641 0.176467
O O13 0.399547 0.000000 0.985563
O O14 0.726326 0.818170 0.584130
O O15 0.776193 0.000000 0.584847
O O16 0.500000 0.000000 0.293478
#
# Coordination Sequence:
#
# PCOD8189039 Si02
#       7
#     8   4   8   8   8   4   8
#     4  10  23  42  66  95 126 170 225 280 335 406
#     4  11  26  41  62 100 141 173 223 292 358 412
#     4  12  25  41  65 100 136 178 226 280 353 409
#     4  10  19  35  62  94 129 164 213 271 334 407
#     4  11  24  44  69  97 132 179 234 286 339 412
#     4   9  20  35  57  94 133 173 210 264 339 404
#     4  12  23  43  67  99 133 179 224 285 352 417
#
# _framework density 21.351088000000001
#
# number of rings (size 3 to 8) (size 9 to 14) (size 15 to 20)
#    0.000    1.167    5.000    0.500    2.333    3.000 
#    0.000    2.083    0.000    0.000    0.000    0.000 
#    0.000    0.000    0.000    0.000    0.000    0.000 
#
# Total GULP energy -297369.271749 kJ/mol
# GULP energy per Si atom -12390.386323 kJ/mol
# Density = 2.130249 g / cm^3
# Si number density = 21.351088 Si / 1000 Ang^3
#
#
#
# Elastic Constant Matrix: (Units=GPa)
#
#
# Indices 1 2 3 4 5 6 
#
# 1 69.4217 29.3103 21.5517 0.0000 0.0000 0.0000
# 2 29.3103 132.3861 50.4174 0.0000 0.0000 0.0000
# 3 21.5517 50.4174 104.7493 0.0000 0.0000 0.0000
# 4 0.0000 0.0000 0.0000 32.7277 0.0000 0.0000
# 5 0.0000 0.0000 0.0000 0.0000 30.0180 0.0000
# 6 0.0000 0.0000 0.0000 0.0000 0.0000 23.0834
#
#
#
# Elastic Compliance Matrix: (Units=1/GPa)
#
#
# Indices 1 2 3 4 5 6 
#
# 1 0.016215 -0.002840 -0.001969 0.000000 0.000000 0.000000
# 2 -0.002840 0.009746 -0.004107 0.000000 0.000000 0.000000
# 3 -0.001969 -0.004107 0.011928 0.000000 0.000000 0.000000
# 4 0.000000 0.000000 0.000000 0.030555 0.000000 0.000000
# 5 0.000000 0.000000 0.000000 0.000000 0.033313 0.000000
# 6 0.000000 0.000000 0.000000 0.000000 0.000000 0.043321
#
#
# Mechanical properties :
#
#
# Convention : Reuss Voigt Hill
#
# Bulk Modulus (GPa) = 49.85578 56.56845 53.21211
# Shear Modulus (GPa) = 29.48151 30.85100 30.16625
#
# Velocity S-wave (km/s) = 3.71994 3.80536 3.76289
# Velocity P-wave (km/s) = 6.46929 6.77197 6.62236
#
# Compressibility (1/GPa) = 0.02005786
#
# Stress axis : x y z
#
# Youngs Moduli (GPa) = 61.67063 102.60124 83.83340
#
# Poissons Ratio (x) = 0.29140 0.16509
# Poissons Ratio (y) = 0.17515 0.34429
# Poissons Ratio (z) = 0.12144 0.42136
#
# Static dielectric constant tensor:
#      x y z
#    x 1.547810 0.000000 0.000000 
#    y 0.000000 3.987760 0.000000 
#    z 0.000000 0.000000 3.955330 
# 
# 
# High freq. dielectric constant tensor:
#      x y z
#    x 1.818410 0.000000 0.000000 
#    y 0.000000 1.842450 0.000000 
#    z 0.000000 0.000000 1.841270 
# 
# From -- ./inp_files/7154.got.cif
#   From: 2010.03.12/outbox.cif.g09.slc.cpg/sg44_4_cif.got.tgz:7154.got - 2010.04.14 02:36:11.
