data_PCOD8189475
_publ_section_title
;
Structure prediction by ZEFSAII (Michael W. Deem and Ramdas Pophale) SiO2 
 PCOD8189475
Probable space group: I M M 2
;
_chemical_formula_sum "Si O2"
_cell_formula_units_Z 48
_cell_length_a 9.976989
_cell_length_b 8.985727
_cell_length_c 27.521008
_cell_angle_alpha 90.000000
_cell_angle_beta 90.000000
_cell_angle_gamma 90.000000
_cell_volume 2467.272112
_symmetry_space_group_name_H-M "I M M 2"
_symmetry_group_IT_number 44
_symmetry_cell_setting 'orthorhombic'
loop_
_space_group_symop_operation_xyz
x,y,z
-x,-y,z
-x,y,z
x,-y,z
1/2+x,1/2+y,1/2+z
1/2-x,1/2-y,1/2+z
1/2-x,1/2+y,1/2+z
1/2+x,1/2-y,1/2+z
loop_
_atom_site_type_symbol
_atom_site_label
_atom_site_fract_x
_atom_site_fract_y
_atom_site_fract_z
Si Si1 0.252895 0.173238 0.632670
Si Si2 0.756414 0.330354 0.852411
Si Si3 0.000000 0.323038 0.787517
Si Si4 0.000000 0.323751 0.676612
Si Si5 0.655306 0.176360 0.946764
Si Si6 0.000000 0.326504 0.191990
Si Si7 0.654949 0.172593 0.523369
Si Si8 0.500000 0.337219 0.787482
O O1 0.367215 0.239404 0.667747
O O2 0.303153 0.200477 0.578482
O O3 0.124488 0.268963 0.645372
O O4 0.221379 0.000000 0.642066
O O5 0.787942 0.500000 0.868392
O O6 0.872870 0.264972 0.818028
O O7 0.736527 0.231979 0.899947
O O8 0.625068 0.318653 0.821315
O O9 0.000000 0.259360 0.732191
O O10 0.000000 0.500000 0.784182
O O11 0.000000 0.500000 0.678445
O O12 0.500000 0.234674 0.948040
O O13 0.655479 0.000000 0.946867
O O14 0.739001 0.233643 0.992543
O O15 0.000000 0.500000 0.181659
O O16 0.000000 0.292643 0.248587
O O17 0.500000 0.223933 0.515270
O O18 0.668913 0.000000 0.509242
O O19 0.500000 0.500000 0.761903
#
# Coordination Sequence:
#
# PCOD8189475 Si02
#       8
#     8   8   4   4   8   4   8   4
#     4  10  21  40  62  88 120 156 201 247 291 351
#     4  10  20  38  61  84 114 155 204 247 286 346
#     4   9  20  37  58  85 118 156 199 246 288 339
#     4  11  23  39  60  89 126 163 199 243 300 351
#     4  11  25  42  60  88 126 157 190 244 307 362
#     4  10  20  36  61  88 119 155 195 245 301 352
#     4  10  22  42  67  90 115 154 203 248 294 353
#     4  10  20  34  57  86 117 154 199 244 289 348
#
# _framework density 19.454685999999999
#
# number of rings (size 3 to 8) (size 9 to 14) (size 15 to 20)
#    0.000    1.833    1.667    1.750    2.333    4.667 
#    0.000    1.667    0.000    0.000    0.000    0.000 
#    0.000    0.000    0.000    0.000    0.000    0.000 
#
# Total GULP energy -297571.080915 kJ/mol
# GULP energy per Si atom -12398.795038 kJ/mol
# Density = 1.941041 g / cm^3
# Si number density = 19.454686 Si / 1000 Ang^3
#
#
#
# Elastic Constant Matrix: (Units=GPa)
#
#
# Indices 1 2 3 4 5 6 
#
# 1 120.0319 29.1201 20.4818 0.0000 0.0000 0.0000
# 2 29.1201 49.5968 28.0891 0.0000 0.0000 0.0000
# 3 20.4818 28.0891 75.0342 0.0000 0.0000 0.0000
# 4 0.0000 0.0000 0.0000 34.3026 0.0000 0.0000
# 5 0.0000 0.0000 0.0000 0.0000 58.1030 0.0000
# 6 0.0000 0.0000 0.0000 0.0000 0.0000 5.8906
#
#
#
# Elastic Compliance Matrix: (Units=1/GPa)
#
#
# Indices 1 2 3 4 5 6 
#
# 1 0.009740 -0.005347 -0.000657 0.000000 0.000000 0.000000
# 2 -0.005347 0.028522 -0.009218 0.000000 0.000000 0.000000
# 3 -0.000657 -0.009218 0.016957 0.000000 0.000000 0.000000
# 4 0.000000 0.000000 0.000000 0.029152 0.000000 0.000000
# 5 0.000000 0.000000 0.000000 0.000000 0.017211 0.000000
# 6 0.000000 0.000000 0.000000 0.000000 0.000000 0.169762
#
#
# Mechanical properties :
#
#
# Convention : Reuss Voigt Hill
#
# Bulk Modulus (GPa) = 40.36092 44.44944 42.40518
# Shear Modulus (GPa) = 16.12653 30.79069 23.45861
#
# Velocity S-wave (km/s) = 2.88223 3.98262 3.47624
# Velocity P-wave (km/s) = 5.64513 6.63669 6.16089
#
# Compressibility (1/GPa) = 0.02477644
#
# Stress axis : x y z
#
# Youngs Moduli (GPa) = 102.66527 35.06016 58.97131
#
# Poissons Ratio (x) = 0.18746 0.03876
# Poissons Ratio (y) = 0.54892 0.54359
# Poissons Ratio (z) = 0.06748 0.32318
#
# Static dielectric constant tensor:
#      x y z
#    x 3.875060 0.000000 0.000000 
#    y 0.000000 3.397850 0.000000 
#    z 0.000000 0.000000 3.603530 
# 
# 
# High freq. dielectric constant tensor:
#      x y z
#    x 1.778090 0.000000 0.000000 
#    y 0.000000 1.735160 0.000000 
#    z 0.000000 0.000000 1.768320 
# 
# From -- ./inp_files/26989.got.cif
#   From: 2010.03.12/outbox.cif.g09.slc.cpg/sg44_14_cif.got.tgz:26989.got - 2010.04.14 02:36:11.
