data_PCOD8189780
_publ_section_title
;
Structure prediction by ZEFSAII (Michael W. Deem and Ramdas Pophale) SiO2 
 PCOD8189780
Probable space group: I M M 2
;
_chemical_formula_sum "Si O2"
_cell_formula_units_Z 48
_cell_length_a 18.312011
_cell_length_b 8.803886
_cell_length_c 15.158724
_cell_angle_alpha 90.000000
_cell_angle_beta 90.000000
_cell_angle_gamma 90.000000
_cell_volume 2443.841844
_symmetry_space_group_name_H-M "I M M 2"
_symmetry_group_IT_number 44
_symmetry_cell_setting 'orthorhombic'
loop_
_space_group_symop_operation_xyz
x,y,z
-x,-y,z
-x,y,z
x,-y,z
1/2+x,1/2+y,1/2+z
1/2-x,1/2-y,1/2+z
1/2-x,1/2+y,1/2+z
1/2+x,1/2-y,1/2+z
loop_
_atom_site_type_symbol
_atom_site_label
_atom_site_fract_x
_atom_site_fract_y
_atom_site_fract_z
Si Si1 0.251817 0.174852 0.934080
Si Si2 0.919217 0.175262 0.166371
Si Si3 0.500000 0.818739 0.151517
Si Si4 0.889825 0.322795 0.989052
Si Si5 0.225751 0.678659 0.233048
Si Si6 0.000000 0.678051 0.845258
Si Si7 0.657389 0.824684 0.099583
O O1 0.194682 0.285078 0.980915
O O2 0.263293 0.230503 0.834252
O O3 0.225287 0.000000 0.935937
O O4 0.322668 0.195767 0.996321
O O5 0.856943 0.273818 0.212266
O O6 0.000000 0.200754 0.209493
O O7 0.896046 0.000000 0.172118
O O8 0.926135 0.224488 0.065237
O O9 0.500000 0.746364 0.249542
O O10 0.574915 0.757930 0.106925
O O11 0.500000 0.000000 0.149165
O O12 0.901658 0.500000 0.010008
O O13 0.927877 0.272667 0.898009
O O14 0.231432 0.500000 0.222914
O O15 0.285800 0.748043 0.167441
O O16 0.000000 0.500000 0.830922
O O17 0.658406 0.000000 0.127537
#
# Coordination Sequence:
#
# PCOD8189780 Si02
#       7
#     8   8   4   8   8   4   8
#     4  10  22  38  56  85 119 153 196 244 295 353
#     4  11  23  39  59  84 118 156 196 243 301 359
#     4   9  18  34  57  84 113 150 198 239 283 344
#     4  11  20  33  57  86 117 151 191 237 294 357
#     4  11  23  39  60  88 119 155 202 249 297 353
#     4   9  18  30  49  84 117 140 182 241 287 340
#     4  10  20  38  62  85 116 157 198 243 296 353
#
# _framework density 19.641206
#
# number of rings (size 3 to 8) (size 9 to 14) (size 15 to 20)
#    0.000    1.667    2.500    2.500    0.000    3.667 
#    1.500    0.417    0.000    3.000    0.000    0.000 
#    0.000    0.000    0.000    0.000    0.000    0.000 
#
# Total GULP energy -297483.199475 kJ/mol
# GULP energy per Si atom -12395.133311 kJ/mol
# Density = 1.959650 g / cm^3
# Si number density = 19.641206 Si / 1000 Ang^3
#
#
#
# Elastic Constant Matrix: (Units=GPa)
#
#
# Indices 1 2 3 4 5 6 
#
# 1 140.4742 25.9587 42.6676 0.0000 0.0000 0.0000
# 2 25.9587 41.2778 19.1323 0.0000 0.0000 0.0000
# 3 42.6676 19.1323 100.2606 0.0000 0.0000 0.0000
# 4 0.0000 0.0000 0.0000 24.8691 0.0000 0.0000
# 5 0.0000 0.0000 0.0000 0.0000 24.6581 0.0000
# 6 0.0000 0.0000 0.0000 0.0000 0.0000 19.5543
#
#
#
# Elastic Compliance Matrix: (Units=1/GPa)
#
#
# Indices 1 2 3 4 5 6 
#
# 1 0.008781 -0.004158 -0.002944 0.000000 0.000000 0.000000
# 2 -0.004158 0.028546 -0.003678 0.000000 0.000000 0.000000
# 3 -0.002944 -0.003678 0.011928 0.000000 0.000000 0.000000
# 4 0.000000 0.000000 0.000000 0.040211 0.000000 0.000000
# 5 0.000000 0.000000 0.000000 0.000000 0.040555 0.000000
# 6 0.000000 0.000000 0.000000 0.000000 0.000000 0.051140
#
#
# Mechanical properties :
#
#
# Convention : Reuss Voigt Hill
#
# Bulk Modulus (GPa) = 36.10527 50.83666 43.47097
# Shear Modulus (GPa) = 23.59036 26.76655 25.17845
#
# Velocity S-wave (km/s) = 3.46940 3.69558 3.58428
# Velocity P-wave (km/s) = 5.87122 6.64444 6.26977
#
# Compressibility (1/GPa) = 0.02769678
#
# Stress axis : x y z
#
# Youngs Moduli (GPa) = 113.87993 35.03163 83.83293
#
# Poissons Ratio (x) = 0.14566 0.24676
# Poissons Ratio (y) = 0.47351 0.30832
# Poissons Ratio (z) = 0.33521 0.12884
#
# Static dielectric constant tensor:
#      x y z
#    x 3.813040 0.000000 0.000000 
#    y 0.000000 3.396340 0.000000 
#    z 0.000000 0.000000 3.722780 
# 
# 
# High freq. dielectric constant tensor:
#      x y z
#    x 1.776180 0.000000 0.000000 
#    y 0.000000 1.748440 0.000000 
#    z 0.000000 0.000000 1.762410 
# 
# From -- ./inp_files/18830.got.cif
#   From: 2010.03.12/outbox.cif.g09.slc.cpg/sg44_10_cif.got.tgz:18830.got - 2010.04.14 02:36:11.
