data_PCOD8189323
_publ_section_title
;
Structure prediction by ZEFSAII (Michael W. Deem and Ramdas Pophale) SiO2 
 PCOD8189323
Probable space group: I M M 2
;
_chemical_formula_sum "Si O2"
_cell_formula_units_Z 64
_cell_length_a 9.181611
_cell_length_b 24.479165
_cell_length_c 14.693726
_cell_angle_alpha 90.000000
_cell_angle_beta 90.000000
_cell_angle_gamma 90.000000
_cell_volume 3302.534976
_symmetry_space_group_name_H-M "I M M 2"
_symmetry_group_IT_number 44
_symmetry_cell_setting 'orthorhombic'
loop_
_space_group_symop_operation_xyz
x,y,z
-x,-y,z
-x,y,z
x,-y,z
1/2+x,1/2+y,1/2+z
1/2-x,1/2-y,1/2+z
1/2-x,1/2+y,1/2+z
1/2+x,1/2-y,1/2+z
loop_
_atom_site_type_symbol
_atom_site_label
_atom_site_fract_x
_atom_site_fract_y
_atom_site_fract_z
Si Si1 0.172666 0.439697 0.705440
Si Si2 0.669446 0.145031 0.555957
Si Si3 0.330360 0.362281 0.350552
Si Si4 0.331698 0.437336 0.182335
Si Si5 0.336314 0.755381 0.838839
Si Si6 0.339138 0.250326 0.055044
Si Si7 0.171740 0.630885 0.537534
Si Si8 0.329684 0.850374 0.344229
O O1 0.241543 0.500000 0.715245
O O2 0.221025 0.415018 0.608727
O O3 0.227901 0.402919 0.789183
O O4 0.000000 0.442762 0.708843
O O5 0.500000 0.144469 0.576754
O O6 0.741071 0.094120 0.606062
O O7 0.730960 0.203175 0.592448
O O8 0.705537 0.138822 0.449557
O O9 0.500000 0.348728 0.364613
O O10 0.304822 0.412128 0.281783
O O11 0.251641 0.309130 0.308142
O O12 0.261598 0.379898 0.446275
O O13 0.500000 0.432807 0.154869
O O14 0.279148 0.500000 0.184821
O O15 0.500000 0.757892 0.798989
O O16 0.253885 0.701794 0.802749
O O17 0.339040 0.752202 0.946790
O O18 0.500000 0.265033 0.091881
O O19 0.291209 0.189423 0.085257
O O20 0.000000 0.628974 0.513712
O O21 0.500000 0.839652 0.328582
#
# Coordination Sequence:
#
# PCOD8189323 Si02
#       8
#     8   8   8   8   8   8   8   8
#     4   9  18  33  53  77 106 142 182 217 252 304
#     4  10  20  33  53  81 108 133 168 219 268 306
#     4  10  20  35  56  79 104 135 171 215 266 315
#     4  10  23  41  56  72  99 139 183 218 257 318
#     4   9  17  31  53  81 110 137 169 211 260 314
#     4   8  15  29  49  74 106 139 168 203 253 315
#     4   9  18  33  54  80 108 139 175 213 256 308
#     4   9  18  33  54  81 111 141 174 213 258 308
#
# _framework density 19.379052999999999
#
# number of rings (size 3 to 8) (size 9 to 14) (size 15 to 20)
#    0.000    2.750    0.000    1.875    0.000    6.750 
#    0.000    4.375    0.000    1.125    0.000    0.000 
#    0.000    0.000    0.000    0.000    0.000    0.000 
#
# Total GULP energy -396769.793782 kJ/mol
# GULP energy per Si atom -12399.056056 kJ/mol
# Density = 1.933495 g / cm^3
# Si number density = 19.379053 Si / 1000 Ang^3
#
#
#
# Elastic Constant Matrix: (Units=GPa)
#
#
# Indices 1 2 3 4 5 6 
#
# 1 87.7916 49.7206 32.1865 -0.0008 0.0000 0.0000
# 2 49.7206 142.1040 26.8937 -0.0010 -0.0001 0.0000
# 3 32.1865 26.8937 40.1766 -0.0027 0.0001 0.0000
# 4 -0.0008 -0.0010 -0.0027 17.4924 0.0002 0.0000
# 5 0.0000 -0.0001 0.0001 0.0002 24.4815 0.0000
# 6 0.0000 0.0000 0.0000 0.0000 0.0000 24.6116
#
#
#
# Elastic Compliance Matrix: (Units=1/GPa)
#
#
# Indices 1 2 3 4 5 6 
#
# 1 0.017983 -0.004083 -0.011673 -0.000001 0.000000 0.000000
# 2 -0.004083 0.008985 -0.002744 0.000000 0.000000 0.000000
# 3 -0.011673 -0.002744 0.036079 0.000005 0.000000 0.000000
# 4 -0.000001 0.000000 0.000005 0.057168 -0.000001 0.000000
# 5 0.000000 0.000000 0.000000 -0.000001 0.040847 0.000000
# 6 0.000000 0.000000 0.000000 0.000000 0.000000 0.040631
#
#
# Mechanical properties :
#
#
# Convention : Reuss Voigt Hill
#
# Bulk Modulus (GPa) = 38.39278 54.18596 46.28937
# Shear Modulus (GPa) = 20.21234 24.06852 22.14043
#
# Velocity S-wave (km/s) = 3.23305 3.52801 3.38374
# Velocity P-wave (km/s) = 5.81303 6.67964 6.26135
#
# Compressibility (1/GPa) = 0.02604656
#
# Stress axis : x y z
#
# Youngs Moduli (GPa) = 55.60942 111.29886 27.71733
#
# Poissons Ratio (x) = 0.45440 0.32356
# Poissons Ratio (y) = 0.22703 0.07605
# Poissons Ratio (z) = 0.64915 0.30536
#
# Static dielectric constant tensor:
#      x y z
#    x 3.492900 0.000000 0.000000 
#    y 0.000000 3.850470 0.000000 
#    z 0.000000 0.000000 3.359000 
# 
# 
# High freq. dielectric constant tensor:
#      x y z
#    x 1.739670 0.000000 0.000000 
#    y 0.000000 1.757460 0.000000 
#    z 0.000000 0.000000 1.746820 
# 
# From -- ./inp_files/16800.got.cif
#   From: 2010.03.12/outbox.cif.g09.slc.cpg/sg44_9_cif.got.tgz:16800.got - 2010.04.14 02:36:11.
