data_PCOD8189012
_publ_section_title
;
Structure prediction by ZEFSAII (Michael W. Deem and Ramdas Pophale) SiO2 
 PCOD8189012
Probable space group: I M M 2
;
_chemical_formula_sum "Si O2"
_cell_formula_units_Z 48
_cell_length_a 18.145863
_cell_length_b 9.180895
_cell_length_c 14.799198
_cell_angle_alpha 90.000000
_cell_angle_beta 90.000000
_cell_angle_gamma 90.000000
_cell_volume 2465.476281
_symmetry_space_group_name_H-M "I M M 2"
_symmetry_group_IT_number 44
_symmetry_cell_setting 'orthorhombic'
loop_
_space_group_symop_operation_xyz
x,y,z
-x,-y,z
-x,y,z
x,-y,z
1/2+x,1/2+y,1/2+z
1/2-x,1/2-y,1/2+z
1/2-x,1/2+y,1/2+z
1/2+x,1/2-y,1/2+z
loop_
_atom_site_type_symbol
_atom_site_label
_atom_site_fract_x
_atom_site_fract_y
_atom_site_fract_z
Si Si1 0.776531 0.829003 0.464770
Si Si2 0.000000 0.837580 0.092112
Si Si3 0.390621 0.836868 0.703111
Si Si4 0.919348 0.334453 0.404559
Si Si5 0.500000 0.332510 0.379346
Si Si6 0.227265 0.168816 0.672060
Si Si7 0.350490 0.174106 0.326385
O O1 0.856846 0.770711 0.440290
O O2 0.763219 0.782493 0.568127
O O3 0.710433 0.770964 0.400199
O O4 0.779862 0.000000 0.453163
O O5 0.925677 0.764148 0.127425
O O6 0.000000 0.829983 0.985981
O O7 0.000000 0.000000 0.129426
O O8 0.430525 0.814432 0.797813
O O9 0.305292 0.802427 0.719105
O O10 0.400522 0.000000 0.665745
O O11 0.896258 0.500000 0.427314
O O12 0.000000 0.297826 0.447703
O O13 0.500000 0.500000 0.343885
O O14 0.428246 0.247700 0.346132
O O15 0.170848 0.271564 0.725854
O O16 0.202353 0.000000 0.679543
O O17 0.358551 0.000000 0.327016
#
# Coordination Sequence:
#
# PCOD8189012 Si02
#       7
#     8   4   8   8   4   8   8
#     4  10  22  39  61  90 121 156 199 246 301 360
#     4  11  23  35  55  90 123 152 195 251 304 356
#     4  10  19  35  59  84 117 157 194 238 299 364
#     4  10  20  36  58  85 116 155 198 240 291 353
#     4  11  25  43  61  86 121 162 203 245 302 364
#     4  10  21  39  62  87 117 159 203 243 299 365
#     4  11  23  41  65  92 122 157 202 256 302 351
#
# _framework density 19.468854
#
# number of rings (size 3 to 8) (size 9 to 14) (size 15 to 20)
#    0.000    1.667    2.500    2.000    0.000    5.667 
#    1.500    0.000    0.000    0.000    0.000    0.000 
#    0.000    0.000    0.000    0.000    0.000    0.000 
#
# Total GULP energy -297563.670091 kJ/mol
# GULP energy per Si atom -12398.486254 kJ/mol
# Density = 1.942454 g / cm^3
# Si number density = 19.468854 Si / 1000 Ang^3
#
#
#
# Elastic Constant Matrix: (Units=GPa)
#
#
# Indices 1 2 3 4 5 6 
#
# 1 128.2478 51.0166 45.8440 0.0000 0.0000 0.0000
# 2 51.0166 82.1403 43.1824 0.0000 0.0000 0.0000
# 3 45.8440 43.1824 75.6110 0.0000 0.0000 0.0000
# 4 0.0000 0.0000 0.0000 31.1169 0.0000 0.0000
# 5 0.0000 0.0000 0.0000 0.0000 34.5166 0.0000
# 6 0.0000 0.0000 0.0000 0.0000 0.0000 37.4352
#
#
#
# Elastic Compliance Matrix: (Units=1/GPa)
#
#
# Indices 1 2 3 4 5 6 
#
# 1 0.011146 -0.004816 -0.004007 0.000000 0.000000 0.000000
# 2 -0.004816 0.019479 -0.008205 0.000000 0.000000 0.000000
# 3 -0.004007 -0.008205 0.020341 0.000000 0.000000 0.000000
# 4 0.000000 0.000000 0.000000 0.032137 0.000000 0.000000
# 5 0.000000 0.000000 0.000000 0.000000 0.028972 0.000000
# 6 0.000000 0.000000 0.000000 0.000000 0.000000 0.026713
#
#
# Mechanical properties :
#
#
# Convention : Reuss Voigt Hill
#
# Bulk Modulus (GPa) = 59.13737 62.89835 61.01786
# Shear Modulus (GPa) = 28.01456 30.34415 29.17935
#
# Velocity S-wave (km/s) = 3.79745 3.95219 3.87560
# Velocity P-wave (km/s) = 7.04761 7.29409 7.17191
#
# Compressibility (1/GPa) = 0.01690978
#
# Stress axis : x y z
#
# Youngs Moduli (GPa) = 89.72171 51.33853 49.16149
#
# Poissons Ratio (x) = 0.24723 0.19701
# Poissons Ratio (y) = 0.43207 0.40335
# Poissons Ratio (z) = 0.35955 0.42121
#
# Static dielectric constant tensor:
#      x y z
#    x 3.669080 0.000000 0.000000 
#    y 0.000000 3.563950 0.000000 
#    z 0.000000 0.000000 3.505320 
# 
# 
# High freq. dielectric constant tensor:
#      x y z
#    x 1.770070 0.000000 0.000000 
#    y 0.000000 1.753130 0.000000 
#    z 0.000000 0.000000 1.751140 
# 
# From -- ./inp_files/16150.got.cif
#   From: 2010.03.12/outbox.cif.g09.slc.cpg/sg44_9_cif.got.tgz:16150.got - 2010.04.14 02:36:11.
