data_PCOD8189046
_publ_section_title
;
Structure prediction by ZEFSAII (Michael W. Deem and Ramdas Pophale) SiO2 
 PCOD8189046
Probable space group: I M M 2
;
_chemical_formula_sum "Si O2"
_cell_formula_units_Z 64
_cell_length_a 8.662028
_cell_length_b 29.029671
_cell_length_c 12.736111
_cell_angle_alpha 90.000000
_cell_angle_beta 90.000000
_cell_angle_gamma 90.000000
_cell_volume 3202.569274
_symmetry_space_group_name_H-M "I M M 2"
_symmetry_group_IT_number 44
_symmetry_cell_setting 'orthorhombic'
loop_
_space_group_symop_operation_xyz
x,y,z
-x,-y,z
-x,y,z
x,-y,z
1/2+x,1/2+y,1/2+z
1/2-x,1/2-y,1/2+z
1/2-x,1/2+y,1/2+z
1/2+x,1/2-y,1/2+z
loop_
_atom_site_type_symbol
_atom_site_label
_atom_site_fract_x
_atom_site_fract_y
_atom_site_fract_z
Si Si1 0.679449 0.415921 0.526650
Si Si2 0.683957 0.898585 0.236074
Si Si3 0.178026 0.701725 0.673512
Si Si4 0.824322 0.324736 0.446235
Si Si5 0.683013 0.111578 0.647333
Si Si6 0.183564 0.447200 0.950115
Si Si7 0.825352 0.450019 0.337524
Si Si8 0.680384 0.700472 0.233944
O O1 0.500000 0.403040 0.530007
O O2 0.738591 0.428931 0.643155
O O3 0.787561 0.375791 0.482388
O O4 0.715588 0.454915 0.440433
O O5 0.500000 0.900432 0.224240
O O6 0.747728 0.845667 0.223131
O O7 0.739862 0.921104 0.344812
O O8 0.201351 0.706663 0.548382
O O9 0.254152 0.748499 0.718007
O O10 0.000000 0.700606 0.704683
O O11 0.708483 0.310868 0.354941
O O12 0.000000 0.322031 0.404397
O O13 0.500000 0.112539 0.640232
O O14 0.748505 0.083110 0.547406
O O15 0.739744 0.086650 0.753728
O O16 0.744655 0.163849 0.652995
O O17 0.247193 0.500000 0.953604
O O18 0.000000 0.448690 0.953424
O O19 0.823200 0.500000 0.281998
O O20 0.000000 0.437008 0.370426
O O21 0.500000 0.700683 0.209290
#
# Coordination Sequence:
#
# PCOD8189046 Si02
#       8
#     8   8   8   8   8   8   8   8
#     4  11  21  34  54  81 111 143 181 232 287 338
#     4   9  18  36  59  80 111 152 191 234 284 342
#     4   8  18  34  52  76 108 148 188 228 281 339
#     4  10  19  36  57  76 105 146 187 230 281 340
#     4  10  20  35  56  82 113 148 189 235 282 338
#     4   9  18  34  59  88 113 144 192 244 286 334
#     4  10  20  34  54  79 109 146 185 226 277 338
#     4  11  21  34  54  82 114 148 188 236 290 345
#
# _framework density 19.983955000000002
#
# number of rings (size 3 to 8) (size 9 to 14) (size 15 to 20)
#    0.000    2.250    1.250    3.000    0.000    3.250 
#    0.000    9.375    0.000    1.875    0.000    0.000 
#    0.000    0.000    0.000    0.000    0.000    0.000 
#
# Total GULP energy -396581.180617 kJ/mol
# GULP energy per Si atom -12393.161894 kJ/mol
# Density = 1.993847 g / cm^3
# Si number density = 19.983955 Si / 1000 Ang^3
#
#
#
# Elastic Constant Matrix: (Units=GPa)
#
#
# Indices 1 2 3 4 5 6 
#
# 1 35.5686 13.9444 29.1151 0.0000 -0.0001 0.0000
# 2 13.9444 113.3098 54.9145 -0.0003 -0.0002 0.0000
# 3 29.1151 54.9145 131.1800 -0.0014 -0.0004 -0.0001
# 4 0.0000 -0.0003 -0.0014 24.4589 -0.0002 0.0000
# 5 -0.0001 -0.0002 -0.0004 -0.0002 17.0273 -0.0002
# 6 0.0000 0.0000 -0.0001 0.0000 -0.0002 19.9895
#
#
#
# Elastic Compliance Matrix: (Units=1/GPa)
#
#
# Indices 1 2 3 4 5 6 
#
# 1 0.034397 -0.000669 -0.007354 0.000000 0.000000 0.000000
# 2 -0.000669 0.011085 -0.004492 0.000000 0.000000 0.000000
# 3 -0.007354 -0.004492 0.011136 0.000001 0.000000 0.000000
# 4 0.000000 0.000000 0.000001 0.040885 0.000000 0.000000
# 5 0.000000 0.000000 0.000000 0.000000 0.058729 0.000001
# 6 0.000000 0.000000 0.000000 0.000000 0.000001 0.050026
#
#
# Mechanical properties :
#
#
# Convention : Reuss Voigt Hill
#
# Bulk Modulus (GPa) = 31.65825 52.88960 42.27393
# Shear Modulus (GPa) = 20.67683 24.43411 22.55547
#
# Velocity S-wave (km/s) = 3.22012 3.50049 3.36323
# Velocity P-wave (km/s) = 5.44994 6.54686 6.02342
#
# Compressibility (1/GPa) = 0.03158734
#
# Stress axis : x y z
#
# Youngs Moduli (GPa) = 29.07238 90.21561 89.80106
#
# Poissons Ratio (x) = 0.06034 0.66043
# Poissons Ratio (y) = 0.01944 0.40336
# Poissons Ratio (z) = 0.21381 0.40523
#
# Static dielectric constant tensor:
#      x y z
#    x 3.186320 0.000000 0.000000 
#    y 0.000000 3.896790 0.000000 
#    z 0.000000 0.000000 3.927630 
# 
# 
# High freq. dielectric constant tensor:
#      x y z
#    x 1.741890 0.000000 0.000000 
#    y 0.000000 1.783180 0.000000 
#    z 0.000000 0.000000 1.782070 
# 
# From -- ./inp_files/11530.got.cif
#   From: 2010.03.12/outbox.cif.g09.slc.cpg/sg44_6_cif.got.tgz:11530.got - 2010.04.14 02:36:11.
