data_PCOD8189412
_publ_section_title
;
Structure prediction by ZEFSAII (Michael W. Deem and Ramdas Pophale) SiO2 
 PCOD8189412
Probable space group: I M M 2
;
_chemical_formula_sum "Si O2"
_cell_formula_units_Z 64
_cell_length_a 18.370539
_cell_length_b 9.055059
_cell_length_c 20.704985
_cell_angle_alpha 90.000000
_cell_angle_beta 90.000000
_cell_angle_gamma 90.000000
_cell_volume 3444.197947
_symmetry_space_group_name_H-M "I M M 2"
_symmetry_group_IT_number 44
_symmetry_cell_setting 'orthorhombic'
loop_
_space_group_symop_operation_xyz
x,y,z
-x,-y,z
-x,y,z
x,-y,z
1/2+x,1/2+y,1/2+z
1/2-x,1/2-y,1/2+z
1/2-x,1/2+y,1/2+z
1/2+x,1/2-y,1/2+z
loop_
_atom_site_type_symbol
_atom_site_label
_atom_site_fract_x
_atom_site_fract_y
_atom_site_fract_z
Si Si1 0.086474 0.163364 0.606730
Si Si2 0.086499 0.335675 0.094079
Si Si3 0.585192 0.328186 0.963228
Si Si4 0.175539 0.324827 0.355064
Si Si5 0.913628 0.831697 0.968932
Si Si6 0.918906 0.675515 0.235704
Si Si7 0.169258 0.675506 0.855877
Si Si8 0.082286 0.673972 0.731280
O O1 0.112054 0.214757 0.535615
O O2 0.115885 0.268305 0.663677
O O3 0.000000 0.161840 0.606000
O O4 0.116748 0.000000 0.621098
O O5 0.118419 0.500000 0.081086
O O6 0.110827 0.275794 0.164863
O O7 0.000000 0.344910 0.094050
O O8 0.114416 0.224899 0.038753
O O9 0.500000 0.297192 0.954594
O O10 0.602628 0.500000 0.949107
O O11 0.627636 0.220432 0.916022
O O12 0.185777 0.500000 0.354459
O O13 0.135892 0.265906 0.290298
O O14 0.252385 0.246999 0.360353
O O15 0.879694 0.728131 0.914948
O O16 0.000000 0.818044 0.963737
O O17 0.887546 0.000000 0.960044
O O18 0.923651 0.500000 0.237692
O O19 0.000000 0.740767 0.248572
O O20 0.175781 0.500000 0.858457
O O21 0.131438 0.731202 0.790027
O O22 0.082194 0.500000 0.728168
O O23 0.000000 0.733852 0.741552
#
# Coordination Sequence:
#
# PCOD8189412 Si02
#       8
#     8   8   8   8   8   8   8   8
#     4   8  15  29  51  78 105 132 164 205 252 303
#     4   8  14  28  52  78 102 131 168 208 252 305
#     4   9  18  34  55  79 107 139 175 211 251 306
#     4  11  22  35  52  76 106 138 176 220 262 301
#     4  10  20  34  54  81 108 132 166 214 261 304
#     4   8  15  30  53  79 104 132 169 210 252 304
#     4  11  23  38  53  71 102 142 179 212 254 310
#     4   9  18  33  54  78 100 126 167 216 260 305
#
# _framework density 18.581975
#
# number of rings (size 3 to 8) (size 9 to 14) (size 15 to 20)
#    0.000    2.750    0.000    3.375    0.000    3.500 
#    0.000    5.000    0.000    7.500    0.000    0.000 
#    0.000    0.000    0.000    0.000    0.000    0.000 
#
# Total GULP energy -396688.068819 kJ/mol
# GULP energy per Si atom -12396.502151 kJ/mol
# Density = 1.853968 g / cm^3
# Si number density = 18.581975 Si / 1000 Ang^3
#
#
#
# Elastic Constant Matrix: (Units=GPa)
#
#
# Indices 1 2 3 4 5 6 
#
# 1 47.3494 29.8114 40.4338 0.0000 0.0000 0.0000
# 2 29.8114 60.5918 47.0664 0.0000 0.0000 0.0000
# 3 40.4338 47.0664 155.7023 0.0000 0.0000 0.0000
# 4 0.0000 0.0000 0.0000 27.8831 0.0000 0.0000
# 5 0.0000 0.0000 0.0000 0.0000 -0.5040 0.0000
# 6 0.0000 0.0000 0.0000 0.0000 0.0000 18.6673
#
#
#
# Elastic Compliance Matrix: (Units=1/GPa)
#
#
# Indices 1 2 3 4 5 6 
#
# 1 0.033138 -0.012571 -0.004805 0.000000 0.000000 0.000000
# 2 -0.012571 0.026337 -0.004697 0.000000 0.000000 0.000000
# 3 -0.004805 -0.004697 0.009090 0.000000 0.000000 0.000000
# 4 0.000000 0.000000 0.000000 0.035864 0.000000 0.000000
# 5 0.000000 0.000000 0.000000 0.000000 -1.984221 0.000000
# 6 0.000000 0.000000 0.000000 0.000000 0.000000 0.053570
#
#
# Mechanical properties :
#
#
# Convention : Reuss Voigt Hill
#
# Bulk Modulus (GPa) = 40.95234 55.36297 48.15765
# Shear Modulus (GPa) = -2.81859 18.96475 8.07308
#
# Velocity S-wave (km/s) = -1.23294 3.19815 2.08663
# Velocity P-wave (km/s) = 4.47881 6.59516 5.63719
#
# Compressibility (1/GPa) = 0.02441863
#
# Stress axis : x y z
#
# Youngs Moduli (GPa) = 30.17667 37.96877 110.00897
#
# Poissons Ratio (x) = 0.47732 0.52864
# Poissons Ratio (y) = 0.37936 0.51669
# Poissons Ratio (z) = 0.14501 0.17833
#
# Static dielectric constant tensor:
#      x y z
#    x 3.182230 0.000000 0.000000 
#    y 0.000000 3.341100 0.000000 
#    z 0.000000 0.000000 3.859600 
# 
# 
# High freq. dielectric constant tensor:
#      x y z
#    x 1.688030 0.000000 0.000000 
#    y 0.000000 1.707400 0.000000 
#    z 0.000000 0.000000 1.740950 
# 
# From -- ./inp_files/23335.got.cif
#   From: 2010.03.12/outbox.cif.g09.slc.cpg/sg44_12_cif.got.tgz:23335.got - 2010.04.14 02:36:11.
