data_PCOD8189387
_publ_section_title
;
Structure prediction by ZEFSAII (Michael W. Deem and Ramdas Pophale) SiO2 
 PCOD8189387
Probable space group: I M M 2
;
_chemical_formula_sum "Si O2"
_cell_formula_units_Z 64
_cell_length_a 28.339983
_cell_length_b 8.873184
_cell_length_c 12.764505
_cell_angle_alpha 90.000000
_cell_angle_beta 90.000000
_cell_angle_gamma 90.000000
_cell_volume 3209.837530
_symmetry_space_group_name_H-M "I M M 2"
_symmetry_group_IT_number 44
_symmetry_cell_setting 'orthorhombic'
loop_
_space_group_symop_operation_xyz
x,y,z
-x,-y,z
-x,y,z
x,-y,z
1/2+x,1/2+y,1/2+z
1/2-x,1/2-y,1/2+z
1/2-x,1/2+y,1/2+z
1/2+x,1/2-y,1/2+z
loop_
_atom_site_type_symbol
_atom_site_label
_atom_site_fract_x
_atom_site_fract_y
_atom_site_fract_z
Si Si1 0.793363 0.675698 0.851390
Si Si2 0.318105 0.668431 0.140783
Si Si3 0.554241 0.321665 0.643358
Si Si4 0.448218 0.834284 0.267934
Si Si5 0.610790 0.823102 0.455601
Si Si6 0.106831 0.820735 0.354340
Si Si7 0.700856 0.178087 0.927584
Si Si8 0.424541 0.664067 0.073655
O O1 0.779023 0.500000 0.851657
O O2 0.812612 0.719994 0.737907
O O3 0.833303 0.706225 0.940727
O O4 0.748929 0.782547 0.868807
O O5 0.296710 0.500000 0.159937
O O6 0.372758 0.652780 0.119818
O O7 0.293984 0.743108 0.040013
O O8 0.500000 0.261626 0.633656
O O9 0.554228 0.500000 0.633219
O O10 0.589533 0.257032 0.556713
O O11 0.576436 0.271196 0.754171
O O12 0.500000 0.839230 0.319134
O O13 0.414733 0.752315 0.352523
O O14 0.454343 0.761216 0.154138
O O15 0.427184 0.000000 0.248678
O O16 0.599473 0.000000 0.465150
O O17 0.157608 0.739707 0.357040
O O18 0.076995 0.767242 0.456397
O O19 0.115801 0.000000 0.358898
O O20 0.695165 0.000000 0.941143
O O21 0.448306 0.500000 0.068259
#
# Coordination Sequence:
#
# PCOD8189387 Si02
#       8
#     8   8   8   8   8   8   8   8
#     4  11  22  38  61  87 117 158 205 253 308 366
#     4  10  20  37  59  83 114 150 190 242 299 357
#     4  10  22  40  63  89 120 162 209 258 310 366
#     4  10  20  34  53  80 114 148 184 231 288 349
#     4  10  22  39  59  83 116 157 200 248 302 361
#     4   9  20  40  61  84 118 157 200 252 304 357
#     4  11  23  38  59  89 122 159 201 249 306 369
#     4   9  18  33  56  82 109 143 184 235 292 349
#
# _framework density 19.938703
#
# number of rings (size 3 to 8) (size 9 to 14) (size 15 to 20)
#    0.000    2.000    1.250    3.000    0.000    6.500 
#    0.000    3.750    0.000    0.000    0.000    0.000 
#    0.000    0.000    0.000    0.000    0.000    0.000 
#
# Total GULP energy -396654.637450 kJ/mol
# GULP energy per Si atom -12395.457420 kJ/mol
# Density = 1.989332 g / cm^3
# Si number density = 19.938703 Si / 1000 Ang^3
#
#
#
# Elastic Constant Matrix: (Units=GPa)
#
#
# Indices 1 2 3 4 5 6 
#
# 1 78.0132 29.1198 43.2693 0.0000 0.0000 0.0000
# 2 29.1198 65.7403 27.9289 0.0000 0.0000 0.0000
# 3 43.2693 27.9289 120.4472 0.0000 0.0000 0.0000
# 4 0.0000 0.0000 0.0000 22.1627 0.0000 0.0000
# 5 0.0000 0.0000 0.0000 0.0000 22.4111 0.0000
# 6 0.0000 0.0000 0.0000 0.0000 0.0000 1.7235
#
#
#
# Elastic Compliance Matrix: (Units=1/GPa)
#
#
# Indices 1 2 3 4 5 6 
#
# 1 0.017755 -0.005718 -0.005052 0.000000 0.000000 0.000000
# 2 -0.005718 0.018715 -0.002285 0.000000 0.000000 0.000000
# 3 -0.005052 -0.002285 0.010647 0.000000 0.000000 0.000000
# 4 0.000000 0.000000 0.000000 0.045121 0.000000 0.000000
# 5 0.000000 0.000000 0.000000 0.000000 0.044621 0.000000
# 6 0.000000 0.000000 0.000000 0.000000 0.000000 0.580199
#
#
# Mechanical properties :
#
#
# Convention : Reuss Voigt Hill
#
# Bulk Modulus (GPa) = 47.60640 51.64851 49.62745
# Shear Modulus (GPa) = 6.66514 20.18498 13.42506
#
# Velocity S-wave (km/s) = 1.83032 3.18520 2.59765
# Velocity P-wave (km/s) = 5.32869 6.28388 5.82590
#
# Compressibility (1/GPa) = 0.02100558
#
# Stress axis : x y z
#
# Youngs Moduli (GPa) = 56.32216 53.43251 93.92028
#
# Poissons Ratio (x) = 0.30554 0.47452
# Poissons Ratio (y) = 0.32206 0.21465
# Poissons Ratio (z) = 0.28456 0.12212
#
# Static dielectric constant tensor:
#      x y z
#    x 3.590340 0.000000 0.000000 
#    y 0.000000 3.639590 0.000000 
#    z 0.000000 0.000000 3.798540 
# 
# 
# High freq. dielectric constant tensor:
#      x y z
#    x 1.778220 0.000000 0.000000 
#    y 0.000000 1.768670 0.000000 
#    z 0.000000 0.000000 1.780500 
# 
# From -- ./inp_files/11442.got.cif
#   From: 2010.03.12/outbox.cif.g09.slc.cpg/sg44_6_cif.got.tgz:11442.got - 2010.04.14 02:36:11.
