data_PCOD8189045
_publ_section_title
;
Structure prediction by ZEFSAII (Michael W. Deem and Ramdas Pophale) SiO2 
 PCOD8189045
Probable space group: I M M 2
;
_chemical_formula_sum "Si O2"
_cell_formula_units_Z 64
_cell_length_a 30.382647
_cell_length_b 20.165119
_cell_length_c 5.230399
_cell_angle_alpha 90.000000
_cell_angle_beta 90.000000
_cell_angle_gamma 90.000000
_cell_volume 3204.506946
_symmetry_space_group_name_H-M "I M M 2"
_symmetry_group_IT_number 44
_symmetry_cell_setting 'orthorhombic'
loop_
_space_group_symop_operation_xyz
x,y,z
-x,-y,z
-x,y,z
x,-y,z
1/2+x,1/2+y,1/2+z
1/2-x,1/2-y,1/2+z
1/2-x,1/2+y,1/2+z
1/2+x,1/2-y,1/2+z
loop_
_atom_site_type_symbol
_atom_site_label
_atom_site_fract_x
_atom_site_fract_y
_atom_site_fract_z
Si Si1 0.907273 0.423581 0.398730
Si Si2 0.592511 0.739350 0.520768
Si Si3 0.837079 0.182374 0.682262
Si Si4 0.101061 0.073434 0.524501
Si Si5 0.845067 0.688642 0.378615
Si Si6 0.949714 0.890832 0.034991
Si Si7 0.551268 0.131580 0.381368
Si Si8 0.254650 0.790173 0.671623
O O1 0.893908 0.500000 0.394326
O O2 0.862481 0.382965 0.470668
O O3 0.942526 0.410810 0.623878
O O4 0.926806 0.404774 0.122883
O O5 0.631941 0.691039 0.426516
O O6 0.611409 0.777999 0.760455
O O7 0.553643 0.688360 0.591999
O O8 0.573161 0.795609 0.330749
O O9 0.859591 0.127702 0.498889
O O10 0.831066 0.258853 0.591695
O O11 0.786526 0.160038 0.739592
O O12 0.075460 0.070383 0.257630
O O13 0.121024 0.000000 0.572434
O O14 0.068522 0.091672 0.755112
O O15 0.802674 0.675543 0.196295
O O16 0.000000 0.913059 0.042835
O O17 0.500000 0.140124 0.439627
O O18 0.248948 0.769618 0.376082
#
# Coordination Sequence:
#
# PCOD8189045 Si02
#       8
#     8   8   8   8   8   8   8   8
#     4  11  24  39  58  83 117 155 190 232 286 340
#     4  10  19  36  56  88 112 150 184 242 289 334
#     4  10  19  37  58  86 114 147 187 233 282 337
#     4  11  24  39  58  83 117 155 190 232 286 340
#     4  10  19  37  58  86 114 147 187 233 282 337
#     4  11  23  38  59  83 114 151 196 241 283 333
#     4  11  23  38  59  83 114 151 196 241 283 333
#     4  10  20  32  59  90 113 140 186 236 278 332
#
# _framework density 19.971872000000001
#
# number of rings (size 3 to 8) (size 9 to 14) (size 15 to 20)
#    0.000    1.500    3.750    1.875    0.000    3.000 
#    0.000    4.375    0.000    0.000    0.000    9.625 
#    0.000    0.000    0.000    0.000    0.000    0.000 
#
# Total GULP energy -396470.659496 kJ/mol
# GULP energy per Si atom -12389.708109 kJ/mol
# Density = 1.992641 g / cm^3
# Si number density = 19.971872 Si / 1000 Ang^3
#
#
#
# Elastic Constant Matrix: (Units=GPa)
#
#
# Indices 1 2 3 4 5 6 
#
# 1 95.7920 36.7130 7.5961 0.0000 0.0000 0.0000
# 2 36.7130 117.1057 13.6815 0.0000 0.0000 0.0000
# 3 7.5961 13.6815 75.4527 0.0000 0.0000 0.0000
# 4 0.0000 0.0000 0.0000 19.3224 0.0000 0.0000
# 5 0.0000 0.0000 0.0000 0.0000 24.6250 0.0000
# 6 0.0000 0.0000 0.0000 0.0000 0.0000 8.0664
#
#
#
# Elastic Compliance Matrix: (Units=1/GPa)
#
#
# Indices 1 2 3 4 5 6 
#
# 1 0.011886 -0.003664 -0.000532 0.000000 0.000000 0.000000
# 2 -0.003664 0.009854 -0.001418 0.000000 0.000000 0.000000
# 3 -0.000532 -0.001418 0.013564 0.000000 0.000000 0.000000
# 4 0.000000 0.000000 0.000000 0.051753 0.000000 0.000000
# 5 0.000000 0.000000 0.000000 0.000000 0.040609 0.000000
# 6 0.000000 0.000000 0.000000 0.000000 0.000000 0.123971
#
#
# Mechanical properties :
#
#
# Convention : Reuss Voigt Hill
#
# Bulk Modulus (GPa) = 41.53649 44.92575 43.23112
# Shear Modulus (GPa) = 18.45767 25.76008 22.10887
#
# Velocity S-wave (km/s) = 3.04334 3.59530 3.33077
# Velocity P-wave (km/s) = 5.76124 6.30700 6.04028
#
# Compressibility (1/GPa) = 0.02407522
#
# Stress axis : x y z
#
# Youngs Moduli (GPa) = 84.13423 101.48535 73.72454
#
# Poissons Ratio (x) = 0.37185 0.03924
# Poissons Ratio (y) = 0.30827 0.10453
# Poissons Ratio (z) = 0.04478 0.14389
#
# Static dielectric constant tensor:
#      x y z
#    x 4.071660 0.000000 0.000000 
#    y 0.000000 3.755850 0.000000 
#    z 0.000000 0.000000 3.476910 
# 
# 
# High freq. dielectric constant tensor:
#      x y z
#    x 1.782170 0.000000 0.000000 
#    y 0.000000 1.757600 0.000000 
#    z 0.000000 0.000000 1.777360 
# 
# From -- ./inp_files/3120.got.cif
#   From: 2010.03.12/outbox.cif.g09.slc.cpg/sg44_2_cif.got.tgz:3120.got - 2010.04.14 02:36:11.
