data_PCOD8189902
_publ_section_title
;
Structure prediction by ZEFSAII (Michael W. Deem and Ramdas Pophale) SiO2 
 PCOD8189902
Probable space group: I M M 2
;
_chemical_formula_sum "Si O2"
_cell_formula_units_Z 64
_cell_length_a 9.234472
_cell_length_b 14.678369
_cell_length_c 24.318356
_cell_angle_alpha 90.000000
_cell_angle_beta 90.000000
_cell_angle_gamma 90.000000
_cell_volume 3296.279898
_symmetry_space_group_name_H-M "I M M 2"
_symmetry_group_IT_number 44
_symmetry_cell_setting 'orthorhombic'
loop_
_space_group_symop_operation_xyz
x,y,z
-x,-y,z
-x,y,z
x,-y,z
1/2+x,1/2+y,1/2+z
1/2-x,1/2-y,1/2+z
1/2-x,1/2+y,1/2+z
1/2+x,1/2-y,1/2+z
loop_
_atom_site_type_symbol
_atom_site_label
_atom_site_fract_x
_atom_site_fract_y
_atom_site_fract_z
Si Si1 0.168554 0.606457 0.467190
Si Si2 0.168654 0.251116 0.903041
Si Si3 0.170585 0.105058 0.195703
Si Si4 0.839643 0.108025 0.073423
Si Si5 0.331901 0.892745 0.725021
Si Si6 0.168108 0.261474 0.777240
Si Si7 0.170872 0.399846 0.106401
Si Si8 0.671648 0.897150 0.488268
O O1 0.199632 0.500000 0.458272
O O2 0.245265 0.658829 0.417089
O O3 0.231592 0.640963 0.525768
O O4 0.000000 0.628763 0.466839
O O5 0.194637 0.283599 0.841016
O O6 0.233458 0.331797 0.941114
O O7 0.000000 0.232306 0.914550
O O8 0.213211 0.139769 0.134081
O O9 0.254070 0.162745 0.240960
O O10 0.000000 0.118078 0.204404
O O11 0.215623 0.000000 0.203637
O O12 0.000000 0.148868 0.061323
O O13 0.850422 0.000000 0.074767
O O14 0.500000 0.872158 0.736943
O O15 0.233994 0.838875 0.768005
O O16 0.284660 0.853347 0.664259
O O17 0.300368 0.000000 0.730078
O O18 0.000000 0.260723 0.762096
O O19 0.240951 0.500000 0.105460
O O20 0.000000 0.410822 0.108263
O O21 0.216575 0.353332 0.048348
O O22 0.500000 0.901975 0.483290
O O23 0.733870 0.000000 0.481373
#
# Coordination Sequence:
#
# PCOD8189902 Si02
#       8
#     8   8   8   8   8   8   8   8
#     4  10  21  36  55  80 109 140 174 218 273 325
#     4  10  22  37  52  74 104 141 184 222 258 308
#     4   9  19  37  60  83 107 140 182 224 267 321
#     4   8  15  31  56  83 108 135 171 215 264 322
#     4   9  18  34  56  79 103 133 171 218 270 324
#     4  11  24  37  50  75 110 145 183 228 274 316
#     4   7  11  23  47  78 102 119 151 203 258 308
#     4   8  14  28  52  78 101 125 158 204 254 305
#
# _framework density 19.415828000000001
#
# number of rings (size 3 to 8) (size 9 to 14) (size 15 to 20)
#    0.000    3.000    0.000    3.000    0.000    4.750 
#    0.000    7.500    0.000    0.375    0.000    1.750 
#    0.000    0.000    0.000    0.000    0.000    0.000 
#
# Total GULP energy -396509.778659 kJ/mol
# GULP energy per Si atom -12390.930583 kJ/mol
# Density = 1.937164 g / cm^3
# Si number density = 19.415828 Si / 1000 Ang^3
#
#
#
# Elastic Constant Matrix: (Units=GPa)
#
#
# Indices 1 2 3 4 5 6 
#
# 1 64.7965 28.2767 37.4380 0.0000 0.0000 0.0000
# 2 28.2767 49.2097 17.7027 0.0000 0.0000 0.0000
# 3 37.4380 17.7027 83.7121 0.0000 0.0000 0.0000
# 4 0.0000 0.0000 0.0000 33.1672 0.0000 0.0000
# 5 0.0000 0.0000 0.0000 0.0000 29.4450 0.0000
# 6 0.0000 0.0000 0.0000 0.0000 0.0000 22.8253
#
#
#
# Elastic Compliance Matrix: (Units=1/GPa)
#
#
# Indices 1 2 3 4 5 6 
#
# 1 0.025683 -0.011501 -0.009054 0.000000 0.000000 0.000000
# 2 -0.011501 0.027144 -0.000597 0.000000 0.000000 0.000000
# 3 -0.009054 -0.000597 0.016121 0.000000 0.000000 0.000000
# 4 0.000000 0.000000 0.000000 0.030150 0.000000 0.000000
# 5 0.000000 0.000000 0.000000 0.000000 0.033962 0.000000
# 6 0.000000 0.000000 0.000000 0.000000 0.000000 0.043811
#
#
# Mechanical properties :
#
#
# Convention : Reuss Voigt Hill
#
# Bulk Modulus (GPa) = 37.53004 40.50589 39.01796
# Shear Modulus (GPa) = 21.92440 24.70754 23.31597
#
# Velocity S-wave (km/s) = 3.36401 3.57115 3.46912
# Velocity P-wave (km/s) = 5.87029 6.15725 6.01548
#
# Compressibility (1/GPa) = 0.02664532
#
# Stress axis : x y z
#
# Youngs Moduli (GPa) = 38.93631 36.83991 62.03070
#
# Poissons Ratio (x) = 0.42369 0.56162
# Poissons Ratio (y) = 0.44780 0.03702
# Poissons Ratio (z) = 0.35253 0.02199
#
# Static dielectric constant tensor:
#      x y z
#    x 3.201110 0.000000 0.000000 
#    y 0.000000 3.488760 0.000000 
#    z 0.000000 0.000000 3.822900 
# 
# 
# High freq. dielectric constant tensor:
#      x y z
#    x 1.714810 0.000000 0.000000 
#    y 0.000000 1.750010 0.000000 
#    z 0.000000 0.000000 1.764860 
# 
# From -- ./inp_files/25104.got.cif
#   From: 2010.03.12/outbox.cif.g09.slc.cpg/sg44_13_cif.got.tgz:25104.got - 2010.04.14 02:36:11.
