data_PCOD8189990
_publ_section_title
;
Structure prediction by ZEFSAII (Michael W. Deem and Ramdas Pophale) SiO2 
 PCOD8189990
Probable space group: I M M 2
;
_chemical_formula_sum "Si O2"
_cell_formula_units_Z 64
_cell_length_a 29.444094
_cell_length_b 8.482879
_cell_length_c 12.702025
_cell_angle_alpha 90.000000
_cell_angle_beta 90.000000
_cell_angle_gamma 90.000000
_cell_volume 3172.593506
_symmetry_space_group_name_H-M "I M M 2"
_symmetry_group_IT_number 44
_symmetry_cell_setting 'orthorhombic'
loop_
_space_group_symop_operation_xyz
x,y,z
-x,-y,z
-x,y,z
x,-y,z
1/2+x,1/2+y,1/2+z
1/2-x,1/2-y,1/2+z
1/2-x,1/2+y,1/2+z
1/2+x,1/2-y,1/2+z
loop_
_atom_site_type_symbol
_atom_site_label
_atom_site_fract_x
_atom_site_fract_y
_atom_site_fract_z
Si Si1 0.279643 0.678389 0.517350
Si Si2 0.446728 0.818288 0.155275
Si Si3 0.253606 0.679411 0.817693
Si Si4 0.874054 0.316267 0.050550
Si Si5 0.623289 0.684153 0.997300
Si Si6 0.348693 0.817386 0.780995
Si Si7 0.205554 0.179722 0.641708
Si Si8 0.550343 0.187277 0.390505
O O1 0.273836 0.500000 0.560275
O O2 0.252686 0.693501 0.408734
O O3 0.331943 0.721112 0.503415
O O4 0.255878 0.805533 0.592823
O O5 0.500000 0.792294 0.138169
O O6 0.421297 0.718998 0.065610
O O7 0.432930 0.759396 0.273307
O O8 0.433288 0.000000 0.140378
O O9 0.252762 0.500000 0.859144
O O10 0.302999 0.714037 0.767143
O O11 0.209796 0.706598 0.742511
O O12 0.866847 0.500000 0.026993
O O13 0.879241 0.285353 0.176213
O O14 0.917308 0.251962 0.984673
O O15 0.627205 0.500000 0.974708
O O16 0.667096 0.743884 0.062987
O O17 0.622338 0.769984 0.884234
O O18 0.335448 0.000000 0.788320
O O19 0.195867 0.000000 0.674699
O O20 0.500000 0.256410 0.412176
O O21 0.547619 0.000000 0.389680
#
# Coordination Sequence:
#
# PCOD8189990 Si02
#       8
#     8   8   8   8   8   8   8   8
#     4  12  24  37  56  82 116 157 198 243 291 346
#     4   9  19  38  64  91 118 149 190 240 296 361
#     4  12  24  38  56  79 113 157 200 246 297 347
#     4  10  21  37  59  88 119 154 196 243 292 349
#     4  11  24  39  59  85 118 156 199 246 296 355
#     4  11  22  37  58  82 118 159 200 244 289 345
#     4  11  23  39  56  81 116 154 200 245 289 347
#     4   8  16  35  63  92 118 146 184 234 294 354
#
# _framework density 20.172768999999999
#
# number of rings (size 3 to 8) (size 9 to 14) (size 15 to 20)
#    0.000    1.500    2.500    4.125    1.750    2.250 
#    0.000    0.625    0.000    3.375    0.000    0.000 
#    0.000    0.000    0.000    0.000    0.000    0.000 
#
# Total GULP energy -396662.299140 kJ/mol
# GULP energy per Si atom -12395.696848 kJ/mol
# Density = 2.012686 g / cm^3
# Si number density = 20.172769 Si / 1000 Ang^3
#
#
#
# Elastic Constant Matrix: (Units=GPa)
#
#
# Indices 1 2 3 4 5 6 
#
# 1 81.1814 21.6727 41.7270 0.0000 0.0000 0.0000
# 2 21.6727 63.1613 24.8151 0.0000 0.0000 0.0000
# 3 41.7270 24.8151 109.3299 0.0000 0.0000 0.0000
# 4 0.0000 0.0000 0.0000 24.6603 0.0000 0.0000
# 5 0.0000 0.0000 0.0000 0.0000 39.3909 0.0000
# 6 0.0000 0.0000 0.0000 0.0000 0.0000 24.0199
#
#
#
# Elastic Compliance Matrix: (Units=1/GPa)
#
#
# Indices 1 2 3 4 5 6 
#
# 1 0.015957 -0.003384 -0.005322 0.000000 0.000000 0.000000
# 2 -0.003384 0.018100 -0.002817 0.000000 0.000000 0.000000
# 3 -0.005322 -0.002817 0.011817 0.000000 0.000000 0.000000
# 4 0.000000 0.000000 0.000000 0.040551 0.000000 0.000000
# 5 0.000000 0.000000 0.000000 0.000000 0.025387 0.000000
# 6 0.000000 0.000000 0.000000 0.000000 0.000000 0.041632
#
#
# Mechanical properties :
#
#
# Convention : Reuss Voigt Hill
#
# Bulk Modulus (GPa) = 43.80497 47.78913 45.79705
# Shear Modulus (GPa) = 27.15914 28.64475 27.90194
#
# Velocity S-wave (km/s) = 3.67321 3.77234 3.72311
# Velocity P-wave (km/s) = 6.30492 6.53570 6.42135
#
# Compressibility (1/GPa) = 0.02282846
#
# Stress axis : x y z
#
# Youngs Moduli (GPa) = 62.66782 55.24733 84.62278
#
# Poissons Ratio (x) = 0.18698 0.45037
# Poissons Ratio (y) = 0.21210 0.23835
# Poissons Ratio (z) = 0.33352 0.15561
#
# Static dielectric constant tensor:
#      x y z
#    x 3.554210 0.000000 0.000000 
#    y 0.000000 3.413740 0.000000 
#    z 0.000000 0.000000 4.015630 
# 
# 
# High freq. dielectric constant tensor:
#      x y z
#    x 1.766080 0.000000 0.000000 
#    y 0.000000 1.773540 0.000000 
#    z 0.000000 0.000000 1.800250 
# 
# From -- ./inp_files/15113.got.cif
#   From: 2010.03.12/outbox.cif.g09.slc.cpg/sg44_8_cif.got.tgz:15113.got - 2010.04.14 02:36:11.
