data_PCOD8189075
_publ_section_title
;
Structure prediction by ZEFSAII (Michael W. Deem and Ramdas Pophale) SiO2 
 PCOD8189075
Probable space group: I M M 2
;
_chemical_formula_sum "Si O2"
_cell_formula_units_Z 48
_cell_length_a 14.465315
_cell_length_b 8.746973
_cell_length_c 20.213902
_cell_angle_alpha 90.000000
_cell_angle_beta 90.000000
_cell_angle_gamma 90.000000
_cell_volume 2557.618927
_symmetry_space_group_name_H-M "I M M 2"
_symmetry_group_IT_number 44
_symmetry_cell_setting 'orthorhombic'
loop_
_space_group_symop_operation_xyz
x,y,z
-x,-y,z
-x,y,z
x,-y,z
1/2+x,1/2+y,1/2+z
1/2-x,1/2-y,1/2+z
1/2-x,1/2+y,1/2+z
1/2+x,1/2-y,1/2+z
loop_
_atom_site_type_symbol
_atom_site_label
_atom_site_fract_x
_atom_site_fract_y
_atom_site_fract_z
Si Si1 0.801701 0.676528 0.650090
Si Si2 0.803305 0.179255 0.284429
Si Si3 0.186020 0.320878 0.037138
Si Si4 0.000000 0.180091 0.841478
Si Si5 0.500000 0.318655 0.587353
Si Si6 0.000000 0.324531 0.699899
Si Si7 0.691969 0.680414 0.400118
Si Si8 0.000000 0.819802 0.235309
O O1 0.781538 0.500000 0.633002
O O2 0.753415 0.720672 0.718783
O O3 0.761774 0.780229 0.592086
O O4 0.910602 0.711480 0.655421
O O5 0.765926 0.279439 0.344199
O O6 0.909217 0.232082 0.274733
O O7 0.794566 0.000000 0.300986
O O8 0.169103 0.500000 0.037145
O O9 0.089874 0.236488 0.049209
O O10 0.223809 0.265698 0.966431
O O11 0.000000 0.224060 0.765121
O O12 0.908753 0.243617 0.877898
O O13 0.000000 0.000000 0.845056
O O14 0.500000 0.500000 0.587382
O O15 0.500000 0.249259 0.661486
O O16 0.000000 0.500000 0.723490
O O17 0.691015 0.500000 0.412161
O O18 0.000000 0.000000 0.225993
#
# Coordination Sequence:
#
# PCOD8189075 Si02
#       8
#     8   8   8   4   4   4   8   4
#     4  10  20  37  61  87 118 156 195 242 298 355
#     4  10  19  36  61  87 116 152 196 241 289 352
#     4  12  25  39  58  88 121 158 201 247 293 351
#     4  10  21  35  56  86 118 150 185 234 295 353
#     4  11  20  38  63  89 122 158 191 237 301 359
#     4  10  20  35  60  91 118 150 194 241 291 350
#     4  11  23  39  58  84 119 159 196 240 299 354
#     4   9  18  34  59  88 116 152 190 230 291 356
#
# _framework density 18.767455000000002
#
# number of rings (size 3 to 8) (size 9 to 14) (size 15 to 20)
#    0.000    1.500    3.333    2.750    0.000    2.667 
#    0.000    1.250    0.000    0.000    0.000    0.000 
#    0.000    0.000    0.000    0.000    0.000    0.000 
#
# Total GULP energy -297709.937439 kJ/mol
# GULP energy per Si atom -12404.580727 kJ/mol
# Density = 1.872474 g / cm^3
# Si number density = 18.767455 Si / 1000 Ang^3
#
#
#
# Elastic Constant Matrix: (Units=GPa)
#
#
# Indices 1 2 3 4 5 6 
#
# 1 134.2110 30.4190 50.8021 0.0000 0.0000 0.0000
# 2 30.4190 66.3422 40.9105 0.0000 0.0000 0.0000
# 3 50.8021 40.9105 119.6503 0.0000 0.0000 0.0000
# 4 0.0000 0.0000 0.0000 33.2621 0.0000 0.0000
# 5 0.0000 0.0000 0.0000 0.0000 -12.7872 0.0000
# 6 0.0000 0.0000 0.0000 0.0000 0.0000 26.0807
#
#
#
# Elastic Compliance Matrix: (Units=1/GPa)
#
#
# Indices 1 2 3 4 5 6 
#
# 1 0.009142 -0.002279 -0.003102 0.000000 0.000000 0.000000
# 2 -0.002279 0.019669 -0.005758 0.000000 0.000000 0.000000
# 3 -0.003102 -0.005758 0.011644 0.000000 0.000000 0.000000
# 4 0.000000 0.000000 0.000000 0.030064 0.000000 0.000000
# 5 0.000000 0.000000 0.000000 0.000000 -0.078203 0.000000
# 6 0.000000 0.000000 0.000000 0.000000 0.000000 0.038343
#
#
# Mechanical properties :
#
#
# Convention : Reuss Voigt Hill
#
# Bulk Modulus (GPa) = 55.01507 62.71851 58.86679
# Shear Modulus (GPa) = 84.75565 22.51592 53.63578
#
# Velocity S-wave (km/s) = 6.72748 3.46747 5.35175
# Velocity P-wave (km/s) = 9.47223 7.03722 8.34403
#
# Compressibility (1/GPa) = 0.01817684
#
# Stress axis : x y z
#
# Youngs Moduli (GPa) = 109.38867 50.84252 85.88449
#
# Poissons Ratio (x) = 0.11585 0.26645
# Poissons Ratio (y) = 0.24924 0.49449
# Poissons Ratio (z) = 0.33937 0.29273
#
# Static dielectric constant tensor:
#      x y z
#    x 4.061100 0.000000 0.000000 
#    y 0.000000 3.276770 0.000000 
#    z 0.000000 0.000000 3.404030 
# 
# 
# High freq. dielectric constant tensor:
#      x y z
#    x 1.734280 0.000000 0.000000 
#    y 0.000000 1.717840 0.000000 
#    z 0.000000 0.000000 1.728290 
# 
# From -- ./inp_files/20355.got.cif
#   From: 2010.03.12/outbox.cif.g09.slc.cpg/sg44_11_cif.got.tgz:20355.got - 2010.04.14 02:36:11.
