data_PCOD8189113
_publ_section_title
;
Structure prediction by ZEFSAII (Michael W. Deem and Ramdas Pophale) SiO2 
 PCOD8189113
Probable space group: I M M 2
;
_chemical_formula_sum "Si O2"
_cell_formula_units_Z 48
_cell_length_a 13.671539
_cell_length_b 9.109234
_cell_length_c 24.014761
_cell_angle_alpha 90.000000
_cell_angle_beta 90.000000
_cell_angle_gamma 90.000000
_cell_volume 2990.732244
_symmetry_space_group_name_H-M "I M M 2"
_symmetry_group_IT_number 44
_symmetry_cell_setting 'orthorhombic'
loop_
_space_group_symop_operation_xyz
x,y,z
-x,-y,z
-x,y,z
x,-y,z
1/2+x,1/2+y,1/2+z
1/2-x,1/2-y,1/2+z
1/2-x,1/2+y,1/2+z
1/2+x,1/2-y,1/2+z
loop_
_atom_site_type_symbol
_atom_site_label
_atom_site_fract_x
_atom_site_fract_y
_atom_site_fract_z
Si Si1 0.888637 0.326909 0.990500
Si Si2 0.106712 0.672778 0.207222
Si Si3 0.887250 0.330062 0.661177
Si Si4 0.298581 0.673824 0.264605
Si Si5 0.887056 0.170696 0.879902
Si Si6 0.776822 0.673661 0.099826
O O1 0.884498 0.500000 0.983865
O O2 0.847801 0.255852 0.933898
O O3 0.000000 0.274829 0.001972
O O4 0.819836 0.274088 0.040834
O O5 0.094433 0.500000 0.207801
O O6 0.185480 0.719918 0.254061
O O7 0.145299 0.721866 0.146764
O O8 0.000000 0.745659 0.218676
O O9 0.858166 0.500000 0.666238
O O10 0.867949 0.253051 0.720297
O O11 0.825112 0.255458 0.611626
O O12 0.000000 0.309884 0.645084
O O13 0.314456 0.500000 0.256856
O O14 0.326251 0.725379 0.326484
O O15 0.000000 0.207664 0.868465
O O16 0.870413 0.000000 0.890849
O O17 0.757946 0.500000 0.101515
#
# Coordination Sequence:
#
# PCOD8189113 Si02
#       6
#     8   8   8   8   8   8
#     4   9  17  29  46  68  91 115 146 182 218 258
#     4   8  13  23  42  66  87 107 137 178 217 252
#     4  10  20  31  44  65  91 116 143 180 224 263
#     4   9  17  29  46  66  88 118 152 182 214 257
#     4   9  17  28  42  62  88 117 149 184 221 260
#     4   9  17  29  46  66  87 114 145 177 216 263
#
# _framework density 16.049582000000001
#
# number of rings (size 3 to 8) (size 9 to 14) (size 15 to 20)
#    0.000    3.000    0.000    2.500    0.000    5.333 
#    0.000    1.667    0.000   13.000    0.000    2.333 
#    0.000    0.000    0.000    0.000    0.000    0.000 
#
# Total GULP energy -297527.430934 kJ/mol
# GULP energy per Si atom -12396.976289 kJ/mol
# Density = 1.601305 g / cm^3
# Si number density = 16.049582 Si / 1000 Ang^3
#
#
#
# Elastic Constant Matrix: (Units=GPa)
#
#
# Indices 1 2 3 4 5 6 
#
# 1 107.6634 33.6689 71.7626 0.0000 0.0000 0.0000
# 2 33.6689 39.7439 39.9046 0.0000 0.0000 0.0000
# 3 71.7626 39.9046 152.2491 0.0000 0.0000 0.0000
# 4 0.0000 0.0000 0.0000 26.6948 0.0000 0.0000
# 5 0.0000 0.0000 0.0000 0.0000 28.8694 0.0000
# 6 0.0000 0.0000 0.0000 0.0000 0.0000 17.7340
#
#
#
# Elastic Compliance Matrix: (Units=1/GPa)
#
#
# Indices 1 2 3 4 5 6 
#
# 1 0.015083 -0.007654 -0.005104 0.000000 0.000000 0.000000
# 2 -0.007654 0.038031 -0.006360 0.000000 0.000000 0.000000
# 3 -0.005104 -0.006360 0.010641 0.000000 0.000000 0.000000
# 4 0.000000 0.000000 0.000000 0.037460 0.000000 0.000000
# 5 0.000000 0.000000 0.000000 0.000000 0.034639 0.000000
# 6 0.000000 0.000000 0.000000 0.000000 0.000000 0.056389
#
#
# Mechanical properties :
#
#
# Convention : Reuss Voigt Hill
#
# Bulk Modulus (GPa) = 39.18492 65.59207 52.38850
# Shear Modulus (GPa) = 20.92178 24.94765 22.93471
#
# Velocity S-wave (km/s) = 3.61442 3.94688 3.78430
# Velocity P-wave (km/s) = 6.47199 7.85669 7.19772
#
# Compressibility (1/GPa) = 0.02552002
#
# Stress axis : x y z
#
# Youngs Moduli (GPa) = 66.29788 26.29430 93.97780
#
# Poissons Ratio (x) = 0.20125 0.47962
# Poissons Ratio (y) = 0.50742 0.59774
# Poissons Ratio (z) = 0.33835 0.16724
#
# Static dielectric constant tensor:
#      x y z
#    x 3.190880 0.000000 0.000000 
#    y 0.000000 2.874310 0.000000 
#    z 0.000000 0.000000 3.083980 
# 
# 
# High freq. dielectric constant tensor:
#      x y z
#    x 1.609110 0.000000 0.000000 
#    y 0.000000 1.599360 0.000000 
#    z 0.000000 0.000000 1.609390 
# 
# From -- ./inp_files/22910.got.cif
#   From: 2010.03.12/outbox.cif.g09.slc.cpg/sg44_12_cif.got.tgz:22910.got - 2010.04.14 02:36:11.
