data_PCOD8189114
_publ_section_title
;
Structure prediction by ZEFSAII (Michael W. Deem and Ramdas Pophale) SiO2 
 PCOD8189114
Probable space group: I M M 2
;
_chemical_formula_sum "Si O2"
_cell_formula_units_Z 40
_cell_length_a 8.783510
_cell_length_b 9.687106
_cell_length_c 25.761766
_cell_angle_alpha 90.000000
_cell_angle_beta 90.000000
_cell_angle_gamma 90.000000
_cell_volume 2191.986036
_symmetry_space_group_name_H-M "I M M 2"
_symmetry_group_IT_number 44
_symmetry_cell_setting 'orthorhombic'
loop_
_space_group_symop_operation_xyz
x,y,z
-x,-y,z
-x,y,z
x,-y,z
1/2+x,1/2+y,1/2+z
1/2-x,1/2-y,1/2+z
1/2-x,1/2+y,1/2+z
1/2+x,1/2-y,1/2+z
loop_
_atom_site_type_symbol
_atom_site_label
_atom_site_fract_x
_atom_site_fract_y
_atom_site_fract_z
Si Si1 0.180584 0.843643 0.720250
Si Si2 0.178313 0.840469 0.133050
Si Si3 0.319189 0.652345 0.516436
Si Si4 0.681164 0.154052 0.427471
Si Si5 0.681017 0.155242 0.312398
O O1 0.229182 0.762627 0.669085
O O2 0.247601 0.762733 0.770413
O O3 0.000000 0.847190 0.722604
O O4 0.245681 0.000000 0.719762
O O5 0.225004 0.799192 0.074332
O O6 0.000000 0.818552 0.142394
O O7 0.222515 0.000000 0.144232
O O8 0.500000 0.649353 0.511888
O O9 0.253329 0.500000 0.506221
O O10 0.246826 0.750810 0.472477
O O11 0.500000 0.157626 0.430508
O O12 0.733722 0.203051 0.370019
O O13 0.741154 0.000000 0.437558
O O14 0.500000 0.153357 0.309711
O O15 0.741639 0.000000 0.300566
#
# Coordination Sequence:
#
# PCOD8189114 Si02
#       5
#     8   8   8   8   8
#     4  10  20  31  44  66  93 119 150 187 225 264
#     4   9  18  32  48  66  89 119 154 186 218 263
#     4   8  14  24  38  58  84 111 139 174 216 260
#     4   8  13  21  35  57  83 110 140 173 212 258
#     4   8  14  25  40  58  83 115 147 178 215 261
#
# _framework density 18.248291999999999
#
# number of rings (size 3 to 8) (size 9 to 14) (size 15 to 20)
#    0.000    3.400    0.000    3.000    0.000    3.200 
#    0.000    6.000    0.000    0.000    0.000    1.400 
#    0.000    8.000    0.000    0.000    0.000    0.000 
#
# Total GULP energy -247841.135283 kJ/mol
# GULP energy per Si atom -12392.056764 kJ/mol
# Density = 1.820676 g / cm^3
# Si number density = 18.248292 Si / 1000 Ang^3
#
#
#
# Elastic Constant Matrix: (Units=GPa)
#
#
# Indices 1 2 3 4 5 6 
#
# 1 5.0202 10.1785 8.8221 0.0000 0.0000 0.0000
# 2 10.1785 130.0384 104.4571 0.0000 0.0000 0.0000
# 3 8.8221 104.4571 171.6308 0.0000 0.0000 0.0000
# 4 0.0000 0.0000 0.0000 42.4259 0.0000 0.0000
# 5 0.0000 0.0000 0.0000 0.0000 19.0955 0.0000
# 6 0.0000 0.0000 0.0000 0.0000 0.0000 15.2778
#
#
#
# Elastic Compliance Matrix: (Units=1/GPa)
#
#
# Indices 1 2 3 4 5 6 
#
# 1 0.237040 -0.017152 -0.001745 0.000000 0.000000 0.000000
# 2 -0.017152 0.016287 -0.009031 0.000000 0.000000 0.000000
# 3 -0.001745 -0.009031 0.011412 0.000000 0.000000 0.000000
# 4 0.000000 0.000000 0.000000 0.023571 0.000000 0.000000
# 5 0.000000 0.000000 0.000000 0.000000 0.052368 0.000000
# 6 0.000000 0.000000 0.000000 0.000000 0.000000 0.065454
#
#
# Mechanical properties :
#
#
# Convention : Reuss Voigt Hill
#
# Bulk Modulus (GPa) = 4.78736 61.51163 33.14950
# Shear Modulus (GPa) = 9.40529 27.57530 18.49030
#
# Velocity S-wave (km/s) = 2.27272 3.89153 3.18663
# Velocity P-wave (km/s) = 3.08483 7.34665 5.63425
#
# Compressibility (1/GPa) = 0.20888320
#
# Stress axis : x y z
#
# Youngs Moduli (GPa) = 4.21870 61.39964 87.62393
#
# Poissons Ratio (x) = 1.05311 0.15294
# Poissons Ratio (y) = 0.07236 0.79131
# Poissons Ratio (z) = 0.00736 0.55448
#
# Static dielectric constant tensor:
#      x y z
#    x 2.660410 0.000000 0.000000 
#    y 0.000000 3.706770 0.000000 
#    z 0.000000 0.000000 3.723420 
# 
# 
# High freq. dielectric constant tensor:
#      x y z
#    x 1.634560 0.000000 0.000000 
#    y 0.000000 1.707780 0.000000 
#    z 0.000000 0.000000 1.723500 
# 
# From -- ./inp_files/22756.got.cif
#   From: 2010.03.12/outbox.cif.g09.slc.cpg/sg44_12_cif.got.tgz:22756.got - 2010.04.14 02:36:11.
