data_PCOD8189662
_publ_section_title
;
Structure prediction by ZEFSAII (Michael W. Deem and Ramdas Pophale) SiO2 
 PCOD8189662
Probable space group: I M M 2
;
_chemical_formula_sum "Si O2"
_cell_formula_units_Z 64
_cell_length_a 9.276790
_cell_length_b 30.648909
_cell_length_c 12.006100
_cell_angle_alpha 90.000000
_cell_angle_beta 90.000000
_cell_angle_gamma 90.000000
_cell_volume 3413.616284
_symmetry_space_group_name_H-M "I M M 2"
_symmetry_group_IT_number 44
_symmetry_cell_setting 'orthorhombic'
loop_
_space_group_symop_operation_xyz
x,y,z
-x,-y,z
-x,y,z
x,-y,z
1/2+x,1/2+y,1/2+z
1/2-x,1/2-y,1/2+z
1/2-x,1/2+y,1/2+z
1/2+x,1/2-y,1/2+z
loop_
_atom_site_type_symbol
_atom_site_label
_atom_site_fract_x
_atom_site_fract_y
_atom_site_fract_z
Si Si1 0.662470 0.336593 0.536150
Si Si2 0.169908 0.423614 0.530237
Si Si3 0.334483 0.548365 0.321747
Si Si4 0.328702 0.373621 0.168533
Si Si5 0.828750 0.878399 0.415741
Si Si6 0.663550 0.708939 0.305644
Si Si7 0.332225 0.703118 0.770155
Si Si8 0.666601 0.949862 0.277301
O O1 0.500000 0.355889 0.547581
O O2 0.776638 0.374422 0.517735
O O3 0.671655 0.303861 0.434019
O O4 0.706174 0.310087 0.645116
O O5 0.244687 0.452317 0.435528
O O6 0.215252 0.442431 0.650047
O O7 0.000000 0.425671 0.512276
O O8 0.500000 0.559978 0.350541
O O9 0.322526 0.500000 0.268146
O O10 0.271336 0.583800 0.234842
O O11 0.500000 0.373723 0.170697
O O12 0.271361 0.329775 0.228611
O O13 0.271771 0.375314 0.042296
O O14 0.776606 0.834833 0.352586
O O15 0.761045 0.920777 0.359291
O O16 0.000000 0.883530 0.409399
O O17 0.500000 0.718644 0.269029
O O18 0.754285 0.752162 0.294253
O O19 0.500000 0.711106 0.788634
O O20 0.500000 0.936757 0.291586
O O21 0.693348 0.000000 0.309564
#
# Coordination Sequence:
#
# PCOD8189662 Si02
#       8
#     8   8   8   8   8   8   8   8
#     4  10  20  38  60  82 112 150 189 233 280 334
#     4  11  21  35  58  86 116 147 184 236 285 332
#     4  10  20  36  59  83 112 151 189 229 281 338
#     4   9  19  37  58  83 113 145 187 234 276 326
#     4  10  21  38  60  84 111 146 188 234 276 324
#     4  10  21  37  59  81 110 150 186 225 278 337
#     4  10  22  37  56  84 116 143 182 237 279 322
#     4  10  22  39  57  81 115 150 183 227 283 337
#
# _framework density 18.748446000000001
#
# number of rings (size 3 to 8) (size 9 to 14) (size 15 to 20)
#    0.000    2.000    2.500    0.750    1.750    3.500 
#    0.000    2.500    0.000    0.000    0.000    0.000 
#    0.000    0.000    0.000    0.000    0.000    0.000 
#
# Total GULP energy -396859.318266 kJ/mol
# GULP energy per Si atom -12401.853696 kJ/mol
# Density = 1.870577 g / cm^3
# Si number density = 18.748446 Si / 1000 Ang^3
#
#
#
# Elastic Constant Matrix: (Units=GPa)
#
#
# Indices 1 2 3 4 5 6 
#
# 1 35.9829 32.4244 27.5337 0.0023 0.0002 0.0000
# 2 32.4244 134.9286 57.6123 0.0009 -0.0001 0.0002
# 3 27.5337 57.6123 141.2515 0.0102 0.0023 -0.0002
# 4 0.0023 0.0009 0.0102 26.2099 0.0022 0.0004
# 5 0.0002 -0.0001 0.0023 0.0022 18.5629 0.0011
# 6 0.0000 0.0002 -0.0002 0.0004 0.0011 28.6656
#
#
#
# Elastic Compliance Matrix: (Units=1/GPa)
#
#
# Indices 1 2 3 4 5 6 
#
# 1 0.037616 -0.007155 -0.004414 -0.000001 0.000000 0.000000
# 2 -0.007155 0.010335 -0.002821 0.000001 0.000000 0.000000
# 3 -0.004414 -0.002821 0.009091 -0.000003 -0.000001 0.000000
# 4 -0.000001 0.000001 -0.000003 0.038153 -0.000004 -0.000001
# 5 0.000000 0.000000 -0.000001 -0.000004 0.053871 -0.000002
# 6 0.000000 0.000000 0.000000 -0.000001 -0.000002 0.034885
#
#
# Mechanical properties :
#
#
# Convention : Reuss Voigt Hill
#
# Bulk Modulus (GPa) = 35.38284 60.81153 48.09719
# Shear Modulus (GPa) = 22.50728 27.66053 25.08390
#
# Velocity S-wave (km/s) = 3.46856 3.84520 3.66173
# Velocity P-wave (km/s) = 5.91224 7.22634 6.60207
#
# Compressibility (1/GPa) = 0.02826229
#
# Stress axis : x y z
#
# Youngs Moduli (GPa) = 26.58461 96.75820 110.00490
#
# Poissons Ratio (x) = 0.69227 0.48558
# Poissons Ratio (y) = 0.19020 0.31029
# Poissons Ratio (z) = 0.11735 0.27293
#
# Static dielectric constant tensor:
#      x y z
#    x 3.295360 0.000000 0.000000 
#    y 0.000000 3.422720 0.000000 
#    z 0.000000 0.000000 3.722030 
# 
# 
# High freq. dielectric constant tensor:
#      x y z
#    x 1.706230 0.000000 0.000000 
#    y 0.000000 1.737210 0.000000 
#    z 0.000000 0.000000 1.735910 
# 
# From -- ./inp_files/11454.got.cif
#   From: 2010.03.12/outbox.cif.g09.slc.cpg/sg44_6_cif.got.tgz:11454.got - 2010.04.14 02:36:11.
