data_PCOD8189158
_publ_section_title
;
Structure prediction by ZEFSAII (Michael W. Deem and Ramdas Pophale) SiO2 
 PCOD8189158
Probable space group: I M M 2
;
_chemical_formula_sum "Si O2"
_cell_formula_units_Z 64
_cell_length_a 9.097444
_cell_length_b 20.289735
_cell_length_c 19.644704
_cell_angle_alpha 90.000000
_cell_angle_beta 90.000000
_cell_angle_gamma 90.000000
_cell_volume 3626.112343
_symmetry_space_group_name_H-M "I M M 2"
_symmetry_group_IT_number 44
_symmetry_cell_setting 'orthorhombic'
loop_
_space_group_symop_operation_xyz
x,y,z
-x,-y,z
-x,y,z
x,-y,z
1/2+x,1/2+y,1/2+z
1/2-x,1/2-y,1/2+z
1/2-x,1/2+y,1/2+z
1/2+x,1/2-y,1/2+z
loop_
_atom_site_type_symbol
_atom_site_label
_atom_site_fract_x
_atom_site_fract_y
_atom_site_fract_z
Si Si1 0.325284 0.072847 0.686540
Si Si2 0.327813 0.819191 0.280735
Si Si3 0.169983 0.076173 0.032235
Si Si4 0.830017 0.076173 0.188710
Si Si5 0.674716 0.927153 0.534405
Si Si6 0.172187 0.319191 0.440209
Si Si7 0.672652 0.813885 0.783579
Si Si8 0.327348 0.186115 0.437366
O O1 0.500000 0.072845 0.689554
O O2 0.272139 0.091053 0.610472
O O3 0.262308 0.126178 0.739107
O O4 0.266910 0.000000 0.706663
O O5 0.500000 0.812243 0.268616
O O6 0.269967 0.880371 0.237614
O O7 0.251121 0.751930 0.256895
O O8 0.289014 0.831132 0.359664
O O9 0.206371 0.093402 0.110472
O O10 0.000000 0.090954 0.016763
O O11 0.206497 0.000000 0.017576
O O12 0.269967 0.119629 0.983330
O O13 0.000000 0.090954 0.204181
O O14 0.793503 0.000000 0.203368
O O15 0.500000 0.927155 0.531391
O O16 0.737692 0.873822 0.481838
O O17 0.733089 0.000000 0.514281
O O18 0.210985 0.331132 0.361281
O O19 0.248880 0.251930 0.464050
O O20 0.000000 0.312243 0.452329
O O21 0.500000 0.803732 0.772693
O O22 0.500000 0.196267 0.448251
#
# Coordination Sequence:
#
# PCOD8189158 Si02
#       8
#     8   8   8   8   8   8   8   8
#     4   8  14  26  46  71  94 117 153 199 237 272
#     4  10  20  32  48  72 101 130 161 202 246 286
#     4   9  19  36  55  73  95 126 164 204 247 300
#     4   9  19  36  55  73  95 126 164 204 247 300
#     4   8  14  26  46  71  94 117 153 199 237 272
#     4  10  20  32  48  72 101 130 161 202 246 286
#     4   9  18  32  49  70  99 133 165 197 237 289
#     4   9  18  32  49  70  99 133 165 197 237 289
#
# _framework density 17.649757000000001
#
# number of rings (size 3 to 8) (size 9 to 14) (size 15 to 20)
#    0.000    3.000    0.000    2.250    0.000    4.000 
#    0.000    6.250    0.000    0.750    0.000    1.750 
#    0.000    0.000    0.000    0.000    0.000    0.000 
#
# Total GULP energy -396753.554770 kJ/mol
# GULP energy per Si atom -12398.548587 kJ/mol
# Density = 1.760959 g / cm^3
# Si number density = 17.649757 Si / 1000 Ang^3
#
#
#
# Elastic Constant Matrix: (Units=GPa)
#
#
# Indices 1 2 3 4 5 6 
#
# 1 46.4200 44.4941 34.6202 0.0000 0.0000 0.0000
# 2 44.4941 145.1909 85.3282 0.0000 0.0000 0.0000
# 3 34.6202 85.3282 89.9254 0.0000 0.0000 0.0000
# 4 0.0000 0.0000 0.0000 40.8614 0.0000 0.0000
# 5 0.0000 0.0000 0.0000 0.0000 23.5534 0.0000
# 6 0.0000 0.0000 0.0000 0.0000 0.0000 26.2207
#
#
#
# Elastic Compliance Matrix: (Units=1/GPa)
#
#
# Indices 1 2 3 4 5 6 
#
# 1 0.032278 -0.005852 -0.006874 0.000000 0.000000 0.000000
# 2 -0.005852 0.016631 -0.013528 0.000000 0.000000 0.000000
# 3 -0.006874 -0.013528 0.026603 0.000000 0.000000 0.000000
# 4 0.000000 0.000000 0.000000 0.024473 0.000000 0.000000
# 5 0.000000 0.000000 0.000000 0.000000 0.042457 0.000000
# 6 0.000000 0.000000 0.000000 0.000000 0.000000 0.038138
#
#
# Mechanical properties :
#
#
# Convention : Reuss Voigt Hill
#
# Bulk Modulus (GPa) = 43.46935 67.82461 55.64698
# Shear Modulus (GPa) = 20.76788 25.93335 23.35062
#
# Velocity S-wave (km/s) = 3.43398 3.83734 3.64125
# Velocity P-wave (km/s) = 6.35652 7.62529 7.01963
#
# Compressibility (1/GPa) = 0.02300471
#
# Stress axis : x y z
#
# Youngs Moduli (GPa) = 30.98062 60.12789 37.58946
#
# Poissons Ratio (x) = 0.35186 0.25839
# Poissons Ratio (y) = 0.18130 0.50851
# Poissons Ratio (z) = 0.21296 0.81341
#
# Static dielectric constant tensor:
#      x y z
#    x 2.985860 0.000000 0.000000 
#    y 0.000000 3.484640 0.000000 
#    z 0.000000 0.000000 3.341490 
# 
# 
# High freq. dielectric constant tensor:
#      x y z
#    x 1.655250 0.000000 0.000000 
#    y 0.000000 1.691600 0.000000 
#    z 0.000000 0.000000 1.682130 
# 
# From -- ./inp_files/20753.got.cif
#   From: 2010.03.12/outbox.cif.g09.slc.cpg/sg44_11_cif.got.tgz:20753.got - 2010.04.14 02:36:11.
