data_PCOD8189510
_publ_section_title
;
Structure prediction by ZEFSAII (Michael W. Deem and Ramdas Pophale) SiO2 
 PCOD8189510
Probable space group: I M M 2
;
_chemical_formula_sum "Si O2"
_cell_formula_units_Z 64
_cell_length_a 18.423133
_cell_length_b 8.953767
_cell_length_c 21.038880
_cell_angle_alpha 90.000000
_cell_angle_beta 90.000000
_cell_angle_gamma 90.000000
_cell_volume 3470.498753
_symmetry_space_group_name_H-M "I M M 2"
_symmetry_group_IT_number 44
_symmetry_cell_setting 'orthorhombic'
loop_
_space_group_symop_operation_xyz
x,y,z
-x,-y,z
-x,y,z
x,-y,z
1/2+x,1/2+y,1/2+z
1/2-x,1/2-y,1/2+z
1/2-x,1/2+y,1/2+z
1/2+x,1/2-y,1/2+z
loop_
_atom_site_type_symbol
_atom_site_label
_atom_site_fract_x
_atom_site_fract_y
_atom_site_fract_z
Si Si1 0.663639 0.323882 0.199720
Si Si2 0.413533 0.172200 0.085120
Si Si3 0.916062 0.675520 0.071059
Si Si4 0.413757 0.331861 0.444003
Si Si5 0.082438 0.678739 0.311813
Si Si6 0.415980 0.175777 0.316596
Si Si7 0.329047 0.822789 0.692811
Si Si8 0.915961 0.673979 0.447975
O O1 0.657869 0.500000 0.210333
O O2 0.621110 0.279661 0.136663
O O3 0.629991 0.242349 0.259738
O O4 0.746255 0.269556 0.192102
O O5 0.500000 0.183084 0.089594
O O6 0.389724 0.000000 0.096427
O O7 0.386223 0.235778 0.015704
O O8 0.906026 0.500000 0.061575
O O9 0.869896 0.737901 0.130306
O O10 0.000000 0.716216 0.083409
O O11 0.884767 0.754071 0.007943
O O12 0.500000 0.328324 0.444887
O O13 0.383513 0.500000 0.440997
O O14 0.385569 0.243400 0.382352
O O15 0.082483 0.500000 0.311576
O O16 0.132160 0.744063 0.255569
O O17 0.115871 0.734989 0.380486
O O18 0.000000 0.735778 0.301616
O O19 0.500000 0.218964 0.306021
O O20 0.405269 0.000000 0.318943
O O21 0.335165 0.000000 0.693905
O O22 0.901946 0.500000 0.452538
O O23 0.000000 0.710567 0.443456
#
# Coordination Sequence:
#
# PCOD8189510 Si02
#       8
#     8   8   8   8   8   8   8   8
#     4  11  22  33  45  66 100 134 161 197 244 288
#     4   9  17  31  50  70  92 119 155 199 242 287
#     4   9  16  29  51  75  98 129 169 206 239 281
#     4   9  17  30  50  77 104 125 152 198 252 298
#     4   8  12  22  44  71  95 120 153 193 236 280
#     4  10  20  35  55  75  94 122 163 206 245 291
#     4   9  18  30  43  65 100 135 163 196 238 282
#     4   7  11  21  41  69  93 110 138 189 242 276
#
# _framework density 18.441153
#
# number of rings (size 3 to 8) (size 9 to 14) (size 15 to 20)
#    0.000    3.000    0.000    3.375    0.000    5.500 
#    0.000    2.500    0.000    1.500    0.000    1.750 
#    0.000    5.000    0.000    0.000    0.000    0.000 
#
# Total GULP energy -396520.203261 kJ/mol
# GULP energy per Si atom -12391.256352 kJ/mol
# Density = 1.839918 g / cm^3
# Si number density = 18.441153 Si / 1000 Ang^3
#
#
#
# Elastic Constant Matrix: (Units=GPa)
#
#
# Indices 1 2 3 4 5 6 
#
# 1 65.6070 25.7590 62.0583 0.0000 0.0000 0.0000
# 2 25.7590 46.9577 42.7668 0.0000 0.0000 0.0000
# 3 62.0583 42.7668 205.1453 0.0000 0.0000 0.0000
# 4 0.0000 0.0000 0.0000 14.5101 0.0000 0.0000
# 5 0.0000 0.0000 0.0000 0.0000 -37.9828 0.0000
# 6 0.0000 0.0000 0.0000 0.0000 0.0000 13.6441
#
#
#
# Elastic Compliance Matrix: (Units=1/GPa)
#
#
# Indices 1 2 3 4 5 6 
#
# 1 0.023523 -0.007928 -0.005463 0.000000 0.000000 0.000000
# 2 -0.007928 0.028959 -0.003639 0.000000 0.000000 0.000000
# 3 -0.005463 -0.003639 0.007286 0.000000 0.000000 0.000000
# 4 0.000000 0.000000 0.000000 0.068917 0.000000 0.000000
# 5 0.000000 0.000000 0.000000 0.000000 -0.026328 0.000000
# 6 0.000000 0.000000 0.000000 0.000000 0.000000 0.073292
#
#
# Mechanical properties :
#
#
# Convention : Reuss Voigt Hill
#
# Bulk Modulus (GPa) = 38.89919 64.31980 51.60949
# Shear Modulus (GPa) = 22.90670 10.50937 16.70803
#
# Velocity S-wave (km/s) = 3.52824 2.38982 3.01328
# Velocity P-wave (km/s) = 6.14308 6.52450 6.33666
#
# Compressibility (1/GPa) = 0.02570748
#
# Stress axis : x y z
#
# Youngs Moduli (GPa) = 42.51248 34.53196 137.25368
#
# Poissons Ratio (x) = 0.27377 0.74982
# Poissons Ratio (y) = 0.33704 0.49943
# Poissons Ratio (z) = 0.23225 0.12565
#
# Static dielectric constant tensor:
#      x y z
#    x 3.160760 0.000000 0.000000 
#    y 0.000000 3.047320 0.000000 
#    z 0.000000 0.000000 3.946340 
# 
# 
# High freq. dielectric constant tensor:
#      x y z
#    x 1.678320 0.000000 0.000000 
#    y 0.000000 1.675600 0.000000 
#    z 0.000000 0.000000 1.745560 
# 
# From -- ./inp_files/24348.got.cif
#   From: 2010.03.12/outbox.cif.g09.slc.cpg/sg44_13_cif.got.tgz:24348.got - 2010.04.14 02:36:11.
