data_PCOD8189124
_publ_section_title
;
Structure prediction by ZEFSAII (Michael W. Deem and Ramdas Pophale) SiO2 
 PCOD8189124
Probable space group: I M M 2
;
_chemical_formula_sum "Si O2"
_cell_formula_units_Z 48
_cell_length_a 9.067725
_cell_length_b 7.934937
_cell_length_c 34.228474
_cell_angle_alpha 90.000000
_cell_angle_beta 90.000000
_cell_angle_gamma 90.000000
_cell_volume 2462.801226
_symmetry_space_group_name_H-M "I M M 2"
_symmetry_group_IT_number 44
_symmetry_cell_setting 'orthorhombic'
loop_
_space_group_symop_operation_xyz
x,y,z
-x,-y,z
-x,y,z
x,-y,z
1/2+x,1/2+y,1/2+z
1/2-x,1/2-y,1/2+z
1/2-x,1/2+y,1/2+z
1/2+x,1/2-y,1/2+z
loop_
_atom_site_type_symbol
_atom_site_label
_atom_site_fract_x
_atom_site_fract_y
_atom_site_fract_z
Si Si1 0.327499 0.311775 0.163330
Si Si2 0.338670 0.808150 0.083316
Si Si3 0.675167 0.813020 0.423886
Si Si4 0.323670 0.000000 0.788138
Si Si5 0.165704 0.695369 0.010455
Si Si6 0.824184 0.000000 0.871356
Si Si7 0.173689 0.690037 0.744905
O O1 0.500000 0.284095 0.156612
O O2 0.287531 0.500000 0.176332
O O3 0.254111 0.272739 0.121027
O O4 0.275736 0.195461 0.199396
O O5 0.500000 0.724344 0.076787
O O6 0.251493 0.795896 0.043240
O O7 0.357403 0.000000 0.094735
O O8 0.500000 0.816806 0.426727
O O9 0.736312 0.773479 0.467475
O O10 0.727125 0.667466 0.394539
O O11 0.730210 0.000000 0.410098
O O12 0.266737 0.000000 0.832043
O O13 0.264587 0.828371 0.768732
O O14 0.500000 0.000000 0.786594
O O15 0.170882 0.500000 0.021290
O O16 0.000000 0.764855 0.010757
O O17 0.000000 0.000000 0.863693
O O18 0.205854 0.500000 0.760498
O O19 0.000000 0.733386 0.748815
#
# Coordination Sequence:
#
# PCOD8189124 Si02
#       7
#     8   8   8   4   8   4   8
#     4   9  16  30  55  82 109 141 185 240 290 330
#     4  10  20  31  46  76 113 147 185 230 278 331
#     4   8  16  32  55  83 109 136 181 239 288 329
#     4  12  26  42  58  86 128 162 186 230 300 376
#     4   9  18  33  52  75 105 142 184 230 280 331
#     4  10  20  36  62  86 106 142 194 244 286 338
#     4  10  20  38  66  92 113 147 200 253 292 338
#
# _framework density 19.489999999999998
#
# number of rings (size 3 to 8) (size 9 to 14) (size 15 to 20)
#    0.000    2.500    0.833    2.750    1.167    4.333 
#    0.000    3.333    0.000    3.000    0.000    0.000 
#    0.000    0.000    0.000    0.000    0.000    0.000 
#
# Total GULP energy -297400.658920 kJ/mol
# GULP energy per Si atom -12391.694122 kJ/mol
# Density = 1.944564 g / cm^3
# Si number density = 19.490000 Si / 1000 Ang^3
#
#
#
# Elastic Constant Matrix: (Units=GPa)
#
#
# Indices 1 2 3 4 5 6 
#
# 1 56.8020 36.5754 44.2442 0.0000 0.0000 0.0000
# 2 36.5754 122.7422 74.2286 -0.0001 0.0000 0.0000
# 3 44.2442 74.2286 146.7938 0.0000 0.0000 0.0000
# 4 0.0000 -0.0001 0.0000 26.6842 0.0000 0.0000
# 5 0.0000 0.0000 0.0000 0.0000 23.4882 0.0000
# 6 0.0000 0.0000 0.0000 0.0000 0.0000 16.9917
#
#
#
# Elastic Compliance Matrix: (Units=1/GPa)
#
#
# Indices 1 2 3 4 5 6 
#
# 1 0.024331 -0.004056 -0.005283 0.000000 0.000000 0.000000
# 2 -0.004056 0.012412 -0.005054 0.000000 0.000000 0.000000
# 3 -0.005283 -0.005054 0.010960 0.000000 0.000000 0.000000
# 4 0.000000 0.000000 0.000000 0.037475 0.000000 0.000000
# 5 0.000000 0.000000 0.000000 0.000000 0.042575 0.000000
# 6 0.000000 0.000000 0.000000 0.000000 0.000000 0.058852
#
#
# Mechanical properties :
#
#
# Convention : Reuss Voigt Hill
#
# Bulk Modulus (GPa) = 52.85747 70.71495 61.78621
# Shear Modulus (GPa) = 22.55332 24.85213 23.70272
#
# Velocity S-wave (km/s) = 3.40542 3.57476 3.49111
# Velocity P-wave (km/s) = 6.53006 7.30753 6.92971
#
# Compressibility (1/GPa) = 0.01891880
#
# Stress axis : x y z
#
# Youngs Moduli (GPa) = 41.09932 80.56662 91.23969
#
# Poissons Ratio (x) = 0.32675 0.48200
# Poissons Ratio (y) = 0.16668 0.46112
# Poissons Ratio (z) = 0.21712 0.40718
#
# Static dielectric constant tensor:
#      x y z
#    x 3.108830 0.000000 0.000000 
#    y 0.000000 3.791240 0.000000 
#    z 0.000000 0.000000 3.658630 
# 
# 
# High freq. dielectric constant tensor:
#      x y z
#    x 1.699520 0.000000 0.000000 
#    y 0.000000 1.770120 0.000000 
#    z 0.000000 0.000000 1.768480 
# 
# From -- ./inp_files/26968.got.cif
#   From: 2010.03.12/outbox.cif.g09.slc.cpg/sg44_14_cif.got.tgz:26968.got - 2010.04.14 02:36:11.
