data_PCOD8189701
_publ_section_title
;
Structure prediction by ZEFSAII (Michael W. Deem and Ramdas Pophale) SiO2 
 PCOD8189701
Probable space group: I M M 2
;
_chemical_formula_sum "Si O2"
_cell_formula_units_Z 64
_cell_length_a 16.464842
_cell_length_b 14.587198
_cell_length_c 12.037630
_cell_angle_alpha 90.000000
_cell_angle_beta 90.000000
_cell_angle_gamma 90.000000
_cell_volume 2891.148743
_symmetry_space_group_name_H-M "I M M 2"
_symmetry_group_IT_number 44
_symmetry_cell_setting 'orthorhombic'
loop_
_space_group_symop_operation_xyz
x,y,z
-x,-y,z
-x,y,z
x,-y,z
1/2+x,1/2+y,1/2+z
1/2-x,1/2-y,1/2+z
1/2-x,1/2+y,1/2+z
1/2+x,1/2-y,1/2+z
loop_
_atom_site_type_symbol
_atom_site_label
_atom_site_fract_x
_atom_site_fract_y
_atom_site_fract_z
Si Si1 0.409248 0.844678 0.819250
Si Si2 0.262046 0.602190 0.242824
Si Si3 0.409580 0.897764 0.265619
Si Si4 0.909154 0.135092 0.303055
Si Si5 0.282576 0.602260 0.988205
Si Si6 0.336928 0.103859 0.042383
Si Si7 0.657972 0.747860 0.406434
Si Si8 0.850929 0.099500 0.064072
O O1 0.500000 0.889684 0.802272
O O2 0.337268 0.893023 0.748755
O O3 0.414464 0.741638 0.780075
O O4 0.385599 0.840934 0.949355
O O5 0.285544 0.500000 0.285438
O O6 0.304956 0.679714 0.315109
O O7 0.296507 0.615843 0.119015
O O8 0.500000 0.905544 0.220515
O O9 0.354886 0.859218 0.165363
O O10 0.406777 0.820679 0.360343
O O11 0.380416 0.000000 0.305567
O O12 0.865791 0.106915 0.417575
O O13 0.859817 0.097779 0.196651
O O14 0.000000 0.093013 0.305512
O O15 0.244533 0.500000 0.968534
O O16 0.228869 0.687476 0.951507
O O17 0.241563 0.112179 0.023679
O O18 0.367621 0.000000 0.033440
O O19 0.609743 0.686985 0.500260
O O20 0.883122 0.000000 0.021485
#
# Coordination Sequence:
#
# PCOD8189701 Si02
#       8
#     8   8   8   8   8   8   8   8
#     4  11  22  37  63  99 136 172 216 267 329 394
#     4  11  24  42  64  95 134 175 218 270 327 392
#     4  10  23  41  62  94 134 172 216 271 329 386
#     4  11  24  42  65  95 130 168 219 280 331 384
#     4  11  24  42  65  93 128 171 219 274 329 385
#     4  10  20  36  61  95 131 170 214 261 318 390
#     4  12  23  39  69  94 129 170 221 265 324 398
#     4  11  23  40  66  97 130 170 218 271 327 389
#
# _framework density 22.13653
#
# number of rings (size 3 to 8) (size 9 to 14) (size 15 to 20)
#    0.000    1.125    2.500    3.375    3.500    4.000 
#    0.000    0.625    0.000    2.625    0.000    0.000 
#    0.000    0.000    0.000    0.000    0.000    0.000 
#
# Total GULP energy -396482.060886 kJ/mol
# GULP energy per Si atom -12390.064403 kJ/mol
# Density = 2.208615 g / cm^3
# Si number density = 22.136530 Si / 1000 Ang^3
#
#
#
# Elastic Constant Matrix: (Units=GPa)
#
#
# Indices 1 2 3 4 5 6 
#
# 1 59.6042 14.2093 33.6731 0.0000 0.0000 0.0000
# 2 14.2093 151.5035 55.2402 0.0000 0.0000 0.0000
# 3 33.6731 55.2402 124.6149 0.0000 0.0000 0.0000
# 4 0.0000 0.0000 0.0000 25.6618 0.0000 0.0000
# 5 0.0000 0.0000 0.0000 0.0000 25.6312 0.0000
# 6 0.0000 0.0000 0.0000 0.0000 0.0000 17.5152
#
#
#
# Elastic Compliance Matrix: (Units=1/GPa)
#
#
# Indices 1 2 3 4 5 6 
#
# 1 0.019802 0.000112 -0.005400 0.000000 0.000000 0.000000
# 2 0.000112 0.007874 -0.003521 0.000000 0.000000 0.000000
# 3 -0.005400 -0.003521 0.011045 0.000000 0.000000 0.000000
# 4 0.000000 0.000000 0.000000 0.038968 0.000000 0.000000
# 5 0.000000 0.000000 0.000000 0.000000 0.039015 0.000000
# 6 0.000000 0.000000 0.000000 0.000000 0.000000 0.057093
#
#
# Mechanical properties :
#
#
# Convention : Reuss Voigt Hill
#
# Bulk Modulus (GPa) = 47.38917 60.21863 53.80390
# Shear Modulus (GPa) = 25.19546 29.26830 27.23188
#
# Velocity S-wave (km/s) = 3.37736 3.64011 3.51119
# Velocity P-wave (km/s) = 6.05499 6.70295 6.38719
#
# Compressibility (1/GPa) = 0.02110187
#
# Stress axis : x y z
#
# Youngs Moduli (GPa) = 50.50105 127.00605 90.54215
#
# Poissons Ratio (x) = -0.01421 0.48896
# Poissons Ratio (y) = -0.00565 0.31875
# Poissons Ratio (z) = 0.27272 0.44713
#
# Static dielectric constant tensor:
#      x y z
#    x 3.911600 0.000000 0.000000 
#    y 0.000000 4.423530 0.000000 
#    z 0.000000 0.000000 4.071970 
# 
# 
# High freq. dielectric constant tensor:
#      x y z
#    x 1.842700 0.000000 0.000000 
#    y 0.000000 1.896270 0.000000 
#    z 0.000000 0.000000 1.870220 
# 
# From -- ./inp_files/13986.got.cif
#   From: 2010.03.12/outbox.cif.g09.slc.cpg/sg44_7_cif.got.tgz:13986.got - 2010.04.14 02:36:11.
