data_PCOD8189438
_publ_section_title
;
Structure prediction by ZEFSAII (Michael W. Deem and Ramdas Pophale) SiO2 
 PCOD8189438
Probable space group: I M M 2
;
_chemical_formula_sum "Si O2"
_cell_formula_units_Z 56
_cell_length_a 8.924788
_cell_length_b 22.616815
_cell_length_c 14.231998
_cell_angle_alpha 90.000000
_cell_angle_beta 90.000000
_cell_angle_gamma 90.000000
_cell_volume 2872.732769
_symmetry_space_group_name_H-M "I M M 2"
_symmetry_group_IT_number 44
_symmetry_cell_setting 'orthorhombic'
loop_
_space_group_symop_operation_xyz
x,y,z
-x,-y,z
-x,y,z
x,-y,z
1/2+x,1/2+y,1/2+z
1/2-x,1/2-y,1/2+z
1/2-x,1/2+y,1/2+z
1/2+x,1/2-y,1/2+z
loop_
_atom_site_type_symbol
_atom_site_label
_atom_site_fract_x
_atom_site_fract_y
_atom_site_fract_z
Si Si1 0.828058 0.775088 0.372400
Si Si2 0.321857 0.147681 0.664011
Si Si3 0.672064 0.346130 0.354885
Si Si4 0.171170 0.220920 0.159145
Si Si5 0.323569 0.389888 0.984183
Si Si6 0.677097 0.000000 0.154888
Si Si7 0.174384 0.108516 0.053759
Si Si8 0.322899 0.500000 0.858551
O O1 0.726599 0.718050 0.389932
O O2 0.810286 0.798997 0.266723
O O3 0.773296 0.827754 0.439275
O O4 0.000000 0.757402 0.391866
O O5 0.500000 0.145542 0.665225
O O6 0.265444 0.128335 0.767133
O O7 0.257062 0.214028 0.644199
O O8 0.257706 0.103798 0.584916
O O9 0.500000 0.340604 0.324588
O O10 0.691909 0.391618 0.441133
O O11 0.243065 0.170073 0.094449
O O12 0.000000 0.226907 0.129108
O O13 0.500000 0.393282 0.000444
O O14 0.270600 0.442682 0.916867
O O15 0.729745 0.943473 0.097127
O O16 0.500000 0.000000 0.162569
O O17 0.743472 0.000000 0.258826
O O18 0.000000 0.101006 0.083183
O O19 0.500000 0.500000 0.841257
#
# Coordination Sequence:
#
# PCOD8189438 Si02
#       8
#     8   8   8   8   8   4   8   4
#     4   9  17  30  51  81 115 145 174 218 277 328
#     4  10  20  35  55  80 114 148 177 221 277 325
#     4  10  20  34  55  83 111 142 184 226 266 324
#     4   8  15  30  53  80 108 142 180 213 259 325
#     4  10  20  35  57  82 107 143 189 229 266 317
#     4  12  26  40  57  84 113 138 175 226 272 318
#     4  10  20  37  59  78 104 146 189 224 264 319
#     4  10  22  42  63  80 107 146 183 220 264 318
#
# _framework density 19.493634
#
# number of rings (size 3 to 8) (size 9 to 14) (size 15 to 20)
#    0.000    2.286    0.000    4.071    0.000    5.714 
#    0.000    7.143    0.000    1.714    0.000    0.000 
#    0.000    0.000    0.000    0.000    0.000    0.000 
#
# Total GULP energy -347185.979902 kJ/mol
# GULP energy per Si atom -12399.499282 kJ/mol
# Density = 1.944927 g / cm^3
# Si number density = 19.493634 Si / 1000 Ang^3
#
#
#
# Elastic Constant Matrix: (Units=GPa)
#
#
# Indices 1 2 3 4 5 6 
#
# 1 72.7721 40.2695 54.0979 0.0001 0.0000 0.0000
# 2 40.2695 71.4877 63.5654 -0.0001 0.0000 0.0000
# 3 54.0979 63.5654 133.6400 0.0000 0.0000 0.0000
# 4 0.0001 -0.0001 0.0000 31.1198 0.0000 0.0000
# 5 0.0000 0.0000 0.0000 0.0000 31.7801 0.0000
# 6 0.0000 0.0000 0.0000 0.0000 0.0000 22.2096
#
#
#
# Elastic Compliance Matrix: (Units=1/GPa)
#
#
# Indices 1 2 3 4 5 6 
#
# 1 0.021858 -0.007703 -0.005184 0.000000 0.000000 0.000000
# 2 -0.007703 0.026955 -0.009703 0.000000 0.000000 0.000000
# 3 -0.005184 -0.009703 0.014197 0.000000 0.000000 0.000000
# 4 0.000000 0.000000 0.000000 0.032134 0.000000 0.000000
# 5 0.000000 0.000000 0.000000 0.000000 0.031466 0.000000
# 6 0.000000 0.000000 0.000000 0.000000 0.000000 0.045026
#
#
# Mechanical properties :
#
#
# Convention : Reuss Voigt Hill
#
# Bulk Modulus (GPa) = 56.08733 65.97393 61.03063
# Shear Modulus (GPa) = 22.44575 25.01969 23.73272
#
# Velocity S-wave (km/s) = 3.39697 3.58646 3.49300
# Velocity P-wave (km/s) = 6.64985 7.14615 6.90246
#
# Compressibility (1/GPa) = 0.01782934
#
# Stress axis : x y z
#
# Youngs Moduli (GPa) = 45.74975 37.09849 70.43944
#
# Poissons Ratio (x) = 0.28577 0.36518
# Poissons Ratio (y) = 0.35241 0.68347
# Poissons Ratio (z) = 0.23718 0.35997
#
# Static dielectric constant tensor:
#      x y z
#    x 3.327240 0.000000 0.000000 
#    y 0.000000 3.581690 0.000000 
#    z 0.000000 0.000000 3.648220 
# 
# 
# High freq. dielectric constant tensor:
#      x y z
#    x 1.739720 0.000000 0.000000 
#    y 0.000000 1.740350 0.000000 
#    z 0.000000 0.000000 1.774200 
# 
# From -- ./inp_files/16554.got.cif
#   From: 2010.03.12/outbox.cif.g09.slc.cpg/sg44_9_cif.got.tgz:16554.got - 2010.04.14 02:36:11.
