data_PCOD8189017
_publ_section_title
;
Structure prediction by ZEFSAII (Michael W. Deem and Ramdas Pophale) SiO2 
 PCOD8189017
Probable space group: I M M 2
;
_chemical_formula_sum "Si O2"
_cell_formula_units_Z 64
_cell_length_a 23.645484
_cell_length_b 8.914841
_cell_length_c 15.368132
_cell_angle_alpha 90.000000
_cell_angle_beta 90.000000
_cell_angle_gamma 90.000000
_cell_volume 3239.536607
_symmetry_space_group_name_H-M "I M M 2"
_symmetry_group_IT_number 44
_symmetry_cell_setting 'orthorhombic'
loop_
_space_group_symop_operation_xyz
x,y,z
-x,-y,z
-x,y,z
x,-y,z
1/2+x,1/2+y,1/2+z
1/2-x,1/2-y,1/2+z
1/2-x,1/2+y,1/2+z
1/2+x,1/2-y,1/2+z
loop_
_atom_site_type_symbol
_atom_site_label
_atom_site_fract_x
_atom_site_fract_y
_atom_site_fract_z
Si Si1 0.748153 0.822452 0.630270
Si Si2 0.358131 0.172791 0.186556
Si Si3 0.065935 0.172880 0.030240
Si Si4 0.132908 0.326933 0.880098
Si Si5 0.255474 0.676787 0.935871
Si Si6 0.434618 0.825676 0.026475
Si Si7 0.374274 0.322124 0.868026
Si Si8 0.374138 0.177555 0.689306
O O1 0.800120 0.764516 0.686806
O O2 0.753068 0.755256 0.533008
O O3 0.689610 0.765522 0.671692
O O4 0.749095 0.000000 0.628122
O O5 0.387337 0.196464 0.280717
O O6 0.400701 0.229107 0.111934
O O7 0.342290 0.000000 0.172840
O O8 0.086019 0.271005 0.111188
O O9 0.000000 0.199496 0.016931
O O10 0.080577 0.000000 0.048189
O O11 0.095721 0.223667 0.941605
O O12 0.126360 0.500000 0.909955
O O13 0.198675 0.277461 0.885401
O O14 0.261902 0.500000 0.942367
O O15 0.310871 0.740164 0.887001
O O16 0.500000 0.794952 0.045655
O O17 0.423066 0.000000 0.006720
O O18 0.415854 0.728017 0.944587
O O19 0.376375 0.500000 0.859906
O O20 0.396211 0.250639 0.778439
O O21 0.377888 0.000000 0.697085
#
# Coordination Sequence:
#
# PCOD8189017 Si02
#       8
#     8   8   8   8   8   8   8   8
#     4  10  19  35  59  87 120 155 190 233 288 350
#     4  10  21  36  60  91 119 152 196 242 290 344
#     4  11  25  43  61  85 117 152 196 247 292 340
#     4  10  20  38  62  88 119 154 192 236 289 350
#     4   9  17  33  57  86 120 153 186 232 288 345
#     4  10  22  40  58  81 117 157 200 247 290 339
#     4  11  22  38  62  89 119 153 193 240 292 347
#     4  11  23  40  63  89 119 154 193 236 289 351
#
# _framework density 19.755911000000001
#
# number of rings (size 3 to 8) (size 9 to 14) (size 15 to 20)
#    0.000    1.750    2.500    1.875    0.000    4.750 
#    0.000    2.500    0.000    0.000    0.000    0.000 
#    0.000    0.000    0.000    0.000    0.000    0.000 
#
# Total GULP energy -396903.179590 kJ/mol
# GULP energy per Si atom -12403.224362 kJ/mol
# Density = 1.971095 g / cm^3
# Si number density = 19.755911 Si / 1000 Ang^3
#
#
#
# Elastic Constant Matrix: (Units=GPa)
#
#
# Indices 1 2 3 4 5 6 
#
# 1 83.2455 25.9447 23.9774 0.0000 0.0000 0.0000
# 2 25.9447 49.0221 26.5860 0.0000 0.0000 0.0000
# 3 23.9774 26.5860 122.6579 0.0000 0.0000 0.0000
# 4 0.0000 0.0000 0.0000 28.9881 0.0000 0.0000
# 5 0.0000 0.0000 0.0000 0.0000 8.7139 0.0000
# 6 0.0000 0.0000 0.0000 0.0000 0.0000 26.5069
#
#
#
# Elastic Compliance Matrix: (Units=1/GPa)
#
#
# Indices 1 2 3 4 5 6 
#
# 1 0.014576 -0.006991 -0.001334 0.000000 0.000000 0.000000
# 2 -0.006991 0.026469 -0.004371 0.000000 0.000000 0.000000
# 3 -0.001334 -0.004371 0.009361 0.000000 0.000000 0.000000
# 4 0.000000 0.000000 0.000000 0.034497 0.000000 0.000000
# 5 0.000000 0.000000 0.000000 0.000000 0.114760 0.000000
# 6 0.000000 0.000000 0.000000 0.000000 0.000000 0.037726
#
#
# Mechanical properties :
#
#
# Convention : Reuss Voigt Hill
#
# Bulk Modulus (GPa) = 39.97604 45.32686 42.65145
# Shear Modulus (GPa) = 18.44223 24.73626 21.58924
#
# Velocity S-wave (km/s) = 3.05864 3.54233 3.30934
# Velocity P-wave (km/s) = 5.72299 6.30270 6.01983
#
# Compressibility (1/GPa) = 0.02501499
#
# Stress axis : x y z
#
# Youngs Moduli (GPa) = 68.60763 37.78002 106.82770
#
# Poissons Ratio (x) = 0.26411 0.14251
# Poissons Ratio (y) = 0.47961 0.46690
# Poissons Ratio (z) = 0.09153 0.16512
#
# Static dielectric constant tensor:
#      x y z
#    x 3.590460 0.000000 0.000000 
#    y 0.000000 3.433060 0.000000 
#    z 0.000000 0.000000 3.703690 
# 
# 
# High freq. dielectric constant tensor:
#      x y z
#    x 1.766120 0.000000 0.000000 
#    y 0.000000 1.753840 0.000000 
#    z 0.000000 0.000000 1.784510 
# 
# From -- ./inp_files/16760.got.cif
#   From: 2010.03.12/outbox.cif.g09.slc.cpg/sg44_9_cif.got.tgz:16760.got - 2010.04.14 02:36:11.
