data_PCOD8189634
_publ_section_title
;
Structure prediction by ZEFSAII (Michael W. Deem and Ramdas Pophale) SiO2 
 PCOD8189634
Probable space group: I M M 2
;
_chemical_formula_sum "Si O2"
_cell_formula_units_Z 64
_cell_length_a 8.776366
_cell_length_b 31.973053
_cell_length_c 11.586054
_cell_angle_alpha 90.000000
_cell_angle_beta 90.000000
_cell_angle_gamma 90.000000
_cell_volume 3251.130349
_symmetry_space_group_name_H-M "I M M 2"
_symmetry_group_IT_number 44
_symmetry_cell_setting 'orthorhombic'
loop_
_space_group_symop_operation_xyz
x,y,z
-x,-y,z
-x,y,z
x,-y,z
1/2+x,1/2+y,1/2+z
1/2-x,1/2-y,1/2+z
1/2-x,1/2+y,1/2+z
1/2+x,1/2-y,1/2+z
loop_
_atom_site_type_symbol
_atom_site_label
_atom_site_fract_x
_atom_site_fract_y
_atom_site_fract_z
Si Si1 0.331182 0.313893 0.766630
Si Si2 0.820223 0.686336 0.002028
Si Si3 0.675251 0.548680 0.836008
Si Si4 0.174605 0.643261 0.428242
Si Si5 0.179551 0.452081 0.075255
Si Si6 0.324077 0.228322 0.067271
Si Si7 0.168384 0.102396 0.127638
Si Si8 0.320617 0.625079 0.188945
O O1 0.500000 0.296335 0.798883
O O2 0.241382 0.329150 0.879118
O O3 0.235909 0.278981 0.697411
O O4 0.349646 0.352746 0.683812
O O5 0.000000 0.681603 0.006783
O O6 0.773087 0.734439 0.013760
O O7 0.750218 0.657867 0.100843
O O8 0.500000 0.562351 0.856492
O O9 0.691420 0.500000 0.813648
O O10 0.741309 0.570952 0.721637
O O11 0.771117 0.562533 0.947416
O O12 0.199609 0.688455 0.485178
O O13 0.222314 0.606333 0.516910
O O14 0.279750 0.640138 0.316629
O O15 0.000000 0.636171 0.392971
O O16 0.232261 0.500000 0.098425
O O17 0.257619 0.421781 0.168166
O O18 0.000000 0.447589 0.086171
O O19 0.500000 0.241216 0.075352
O O20 0.000000 0.086481 0.089135
O O21 0.500000 0.624690 0.172850
#
# Coordination Sequence:
#
# PCOD8189634 Si02
#       8
#     8   8   8   8   8   8   8   8
#     4  10  20  36  57  82 112 146 189 236 287 342
#     4  12  25  39  59  86 118 152 193 244 296 352
#     4   9  17  31  55  87 121 155 192 237 290 348
#     4  10  22  40  61  83 113 153 198 246 298 354
#     4  10  21  38  61  90 124 158 196 246 304 360
#     4  10  22  40  60  83 113 151 195 243 299 355
#     4   9  18  34  56  81 111 149 190 234 284 341
#     4  12  25  41  62  87 118 157 204 250 298 360
#
# _framework density 19.685459999999999
#
# number of rings (size 3 to 8) (size 9 to 14) (size 15 to 20)
#    0.000    1.750    0.000    4.500    1.750    4.250 
#    0.000    0.625    0.000    2.250    0.000    0.000 
#    0.000    0.000    0.000    0.000    0.000    0.000 
#
# Total GULP energy -396869.896304 kJ/mol
# GULP energy per Si atom -12402.184260 kJ/mol
# Density = 1.964066 g / cm^3
# Si number density = 19.685460 Si / 1000 Ang^3
#
#
#
# Elastic Constant Matrix: (Units=GPa)
#
#
# Indices 1 2 3 4 5 6 
#
# 1 125.8643 33.3372 51.9600 -0.0008 0.0001 0.0001
# 2 33.3372 51.1551 26.4803 -0.0055 -0.0014 -0.0009
# 3 51.9600 26.4803 105.1923 -0.0137 -0.0036 -0.0019
# 4 -0.0008 -0.0055 -0.0137 20.9886 -0.0018 -0.0011
# 5 0.0001 -0.0014 -0.0036 -0.0018 35.4619 -0.0018
# 6 0.0001 -0.0009 -0.0019 -0.0011 -0.0018 29.5674
#
#
#
# Elastic Compliance Matrix: (Units=1/GPa)
#
#
# Indices 1 2 3 4 5 6 
#
# 1 0.010992 -0.005005 -0.004170 -0.000004 -0.000001 0.000000
# 2 -0.005005 0.024756 -0.003760 0.000004 0.000001 0.000001
# 3 -0.004170 -0.003760 0.012512 0.000007 0.000001 0.000001
# 4 -0.000004 0.000004 0.000007 0.047645 0.000002 0.000002
# 5 -0.000001 0.000001 0.000001 0.000002 0.028199 0.000002
# 6 0.000000 0.000001 0.000001 0.000002 0.000002 0.033821
#
#
# Mechanical properties :
#
#
# Convention : Reuss Voigt Hill
#
# Bulk Modulus (GPa) = 44.65866 56.19632 50.42749
# Shear Modulus (GPa) = 26.14259 28.56586 27.35423
#
# Velocity S-wave (km/s) = 3.64815 3.81348 3.73173
# Velocity P-wave (km/s) = 6.36244 6.92815 6.65131
#
# Compressibility (1/GPa) = 0.02239207
#
# Stress axis : x y z
#
# Youngs Moduli (GPa) = 90.97483 40.39376 79.92037
#
# Poissons Ratio (x) = 0.20217 0.33324
# Poissons Ratio (y) = 0.45533 0.30048
# Poissons Ratio (z) = 0.37933 0.15187
#
# Static dielectric constant tensor:
#      x y z
#    x 3.847490 0.000000 0.000000 
#    y 0.000000 3.604480 0.000000 
#    z 0.000000 0.000000 3.654930 
# 
# 
# High freq. dielectric constant tensor:
#      x y z
#    x 1.776060 0.000000 0.000000 
#    y 0.000000 1.760820 0.000000 
#    z 0.000000 0.000000 1.766900 
# 
# From -- ./inp_files/11571.got.cif
#   From: 2010.03.12/outbox.cif.g09.slc.cpg/sg44_6_cif.got.tgz:11571.got - 2010.04.14 02:36:11.
