data_PCOD8189565
_publ_section_title
;
Structure prediction by ZEFSAII (Michael W. Deem and Ramdas Pophale) SiO2 
 PCOD8189565
Probable space group: I M M 2
;
_chemical_formula_sum "Si O2"
_cell_formula_units_Z 64
_cell_length_a 9.189378
_cell_length_b 24.321986
_cell_length_c 14.592482
_cell_angle_alpha 90.000000
_cell_angle_beta 90.000000
_cell_angle_gamma 90.000000
_cell_volume 3261.476974
_symmetry_space_group_name_H-M "I M M 2"
_symmetry_group_IT_number 44
_symmetry_cell_setting 'orthorhombic'
loop_
_space_group_symop_operation_xyz
x,y,z
-x,-y,z
-x,y,z
x,-y,z
1/2+x,1/2+y,1/2+z
1/2-x,1/2-y,1/2+z
1/2-x,1/2+y,1/2+z
1/2+x,1/2-y,1/2+z
loop_
_atom_site_type_symbol
_atom_site_label
_atom_site_fract_x
_atom_site_fract_y
_atom_site_fract_z
Si Si1 0.165291 0.750001 0.963810
Si Si2 0.337000 0.250001 0.681785
Si Si3 0.166665 0.644967 0.676166
Si Si4 0.671278 0.858440 0.965893
Si Si5 0.828722 0.141562 0.465893
Si Si6 0.332232 0.063369 0.334539
Si Si7 0.166665 0.855032 0.676166
Si Si8 0.667768 0.563369 0.334538
O O1 0.248526 0.803981 0.927496
O O2 0.248526 0.696020 0.927496
O O3 0.000000 0.750001 0.926413
O O4 0.169074 0.750001 0.072715
O O5 0.500000 0.250001 0.720025
O O6 0.258368 0.304652 0.718300
O O7 0.258368 0.195349 0.718300
O O8 0.210895 0.631310 0.572080
O O9 0.198113 0.591223 0.736363
O O10 0.000000 0.663664 0.680445
O O11 0.500000 0.851543 0.950358
O O12 0.729922 0.911064 0.912017
O O13 0.770079 0.088937 0.412017
O O14 0.789105 0.131312 0.572080
O O15 0.000000 0.148459 0.450358
O O16 0.500000 0.071229 0.363893
O O17 0.290176 0.000000 0.323827
O O18 0.198115 0.908775 0.736363
O O19 0.000000 0.836335 0.680446
O O20 0.500000 0.571229 0.363891
O O21 0.709823 0.500000 0.323823
#
# Coordination Sequence:
#
# PCOD8189565 Si02
#       8
#     8   8   8   8   8   8   8   8
#     4   9  17  32  55  82 112 144 176 212 263 327
#     4   9  17  30  53  84 112 136 170 218 267 317
#     4   9  19  36  57  79 107 143 178 215 264 322
#     4  10  20  35  57  84 111 139 176 224 272 315
#     4  10  20  35  57  84 111 139 176 224 272 315
#     4  10  22  39  56  76 105 144 188 225 262 318
#     4   9  19  36  57  79 107 143 178 215 264 322
#     4  10  22  39  56  76 105 144 188 225 262 318
#
# _framework density 19.623013
#
# number of rings (size 3 to 8) (size 9 to 14) (size 15 to 20)
#    0.000    2.500    0.000    1.500    0.000    7.500 
#    0.000    3.750    0.000    0.000    0.000    0.000 
#    0.000    0.000    0.000    0.000    0.000    0.000 
#
# Total GULP energy -396903.221935 kJ/mol
# GULP energy per Si atom -12403.225685 kJ/mol
# Density = 1.957835 g / cm^3
# Si number density = 19.623013 Si / 1000 Ang^3
#
#
#
# Elastic Constant Matrix: (Units=GPa)
#
#
# Indices 1 2 3 4 5 6 
#
# 1 117.3984 81.6150 50.0542 -0.0002 0.0000 0.0000
# 2 81.6150 175.6873 58.9882 -0.0002 0.0000 0.0000
# 3 50.0542 58.9882 75.2688 -0.0004 0.0002 0.0000
# 4 -0.0002 -0.0002 -0.0004 30.0465 0.0001 0.0000
# 5 0.0000 0.0000 0.0002 0.0001 27.3059 0.0000
# 6 0.0000 0.0000 0.0000 0.0000 0.0000 34.9426
#
#
#
# Elastic Compliance Matrix: (Units=1/GPa)
#
#
# Indices 1 2 3 4 5 6 
#
# 1 0.014238 -0.004662 -0.005815 0.000000 0.000000 0.000000
# 2 -0.004662 0.009251 -0.004150 0.000000 0.000000 0.000000
# 3 -0.005815 -0.004150 0.020405 0.000000 0.000000 0.000000
# 4 0.000000 0.000000 0.000000 0.033282 0.000000 0.000000
# 5 0.000000 0.000000 0.000000 0.000000 0.036622 0.000000
# 6 0.000000 0.000000 0.000000 0.000000 0.000000 0.028618
#
#
# Mechanical properties :
#
#
# Convention : Reuss Voigt Hill
#
# Bulk Modulus (GPa) = 68.30248 83.29660 75.79954
# Shear Modulus (GPa) = 28.32062 30.30546 29.31304
#
# Velocity S-wave (km/s) = 3.80311 3.93413 3.86918
# Velocity P-wave (km/s) = 7.35988 7.94840 7.65979
#
# Compressibility (1/GPa) = 0.01464076
#
# Stress axis : x y z
#
# Youngs Moduli (GPa) = 70.23346 108.09743 49.00793
#
# Poissons Ratio (x) = 0.50394 0.28498
# Poissons Ratio (y) = 0.32742 0.20337
# Poissons Ratio (z) = 0.40840 0.44858
#
# Static dielectric constant tensor:
#      x y z
#    x 3.634980 0.000000 0.000000 
#    y 0.000000 3.552020 0.000000 
#    z 0.000000 0.000000 3.454010 
# 
# 
# High freq. dielectric constant tensor:
#      x y z
#    x 1.766750 0.000000 0.000000 
#    y 0.000000 1.760130 0.000000 
#    z 0.000000 0.000000 1.760090 
# 
# From -- ./inp_files/16852.got.cif
#   From: 2010.03.12/outbox.cif.g09.slc.cpg/sg44_9_cif.got.tgz:16852.got - 2010.04.14 02:36:11.
