data_PCOD8189553
_publ_section_title
;
Structure prediction by ZEFSAII (Michael W. Deem and Ramdas Pophale) SiO2 
 PCOD8189553
Probable space group: I M M 2
;
_chemical_formula_sum "Si O2"
_cell_formula_units_Z 56
_cell_length_a 21.748021
_cell_length_b 21.624444
_cell_length_c 5.565467
_cell_angle_alpha 90.000000
_cell_angle_beta 90.000000
_cell_angle_gamma 90.000000
_cell_volume 2617.377143
_symmetry_space_group_name_H-M "I M M 2"
_symmetry_group_IT_number 44
_symmetry_cell_setting 'orthorhombic'
loop_
_space_group_symop_operation_xyz
x,y,z
-x,-y,z
-x,y,z
x,-y,z
1/2+x,1/2+y,1/2+z
1/2-x,1/2-y,1/2+z
1/2-x,1/2+y,1/2+z
1/2+x,1/2-y,1/2+z
loop_
_atom_site_type_symbol
_atom_site_label
_atom_site_fract_x
_atom_site_fract_y
_atom_site_fract_z
Si Si1 0.072710 0.862985 0.628500
Si Si2 0.068876 0.568394 0.456033
Si Si3 0.315730 0.069094 0.277730
Si Si4 0.927356 0.069599 0.132784
Si Si5 0.140482 0.342905 0.148043
Si Si6 0.154237 0.762741 0.824932
Si Si7 0.263026 0.822049 0.028171
O O1 0.095098 0.895938 0.379950
O O2 0.108224 0.796875 0.640604
O O3 0.000000 0.850519 0.619162
O O4 0.090526 0.898948 0.876530
O O5 0.075652 0.500000 0.332967
O O6 0.114776 0.572143 0.678891
O O7 0.000000 0.577550 0.554658
O O8 0.082658 0.624626 0.274917
O O9 0.319107 0.102181 0.532622
O O10 0.290279 0.000000 0.304606
O O11 0.269192 0.106271 0.107045
O O12 0.000000 0.066564 0.148734
O O13 0.900042 0.000000 0.134760
O O14 0.114899 0.288684 0.972267
O O15 0.189255 0.308589 0.314944
O O16 0.190269 0.814332 0.981383
O O17 0.213376 0.725914 0.726184
#
# Coordination Sequence:
#
# PCOD8189553 Si02
#       7
#     8   8   8   8   8   8   8
#     4  10  22  37  61  93 124 160 198 255 314 358
#     4   9  18  33  55  85 119 153 193 240 294 356
#     4   9  19  36  57  83 114 149 193 246 297 348
#     4   9  18  37  62  87 119 160 202 241 301 379
#     4  10  20  35  57  81 110 153 200 239 290 352
#     4  11  22  37  61  83 116 154 204 247 294 366
#     4  10  21  38  59  83 106 154 201 239 296 358
#
# _framework density 21.395464
#
# number of rings (size 3 to 8) (size 9 to 14) (size 15 to 20)
#    0.000    2.286    1.429    0.857    2.000    3.429 
#    0.000    8.571    0.000    0.000    0.000    0.000 
#    0.000    0.000    0.000    0.000    0.000    0.000 
#
# Total GULP energy -346873.675431 kJ/mol
# GULP energy per Si atom -12388.345551 kJ/mol
# Density = 2.134677 g / cm^3
# Si number density = 21.395464 Si / 1000 Ang^3
#
#
#
# Elastic Constant Matrix: (Units=GPa)
#
#
# Indices 1 2 3 4 5 6 
#
# 1 49.9650 19.8168 -4.0469 0.0000 0.0000 0.0000
# 2 19.8168 97.6421 9.5260 0.0000 0.0000 0.0000
# 3 -4.0469 9.5260 75.3173 0.0000 0.0000 0.0000
# 4 0.0000 0.0000 0.0000 20.4477 0.0000 0.0000
# 5 0.0000 0.0000 0.0000 0.0000 15.8963 0.0000
# 6 0.0000 0.0000 0.0000 0.0000 0.0000 24.3837
#
#
#
# Elastic Compliance Matrix: (Units=1/GPa)
#
#
# Indices 1 2 3 4 5 6 
#
# 1 0.021996 -0.004637 0.001768 0.000000 0.000000 0.000000
# 2 -0.004637 0.011347 -0.001684 0.000000 0.000000 0.000000
# 3 0.001768 -0.001684 0.013585 0.000000 0.000000 0.000000
# 4 0.000000 0.000000 0.000000 0.048905 0.000000 0.000000
# 5 0.000000 0.000000 0.000000 0.000000 0.062908 0.000000
# 6 0.000000 0.000000 0.000000 0.000000 0.000000 0.041011
#
#
# Mechanical properties :
#
#
# Convention : Reuss Voigt Hill
#
# Bulk Modulus (GPa) = 26.43900 30.39070 28.41485
# Shear Modulus (GPa) = 22.57689 25.32075 23.94882
#
# Velocity S-wave (km/s) = 3.25194 3.44388 3.34929
# Velocity P-wave (km/s) = 5.14628 5.48169 5.31663
#
# Compressibility (1/GPa) = 0.03782291
#
# Stress axis : x y z
#
# Youngs Moduli (GPa) = 45.46239 88.13021 73.60952
#
# Poissons Ratio (x) = 0.40864 -0.13017
# Poissons Ratio (y) = 0.21080 0.12398
# Poissons Ratio (z) = -0.08039 0.14844
#
# Static dielectric constant tensor:
#      x y z
#    x 3.414810 0.000000 0.000000 
#    y 0.000000 4.080590 0.000000 
#    z 0.000000 0.000000 3.960980 
# 
# 
# High freq. dielectric constant tensor:
#      x y z
#    x 1.805270 0.000000 0.000000 
#    y 0.000000 1.852640 0.000000 
#    z 0.000000 0.000000 1.837050 
# 
# From -- ./inp_files/2445.got.cif
#   From: 2010.03.12/outbox.cif.g09.slc.cpg/sg44_2_cif.got.tgz:2445.got - 2010.04.14 02:36:11.
