data_PCOD8189040
_publ_section_title
;
Structure prediction by ZEFSAII (Michael W. Deem and Ramdas Pophale) SiO2 
 PCOD8189040
Probable space group: I M M 2
;
_chemical_formula_sum "Si O2"
_cell_formula_units_Z 64
_cell_length_a 18.078231
_cell_length_b 15.502564
_cell_length_c 11.623495
_cell_angle_alpha 90.000000
_cell_angle_beta 90.000000
_cell_angle_gamma 90.000000
_cell_volume 3257.588307
_symmetry_space_group_name_H-M "I M M 2"
_symmetry_group_IT_number 44
_symmetry_cell_setting 'orthorhombic'
loop_
_space_group_symop_operation_xyz
x,y,z
-x,-y,z
-x,y,z
x,-y,z
1/2+x,1/2+y,1/2+z
1/2-x,1/2-y,1/2+z
1/2-x,1/2+y,1/2+z
1/2+x,1/2-y,1/2+z
loop_
_atom_site_type_symbol
_atom_site_label
_atom_site_fract_x
_atom_site_fract_y
_atom_site_fract_z
Si Si1 0.915803 0.252828 0.940140
Si Si2 0.581221 0.817181 0.184881
Si Si3 0.794391 0.671648 0.102094
Si Si4 0.740127 0.857748 0.181706
Si Si5 0.917987 0.751084 0.443743
Si Si6 0.177496 0.093874 0.967529
Si Si7 0.310217 0.401321 0.916712
Si Si8 0.676884 0.899924 0.839925
O O1 0.905824 0.269611 0.805293
O O2 0.893887 0.153938 0.962111
O O3 0.000000 0.267734 0.980326
O O4 0.862549 0.312366 0.015963
O O5 0.500000 0.865178 0.185929
O O6 0.652386 0.878306 0.162860
O O7 0.580447 0.747072 0.082472
O O8 0.758935 0.757849 0.155672
O O9 0.825757 0.611817 0.203034
O O10 0.731295 0.619967 0.034958
O O11 0.755409 0.885424 0.311236
O O12 0.788981 0.914483 0.095806
O O13 0.878610 0.836947 0.398055
O O14 0.881775 0.662168 0.400594
O O15 0.000000 0.753477 0.391519
O O16 0.242204 0.129296 0.884490
O O17 0.150731 0.000000 0.927553
O O18 0.338252 0.500000 0.920039
O O19 0.660138 0.000000 0.870980
#
# Coordination Sequence:
#
# PCOD8189040 Si02
#       8
#     8   8   8   8   8   8   8   8
#     4  10  21  37  60  85 115 159 199 240 301 361
#     4  10  19  35  63  88 111 150 197 242 301 362
#     4  11  21  37  61  89 118 157 201 251 301 358
#     4  11  19  38  64  84 119 158 205 246 298 352
#     4  11  23  41  62  88 123 161 197 249 310 364
#     4  10  21  36  57  87 120 152 197 251 293 347
#     4  12  24  39  64  93 121 163 207 251 302 365
#     4  11  22  39  63  91 117 154 204 254 304 363
#
# _framework density 19.646435
#
# number of rings (size 3 to 8) (size 9 to 14) (size 15 to 20)
#    0.000    1.250    5.000    2.250    0.000    1.250 
#    0.000    0.000    0.000    7.125    0.000    0.000 
#    0.000    0.000    0.000    0.000    0.000    0.000 
#
# Total GULP energy -396706.892918 kJ/mol
# GULP energy per Si atom -12397.090404 kJ/mol
# Density = 1.960172 g / cm^3
# Si number density = 19.646435 Si / 1000 Ang^3
#
#
#
# Elastic Constant Matrix: (Units=GPa)
#
#
# Indices 1 2 3 4 5 6 
#
# 1 101.0968 38.4659 18.2246 0.0000 0.0000 0.0000
# 2 38.4659 104.0057 22.9809 0.0000 0.0000 0.0000
# 3 18.2246 22.9809 94.2008 0.0000 0.0000 0.0000
# 4 0.0000 0.0000 0.0000 21.0595 0.0000 0.0000
# 5 0.0000 0.0000 0.0000 0.0000 28.0523 0.0000
# 6 0.0000 0.0000 0.0000 0.0000 0.0000 15.6785
#
#
#
# Elastic Compliance Matrix: (Units=1/GPa)
#
#
# Indices 1 2 3 4 5 6 
#
# 1 0.011654 -0.004029 -0.001272 0.000000 0.000000 0.000000
# 2 -0.004029 0.011556 -0.002040 0.000000 0.000000 0.000000
# 3 -0.001272 -0.002040 0.011359 0.000000 0.000000 0.000000
# 4 0.000000 0.000000 0.000000 0.047485 0.000000 0.000000
# 5 0.000000 0.000000 0.000000 0.000000 0.035648 0.000000
# 6 0.000000 0.000000 0.000000 0.000000 0.000000 0.063782
#
#
# Mechanical properties :
#
#
# Convention : Reuss Voigt Hill
#
# Bulk Modulus (GPa) = 50.28176 50.96068 50.62122
# Shear Modulus (GPa) = 24.65574 27.60018 26.12796
#
# Velocity S-wave (km/s) = 3.54640 3.75219 3.65075
# Velocity P-wave (km/s) = 6.51292 6.69082 6.60247
#
# Compressibility (1/GPa) = 0.01988793
#
# Stress axis : x y z
#
# Youngs Moduli (GPa) = 85.80914 86.53767 88.03423
#
# Poissons Ratio (x) = 0.34867 0.11195
# Poissons Ratio (y) = 0.34573 0.17955
# Poissons Ratio (z) = 0.10912 0.17650
#
# Static dielectric constant tensor:
#      x y z
#    x 3.677730 0.000000 0.000000 
#    y 0.000000 3.415590 0.000000 
#    z 0.000000 0.000000 3.735900 
# 
# 
# High freq. dielectric constant tensor:
#      x y z
#    x 1.761920 0.000000 0.000000 
#    y 0.000000 1.743840 0.000000 
#    z 0.000000 0.000000 1.781250 
# 
# From -- ./inp_files/13450.got.cif
#   From: 2010.03.12/outbox.cif.g09.slc.cpg/sg44_7_cif.got.tgz:13450.got - 2010.04.14 02:36:11.
