data_PCOD8189692
_publ_section_title
;
Structure prediction by ZEFSAII (Michael W. Deem and Ramdas Pophale) SiO2 
 PCOD8189692
Probable space group: I M M 2
;
_chemical_formula_sum "Si O2"
_cell_formula_units_Z 48
_cell_length_a 7.773793
_cell_length_b 18.162020
_cell_length_c 16.928068
_cell_angle_alpha 90.000000
_cell_angle_beta 90.000000
_cell_angle_gamma 90.000000
_cell_volume 2390.036407
_symmetry_space_group_name_H-M "I M M 2"
_symmetry_group_IT_number 44
_symmetry_cell_setting 'orthorhombic'
loop_
_space_group_symop_operation_xyz
x,y,z
-x,-y,z
-x,y,z
x,-y,z
1/2+x,1/2+y,1/2+z
1/2-x,1/2-y,1/2+z
1/2-x,1/2+y,1/2+z
1/2+x,1/2-y,1/2+z
loop_
_atom_site_type_symbol
_atom_site_label
_atom_site_fract_x
_atom_site_fract_y
_atom_site_fract_z
Si Si1 0.297423 0.339729 0.363000
Si Si2 0.805987 0.328487 0.843413
Si Si3 0.797462 0.081229 0.019971
Si Si4 0.810068 0.915572 0.486348
Si Si5 0.701715 0.584878 0.695006
Si Si6 0.500000 0.913132 0.767630
Si Si7 0.000000 0.587646 0.091333
O O1 0.500000 0.356479 0.346516
O O2 0.247524 0.256054 0.344989
O O3 0.246993 0.359132 0.453701
O O4 0.177423 0.388776 0.307871
O O5 0.795199 0.360762 0.755459
O O6 0.000000 0.334761 0.874377
O O7 0.687732 0.373718 0.903111
O O8 0.729211 0.104835 0.106790
O O9 0.000000 0.074221 0.027356
O O10 0.723787 0.000000 0.997089
O O11 0.670382 0.882483 0.546895
O O12 0.000000 0.907782 0.524410
O O13 0.765426 0.000000 0.467457
O O14 0.500000 0.598762 0.702484
O O15 0.746897 0.500000 0.714546
O O16 0.500000 0.879774 0.679244
O O17 0.500000 0.000000 0.765561
O O18 0.000000 0.500000 0.093906
#
# Coordination Sequence:
#
# PCOD8189692 Si02
#       7
#     8   8   8   8   8   4   4
#     4  10  23  41  59  89 124 156 197 248 306 362
#     4  11  22  36  54  85 126 163 198 241 297 363
#     4   8  15  34  61  83 109 148 196 247 295 348
#     4  10  20  36  61  88 118 160 202 245 299 357
#     4   9  18  33  57  87 115 154 204 246 293 354
#     4  11  24  42  68  91 112 156 206 252 304 354
#     4   9  20  40  60  89 119 144 202 258 293 354
#
# _framework density 20.083376000000001
#
# number of rings (size 3 to 8) (size 9 to 14) (size 15 to 20)
#    0.000    2.333    0.833    2.500    2.333    4.000 
#    4.500    1.667    0.000    0.000    0.000    0.000 
#    0.000    0.000    0.000    0.000    0.000    0.000 
#
# Total GULP energy -297542.116747 kJ/mol
# GULP energy per Si atom -12397.588198 kJ/mol
# Density = 2.003767 g / cm^3
# Si number density = 20.083376 Si / 1000 Ang^3
#
#
#
# Elastic Constant Matrix: (Units=GPa)
#
#
# Indices 1 2 3 4 5 6 
#
# 1 88.8534 30.8753 45.7694 0.0000 0.0000 0.0000
# 2 30.8753 96.5749 62.8264 0.0000 0.0000 0.0000
# 3 45.7694 62.8264 156.6876 0.0000 0.0000 0.0000
# 4 0.0000 0.0000 0.0000 20.2483 0.0000 0.0000
# 5 0.0000 0.0000 0.0000 0.0000 27.6419 0.0000
# 6 0.0000 0.0000 0.0000 0.0000 0.0000 23.8211
#
#
#
# Elastic Compliance Matrix: (Units=1/GPa)
#
#
# Indices 1 2 3 4 5 6 
#
# 1 0.013645 -0.002394 -0.003026 0.000000 0.000000 0.000000
# 2 -0.002394 0.014429 -0.005086 0.000000 0.000000 0.000000
# 3 -0.003026 -0.005086 0.009305 0.000000 0.000000 0.000000
# 4 0.000000 0.000000 0.000000 0.049387 0.000000 0.000000
# 5 0.000000 0.000000 0.000000 0.000000 0.036177 0.000000
# 6 0.000000 0.000000 0.000000 0.000000 0.000000 0.041980
#
#
# Mechanical properties :
#
#
# Convention : Reuss Voigt Hill
#
# Bulk Modulus (GPa) = 61.09759 69.00644 65.05201
# Shear Modulus (GPa) = 26.12465 27.85193 26.98829
#
# Velocity S-wave (km/s) = 3.61059 3.72804 3.66978
# Velocity P-wave (km/s) = 6.91880 7.27775 7.10054
#
# Compressibility (1/GPa) = 0.01636726
#
# Stress axis : x y z
#
# Youngs Moduli (GPa) = 73.28686 69.30587 107.46424
#
# Poissons Ratio (x) = 0.16591 0.32518
# Poissons Ratio (y) = 0.17544 0.54659
# Poissons Ratio (z) = 0.22176 0.35250
#
# Static dielectric constant tensor:
#      x y z
#    x 3.554710 0.000000 0.000000 
#    y 0.000000 3.513950 0.000000 
#    z 0.000000 0.000000 3.849650 
# 
# 
# High freq. dielectric constant tensor:
#      x y z
#    x 1.781640 0.000000 0.000000 
#    y 0.000000 1.765720 0.000000 
#    z 0.000000 0.000000 1.784620 
# 
# From -- ./inp_files/16184.got.cif
#   From: 2010.03.12/outbox.cif.g09.slc.cpg/sg44_9_cif.got.tgz:16184.got - 2010.04.14 02:36:11.
