data_PCOD8189561
_publ_section_title
;
Structure prediction by ZEFSAII (Michael W. Deem and Ramdas Pophale) SiO2 
 PCOD8189561
Probable space group: I M M 2
;
_chemical_formula_sum "Si O2"
_cell_formula_units_Z 48
_cell_length_a 13.447921
_cell_length_b 15.472966
_cell_length_c 11.224172
_cell_angle_alpha 90.000000
_cell_angle_beta 90.000000
_cell_angle_gamma 90.000000
_cell_volume 2335.517004
_symmetry_space_group_name_H-M "I M M 2"
_symmetry_group_IT_number 44
_symmetry_cell_setting 'orthorhombic'
loop_
_space_group_symop_operation_xyz
x,y,z
-x,-y,z
-x,y,z
x,-y,z
1/2+x,1/2+y,1/2+z
1/2-x,1/2-y,1/2+z
1/2-x,1/2+y,1/2+z
1/2+x,1/2-y,1/2+z
loop_
_atom_site_type_symbol
_atom_site_label
_atom_site_fract_x
_atom_site_fract_y
_atom_site_fract_z
Si Si1 0.892228 0.095802 0.460870
Si Si2 0.716019 0.900212 0.304286
Si Si3 0.281553 0.172190 0.055893
Si Si4 0.387968 0.736495 0.401310
Si Si5 0.884527 0.397754 0.322300
Si Si6 0.802448 0.843512 0.683517
O O1 0.816089 0.138662 0.366620
O O2 0.843450 0.085112 0.592790
O O3 0.000000 0.144137 0.462194
O O4 0.909769 0.000000 0.413267
O O5 0.728037 0.898632 0.161189
O O6 0.633117 0.834001 0.353323
O O7 0.692640 0.000000 0.342364
O O8 0.330024 0.256232 0.113207
O O9 0.174301 0.205518 0.014397
O O10 0.351904 0.137445 0.951236
O O11 0.500000 0.733615 0.443967
O O12 0.367096 0.662326 0.302995
O O13 0.869184 0.500000 0.322357
O O14 0.813945 0.357925 0.218405
O O15 0.000000 0.373308 0.297648
#
# Coordination Sequence:
#
# PCOD8189561 Si02
#       6
#     8   8   8   8   8   8
#     4  10  20  35  57  83 113 154 197 237 289 351
#     4  10  21  38  58  85 118 153 194 244 295 347
#     4  10  21  38  57  85 117 154 194 240 291 350
#     4  10  21  37  57  84 115 153 196 239 293 347
#     4  10  22  40  64  91 119 155 198 247 303 357
#     4  10  20  38  57  85 116 153 193 242 290 346
#
# _framework density 20.552194
#
# number of rings (size 3 to 8) (size 9 to 14) (size 15 to 20)
#    0.000    2.000    1.667    1.500    0.000    5.000 
#    0.000    0.000    0.000    9.500    0.000    0.000 
#    0.000    0.000    0.000    0.000    0.000    0.000 
#
# Total GULP energy -297339.050536 kJ/mol
# GULP energy per Si atom -12389.127106 kJ/mol
# Density = 2.050542 g / cm^3
# Si number density = 20.552194 Si / 1000 Ang^3
#
#
#
# Elastic Constant Matrix: (Units=GPa)
#
#
# Indices 1 2 3 4 5 6 
#
# 1 115.7381 11.1502 10.2692 0.0000 0.0000 0.0000
# 2 11.1502 59.7731 -3.5817 0.0000 0.0000 0.0000
# 3 10.2692 -3.5817 48.9268 0.0000 0.0000 0.0000
# 4 0.0000 0.0000 0.0000 25.6571 0.0000 0.0000
# 5 0.0000 0.0000 0.0000 0.0000 20.4729 0.0000
# 6 0.0000 0.0000 0.0000 0.0000 0.0000 25.3308
#
#
#
# Elastic Compliance Matrix: (Units=1/GPa)
#
#
# Indices 1 2 3 4 5 6 
#
# 1 0.008993 -0.001798 -0.002019 0.000000 0.000000 0.000000
# 2 -0.001798 0.017163 0.001634 0.000000 0.000000 0.000000
# 3 -0.002019 0.001634 0.020982 0.000000 0.000000 0.000000
# 4 0.000000 0.000000 0.000000 0.038976 0.000000 0.000000
# 5 0.000000 0.000000 0.000000 0.000000 0.048845 0.000000
# 6 0.000000 0.000000 0.000000 0.000000 0.000000 0.039478
#
#
# Mechanical properties :
#
#
# Convention : Reuss Voigt Hill
#
# Bulk Modulus (GPa) = 23.38051 28.90150 26.14100
# Shear Modulus (GPa) = 25.89860 28.06550 26.98205
#
# Velocity S-wave (km/s) = 3.55369 3.69937 3.62726
# Velocity P-wave (km/s) = 5.31405 5.68684 5.50361
#
# Compressibility (1/GPa) = 0.04277067
#
# Stress axis : x y z
#
# Youngs Moduli (GPa) = 111.20234 58.26374 47.65969
#
# Poissons Ratio (x) = 0.10479 0.09623
# Poissons Ratio (y) = 0.20000 -0.07787
# Poissons Ratio (z) = 0.22453 -0.09520
#
# Static dielectric constant tensor:
#      x y z
#    x 3.839910 0.000000 0.000000 
#    y 0.000000 3.690380 0.000000 
#    z 0.000000 0.000000 4.065490 
# 
# 
# High freq. dielectric constant tensor:
#      x y z
#    x 1.794700 0.000000 0.000000 
#    y 0.000000 1.799160 0.000000 
#    z 0.000000 0.000000 1.808060 
# 
# From -- ./inp_files/12275.got.cif
#   From: 2010.03.12/outbox.cif.g09.slc.cpg/sg44_7_cif.got.tgz:12275.got - 2010.04.14 02:36:11.
