data_PCOD8189620
_publ_section_title
;
Structure prediction by ZEFSAII (Michael W. Deem and Ramdas Pophale) SiO2 
 PCOD8189620
Probable space group: I M M 2
;
_chemical_formula_sum "Si O2"
_cell_formula_units_Z 56
_cell_length_a 8.690600
_cell_length_b 24.762087
_cell_length_c 14.308321
_cell_angle_alpha 90.000000
_cell_angle_beta 90.000000
_cell_angle_gamma 90.000000
_cell_volume 3079.113381
_symmetry_space_group_name_H-M "I M M 2"
_symmetry_group_IT_number 44
_symmetry_cell_setting 'orthorhombic'
loop_
_space_group_symop_operation_xyz
x,y,z
-x,-y,z
-x,y,z
x,-y,z
1/2+x,1/2+y,1/2+z
1/2-x,1/2-y,1/2+z
1/2-x,1/2+y,1/2+z
1/2+x,1/2-y,1/2+z
loop_
_atom_site_type_symbol
_atom_site_label
_atom_site_fract_x
_atom_site_fract_y
_atom_site_fract_z
Si Si1 0.827148 0.169484 0.990090
Si Si2 0.321114 0.280942 0.006027
Si Si3 0.682552 0.314440 0.806496
Si Si4 0.327162 0.400391 0.666333
Si Si5 0.818456 0.707852 0.204211
Si Si6 0.179081 0.500000 0.569312
Si Si7 0.317449 0.109052 0.829909
Si Si8 0.682248 0.500000 0.362802
O O1 0.755935 0.121125 0.930501
O O2 0.000000 0.184692 0.956978
O O3 0.712857 0.219382 0.979292
O O4 0.832098 0.149875 0.095894
O O5 0.500000 0.288011 0.027427
O O6 0.227583 0.298842 0.096556
O O7 0.268630 0.315754 0.915567
O O8 0.500000 0.309783 0.798143
O O9 0.736830 0.371416 0.760788
O O10 0.752969 0.261580 0.753027
O O11 0.500000 0.423887 0.679610
O O12 0.216796 0.447940 0.632600
O O13 0.759261 0.654283 0.257211
O O14 0.000000 0.710700 0.209844
O O15 0.270654 0.500000 0.472154
O O16 0.000000 0.500000 0.544568
O O17 0.500000 0.106482 0.837039
O O18 0.249926 0.050549 0.804809
O O19 0.500000 0.500000 0.358056
#
# Coordination Sequence:
#
# PCOD8189620 Si02
#       8
#     8   8   8   8   8   4   8   4
#     4  11  20  31  53  82 114 149 184 224 270 328
#     4  11  21  34  54  82 114 148 188 228 271 327
#     4   9  18  35  55  77 108 147 183 222 271 326
#     4  10  20  36  56  76 107 149 188 221 268 329
#     4  10  20  37  56  79 113 148 182 224 280 332
#     4  12  24  36  54  81 114 143 180 229 278 328
#     4  11  22  37  57  80 112 150 186 226 276 332
#     4  12  24  38  56  81 114 147 184 227 274 332
#
# _framework density 18.187052999999999
#
# number of rings (size 3 to 8) (size 9 to 14) (size 15 to 20)
#    0.000    1.429    4.286    2.571    0.000    1.714 
#    0.000    1.429    0.000    0.857    0.000    1.000 
#    0.000    0.000    0.000    0.000    0.000    0.000 
#
# Total GULP energy -347151.148956 kJ/mol
# GULP energy per Si atom -12398.255320 kJ/mol
# Density = 1.814566 g / cm^3
# Si number density = 18.187053 Si / 1000 Ang^3
#
#
#
# Elastic Constant Matrix: (Units=GPa)
#
#
# Indices 1 2 3 4 5 6 
#
# 1 45.5397 15.3862 11.7377 0.0000 0.0000 0.0000
# 2 15.3862 86.3107 32.8539 0.0002 0.0000 0.0000
# 3 11.7377 32.8539 78.3065 0.0004 0.0000 -0.0002
# 4 0.0000 0.0002 0.0004 28.2970 0.0000 -0.0001
# 5 0.0000 0.0000 0.0000 0.0000 25.7634 0.0000
# 6 0.0000 0.0000 -0.0002 -0.0001 0.0000 25.9937
#
#
#
# Elastic Compliance Matrix: (Units=1/GPa)
#
#
# Indices 1 2 3 4 5 6 
#
# 1 0.023657 -0.003412 -0.002114 0.000000 0.000000 0.000000
# 2 -0.003412 0.014280 -0.005480 0.000000 0.000000 0.000000
# 3 -0.002114 -0.005480 0.015386 0.000000 0.000000 0.000000
# 4 0.000000 0.000000 0.000000 0.035339 0.000000 0.000000
# 5 0.000000 0.000000 0.000000 0.000000 0.038815 0.000000
# 6 0.000000 0.000000 0.000000 0.000000 0.000000 0.038471
#
#
# Mechanical properties :
#
#
# Convention : Reuss Voigt Hill
#
# Bulk Modulus (GPa) = 31.93845 36.67917 34.30881
# Shear Modulus (GPa) = 25.20183 26.02275 25.61229
#
# Velocity S-wave (km/s) = 3.72654 3.78675 3.75676
# Velocity P-wave (km/s) = 6.00960 6.27143 6.14191
#
# Compressibility (1/GPa) = 0.03131022
#
# Stress axis : x y z
#
# Youngs Moduli (GPa) = 42.27127 70.02683 64.99259
#
# Poissons Ratio (x) = 0.23896 0.13742
# Poissons Ratio (y) = 0.14424 0.35615
# Poissons Ratio (z) = 0.08938 0.38374
#
# Static dielectric constant tensor:
#      x y z
#    x 3.215720 0.000000 0.000000 
#    y 0.000000 3.422860 0.000000 
#    z 0.000000 0.000000 3.419230 
# 
# 
# High freq. dielectric constant tensor:
#      x y z
#    x 1.695410 0.000000 0.000000 
#    y 0.000000 1.696870 0.000000 
#    z 0.000000 0.000000 1.692940 
# 
# From -- ./inp_files/16582.got.cif
#   From: 2010.03.12/outbox.cif.g09.slc.cpg/sg44_9_cif.got.tgz:16582.got - 2010.04.14 02:36:11.
