data_PCOD8189364
_publ_section_title
;
Structure prediction by ZEFSAII (Michael W. Deem and Ramdas Pophale) SiO2 
 PCOD8189364
Probable space group: I M M 2
;
_chemical_formula_sum "Si O2"
_cell_formula_units_Z 64
_cell_length_a 9.045907
_cell_length_b 19.682430
_cell_length_c 20.104755
_cell_angle_alpha 90.000000
_cell_angle_beta 90.000000
_cell_angle_gamma 90.000000
_cell_volume 3579.559775
_symmetry_space_group_name_H-M "I M M 2"
_symmetry_group_IT_number 44
_symmetry_cell_setting 'orthorhombic'
loop_
_space_group_symop_operation_xyz
x,y,z
-x,-y,z
-x,y,z
x,-y,z
1/2+x,1/2+y,1/2+z
1/2-x,1/2-y,1/2+z
1/2-x,1/2+y,1/2+z
1/2+x,1/2-y,1/2+z
loop_
_atom_site_type_symbol
_atom_site_label
_atom_site_fract_x
_atom_site_fract_y
_atom_site_fract_z
Si Si1 0.326711 0.828657 0.763990
Si Si2 0.172306 0.077840 0.508490
Si Si3 0.825151 0.825089 0.627573
Si Si4 0.669022 0.673757 0.772308
Si Si5 0.826129 0.577719 0.873970
Si Si6 0.830877 0.920460 0.867741
Si Si7 0.672030 0.315361 0.620374
Si Si8 0.674884 0.574582 0.517773
O O1 0.500000 0.834406 0.749866
O O2 0.243251 0.850048 0.696897
O O3 0.285796 0.751935 0.785422
O O4 0.279912 0.879313 0.821698
O O5 0.224123 0.121810 0.571252
O O6 0.256727 0.103691 0.442986
O O7 0.000000 0.087402 0.494322
O O8 0.212747 0.000000 0.524473
O O9 0.764336 0.752029 0.606668
O O10 0.000000 0.821688 0.635530
O O11 0.500000 0.660647 0.793289
O O12 0.772817 0.624539 0.813927
O O13 0.693810 0.656904 0.694818
O O14 0.777480 0.500000 0.859736
O O15 0.000000 0.584482 0.880135
O O16 0.783931 0.903001 0.943118
O O17 0.000000 0.898277 0.854169
O O18 0.811941 0.000000 0.853422
O O19 0.500000 0.299209 0.606920
O O20 0.737972 0.371581 0.570341
O O21 0.500000 0.570018 0.524632
O O22 0.742533 0.500000 0.533130
#
# Coordination Sequence:
#
# PCOD8189364 Si02
#       8
#     8   8   8   8   8   8   8   8
#     4  10  21  36  53  75 103 134 172 214 252 295
#     4   9  19  36  55  74  99 132 168 205 247 299
#     4  10  20  34  53  76 102 132 166 206 254 305
#     4   9  19  34  51  73 102 135 169 208 253 302
#     4  10  21  35  52  76 103 131 167 211 255 300
#     4   9  18  33  53  77 105 137 172 208 249 300
#     4   9  18  33  53  77 103 131 167 209 250 295
#     4   8  15  30  52  76 101 131 169 209 246 291
#
# _framework density 17.879294999999999
#
# number of rings (size 3 to 8) (size 9 to 14) (size 15 to 20)
#    0.000    2.750    0.000    2.625    0.000    6.500 
#    0.000    5.625    0.000    1.125    0.000    0.000 
#    0.000    0.000    0.000    0.000    0.000    0.000 
#
# Total GULP energy -396826.695716 kJ/mol
# GULP energy per Si atom -12400.834241 kJ/mol
# Density = 1.783860 g / cm^3
# Si number density = 17.879295 Si / 1000 Ang^3
#
#
#
# Elastic Constant Matrix: (Units=GPa)
#
#
# Indices 1 2 3 4 5 6 
#
# 1 56.1541 36.7045 44.6353 0.0000 0.0000 0.0000
# 2 36.7045 87.8027 79.6067 0.0000 0.0000 0.0000
# 3 44.6353 79.6067 125.9381 0.0000 0.0000 0.0000
# 4 0.0000 0.0000 0.0000 36.0990 0.0000 0.0000
# 5 0.0000 0.0000 0.0000 0.0000 27.5905 0.0000
# 6 0.0000 0.0000 0.0000 0.0000 0.0000 29.8728
#
#
#
# Elastic Compliance Matrix: (Units=1/GPa)
#
#
# Indices 1 2 3 4 5 6 
#
# 1 0.026034 -0.005897 -0.005500 0.000000 0.000000 0.000000
# 2 -0.005897 0.028015 -0.015618 0.000000 0.000000 0.000000
# 3 -0.005500 -0.015618 0.019762 0.000000 0.000000 0.000000
# 4 0.000000 0.000000 0.000000 0.027702 0.000000 0.000000
# 5 0.000000 0.000000 0.000000 0.000000 0.036244 0.000000
# 6 0.000000 0.000000 0.000000 0.000000 0.000000 0.033475
#
#
# Mechanical properties :
#
#
# Convention : Reuss Voigt Hill
#
# Bulk Modulus (GPa) = 50.55306 65.75421 58.15364
# Shear Modulus (GPa) = 21.56512 25.97569 23.77040
#
# Velocity S-wave (km/s) = 3.47674 3.81574 3.65018
# Velocity P-wave (km/s) = 6.66730 7.50132 7.09657
#
# Compressibility (1/GPa) = 0.01978119
#
# Stress axis : x y z
#
# Youngs Moduli (GPa) = 38.41124 35.69539 50.60167
#
# Poissons Ratio (x) = 0.21049 0.27829
# Poissons Ratio (y) = 0.22651 0.79032
# Poissons Ratio (z) = 0.21125 0.55751
#
# Static dielectric constant tensor:
#      x y z
#    x 3.147700 0.000000 0.000000 
#    y 0.000000 3.463270 0.000000 
#    z 0.000000 0.000000 3.385970 
# 
# 
# High freq. dielectric constant tensor:
#      x y z
#    x 1.680390 0.000000 0.000000 
#    y 0.000000 1.691430 0.000000 
#    z 0.000000 0.000000 1.697730 
# 
# From -- ./inp_files/23258.got.cif
#   From: 2010.03.12/outbox.cif.g09.slc.cpg/sg44_12_cif.got.tgz:23258.got - 2010.04.14 02:36:11.
