data_PCOD8189122
_publ_section_title
;
Structure prediction by ZEFSAII (Michael W. Deem and Ramdas Pophale) SiO2 
 PCOD8189122
Probable space group: I M M 2
;
_chemical_formula_sum "Si O2"
_cell_formula_units_Z 48
_cell_length_a 7.944219
_cell_length_b 8.798708
_cell_length_c 34.378205
_cell_angle_alpha 90.000000
_cell_angle_beta 90.000000
_cell_angle_gamma 90.000000
_cell_volume 2402.997451
_symmetry_space_group_name_H-M "I M M 2"
_symmetry_group_IT_number 44
_symmetry_cell_setting 'orthorhombic'
loop_
_space_group_symop_operation_xyz
x,y,z
-x,-y,z
-x,y,z
x,-y,z
1/2+x,1/2+y,1/2+z
1/2-x,1/2-y,1/2+z
1/2-x,1/2+y,1/2+z
1/2+x,1/2-y,1/2+z
loop_
_atom_site_type_symbol
_atom_site_label
_atom_site_fract_x
_atom_site_fract_y
_atom_site_fract_z
Si Si1 0.000000 0.319843 0.564020
Si Si2 0.194782 0.827923 0.937131
Si Si3 0.692070 0.668272 0.861848
Si Si4 0.000000 0.680793 0.652650
Si Si5 0.185514 0.819062 0.201412
Si Si6 0.693740 0.178903 0.517599
Si Si7 0.191703 0.325856 0.781697
O O1 0.827026 0.258689 0.545687
O O2 0.000000 0.500000 0.560120
O O3 0.000000 0.263477 0.608393
O O4 0.293151 0.773209 0.899408
O O5 0.000000 0.815043 0.927004
O O6 0.247940 0.000000 0.947124
O O7 0.242292 0.723737 0.973719
O O8 0.500000 0.650662 0.850752
O O9 0.770700 0.500000 0.870390
O O10 0.776977 0.750016 0.824045
O O11 0.831213 0.746648 0.673297
O O12 0.000000 0.500000 0.654747
O O13 0.205269 0.754218 0.245511
O O14 0.000000 0.771573 0.185742
O O15 0.204360 0.000000 0.203095
O O16 0.500000 0.230364 0.527001
O O17 0.712722 0.000000 0.522289
O O18 0.246958 0.500000 0.787465
O O19 0.000000 0.309775 0.768986
#
# Coordination Sequence:
#
# PCOD8189122 Si02
#       7
#     4   8   8   4   8   8   8
#     4  11  23  37  59  89 123 157 191 239 299 365
#     4  10  21  37  56  78 106 142 184 231 287 346
#     4  10  20  31  46  74 109 145 186 230 276 330
#     4   9  18  31  45  73 111 147 185 225 281 345
#     4   9  15  25  43  67 101 144 185 226 273 329
#     4  10  22  41  64  87 113 150 196 245 294 348
#     4   9  15  25  43  67 100 141 185 230 274 321
#
# _framework density 19.975052000000002
#
# number of rings (size 3 to 8) (size 9 to 14) (size 15 to 20)
#    0.000    2.333    0.833    2.250    1.167    5.667 
#    0.000    1.667    0.000    0.000    0.000    2.333 
#    0.000    2.667    0.000    0.000    0.000    0.000 
#
# Total GULP energy -297476.147963 kJ/mol
# GULP energy per Si atom -12394.839498 kJ/mol
# Density = 1.992959 g / cm^3
# Si number density = 19.975052 Si / 1000 Ang^3
#
#
#
# Elastic Constant Matrix: (Units=GPa)
#
#
# Indices 1 2 3 4 5 6 
#
# 1 126.3220 25.3639 77.9305 0.0000 0.0000 0.0000
# 2 25.3639 47.2037 26.1217 0.0000 0.0000 0.0000
# 3 77.9305 26.1217 156.1702 0.0000 0.0000 0.0000
# 4 0.0000 0.0000 0.0000 16.5678 0.0000 0.0000
# 5 0.0000 0.0000 0.0000 0.0000 32.7374 0.0000
# 6 0.0000 0.0000 0.0000 0.0000 0.0000 19.6549
#
#
#
# Elastic Compliance Matrix: (Units=1/GPa)
#
#
# Indices 1 2 3 4 5 6 
#
# 1 0.011921 -0.003431 -0.005375 0.000000 0.000000 0.000000
# 2 -0.003431 0.024333 -0.002358 0.000000 0.000000 0.000000
# 3 -0.005375 -0.002358 0.009480 0.000000 0.000000 0.000000
# 4 0.000000 0.000000 0.000000 0.060358 0.000000 0.000000
# 5 0.000000 0.000000 0.000000 0.000000 0.030546 0.000000
# 6 0.000000 0.000000 0.000000 0.000000 0.000000 0.050878
#
#
# Mechanical properties :
#
#
# Convention : Reuss Voigt Hill
#
# Bulk Modulus (GPa) = 42.72356 65.39201 54.05779
# Shear Modulus (GPa) = 22.97308 27.14399 25.05854
#
# Velocity S-wave (km/s) = 3.39497 3.69032 3.54572
# Velocity P-wave (km/s) = 6.06652 7.13904 6.62452
#
# Compressibility (1/GPa) = 0.02340629
#
# Stress axis : x y z
#
# Youngs Moduli (GPa) = 83.88524 41.09599 105.48806
#
# Poissons Ratio (x) = 0.14101 0.56698
# Poissons Ratio (y) = 0.28783 0.24873
# Poissons Ratio (z) = 0.45087 0.09690
#
# Static dielectric constant tensor:
#      x y z
#    x 3.740110 0.000000 0.000000 
#    y 0.000000 3.176350 0.000000 
#    z 0.000000 0.000000 3.698880 
# 
# 
# High freq. dielectric constant tensor:
#      x y z
#    x 1.790790 0.000000 0.000000 
#    y 0.000000 1.723320 0.000000 
#    z 0.000000 0.000000 1.785430 
# 
# From -- ./inp_files/26875.got.cif
#   From: 2010.03.12/outbox.cif.g09.slc.cpg/sg44_14_cif.got.tgz:26875.got - 2010.04.14 02:36:11.
