data_PCOD8189640
_publ_section_title
;
Structure prediction by ZEFSAII (Michael W. Deem and Ramdas Pophale) SiO2 
 PCOD8189640
Probable space group: I M M 2
;
_chemical_formula_sum "Si O2"
_cell_formula_units_Z 64
_cell_length_a 24.706456
_cell_length_b 8.626696
_cell_length_c 15.070317
_cell_angle_alpha 90.000000
_cell_angle_beta 90.000000
_cell_angle_gamma 90.000000
_cell_volume 3212.013297
_symmetry_space_group_name_H-M "I M M 2"
_symmetry_group_IT_number 44
_symmetry_cell_setting 'orthorhombic'
loop_
_space_group_symop_operation_xyz
x,y,z
-x,-y,z
-x,y,z
x,-y,z
1/2+x,1/2+y,1/2+z
1/2-x,1/2-y,1/2+z
1/2-x,1/2+y,1/2+z
1/2+x,1/2-y,1/2+z
loop_
_atom_site_type_symbol
_atom_site_label
_atom_site_fract_x
_atom_site_fract_y
_atom_site_fract_z
Si Si1 0.358907 0.818927 0.099170
Si Si2 0.235737 0.822685 0.499602
Si Si3 0.857339 0.680783 0.964173
Si Si4 0.223657 0.178556 0.295771
Si Si5 0.561748 0.322533 0.598358
Si Si6 0.664038 0.319789 0.277897
Si Si7 0.387073 0.181466 0.765004
Si Si8 0.439199 0.815608 0.947044
O O1 0.369663 0.728775 0.190816
O O2 0.366135 0.000000 0.116410
O O3 0.298212 0.787952 0.063880
O O4 0.402438 0.754947 0.028109
O O5 0.298957 0.779216 0.506561
O O6 0.215294 0.793746 0.400046
O O7 0.225899 0.000000 0.528277
O O8 0.870117 0.500000 0.974188
O O9 0.858515 0.723234 0.860698
O O10 0.902314 0.779237 0.013967
O O11 0.273133 0.280769 0.259817
O O12 0.169391 0.231862 0.246611
O O13 0.236823 0.000000 0.274777
O O14 0.500000 0.294986 0.570067
O O15 0.572591 0.500000 0.625040
O O16 0.574246 0.214416 0.682291
O O17 0.656645 0.500000 0.297712
O O18 0.415204 0.246443 0.854154
O O19 0.375488 0.000000 0.772953
O O20 0.500000 0.750579 0.958971
O O21 0.439534 0.000000 0.945415
#
# Coordination Sequence:
#
# PCOD8189640 Si02
#       8
#     8   8   8   8   8   8   8   8
#     4  11  21  35  58  87 120 160 204 247 297 355
#     4   9  19  35  56  84 119 153 190 241 297 358
#     4  10  22  42  65  89 117 154 202 253 308 363
#     4  10  20  36  57  85 122 159 198 243 296 359
#     4  11  25  43  62  88 122 160 203 252 306 362
#     4  11  23  39  60  86 122 160 199 249 308 365
#     4  11  21  36  60  90 122 160 203 246 300 359
#     4   9  19  36  58  86 120 157 200 247 291 344
#
# _framework density 19.925197000000001
#
# number of rings (size 3 to 8) (size 9 to 14) (size 15 to 20)
#    0.000    1.750    1.250    4.125    1.750    4.000 
#    0.000    0.625    0.000    6.000    0.000    0.000 
#    0.000    0.000    0.000    0.000    0.000    0.000 
#
# Total GULP energy -396958.719503 kJ/mol
# GULP energy per Si atom -12404.959984 kJ/mol
# Density = 1.987985 g / cm^3
# Si number density = 19.925197 Si / 1000 Ang^3
#
#
#
# Elastic Constant Matrix: (Units=GPa)
#
#
# Indices 1 2 3 4 5 6 
#
# 1 107.0410 17.7988 49.5439 0.0000 0.0000 0.0000
# 2 17.7988 53.2224 9.4941 0.0000 0.0000 0.0000
# 3 49.5439 9.4941 98.5377 0.0000 0.0000 0.0000
# 4 0.0000 0.0000 0.0000 32.2637 0.0000 0.0000
# 5 0.0000 0.0000 0.0000 0.0000 29.2432 0.0000
# 6 0.0000 0.0000 0.0000 0.0000 0.0000 25.8484
#
#
#
# Elastic Compliance Matrix: (Units=1/GPa)
#
#
# Indices 1 2 3 4 5 6 
#
# 1 0.012676 -0.003157 -0.006069 0.000000 0.000000 0.000000
# 2 -0.003157 0.019904 -0.000331 0.000000 0.000000 0.000000
# 3 -0.006069 -0.000331 0.013232 0.000000 0.000000 0.000000
# 4 0.000000 0.000000 0.000000 0.030995 0.000000 0.000000
# 5 0.000000 0.000000 0.000000 0.000000 0.034196 0.000000
# 6 0.000000 0.000000 0.000000 0.000000 0.000000 0.038687
#
#
# Mechanical properties :
#
#
# Convention : Reuss Voigt Hill
#
# Bulk Modulus (GPa) = 37.45498 45.83051 41.64274
# Shear Modulus (GPa) = 28.13694 29.60201 28.86948
#
# Velocity S-wave (km/s) = 3.76191 3.85860 3.81056
# Velocity P-wave (km/s) = 6.14067 6.55004 6.34865
#
# Compressibility (1/GPa) = 0.02669872
#
# Stress axis : x y z
#
# Youngs Moduli (GPa) = 78.88730 50.24199 75.57490
#
# Poissons Ratio (x) = 0.15859 0.45870
# Poissons Ratio (y) = 0.24901 0.02499
# Poissons Ratio (z) = 0.47880 0.01661
#
# Static dielectric constant tensor:
#      x y z
#    x 3.606310 0.000000 0.000000 
#    y 0.000000 3.490780 0.000000 
#    z 0.000000 0.000000 3.601330 
# 
# 
# High freq. dielectric constant tensor:
#      x y z
#    x 1.767070 0.000000 0.000000 
#    y 0.000000 1.771390 0.000000 
#    z 0.000000 0.000000 1.780250 
# 
# From -- ./inp_files/16775.got.cif
#   From: 2010.03.12/outbox.cif.g09.slc.cpg/sg44_9_cif.got.tgz:16775.got - 2010.04.14 02:36:11.
