data_PCOD8189002
_publ_section_title
;
Structure prediction by ZEFSAII (Michael W. Deem and Ramdas Pophale) SiO2 
 PCOD8189002
Probable space group: I M M 2
;
_chemical_formula_sum "Si O2"
_cell_formula_units_Z 64
_cell_length_a 27.492478
_cell_length_b 8.643182
_cell_length_c 13.205767
_cell_angle_alpha 90.000000
_cell_angle_beta 90.000000
_cell_angle_gamma 90.000000
_cell_volume 3137.987250
_symmetry_space_group_name_H-M "I M M 2"
_symmetry_group_IT_number 44
_symmetry_cell_setting 'orthorhombic'
loop_
_space_group_symop_operation_xyz
x,y,z
-x,-y,z
-x,y,z
x,-y,z
1/2+x,1/2+y,1/2+z
1/2-x,1/2-y,1/2+z
1/2-x,1/2+y,1/2+z
1/2+x,1/2-y,1/2+z
loop_
_atom_site_type_symbol
_atom_site_label
_atom_site_fract_x
_atom_site_fract_y
_atom_site_fract_z
Si Si1 0.054589 0.316372 0.856980
Si Si2 0.378096 0.815457 0.176287
Si Si3 0.697437 0.681113 0.533374
Si Si4 0.769177 0.175555 0.402788
Si Si5 0.623574 0.683781 0.959815
Si Si6 0.905551 0.681912 0.068335
Si Si7 0.943816 0.317322 0.283887
Si Si8 0.771069 0.675616 0.692263
O O1 0.059979 0.500000 0.861459
O O2 0.087657 0.249647 0.766012
O O3 0.000000 0.263967 0.833053
O O4 0.069440 0.247278 0.967170
O O5 0.324398 0.748839 0.204427
O O6 0.381896 0.000000 0.172806
O O7 0.394855 0.750202 0.067206
O O8 0.686421 0.500000 0.547646
O O9 0.720678 0.721790 0.425283
O O10 0.650769 0.778282 0.562001
O O11 0.741792 0.750725 0.600253
O O12 0.821093 0.243468 0.439721
O O13 0.767707 0.184181 0.282236
O O14 0.762009 0.000000 0.441242
O O15 0.622428 0.500000 0.961355
O O16 0.588392 0.739840 0.870695
O O17 0.913307 0.500000 0.068490
O O18 0.928450 0.747979 0.172620
O O19 0.935320 0.500000 0.288893
O O20 0.000000 0.274002 0.302620
O O21 0.782703 0.500000 0.663430
#
# Coordination Sequence:
#
# PCOD8189002 Si02
#       8
#     8   8   8   8   8   8   8   8
#     4   9  18  34  60  89 112 144 192 244 296 347
#     4  10  19  35  58  82 115 154 197 242 285 341
#     4  11  21  34  54  82 115 150 187 226 278 341
#     4  10  20  36  56  79 111 152 194 233 278 338
#     4  11  23  38  58  85 122 160 195 241 295 351
#     4  10  20  37  61  88 119 149 188 243 299 355
#     4  10  22  40  63  89 116 152 200 251 298 350
#     4   9  18  33  53  76 107 148 188 230 279 329
#
# _framework density 20.395239
#
# number of rings (size 3 to 8) (size 9 to 14) (size 15 to 20)
#    0.000    2.000    1.250    2.625    0.000    6.250 
#    0.000    5.000    0.000    1.875    0.000    0.000 
#    0.000    0.000    0.000    0.000    0.000    0.000 
#
# Total GULP energy -396584.478069 kJ/mol
# GULP energy per Si atom -12393.264940 kJ/mol
# Density = 2.034882 g / cm^3
# Si number density = 20.395239 Si / 1000 Ang^3
#
#
#
# Elastic Constant Matrix: (Units=GPa)
#
#
# Indices 1 2 3 4 5 6 
#
# 1 126.9348 10.1175 59.8235 0.0000 0.0000 0.0000
# 2 10.1175 19.2856 22.0764 0.0000 0.0000 0.0000
# 3 59.8235 22.0764 139.8557 0.0000 0.0000 0.0000
# 4 0.0000 0.0000 0.0000 16.8219 0.0000 0.0000
# 5 0.0000 0.0000 0.0000 0.0000 36.5648 0.0000
# 6 0.0000 0.0000 0.0000 0.0000 0.0000 25.9666
#
#
#
# Elastic Compliance Matrix: (Units=1/GPa)
#
#
# Indices 1 2 3 4 5 6 
#
# 1 0.009870 -0.000421 -0.004155 0.000000 0.000000 0.000000
# 2 -0.000421 0.063306 -0.009813 0.000000 0.000000 0.000000
# 3 -0.004155 -0.009813 0.010477 0.000000 0.000000 0.000000
# 4 0.000000 0.000000 0.000000 0.059446 0.000000 0.000000
# 5 0.000000 0.000000 0.000000 0.000000 0.027349 0.000000
# 6 0.000000 0.000000 0.000000 0.000000 0.000000 0.038511
#
#
# Mechanical properties :
#
#
# Convention : Reuss Voigt Hill
#
# Bulk Modulus (GPa) = 18.22360 52.23455 35.22907
# Shear Modulus (GPa) = 19.52904 28.80790 24.16847
#
# Velocity S-wave (km/s) = 3.09775 3.76238 3.44613
# Velocity P-wave (km/s) = 4.66362 6.67388 5.75717
#
# Compressibility (1/GPa) = 0.05487391
#
# Stress axis : x y z
#
# Youngs Moduli (GPa) = 101.31644 15.79631 95.45008
#
# Poissons Ratio (x) = 0.00665 0.39664
# Poissons Ratio (y) = 0.04267 0.93663
# Poissons Ratio (z) = 0.42102 0.15501
#
# Static dielectric constant tensor:
#      x y z
#    x 3.844500 0.000000 0.000000 
#    y 0.000000 3.305970 0.000000 
#    z 0.000000 0.000000 3.906880 
# 
# 
# High freq. dielectric constant tensor:
#      x y z
#    x 1.804050 0.000000 0.000000 
#    y 0.000000 1.755790 0.000000 
#    z 0.000000 0.000000 1.814150 
# 
# From -- ./inp_files/15031.got.cif
#   From: 2010.03.12/outbox.cif.g09.slc.cpg/sg44_8_cif.got.tgz:15031.got - 2010.04.14 02:36:11.
