data_PCOD8189312
_publ_section_title
;
Structure prediction by ZEFSAII (Michael W. Deem and Ramdas Pophale) SiO2 
 PCOD8189312
Probable space group: I M M 2
;
_chemical_formula_sum "Si O2"
_cell_formula_units_Z 64
_cell_length_a 19.414861
_cell_length_b 8.936676
_cell_length_c 20.449218
_cell_angle_alpha 90.000000
_cell_angle_beta 90.000000
_cell_angle_gamma 90.000000
_cell_volume 3548.027712
_symmetry_space_group_name_H-M "I M M 2"
_symmetry_group_IT_number 44
_symmetry_cell_setting 'orthorhombic'
loop_
_space_group_symop_operation_xyz
x,y,z
-x,-y,z
-x,y,z
x,-y,z
1/2+x,1/2+y,1/2+z
1/2-x,1/2-y,1/2+z
1/2-x,1/2+y,1/2+z
1/2+x,1/2-y,1/2+z
loop_
_atom_site_type_symbol
_atom_site_label
_atom_site_fract_x
_atom_site_fract_y
_atom_site_fract_z
Si Si1 0.577913 0.172028 0.373670
Si Si2 0.791863 0.828982 0.071595
Si Si3 0.792358 0.828246 0.219655
Si Si4 0.075997 0.169779 0.399596
Si Si5 0.717285 0.672959 0.956469
Si Si6 0.577648 0.172023 0.526187
Si Si7 0.790031 0.823332 0.833509
Si Si8 0.578014 0.173798 0.765162
O O1 0.500000 0.224824 0.358648
O O2 0.594789 0.191482 0.449972
O O3 0.630156 0.273490 0.332303
O O4 0.587380 0.000000 0.352929
O O5 0.765144 0.811603 0.145695
O O6 0.870330 0.772313 0.067457
O O7 0.790019 0.000000 0.048542
O O8 0.741561 0.734746 0.025770
O O9 0.744824 0.731026 0.266863
O O10 0.870845 0.769730 0.220648
O O11 0.790522 0.000000 0.242893
O O12 0.134607 0.196737 0.453933
O O13 0.089170 0.283005 0.340547
O O14 0.000000 0.197833 0.430565
O O15 0.081375 0.000000 0.372372
O O16 0.738381 0.500000 0.951859
O O17 0.752394 0.755239 0.896053
O O18 0.500000 0.225682 0.541217
O O19 0.586541 0.000000 0.547158
O O20 0.784936 0.000000 0.837308
O O21 0.500000 0.208719 0.742729
O O22 0.595742 0.000000 0.757422
#
# Coordination Sequence:
#
# PCOD8189312 Si02
#       8
#     8   8   8   8   8   8   8   8
#     4   9  18  34  57  84 113 146 182 221 272 332
#     4  11  24  38  54  79 110 146 190 234 274 323
#     4  11  24  40  55  75 109 152 192 230 278 331
#     4   9  18  33  55  82 110 142 179 220 269 328
#     4  11  21  35  58  83 111 146 182 224 277 334
#     4   9  18  33  54  79 109 147 185 220 268 331
#     4  12  23  35  57  86 113 142 184 235 279 323
#     4  10  20  33  52  80 111 144 183 227 274 326
#
# _framework density 18.038191000000001
#
# number of rings (size 3 to 8) (size 9 to 14) (size 15 to 20)
#    0.000    1.750    2.500    3.375    0.000    4.250 
#    0.000    3.750    0.000    0.750    0.000    3.500 
#    0.000    0.000    0.000    0.000    0.000    0.000 
#
# Total GULP energy -396840.499588 kJ/mol
# GULP energy per Si atom -12401.265612 kJ/mol
# Density = 1.799714 g / cm^3
# Si number density = 18.038191 Si / 1000 Ang^3
#
#
#
# Elastic Constant Matrix: (Units=GPa)
#
#
# Indices 1 2 3 4 5 6 
#
# 1 107.5468 52.8956 47.4519 0.0000 0.0000 0.0000
# 2 52.8956 118.0274 47.6141 0.0000 0.0000 0.0000
# 3 47.4519 47.6141 77.8316 0.0000 0.0000 0.0000
# 4 0.0000 0.0000 0.0000 26.8221 0.0000 0.0000
# 5 0.0000 0.0000 0.0000 0.0000 24.3456 0.0000
# 6 0.0000 0.0000 0.0000 0.0000 0.0000 26.0435
#
#
#
# Elastic Compliance Matrix: (Units=1/GPa)
#
#
# Indices 1 2 3 4 5 6 
#
# 1 0.013849 -0.003718 -0.006169 0.000000 0.000000 0.000000
# 2 -0.003718 0.012247 -0.005225 0.000000 0.000000 0.000000
# 3 -0.006169 -0.005225 0.019806 0.000000 0.000000 0.000000
# 4 0.000000 0.000000 0.000000 0.037283 0.000000 0.000000
# 5 0.000000 0.000000 0.000000 0.000000 0.041075 0.000000
# 6 0.000000 0.000000 0.000000 0.000000 0.000000 0.038397
#
#
# Mechanical properties :
#
#
# Convention : Reuss Voigt Hill
#
# Bulk Modulus (GPa) = 63.78648 66.59215 65.18931
# Shear Modulus (GPa) = 25.23900 25.80520 25.52210
#
# Velocity S-wave (km/s) = 3.74464 3.78641 3.76559
# Velocity P-wave (km/s) = 7.35766 7.49088 7.42457
#
# Compressibility (1/GPa) = 0.01567730
#
# Stress axis : x y z
#
# Youngs Moduli (GPa) = 72.20923 81.65366 50.49024
#
# Poissons Ratio (x) = 0.30358 0.31146
# Poissons Ratio (y) = 0.26847 0.26383
# Poissons Ratio (z) = 0.44544 0.42667
#
# Static dielectric constant tensor:
#      x y z
#    x 3.581340 0.000000 0.000000 
#    y 0.000000 3.398410 0.000000 
#    z 0.000000 0.000000 3.046150 
# 
# 
# High freq. dielectric constant tensor:
#      x y z
#    x 1.705780 0.000000 0.000000 
#    y 0.000000 1.706460 0.000000 
#    z 0.000000 0.000000 1.667230 
# 
# From -- ./inp_files/20799.got.cif
#   From: 2010.03.12/outbox.cif.g09.slc.cpg/sg44_11_cif.got.tgz:20799.got - 2010.04.14 02:36:11.
