data_PCOD8189828
_publ_section_title
;
Structure prediction by ZEFSAII (Michael W. Deem and Ramdas Pophale) SiO2 
 PCOD8189828
Probable space group: I M M 2
;
_chemical_formula_sum "Si O2"
_cell_formula_units_Z 64
_cell_length_a 15.898291
_cell_length_b 18.444559
_cell_length_c 11.812911
_cell_angle_alpha 90.000000
_cell_angle_beta 90.000000
_cell_angle_gamma 90.000000
_cell_volume 3463.982185
_symmetry_space_group_name_H-M "I M M 2"
_symmetry_group_IT_number 44
_symmetry_cell_setting 'orthorhombic'
loop_
_space_group_symop_operation_xyz
x,y,z
-x,-y,z
-x,y,z
x,-y,z
1/2+x,1/2+y,1/2+z
1/2-x,1/2-y,1/2+z
1/2-x,1/2+y,1/2+z
1/2+x,1/2-y,1/2+z
loop_
_atom_site_type_symbol
_atom_site_label
_atom_site_fract_x
_atom_site_fract_y
_atom_site_fract_z
Si Si1 0.596961 0.710025 0.390760
Si Si2 0.802268 0.582698 0.112560
Si Si3 0.697729 0.917302 0.168958
Si Si4 0.825370 0.806516 0.129053
Si Si5 0.095245 0.690245 0.262918
Si Si6 0.595245 0.809756 0.018596
Si Si7 0.402911 0.117842 0.390762
Si Si8 0.674630 0.306514 0.152463
O O1 0.500000 0.684247 0.390755
O O2 0.644415 0.679427 0.500880
O O3 0.603009 0.796235 0.390769
O O4 0.644418 0.679434 0.280638
O O5 0.791367 0.500000 0.150513
O O6 0.848545 0.626850 0.210953
O O7 0.708608 0.617886 0.098995
O O8 0.856339 0.585961 0.998996
O O9 0.791389 0.882114 0.182525
O O10 0.651456 0.873151 0.070560
O O11 0.643654 0.914032 0.282517
O O12 0.708629 0.000000 0.131010
O O13 0.899816 0.768576 0.200183
O O14 0.750000 0.750000 0.140754
O O15 0.125540 0.702135 0.390757
O O16 0.000000 0.663062 0.255121
O O17 0.500000 0.836939 0.026391
O O18 0.600182 0.731426 0.081334
O O19 0.500000 0.092276 0.390765
#
# Coordination Sequence:
#
# PCOD8189828 Si02
#       8
#     8   8   8   8   8   8   8   8
#     4  11  20  37  63  87 107 144 195 244 282 319
#     4  11  24  36  54  83 118 152 181 223 282 337
#     4  11  24  36  54  83 118 152 181 223 282 337
#     4  10  21  34  59  80 113 144 188 232 275 326
#     4  10  21  36  57  82 108 144 186 227 274 329
#     4  10  21  36  57  82 108 144 186 227 274 329
#     4  11  21  36  59  87 116 147 187 230 277 339
#     4  10  21  34  59  80 113 144 188 232 275 326
#
# _framework density 18.475846000000001
#
# number of rings (size 3 to 8) (size 9 to 14) (size 15 to 20)
#    0.000    1.500    5.000    1.875    8.750    3.000 
#    0.000    1.250    0.000    3.750    0.000    1.750 
#    0.000    0.000    0.000    0.000    0.000    0.000 
#
# Total GULP energy -396690.768800 kJ/mol
# GULP energy per Si atom -12396.586525 kJ/mol
# Density = 1.843379 g / cm^3
# Si number density = 18.475846 Si / 1000 Ang^3
#
#
#
# Elastic Constant Matrix: (Units=GPa)
#
#
# Indices 1 2 3 4 5 6 
#
# 1 71.9780 42.4959 33.6915 0.0000 0.0000 0.0000
# 2 42.4959 123.0663 41.7782 0.0000 0.0000 0.0000
# 3 33.6915 41.7782 127.4990 0.0000 0.0000 0.0000
# 4 0.0000 0.0000 0.0000 -17.8997 0.0000 0.0000
# 5 0.0000 0.0000 0.0000 0.0000 36.9767 0.0000
# 6 0.0000 0.0000 0.0000 0.0000 0.0000 18.1012
#
#
#
# Elastic Compliance Matrix: (Units=1/GPa)
#
#
# Indices 1 2 3 4 5 6 
#
# 1 0.018509 -0.005323 -0.003147 0.000000 0.000000 0.000000
# 2 -0.005323 0.010674 -0.002091 0.000000 0.000000 0.000000
# 3 -0.003147 -0.002091 0.009360 0.000000 0.000000 0.000000
# 4 0.000000 0.000000 0.000000 -0.055867 0.000000 0.000000
# 5 0.000000 0.000000 0.000000 0.000000 0.027044 0.000000
# 6 0.000000 0.000000 0.000000 0.000000 0.000000 0.055245
#
#
# Mechanical properties :
#
#
# Convention : Reuss Voigt Hill
#
# Bulk Modulus (GPa) = 57.40192 62.05272 59.72732
# Shear Modulus (GPa) = 54.41144 21.07416 37.74280
#
# Velocity S-wave (km/s) = 5.43268 3.38099 4.52466
# Velocity P-wave (km/s) = 8.39572 6.99287 7.72620
#
# Compressibility (1/GPa) = 0.01742102
#
# Stress axis : x y z
#
# Youngs Moduli (GPa) = 54.02852 93.68925 106.83952
#
# Poissons Ratio (x) = 0.49871 0.33619
# Poissons Ratio (y) = 0.28759 0.22339
# Poissons Ratio (z) = 0.17001 0.19589
#
# Static dielectric constant tensor:
#      x y z
#    x 3.838570 0.000000 0.000000 
#    y 0.000000 3.576190 0.000000 
#    z 0.000000 0.000000 3.613390 
# 
# 
# High freq. dielectric constant tensor:
#      x y z
#    x 1.717920 0.000000 0.000000 
#    y 0.000000 1.687090 0.000000 
#    z 0.000000 0.000000 1.726000 
# 
# From -- ./inp_files/14067.got.cif
#   From: 2010.03.12/outbox.cif.g09.slc.cpg/sg44_8_cif.got.tgz:14067.got - 2010.04.14 02:36:11.
