data_PCOD8189396
_publ_section_title
;
Structure prediction by ZEFSAII (Michael W. Deem and Ramdas Pophale) SiO2 
 PCOD8189396
Probable space group: I M M 2
;
_chemical_formula_sum "Si O2"
_cell_formula_units_Z 48
_cell_length_a 30.445564
_cell_length_b 9.225873
_cell_length_c 9.054992
_cell_angle_alpha 90.000000
_cell_angle_beta 90.000000
_cell_angle_gamma 90.000000
_cell_volume 2543.428695
_symmetry_space_group_name_H-M "I M M 2"
_symmetry_group_IT_number 44
_symmetry_cell_setting 'orthorhombic'
loop_
_space_group_symop_operation_xyz
x,y,z
-x,-y,z
-x,y,z
x,-y,z
1/2+x,1/2+y,1/2+z
1/2-x,1/2-y,1/2+z
1/2-x,1/2+y,1/2+z
1/2+x,1/2-y,1/2+z
loop_
_atom_site_type_symbol
_atom_site_label
_atom_site_fract_x
_atom_site_fract_y
_atom_site_fract_z
Si Si1 0.128610 0.669837 0.333530
Si Si2 0.548450 0.827718 0.028436
Si Si3 0.206572 0.830911 0.839912
Si Si4 0.622581 0.330146 0.532208
Si Si5 0.712045 0.168698 0.033619
Si Si6 0.448946 0.833947 0.359874
O O1 0.124815 0.500000 0.296611
O O2 0.084489 0.729068 0.413217
O O3 0.136227 0.757945 0.185342
O O4 0.169046 0.703412 0.439502
O O5 0.500000 0.770893 0.980801
O O6 0.559686 0.774466 0.194156
O O7 0.548227 0.000000 0.033019
O O8 0.208924 0.750848 0.686139
O O9 0.212506 0.000000 0.809083
O O10 0.160319 0.794452 0.914768
O O11 0.245536 0.774628 0.945254
O O12 0.616793 0.500000 0.557736
O O13 0.577084 0.264543 0.474890
O O14 0.716245 0.000000 0.069786
O O15 0.500000 0.821746 0.400418
O O16 0.432999 0.000000 0.375346
#
# Coordination Sequence:
#
# PCOD8189396 Si02
#       6
#     8   8   8   8   8   8
#     4  10  20  34  54  79 105 137 181 226 265 313
#     4   8  15  30  53  79 103 128 166 218 269 313
#     4  10  22  38  55  79 110 142 177 221 274 324
#     4  11  23  36  51  76 112 147 177 215 268 327
#     4  10  21  37  58  82 106 138 184 230 268 316
#     4   9  18  35  59  82 104 136 179 224 268 314
#
# _framework density 18.872161999999999
#
# number of rings (size 3 to 8) (size 9 to 14) (size 15 to 20)
#    0.000    2.333    0.000    3.500    0.000    5.000 
#    0.000    2.500    0.000    1.000    0.000    0.000 
#    0.000    0.000    0.000    0.000    0.000    0.000 
#
# Total GULP energy -297652.209291 kJ/mol
# GULP energy per Si atom -12402.175387 kJ/mol
# Density = 1.882921 g / cm^3
# Si number density = 18.872162 Si / 1000 Ang^3
#
#
#
# Elastic Constant Matrix: (Units=GPa)
#
#
# Indices 1 2 3 4 5 6 
#
# 1 104.0769 49.9242 56.9799 0.0000 0.0000 0.0000
# 2 49.9242 66.5772 69.9349 0.0000 0.0000 0.0000
# 3 56.9799 69.9349 141.9157 0.0000 0.0000 0.0000
# 4 0.0000 0.0000 0.0000 33.5941 0.0000 0.0000
# 5 0.0000 0.0000 0.0000 0.0000 28.1653 0.0000
# 6 0.0000 0.0000 0.0000 0.0000 0.0000 19.3498
#
#
#
# Elastic Compliance Matrix: (Units=1/GPa)
#
#
# Indices 1 2 3 4 5 6 
#
# 1 0.015074 -0.010254 -0.000999 0.000000 0.000000 0.000000
# 2 -0.010254 0.038114 -0.014665 0.000000 0.000000 0.000000
# 3 -0.000999 -0.014665 0.014675 0.000000 0.000000 0.000000
# 4 0.000000 0.000000 0.000000 0.029767 0.000000 0.000000
# 5 0.000000 0.000000 0.000000 0.000000 0.035505 0.000000
# 6 0.000000 0.000000 0.000000 0.000000 0.000000 0.051680
#
#
# Mechanical properties :
#
#
# Convention : Reuss Voigt Hill
#
# Bulk Modulus (GPa) = 62.39938 74.02756 68.21347
# Shear Modulus (GPa) = 20.66167 25.27055 22.96611
#
# Velocity S-wave (km/s) = 3.31240 3.66326 3.49224
# Velocity P-wave (km/s) = 6.91125 7.56330 7.24462
#
# Compressibility (1/GPa) = 0.01602580
#
# Stress axis : x y z
#
# Youngs Moduli (GPa) = 66.33938 26.23688 68.14469
#
# Poissons Ratio (x) = 0.26903 0.06809
# Poissons Ratio (y) = 0.68024 0.99937
# Poissons Ratio (z) = 0.06629 0.38478
#
# Static dielectric constant tensor:
#      x y z
#    x 3.759890 0.000000 0.000000 
#    y 0.000000 3.208920 0.000000 
#    z 0.000000 0.000000 3.427310 
# 
# 
# High freq. dielectric constant tensor:
#      x y z
#    x 1.750300 0.000000 0.000000 
#    y 0.000000 1.707140 0.000000 
#    z 0.000000 0.000000 1.739490 
# 
# From -- ./inp_files/4856.got.cif
#   From: 2010.03.12/outbox.cif.g09.slc.cpg/sg44_3_cif.got.tgz:4856.got - 2010.04.14 02:36:11.
