data_PCOD8189784
_publ_section_title
;
Structure prediction by ZEFSAII (Michael W. Deem and Ramdas Pophale) SiO2 
 PCOD8189784
Probable space group: I M M 2
;
_chemical_formula_sum "Si O2"
_cell_formula_units_Z 48
_cell_length_a 14.561461
_cell_length_b 17.652365
_cell_length_c 9.049921
_cell_angle_alpha 90.000000
_cell_angle_beta 90.000000
_cell_angle_gamma 90.000000
_cell_volume 2326.229925
_symmetry_space_group_name_H-M "I M M 2"
_symmetry_group_IT_number 44
_symmetry_cell_setting 'orthorhombic'
loop_
_space_group_symop_operation_xyz
x,y,z
-x,-y,z
-x,y,z
x,-y,z
1/2+x,1/2+y,1/2+z
1/2-x,1/2-y,1/2+z
1/2-x,1/2+y,1/2+z
1/2+x,1/2-y,1/2+z
loop_
_atom_site_type_symbol
_atom_site_label
_atom_site_fract_x
_atom_site_fract_y
_atom_site_fract_z
Si Si1 0.892850 0.300412 0.492920
Si Si2 0.773091 0.151056 0.489446
Si Si3 0.899223 0.915758 0.711720
Si Si4 0.398165 0.200727 0.648753
Si Si5 0.727079 0.914716 0.176433
Si Si6 0.103429 0.133889 0.023490
O O1 0.830226 0.227337 0.522440
O O2 0.884584 0.318353 0.320261
O O3 0.853029 0.369835 0.589440
O O4 0.000000 0.286321 0.536340
O O5 0.828450 0.087090 0.576935
O O6 0.671901 0.151203 0.556714
O O7 0.759496 0.131050 0.320140
O O8 0.000000 0.899263 0.645091
O O9 0.894540 0.000000 0.780378
O O10 0.880136 0.856882 0.846473
O O11 0.500000 0.177072 0.598140
O O12 0.381013 0.288178 0.610203
O O13 0.819390 0.923583 0.080073
O O14 0.691649 0.000000 0.211943
O O15 0.000000 0.102910 0.052601
#
# Coordination Sequence:
#
# PCOD8189784 Si02
#       6
#     8   8   8   8   8   8
#     4  11  23  42  66  93 126 171 224 275 321 386
#     4  12  22  40  65  95 127 169 220 273 322 390
#     4  10  22  38  60  93 132 171 209 260 330 399
#     4  10  22  40  64  93 121 156 213 274 324 377
#     4  12  26  41  63  97 136 176 215 269 337 398
#     4  10  20  38  62  92 125 161 211 267 326 388
#
# _framework density 20.634246999999998
#
# number of rings (size 3 to 8) (size 9 to 14) (size 15 to 20)
#    0.000    1.167    3.333    2.500    2.333    2.667 
#    0.000    0.833    0.000    3.500    0.000    0.000 
#    0.000    0.000    0.000    0.000    0.000    0.000 
#
# Total GULP energy -297496.884366 kJ/mol
# GULP energy per Si atom -12395.703515 kJ/mol
# Density = 2.058728 g / cm^3
# Si number density = 20.634247 Si / 1000 Ang^3
#
#
#
# Elastic Constant Matrix: (Units=GPa)
#
#
# Indices 1 2 3 4 5 6 
#
# 1 146.7299 40.5304 64.3827 0.0000 0.0000 0.0000
# 2 40.5304 82.9598 33.6441 0.0000 0.0000 0.0000
# 3 64.3827 33.6441 111.9065 0.0000 0.0000 0.0000
# 4 0.0000 0.0000 0.0000 24.6352 0.0000 0.0000
# 5 0.0000 0.0000 0.0000 0.0000 38.9119 0.0000
# 6 0.0000 0.0000 0.0000 0.0000 0.0000 25.6716
#
#
#
# Elastic Compliance Matrix: (Units=1/GPa)
#
#
# Indices 1 2 3 4 5 6 
#
# 1 0.009659 -0.002808 -0.004713 0.000000 0.000000 0.000000
# 2 -0.002808 0.014544 -0.002757 0.000000 0.000000 0.000000
# 3 -0.004713 -0.002757 0.012476 0.000000 0.000000 0.000000
# 4 0.000000 0.000000 0.000000 0.040592 0.000000 0.000000
# 5 0.000000 0.000000 0.000000 0.000000 0.025699 0.000000
# 6 0.000000 0.000000 0.000000 0.000000 0.000000 0.038953
#
#
# Mechanical properties :
#
#
# Convention : Reuss Voigt Hill
#
# Bulk Modulus (GPa) = 62.02062 68.74561 65.38312
# Shear Modulus (GPa) = 29.78787 31.37969 30.58378
#
# Velocity S-wave (km/s) = 3.80361 3.90392 3.85409
# Velocity P-wave (km/s) = 7.02939 7.32867 7.18059
#
# Compressibility (1/GPa) = 0.01612367
#
# Stress axis : x y z
#
# Youngs Moduli (GPa) = 103.53421 68.75752 80.15130
#
# Poissons Ratio (x) = 0.19304 0.37774
# Poissons Ratio (y) = 0.29067 0.22100
# Poissons Ratio (z) = 0.48794 0.18959
#
# Static dielectric constant tensor:
#      x y z
#    x 3.984770 0.000000 0.000000 
#    y 0.000000 3.419700 0.000000 
#    z 0.000000 0.000000 3.700690 
# 
# 
# High freq. dielectric constant tensor:
#      x y z
#    x 1.821640 0.000000 0.000000 
#    y 0.000000 1.782690 0.000000 
#    z 0.000000 0.000000 1.812510 
# 
# From -- ./inp_files/7103.got.cif
#   From: 2010.03.12/outbox.cif.g09.slc.cpg/sg44_4_cif.got.tgz:7103.got - 2010.04.14 02:36:11.
