data_PCOD8189661
_publ_section_title
;
Structure prediction by ZEFSAII (Michael W. Deem and Ramdas Pophale) SiO2 
 PCOD8189661
Probable space group: I M M 2
;
_chemical_formula_sum "Si O2"
_cell_formula_units_Z 64
_cell_length_a 9.077748
_cell_length_b 30.876329
_cell_length_c 12.051593
_cell_angle_alpha 90.000000
_cell_angle_beta 90.000000
_cell_angle_gamma 90.000000
_cell_volume 3377.911281
_symmetry_space_group_name_H-M "I M M 2"
_symmetry_group_IT_number 44
_symmetry_cell_setting 'orthorhombic'
loop_
_space_group_symop_operation_xyz
x,y,z
-x,-y,z
-x,y,z
x,-y,z
1/2+x,1/2+y,1/2+z
1/2-x,1/2-y,1/2+z
1/2-x,1/2+y,1/2+z
1/2+x,1/2-y,1/2+z
loop_
_atom_site_type_symbol
_atom_site_label
_atom_site_fract_x
_atom_site_fract_y
_atom_site_fract_z
Si Si1 0.324593 0.374728 0.553450
Si Si2 0.832466 0.163007 0.680069
Si Si3 0.169087 0.048238 0.899080
Si Si4 0.175246 0.874945 0.302826
Si Si5 0.331520 0.706276 0.412532
Si Si6 0.825789 0.425895 0.181866
Si Si7 0.169748 0.951352 0.460307
Si Si8 0.828008 0.204399 0.449102
O O1 0.500000 0.374854 0.555606
O O2 0.268267 0.417294 0.488024
O O3 0.259823 0.375732 0.678151
O O4 0.266601 0.331740 0.490957
O O5 0.814210 0.193500 0.785184
O O6 0.720360 0.123838 0.690032
O O7 0.789308 0.190851 0.573599
O O8 0.000000 0.145212 0.670501
O O9 0.263483 0.048839 0.787469
O O10 0.000000 0.059842 0.869165
O O11 0.180514 0.000000 0.950830
O O12 0.229755 0.917688 0.368347
O O13 0.234809 0.832094 0.365166
O O14 0.000000 0.874549 0.299187
O O15 0.500000 0.714908 0.444569
O O16 0.243758 0.749859 0.428030
O O17 0.000000 0.429942 0.180796
O O18 0.763566 0.447648 0.071430
O O19 0.000000 0.940694 0.489188
O O20 0.186068 0.000000 0.412460
O O21 0.000000 0.209787 0.429903
#
# Coordination Sequence:
#
# PCOD8189661 Si02
#       8
#     8   8   8   8   8   8   8   8
#     4   9  18  34  56  83 113 143 180 230 279 322
#     4  10  20  39  61  80 110 153 191 229 278 334
#     4  10  20  36  59  83 111 149 187 224 276 342
#     4   9  18  34  56  83 113 143 180 230 279 322
#     4  10  21  36  57  81 111 146 182 227 275 328
#     4  12  23  35  56  85 116 146 184 239 285 327
#     4  10  20  36  59  83 111 149 187 224 276 342
#     4  10  21  36  57  81 111 146 182 227 275 328
#
# _framework density 18.946619999999999
#
# number of rings (size 3 to 8) (size 9 to 14) (size 15 to 20)
#    0.000    2.000    2.500    1.500    1.750    3.500 
#    0.000    2.500    0.000    2.250    0.000    1.750 
#    0.000    0.000    0.000    0.000    0.000    0.000 
#
# Total GULP energy -396830.183211 kJ/mol
# GULP energy per Si atom -12400.943225 kJ/mol
# Density = 1.890350 g / cm^3
# Si number density = 18.946620 Si / 1000 Ang^3
#
#
#
# Elastic Constant Matrix: (Units=GPa)
#
#
# Indices 1 2 3 4 5 6 
#
# 1 45.2275 24.2365 19.2928 0.0000 -0.0001 0.0001
# 2 24.2365 149.7106 59.4800 0.0007 -0.0001 0.0001
# 3 19.2928 59.4800 144.1064 0.0051 0.0003 0.0002
# 4 0.0000 0.0007 0.0051 25.6984 0.0001 0.0001
# 5 -0.0001 -0.0001 0.0003 0.0001 6.4848 0.0006
# 6 0.0001 0.0001 0.0002 0.0001 0.0006 28.0997
#
#
#
# Elastic Compliance Matrix: (Units=1/GPa)
#
#
# Indices 1 2 3 4 5 6 
#
# 1 0.024674 -0.003208 -0.001979 0.000000 0.000000 0.000000
# 2 -0.003208 0.008407 -0.003040 0.000000 0.000000 0.000000
# 3 -0.001979 -0.003040 0.008459 -0.000002 0.000000 0.000000
# 4 0.000000 0.000000 -0.000002 0.038913 -0.000001 0.000000
# 5 0.000000 0.000000 0.000000 -0.000001 0.154208 -0.000003
# 6 0.000000 0.000000 0.000000 0.000000 -0.000003 0.035588
#
#
# Mechanical properties :
#
#
# Convention : Reuss Voigt Hill
#
# Bulk Modulus (GPa) = 39.86517 60.56255 50.21386
# Shear Modulus (GPa) = 16.94542 27.79227 22.36884
#
# Velocity S-wave (km/s) = 2.99386 3.83413 3.43975
# Velocity P-wave (km/s) = 5.74781 7.18575 6.50663
#
# Compressibility (1/GPa) = 0.02508455
#
# Stress axis : x y z
#
# Youngs Moduli (GPa) = 40.52871 118.95021 118.21408
#
# Poissons Ratio (x) = 0.38160 0.23396
# Poissons Ratio (y) = 0.13002 0.35942
# Poissons Ratio (z) = 0.08021 0.36166
#
# Static dielectric constant tensor:
#      x y z
#    x 3.103990 0.000000 0.000000 
#    y 0.000000 3.566510 0.000000 
#    z 0.000000 0.000000 3.815210 
# 
# 
# High freq. dielectric constant tensor:
#      x y z
#    x 1.693650 0.000000 0.000000 
#    y 0.000000 1.751200 0.000000 
#    z 0.000000 0.000000 1.743120 
# 
# From -- ./inp_files/11478.got.cif
#   From: 2010.03.12/outbox.cif.g09.slc.cpg/sg44_6_cif.got.tgz:11478.got - 2010.04.14 02:36:11.
