data_PCOD8189072
_publ_section_title
;
Structure prediction by ZEFSAII (Michael W. Deem and Ramdas Pophale) SiO2 
 PCOD8189072
Probable space group: I M M 2
;
_chemical_formula_sum "Si O2"
_cell_formula_units_Z 48
_cell_length_a 14.539189
_cell_length_b 8.660064
_cell_length_c 20.360417
_cell_angle_alpha 90.000000
_cell_angle_beta 90.000000
_cell_angle_gamma 90.000000
_cell_volume 2563.586360
_symmetry_space_group_name_H-M "I M M 2"
_symmetry_group_IT_number 44
_symmetry_cell_setting 'orthorhombic'
loop_
_space_group_symop_operation_xyz
x,y,z
-x,-y,z
-x,y,z
x,-y,z
1/2+x,1/2+y,1/2+z
1/2-x,1/2-y,1/2+z
1/2-x,1/2+y,1/2+z
1/2+x,1/2-y,1/2+z
loop_
_atom_site_type_symbol
_atom_site_label
_atom_site_fract_x
_atom_site_fract_y
_atom_site_fract_z
Si Si1 0.500000 0.316741 0.462430
Si Si2 0.304742 0.181783 0.659737
Si Si3 0.697818 0.818968 0.894439
Si Si4 0.000000 0.817095 0.814204
Si Si5 0.690422 0.318788 0.522437
Si Si6 0.000000 0.682496 0.355466
Si Si7 0.500000 0.182948 0.708839
Si Si8 0.188679 0.318626 0.775902
O O1 0.500000 0.500000 0.458007
O O2 0.500000 0.250069 0.388521
O O3 0.590163 0.257470 0.500379
O O4 0.276279 0.226401 0.586122
O O5 0.409246 0.240923 0.671155
O O6 0.238383 0.267548 0.709666
O O7 0.295500 0.000000 0.671213
O O8 0.591591 0.763347 0.893625
O O9 0.753641 0.729523 0.839324
O O10 0.707972 0.000000 0.878475
O O11 0.736849 0.779239 0.965757
O O12 0.910848 0.759233 0.775924
O O13 0.000000 0.000000 0.815249
O O14 0.687893 0.500000 0.537988
O O15 0.000000 0.753608 0.282221
O O16 0.000000 0.500000 0.349951
O O17 0.500000 0.000000 0.712702
O O18 0.175796 0.500000 0.775829
#
# Coordination Sequence:
#
# PCOD8189072 Si02
#       8
#     4   8   8   4   8   4   4   8
#     4   9  17  32  58  87 116 150 187 235 297 360
#     4  11  22  38  58  83 117 160 199 239 295 354
#     4  10  19  36  61  84 114 155 196 239 294 356
#     4  11  21  40  65  89 115 153 197 238 293 358
#     4  10  20  35  55  84 118 153 193 240 293 351
#     4   9  16  31  58  88 110 140 196 245 279 334
#     4   9  17  31  57  86 111 143 194 242 281 342
#     4  12  24  38  58  88 120 151 194 247 293 345
#
# _framework density 18.723769000000001
#
# number of rings (size 3 to 8) (size 9 to 14) (size 15 to 20)
#    0.000    1.667    3.333    2.750    0.000    0.667 
#    0.000    3.333    0.000    2.000    0.000    0.000 
#    0.000    0.000    0.000    0.000    0.000    0.000 
#
# Total GULP energy -297660.288204 kJ/mol
# GULP energy per Si atom -12402.512009 kJ/mol
# Density = 1.868115 g / cm^3
# Si number density = 18.723769 Si / 1000 Ang^3
#
#
#
# Elastic Constant Matrix: (Units=GPa)
#
#
# Indices 1 2 3 4 5 6 
#
# 1 147.3878 36.4081 62.6066 0.0000 0.0000 0.0000
# 2 36.4081 61.9482 34.0169 0.0000 0.0000 0.0000
# 3 62.6066 34.0169 125.9393 0.0000 0.0000 0.0000
# 4 0.0000 0.0000 0.0000 28.7519 0.0000 0.0000
# 5 0.0000 0.0000 0.0000 0.0000 -12.5536 0.0000
# 6 0.0000 0.0000 0.0000 0.0000 0.0000 6.0184
#
#
#
# Elastic Compliance Matrix: (Units=1/GPa)
#
#
# Indices 1 2 3 4 5 6 
#
# 1 0.009169 -0.003389 -0.003643 0.000000 0.000000 0.000000
# 2 -0.003389 0.020206 -0.003773 0.000000 0.000000 0.000000
# 3 -0.003643 -0.003773 0.010770 0.000000 0.000000 0.000000
# 4 0.000000 0.000000 0.000000 0.034780 0.000000 0.000000
# 5 0.000000 0.000000 0.000000 0.000000 -0.079658 0.000000
# 6 0.000000 0.000000 0.000000 0.000000 0.000000 0.166158
#
#
# Mechanical properties :
#
#
# Convention : Reuss Voigt Hill
#
# Bulk Modulus (GPa) = 53.94826 66.81538 60.38182
# Shear Modulus (GPa) = 26.42514 17.92625 22.17570
#
# Velocity S-wave (km/s) = 3.76082 3.09755 3.44519
# Velocity P-wave (km/s) = 6.90895 6.96817 6.93863
#
# Compressibility (1/GPa) = 0.01853628
#
# Stress axis : x y z
#
# Youngs Moduli (GPa) = 109.05952 49.49032 92.84638
#
# Poissons Ratio (x) = 0.16770 0.33824
# Poissons Ratio (y) = 0.36955 0.35033
# Poissons Ratio (z) = 0.39730 0.18674
#
# Static dielectric constant tensor:
#      x y z
#    x 4.518790 0.000000 0.000000 
#    y 0.000000 3.173080 0.000000 
#    z 0.000000 0.000000 3.424820 
# 
# 
# High freq. dielectric constant tensor:
#      x y z
#    x 1.734430 0.000000 0.000000 
#    y 0.000000 1.704230 0.000000 
#    z 0.000000 0.000000 1.727250 
# 
# From -- ./inp_files/21762.got.cif
#   From: 2010.03.12/outbox.cif.g09.slc.cpg/sg44_11_cif.got.tgz:21762.got - 2010.04.14 02:36:11.
