data_PCOD8189256
_publ_section_title
;
Structure prediction by ZEFSAII (Michael W. Deem and Ramdas Pophale) SiO2 
 PCOD8189256
Probable space group: I M M 2
;
_chemical_formula_sum "Si O2"
_cell_formula_units_Z 56
_cell_length_a 16.149326
_cell_length_b 8.733248
_cell_length_c 23.022449
_cell_angle_alpha 90.000000
_cell_angle_beta 90.000000
_cell_angle_gamma 90.000000
_cell_volume 3246.995706
_symmetry_space_group_name_H-M "I M M 2"
_symmetry_group_IT_number 44
_symmetry_cell_setting 'orthorhombic'
loop_
_space_group_symop_operation_xyz
x,y,z
-x,-y,z
-x,y,z
x,-y,z
1/2+x,1/2+y,1/2+z
1/2-x,1/2-y,1/2+z
1/2-x,1/2+y,1/2+z
1/2+x,1/2-y,1/2+z
loop_
_atom_site_type_symbol
_atom_site_label
_atom_site_fract_x
_atom_site_fract_y
_atom_site_fract_z
Si Si1 0.658947 0.318663 0.767030
Si Si2 0.094498 0.324710 0.606897
Si Si3 0.736014 0.318913 0.172109
Si Si4 0.000000 0.181505 0.198630
Si Si5 0.595453 0.820137 0.880939
Si Si6 0.668476 0.822470 0.557699
Si Si7 0.000000 0.180257 0.068578
Si Si8 0.164796 0.178201 0.495416
O O1 0.669373 0.500000 0.764303
O O2 0.736305 0.239028 0.735423
O O3 0.579041 0.256805 0.732865
O O4 0.650907 0.266061 0.833266
O O5 0.118787 0.500000 0.592866
O O6 0.148256 0.260716 0.660141
O O7 0.108746 0.221687 0.550208
O O8 0.000000 0.311044 0.626599
O O9 0.724306 0.500000 0.171482
O O10 0.800230 0.266698 0.121348
O O11 0.000000 0.248528 0.133849
O O12 0.000000 0.000000 0.196969
O O13 0.500000 0.762983 0.879030
O O14 0.636181 0.781478 0.942224
O O15 0.600050 0.000000 0.870038
O O16 0.584345 0.737308 0.538067
O O17 0.739061 0.786884 0.510023
O O18 0.647959 0.000000 0.559986
O O19 0.000000 0.000000 0.067240
O O20 0.151246 0.000000 0.480940
#
# Coordination Sequence:
#
# PCOD8189256 Si02
#       8
#     8   8   8   4   8   8   4   8
#     4  11  20  34  52  74 105 139 174 210 249 299
#     4  10  20  34  53  77 104 135 171 213 259 306
#     4  10  20  33  50  75 105 137 171 209 256 305
#     4   9  18  29  45  73 105 135 169 204 241 290
#     4  11  23  36  51  75 105 138 174 211 253 303
#     4   9  19  33  48  71 102 134 167 206 253 302
#     4  11  19  29  49  77 103 133 169 204 247 298
#     4  10  21  36  53  74 101 136 175 214 257 304
#
# _framework density 17.246713
#
# number of rings (size 3 to 8) (size 9 to 14) (size 15 to 20)
#    0.000    1.857    2.143    3.643    0.000    6.571 
#    0.000    0.000    0.000    0.000    1.857    0.000 
#    0.000    0.000    0.000    0.000    0.000    0.000 
#
# Total GULP energy -347256.119301 kJ/mol
# GULP energy per Si atom -12402.004261 kJ/mol
# Density = 1.720746 g / cm^3
# Si number density = 17.246713 Si / 1000 Ang^3
#
#
#
# Elastic Constant Matrix: (Units=GPa)
#
#
# Indices 1 2 3 4 5 6 
#
# 1 108.2896 42.1434 38.0622 0.0000 0.0000 0.0000
# 2 42.1434 61.2817 11.0503 0.0000 0.0000 0.0000
# 3 38.0622 11.0503 70.8308 0.0000 0.0000 0.0000
# 4 0.0000 0.0000 0.0000 29.3297 0.0000 0.0000
# 5 0.0000 0.0000 0.0000 0.0000 25.5093 0.0000
# 6 0.0000 0.0000 0.0000 0.0000 0.0000 28.3088
#
#
#
# Elastic Compliance Matrix: (Units=1/GPa)
#
#
# Indices 1 2 3 4 5 6 
#
# 1 0.015191 -0.009235 -0.006723 0.000000 0.000000 0.000000
# 2 -0.009235 0.022404 0.001467 0.000000 0.000000 0.000000
# 3 -0.006723 0.001467 0.017502 0.000000 0.000000 0.000000
# 4 0.000000 0.000000 0.000000 0.034095 0.000000 0.000000
# 5 0.000000 0.000000 0.000000 0.000000 0.039201 0.000000
# 6 0.000000 0.000000 0.000000 0.000000 0.000000 0.035325
#
#
# Mechanical properties :
#
#
# Convention : Reuss Voigt Hill
#
# Bulk Modulus (GPa) = 38.28933 46.99044 42.63988
# Shear Modulus (GPa) = 24.82560 26.57262 25.69911
#
# Velocity S-wave (km/s) = 3.79811 3.92948 3.86435
# Velocity P-wave (km/s) = 6.44076 6.92047 6.68492
#
# Compressibility (1/GPa) = 0.02611693
#
# Stress axis : x y z
#
# Youngs Moduli (GPa) = 65.82685 44.63418 57.13709
#
# Poissons Ratio (x) = 0.41219 0.38411
# Poissons Ratio (y) = 0.60790 -0.08383
# Poissons Ratio (z) = 0.44253 -0.06549
#
# Static dielectric constant tensor:
#      x y z
#    x 3.259130 0.000000 0.000000 
#    y 0.000000 3.195140 0.000000 
#    z 0.000000 0.000000 3.044980 
# 
# 
# High freq. dielectric constant tensor:
#      x y z
#    x 1.660520 0.000000 0.000000 
#    y 0.000000 1.675560 0.000000 
#    z 0.000000 0.000000 1.639200 
# 
# From -- ./inp_files/23115.got.cif
#   From: 2010.03.12/outbox.cif.g09.slc.cpg/sg44_12_cif.got.tgz:23115.got - 2010.04.14 02:36:11.
