data_PCOD8189305
_publ_section_title
;
Structure prediction by ZEFSAII (Michael W. Deem and Ramdas Pophale) SiO2 
 PCOD8189305
Probable space group: I M M 2
;
_chemical_formula_sum "Si O2"
_cell_formula_units_Z 64
_cell_length_a 8.940901
_cell_length_b 20.265480
_cell_length_c 19.459391
_cell_angle_alpha 90.000000
_cell_angle_beta 90.000000
_cell_angle_gamma 90.000000
_cell_volume 3525.879171
_symmetry_space_group_name_H-M "I M M 2"
_symmetry_group_IT_number 44
_symmetry_cell_setting 'orthorhombic'
loop_
_space_group_symop_operation_xyz
x,y,z
-x,-y,z
-x,y,z
x,-y,z
1/2+x,1/2+y,1/2+z
1/2-x,1/2-y,1/2+z
1/2-x,1/2+y,1/2+z
1/2+x,1/2-y,1/2+z
loop_
_atom_site_type_symbol
_atom_site_label
_atom_site_fract_x
_atom_site_fract_y
_atom_site_fract_z
Si Si1 0.827516 0.882276 0.569570
Si Si2 0.327570 0.227082 0.068663
Si Si3 0.671185 0.924918 0.436109
Si Si4 0.171881 0.425084 0.355006
Si Si5 0.823609 0.189943 0.933305
Si Si6 0.675450 0.311493 0.855614
Si Si7 0.328708 0.119184 0.706883
Si Si8 0.170874 0.771840 0.205935
O O1 0.798759 0.804706 0.559957
O O2 0.731911 0.920634 0.513375
O O3 0.774358 0.905741 0.644601
O O4 0.000000 0.900823 0.560401
O O5 0.500000 0.208534 0.059833
O O6 0.274446 0.203158 0.143790
O O7 0.233094 0.188981 0.011500
O O8 0.500000 0.900715 0.435135
O O9 0.767960 0.880452 0.385139
O O10 0.684960 0.000000 0.410481
O O11 0.194103 0.500000 0.380039
O O12 0.278451 0.379259 0.399772
O O13 0.215993 0.420953 0.274778
O O14 0.000000 0.401806 0.364101
O O15 0.753939 0.250550 0.892232
O O16 0.000000 0.197590 0.932139
O O17 0.500000 0.304139 0.870084
O O18 0.711336 0.312255 0.774522
O O19 0.500000 0.106518 0.685788
O O20 0.298910 0.195655 0.723028
O O21 0.000000 0.783230 0.183788
#
# Coordination Sequence:
#
# PCOD8189305 Si02
#       8
#     8   8   8   8   8   8   8   8
#     4  10  20  33  52  79 111 148 188 229 273 325
#     4  10  20  34  55  83 114 144 183 230 277 329
#     4  11  24  39  55  79 112 150 190 230 277 332
#     4  10  21  38  58  80 111 151 191 230 277 331
#     4  12  23  35  57  84 114 148 186 232 280 328
#     4  11  21  37  60  85 112 144 186 231 277 330
#     4   9  17  32  52  77 112 149 186 225 271 328
#     4   9  18  33  55  82 113 143 178 227 280 331
#
# _framework density 18.151502000000001
#
# number of rings (size 3 to 8) (size 9 to 14) (size 15 to 20)
#    0.000    1.750    2.500    2.625    0.000    4.250 
#    0.000    1.250    0.000    0.750    0.000    3.500 
#    0.000    0.000    0.000    0.000    0.000    0.000 
#
# Total GULP energy -396934.734547 kJ/mol
# GULP energy per Si atom -12404.210455 kJ/mol
# Density = 1.811019 g / cm^3
# Si number density = 18.151502 Si / 1000 Ang^3
#
#
#
# Elastic Constant Matrix: (Units=GPa)
#
#
# Indices 1 2 3 4 5 6 
#
# 1 118.8202 43.6621 67.3773 0.0000 0.0000 0.0000
# 2 43.6621 71.3600 46.5343 0.0000 0.0000 0.0000
# 3 67.3773 46.5343 110.1374 0.0000 0.0000 0.0000
# 4 0.0000 0.0000 0.0000 23.0255 0.0000 0.0000
# 5 0.0000 0.0000 0.0000 0.0000 36.3443 0.0000
# 6 0.0000 0.0000 0.0000 0.0000 0.0000 25.0568
#
#
#
# Elastic Compliance Matrix: (Units=1/GPa)
#
#
# Indices 1 2 3 4 5 6 
#
# 1 0.013673 -0.004019 -0.006667 0.000000 0.000000 0.000000
# 2 -0.004019 0.020524 -0.006213 0.000000 0.000000 0.000000
# 3 -0.006667 -0.006213 0.015783 0.000000 0.000000 0.000000
# 4 0.000000 0.000000 0.000000 0.043430 0.000000 0.000000
# 5 0.000000 0.000000 0.000000 0.000000 0.027515 0.000000
# 6 0.000000 0.000000 0.000000 0.000000 0.000000 0.039909
#
#
# Mechanical properties :
#
#
# Convention : Reuss Voigt Hill
#
# Bulk Modulus (GPa) = 61.79262 68.38501 65.08882
# Shear Modulus (GPa) = 24.99678 26.40158 25.69918
#
# Velocity S-wave (km/s) = 3.71498 3.81794 3.76681
# Velocity P-wave (km/s) = 7.24693 7.56254 7.40642
#
# Compressibility (1/GPa) = 0.01618316
#
# Stress axis : x y z
#
# Youngs Moduli (GPa) = 73.13598 48.72363 63.35875
#
# Poissons Ratio (x) = 0.19580 0.42240
# Poissons Ratio (y) = 0.29390 0.39366
# Poissons Ratio (z) = 0.48758 0.30273
#
# Static dielectric constant tensor:
#      x y z
#    x 3.417230 0.000000 0.000000 
#    y 0.000000 3.122970 0.000000 
#    z 0.000000 0.000000 3.445160 
# 
# 
# High freq. dielectric constant tensor:
#      x y z
#    x 1.710420 0.000000 0.000000 
#    y 0.000000 1.675840 0.000000 
#    z 0.000000 0.000000 1.707370 
# 
# From -- ./inp_files/23281.got.cif
#   From: 2010.03.12/outbox.cif.g09.slc.cpg/sg44_12_cif.got.tgz:23281.got - 2010.04.14 02:36:11.
