data_PCOD8189137
_publ_section_title
;
Structure prediction by ZEFSAII (Michael W. Deem and Ramdas Pophale) SiO2 
 PCOD8189137
Probable space group: I M M 2
;
_chemical_formula_sum "Si O2"
_cell_formula_units_Z 56
_cell_length_a 9.930709
_cell_length_b 17.692804
_cell_length_c 17.713353
_cell_angle_alpha 90.000000
_cell_angle_beta 90.000000
_cell_angle_gamma 90.000000
_cell_volume 3112.273106
_symmetry_space_group_name_H-M "I M M 2"
_symmetry_group_IT_number 44
_symmetry_cell_setting 'orthorhombic'
loop_
_space_group_symop_operation_xyz
x,y,z
-x,-y,z
-x,y,z
x,-y,z
1/2+x,1/2+y,1/2+z
1/2-x,1/2-y,1/2+z
1/2-x,1/2+y,1/2+z
1/2+x,1/2-y,1/2+z
loop_
_atom_site_type_symbol
_atom_site_label
_atom_site_fract_x
_atom_site_fract_y
_atom_site_fract_z
Si Si1 0.839404 0.416599 0.735440
Si Si2 0.659425 0.817125 0.369963
Si Si3 0.157178 0.411702 0.179559
Si Si4 0.851469 0.409595 0.570967
Si Si5 0.854174 0.913365 0.952990
Si Si6 0.659625 0.084694 0.508063
Si Si7 0.843517 0.842447 0.803935
O O1 0.779767 0.500000 0.748289
O O2 0.778787 0.364325 0.800429
O O3 0.796150 0.384688 0.653218
O O4 0.000000 0.419484 0.737741
O O5 0.500000 0.825238 0.371293
O O6 0.716759 0.852632 0.448612
O O7 0.701191 0.731164 0.352714
O O8 0.184570 0.500000 0.196726
O O9 0.200544 0.392897 0.093480
O O10 0.248967 0.358369 0.232400
O O11 0.000000 0.392856 0.193560
O O12 0.858189 0.500000 0.567513
O O13 0.755039 0.373826 0.507077
O O14 0.000000 0.376185 0.556132
O O15 0.000000 0.873830 0.966531
O O16 0.862589 0.000000 0.976411
O O17 0.818772 0.909072 0.864325
O O18 0.500000 0.081586 0.503120
O O19 0.714624 0.000000 0.488586
O O20 0.000000 0.836942 0.777154
#
# Coordination Sequence:
#
# PCOD8189137 Si02
#       7
#     8   8   8   8   8   8   8
#     4   8  13  23  42  67  92 118 151 191 231 272
#     4   9  16  27  44  68  98 127 155 191 239 290
#     4   9  18  33  53  75  97 124 163 208 247 284
#     4   8  14  25  42  65  88 109 141 184 224 262
#     4   9  17  29  43  59  84 119 156 189 220 263
#     4   8  14  27  49  74  96 122 162 208 246 282
#     4  10  20  32  46  69 100 129 158 193 239 293
#
# _framework density 17.993279000000001
#
# number of rings (size 3 to 8) (size 9 to 14) (size 15 to 20)
#    0.000    3.286    0.000    2.571    0.000    3.143 
#    2.571    1.429    0.000    0.857    0.000    0.000 
#    0.000    5.714    0.000    0.000    0.000    0.000 
#
# Total GULP energy -346869.905808 kJ/mol
# GULP energy per Si atom -12388.210922 kJ/mol
# Density = 1.795233 g / cm^3
# Si number density = 17.993279 Si / 1000 Ang^3
#
#
#
# Elastic Constant Matrix: (Units=GPa)
#
#
# Indices 1 2 3 4 5 6 
#
# 1 51.9479 25.8672 56.0672 0.0000 0.0000 0.0000
# 2 25.8672 58.1113 45.6352 0.0000 0.0000 0.0000
# 3 56.0672 45.6352 145.4339 0.0000 0.0000 0.0000
# 4 0.0000 0.0000 0.0000 23.1766 0.0000 0.0000
# 5 0.0000 0.0000 0.0000 0.0000 17.3254 0.0000
# 6 0.0000 0.0000 0.0000 0.0000 0.0000 12.0550
#
#
#
# Elastic Compliance Matrix: (Units=1/GPa)
#
#
# Indices 1 2 3 4 5 6 
#
# 1 0.034759 -0.006567 -0.011339 0.000000 0.000000 0.000000
# 2 -0.006567 0.024076 -0.005023 0.000000 0.000000 0.000000
# 3 -0.011339 -0.005023 0.012824 0.000000 0.000000 0.000000
# 4 0.000000 0.000000 0.000000 0.043147 0.000000 0.000000
# 5 0.000000 0.000000 0.000000 0.000000 0.057719 0.000000
# 6 0.000000 0.000000 0.000000 0.000000 0.000000 0.082953
#
#
# Mechanical properties :
#
#
# Convention : Reuss Voigt Hill
#
# Bulk Modulus (GPa) = 38.76079 56.73691 47.74885
# Shear Modulus (GPa) = 16.13234 19.03963 17.58599
#
# Velocity S-wave (km/s) = 2.99754 3.25645 3.12967
# Velocity P-wave (km/s) = 5.79387 6.76314 6.29718
#
# Compressibility (1/GPa) = 0.02579927
#
# Stress axis : x y z
#
# Youngs Moduli (GPa) = 28.76977 41.53463 77.98125
#
# Poissons Ratio (x) = 0.27277 0.88425
# Poissons Ratio (y) = 0.18894 0.39170
# Poissons Ratio (z) = 0.32623 0.20863
#
# Static dielectric constant tensor:
#      x y z
#    x 3.051310 0.000000 0.000000 
#    y 0.000000 3.218520 0.000000 
#    z 0.000000 0.000000 3.630500 
# 
# 
# High freq. dielectric constant tensor:
#      x y z
#    x 1.641640 0.000000 0.000000 
#    y 0.000000 1.674300 0.000000 
#    z 0.000000 0.000000 1.709920 
# 
# From -- ./inp_files/17780.got.cif
#   From: 2010.03.12/outbox.cif.g09.slc.cpg/sg44_9_cif.got.tgz:17780.got - 2010.04.14 02:36:11.
