data_PCOD8189292
_publ_section_title
;
Structure prediction by ZEFSAII (Michael W. Deem and Ramdas Pophale) SiO2 
 PCOD8189292
Probable space group: I M M 2
;
_chemical_formula_sum "Si O2"
_cell_formula_units_Z 56
_cell_length_a 8.599236
_cell_length_b 20.144999
_cell_length_c 15.538886
_cell_angle_alpha 90.000000
_cell_angle_beta 90.000000
_cell_angle_gamma 90.000000
_cell_volume 2691.826094
_symmetry_space_group_name_H-M "I M M 2"
_symmetry_group_IT_number 44
_symmetry_cell_setting 'orthorhombic'
loop_
_space_group_symop_operation_xyz
x,y,z
-x,-y,z
-x,y,z
x,-y,z
1/2+x,1/2+y,1/2+z
1/2-x,1/2-y,1/2+z
1/2-x,1/2+y,1/2+z
1/2+x,1/2-y,1/2+z
loop_
_atom_site_type_symbol
_atom_site_label
_atom_site_fract_x
_atom_site_fract_y
_atom_site_fract_z
Si Si1 0.320161 0.381832 0.586150
Si Si2 0.319905 0.801656 0.685448
Si Si3 0.679276 0.422489 0.264030
Si Si4 0.183673 0.710025 0.835910
Si Si5 0.319459 0.250144 0.018128
Si Si6 0.330800 0.927170 0.932747
Si Si7 0.316559 0.575753 0.776647
O O1 0.500000 0.360179 0.584897
O O2 0.208666 0.324260 0.550453
O O3 0.277201 0.437520 0.516832
O O4 0.271047 0.409241 0.678268
O O5 0.500000 0.786545 0.697326
O O6 0.281338 0.878692 0.699939
O O7 0.235553 0.749442 0.749655
O O8 0.272425 0.794764 0.586160
O O9 0.500000 0.405593 0.250190
O O10 0.712445 0.500000 0.247829
O O11 0.728123 0.393992 0.357772
O O12 0.232022 0.631932 0.833200
O O13 0.000000 0.714964 0.842962
O O14 0.258028 0.741658 0.921137
O O15 0.500000 0.268638 0.020809
O O16 0.500000 0.890670 0.945736
O O17 0.368791 0.000000 0.898692
O O18 0.500000 0.581923 0.790890
O O19 0.262454 0.500000 0.799624
#
# Coordination Sequence:
#
# PCOD8189292 Si02
#       7
#     8   8   8   8   8   8   8
#     4  11  21  36  59  89 124 162 207 258 320 388
#     4  12  24  42  66  94 128 165 210 265 322 385
#     4  10  21  38  60  87 121 162 207 256 316 382
#     4  12  25  43  67  96 131 174 221 272 328 391
#     4  12  25  42  65  93 125 164 213 269 325 386
#     4  10  20  33  51  80 119 160 202 248 302 366
#     4  10  22  41  65  93 130 175 220 272 334 396
#
# _framework density 20.803720999999999
#
# number of rings (size 3 to 8) (size 9 to 14) (size 15 to 20)
#    0.000    1.000    1.429    6.429    0.000    3.143 
#    0.000    0.714    0.000    4.286    0.000    0.000 
#    0.000    0.000    0.000    0.000    0.000    0.000 
#
# Total GULP energy -346980.112714 kJ/mol
# GULP energy per Si atom -12392.146883 kJ/mol
# Density = 2.075637 g / cm^3
# Si number density = 20.803721 Si / 1000 Ang^3
#
#
#
# Elastic Constant Matrix: (Units=GPa)
#
#
# Indices 1 2 3 4 5 6 
#
# 1 109.5649 36.0587 22.7138 0.0000 0.0000 0.0000
# 2 36.0587 88.5511 16.9572 0.0000 0.0000 0.0000
# 3 22.7138 16.9572 74.0450 -0.0002 0.0000 0.0000
# 4 0.0000 0.0000 -0.0002 39.6319 0.0000 0.0000
# 5 0.0000 0.0000 0.0000 0.0000 32.7711 0.0000
# 6 0.0000 0.0000 0.0000 0.0000 0.0000 31.8160
#
#
#
# Elastic Compliance Matrix: (Units=1/GPa)
#
#
# Indices 1 2 3 4 5 6 
#
# 1 0.010947 -0.003990 -0.002444 0.000000 0.000000 0.000000
# 2 -0.003990 0.013265 -0.001814 0.000000 0.000000 0.000000
# 3 -0.002444 -0.001814 0.014671 0.000000 0.000000 0.000000
# 4 0.000000 0.000000 0.000000 0.025232 0.000000 0.000000
# 5 0.000000 0.000000 0.000000 0.000000 0.030515 0.000000
# 6 0.000000 0.000000 0.000000 0.000000 0.000000 0.031431
#
#
# Mechanical properties :
#
#
# Convention : Reuss Voigt Hill
#
# Bulk Modulus (GPa) = 44.66994 47.06894 45.86944
# Shear Modulus (GPa) = 33.32945 33.93924 33.63435
#
# Velocity S-wave (km/s) = 4.00695 4.04344 4.02524
# Velocity P-wave (km/s) = 6.55182 6.66885 6.61059
#
# Compressibility (1/GPa) = 0.02238642
#
# Stress axis : x y z
#
# Youngs Moduli (GPa) = 91.35161 75.38725 68.16377
#
# Poissons Ratio (x) = 0.30076 0.16661
# Poissons Ratio (y) = 0.36445 0.12365
# Poissons Ratio (z) = 0.22329 0.13675
#
# Static dielectric constant tensor:
#      x y z
#    x 4.102930 0.000000 0.000000 
#    y 0.000000 3.668240 0.000000 
#    z 0.000000 0.000000 3.944400 
# 
# 
# High freq. dielectric constant tensor:
#      x y z
#    x 1.825040 0.000000 0.000000 
#    y 0.000000 1.818760 0.000000 
#    z 0.000000 0.000000 1.803700 
# 
# From -- ./inp_files/16467.got.cif
#   From: 2010.03.12/outbox.cif.g09.slc.cpg/sg44_9_cif.got.tgz:16467.got - 2010.04.14 02:36:11.
