data_PCOD8189943
_publ_section_title
;
Structure prediction by ZEFSAII (Michael W. Deem and Ramdas Pophale) SiO2 
 PCOD8189943
Probable space group: I M M 2
;
_chemical_formula_sum "Si O2"
_cell_formula_units_Z 64
_cell_length_a 16.034501
_cell_length_b 22.278837
_cell_length_c 9.803324
_cell_angle_alpha 90.000000
_cell_angle_beta 90.000000
_cell_angle_gamma 90.000000
_cell_volume 3502.041767
_symmetry_space_group_name_H-M "I M M 2"
_symmetry_group_IT_number 44
_symmetry_cell_setting 'orthorhombic'
loop_
_space_group_symop_operation_xyz
x,y,z
-x,-y,z
-x,y,z
x,-y,z
1/2+x,1/2+y,1/2+z
1/2-x,1/2-y,1/2+z
1/2-x,1/2+y,1/2+z
1/2+x,1/2-y,1/2+z
loop_
_atom_site_type_symbol
_atom_site_label
_atom_site_fract_x
_atom_site_fract_y
_atom_site_fract_z
Si Si1 0.192457 0.165813 0.996000
Si Si2 0.903930 0.221278 0.758853
Si Si3 0.904927 0.224849 0.216166
Si Si4 0.314229 0.069351 0.071874
Si Si5 0.347584 0.154205 0.583628
Si Si6 0.905533 0.568521 0.299176
Si Si7 0.594503 0.858726 0.301241
Si Si8 0.190945 0.777158 0.495946
O O1 0.153338 0.175926 0.846216
O O2 0.120359 0.173405 0.109076
O O3 0.229732 0.099254 0.012989
O O4 0.267476 0.212632 0.022336
O O5 0.879175 0.288862 0.800172
O O6 0.885914 0.213577 0.599031
O O7 0.000000 0.207179 0.788804
O O8 0.895864 0.287731 0.138589
O O9 0.843337 0.219808 0.343702
O O10 0.000000 0.215771 0.263222
O O11 0.344467 0.101533 0.209452
O O12 0.295120 0.000000 0.104156
O O13 0.385691 0.076651 0.958433
O O14 0.342189 0.107356 0.707966
O O15 0.397662 0.122478 0.459775
O O16 0.256153 0.169815 0.526603
O O17 0.894521 0.500000 0.254584
O O18 0.000000 0.590968 0.275941
O O19 0.500000 0.867972 0.249624
#
# Coordination Sequence:
#
# PCOD8189943 Si02
#       8
#     8   8   8   8   8   8   8   8
#     4  11  20  36  55  79 111 145 185 231 280 334
#     4  11  21  34  53  81 114 147 182 232 291 341
#     4  11  21  34  54  80 109 142 180 227 287 341
#     4  11  23  39  58  81 114 157 197 234 277 335
#     4  11  22  34  56  80 111 149 186 232 283 336
#     4  10  21  37  55  78 110 150 194 231 267 326
#     4  11  21  34  52  81 116 150 189 228 278 339
#     4  11  20  33  53  80 113 142 180 230 281 338
#
# _framework density 18.275051999999999
#
# number of rings (size 3 to 8) (size 9 to 14) (size 15 to 20)
#    0.000    1.125    3.750    6.000    0.000    1.250 
#    0.000    0.000    0.000    1.500    0.000    0.000 
#    0.000    5.000    0.000    0.000    0.000    0.000 
#
# Total GULP energy -396885.971235 kJ/mol
# GULP energy per Si atom -12402.686601 kJ/mol
# Density = 1.823346 g / cm^3
# Si number density = 18.275052 Si / 1000 Ang^3
#
#
#
# Elastic Constant Matrix: (Units=GPa)
#
#
# Indices 1 2 3 4 5 6 
#
# 1 86.1571 37.7819 27.2764 0.0000 0.0000 0.0000
# 2 37.7819 80.0996 31.6269 0.0000 0.0000 0.0000
# 3 27.2764 31.6269 104.6551 0.0000 0.0000 0.0000
# 4 0.0000 0.0000 0.0000 24.7846 0.0000 0.0000
# 5 0.0000 0.0000 0.0000 0.0000 37.1784 0.0000
# 6 0.0000 0.0000 0.0000 0.0000 0.0000 21.8680
#
#
#
# Elastic Compliance Matrix: (Units=1/GPa)
#
#
# Indices 1 2 3 4 5 6 
#
# 1 0.014997 -0.006280 -0.002011 0.000000 0.000000 0.000000
# 2 -0.006280 0.016806 -0.003442 0.000000 0.000000 0.000000
# 3 -0.002011 -0.003442 0.011119 0.000000 0.000000 0.000000
# 4 0.000000 0.000000 0.000000 0.040348 0.000000 0.000000
# 5 0.000000 0.000000 0.000000 0.000000 0.026897 0.000000
# 6 0.000000 0.000000 0.000000 0.000000 0.000000 0.045729
#
#
# Mechanical properties :
#
#
# Convention : Reuss Voigt Hill
#
# Bulk Modulus (GPa) = 51.39625 51.58692 51.49158
# Shear Modulus (GPa) = 26.90376 28.38130 27.64253
#
# Velocity S-wave (km/s) = 3.84103 3.94510 3.89341
# Velocity P-wave (km/s) = 6.91781 7.00293 6.96050
#
# Compressibility (1/GPa) = 0.01945667
#
# Stress axis : x y z
#
# Youngs Moduli (GPa) = 66.67876 59.50369 89.93239
#
# Poissons Ratio (x) = 0.37368 0.18085
# Poissons Ratio (y) = 0.41874 0.30954
# Poissons Ratio (z) = 0.13409 0.20481
#
# Static dielectric constant tensor:
#      x y z
#    x 3.332380 0.000000 0.000000 
#    y 0.000000 3.172910 0.000000 
#    z 0.000000 0.000000 3.482410 
# 
# 
# High freq. dielectric constant tensor:
#      x y z
#    x 1.704480 0.000000 0.000000 
#    y 0.000000 1.667770 0.000000 
#    z 0.000000 0.000000 1.728360 
# 
# From -- ./inp_files/7539.got.cif
#   From: 2010.03.12/outbox.cif.g09.slc.cpg/sg44_4_cif.got.tgz:7539.got - 2010.04.14 02:36:11.
