data_PCOD8189278
_publ_section_title
;
Structure prediction by ZEFSAII (Michael W. Deem and Ramdas Pophale) SiO2 
 PCOD8189278
Probable space group: I M M 2
;
_chemical_formula_sum "Si O2"
_cell_formula_units_Z 64
_cell_length_a 8.733368
_cell_length_b 29.935834
_cell_length_c 14.284581
_cell_angle_alpha 90.000000
_cell_angle_beta 90.000000
_cell_angle_gamma 90.000000
_cell_volume 3734.570209
_symmetry_space_group_name_H-M "I M M 2"
_symmetry_group_IT_number 44
_symmetry_cell_setting 'orthorhombic'
loop_
_space_group_symop_operation_xyz
x,y,z
-x,-y,z
-x,y,z
x,-y,z
1/2+x,1/2+y,1/2+z
1/2-x,1/2-y,1/2+z
1/2-x,1/2+y,1/2+z
1/2+x,1/2-y,1/2+z
loop_
_atom_site_type_symbol
_atom_site_label
_atom_site_fract_x
_atom_site_fract_y
_atom_site_fract_z
Si Si1 0.172993 0.317551 0.047680
Si Si2 0.821829 0.300660 0.742323
Si Si3 0.826604 0.369914 0.235652
Si Si4 0.178851 0.210090 0.844227
Si Si5 0.179162 0.133883 0.376064
Si Si6 0.321681 0.949136 0.450837
Si Si7 0.675050 0.227342 0.038182
Si Si8 0.176455 0.050734 0.651250
O O1 0.185218 0.352182 0.130865
O O2 0.289312 0.277740 0.068818
O O3 0.000000 0.299145 0.036183
O O4 0.220897 0.341421 0.953330
O O5 0.761116 0.254497 0.790265
O O6 0.723663 0.342741 0.778448
O O7 0.795372 0.301798 0.630848
O O8 0.000000 0.306745 0.767257
O O9 0.757664 0.334527 0.307170
O O10 0.735235 0.416890 0.234565
O O11 0.000000 0.379198 0.266532
O O12 0.000000 0.204923 0.828010
O O13 0.215205 0.212706 0.954199
O O14 0.227554 0.081821 0.378244
O O15 0.000000 0.138935 0.395477
O O16 0.500000 0.937451 0.443891
O O17 0.270530 0.940200 0.556916
O O18 0.287545 0.000000 0.421468
O O19 0.500000 0.223774 0.004511
O O20 0.000000 0.060873 0.629108
O O21 0.200365 0.000000 0.686045
#
# Coordination Sequence:
#
# PCOD8189278 Si02
#       8
#     8   8   8   8   8   8   8   8
#     4  11  21  32  49  73 105 141 177 216 258 306
#     4  10  22  37  53  74 104 139 176 216 260 310
#     4  11  22  34  52  76 105 143 181 217 257 312
#     4  11  22  36  54  76 105 139 176 220 264 309
#     4  12  23  33  52  77 105 140 178 218 259 310
#     4  10  20  34  52  74 104 140 175 213 260 314
#     4  11  22  37  54  74 102 138 180 222 261 306
#     4  10  20  33  51  76 106 138 174 217 263 312
#
# _framework density 17.137179
#
# number of rings (size 3 to 8) (size 9 to 14) (size 15 to 20)
#    0.000    1.250    3.750    3.375    0.000    4.000 
#    0.000    0.000    0.000    0.000    0.000    0.875 
#    0.000    1.000    0.000    0.000    0.000    0.000 
#
# Total GULP energy -396871.615266 kJ/mol
# GULP energy per Si atom -12402.237977 kJ/mol
# Density = 1.709817 g / cm^3
# Si number density = 17.137179 Si / 1000 Ang^3
#
#
#
# Elastic Constant Matrix: (Units=GPa)
#
#
# Indices 1 2 3 4 5 6 
#
# 1 53.3476 33.8406 30.3758 0.0006 0.0000 0.0000
# 2 33.8406 102.9452 27.6886 -0.0001 0.0000 0.0000
# 3 30.3758 27.6886 53.2389 -0.0018 0.0000 0.0000
# 4 0.0006 -0.0001 -0.0018 22.2643 0.0000 0.0000
# 5 0.0000 0.0000 0.0000 0.0000 25.6822 -0.0002
# 6 0.0000 0.0000 0.0000 0.0000 -0.0002 29.5908
#
#
#
# Elastic Compliance Matrix: (Units=1/GPa)
#
#
# Indices 1 2 3 4 5 6 
#
# 1 0.030922 -0.006301 -0.014366 -0.000002 0.000000 0.000000
# 2 -0.006301 0.012578 -0.002946 0.000000 0.000000 0.000000
# 3 -0.014366 -0.002946 0.028512 0.000003 0.000000 0.000000
# 4 -0.000002 0.000000 0.000003 0.044915 0.000000 0.000000
# 5 0.000000 0.000000 0.000000 0.000000 0.038937 0.000000
# 6 0.000000 0.000000 0.000000 0.000000 0.000000 0.033794
#
#
# Mechanical properties :
#
#
# Convention : Reuss Voigt Hill
#
# Bulk Modulus (GPa) = 40.34606 43.70463 42.02534
# Shear Modulus (GPa) = 20.39607 23.34925 21.87266
#
# Velocity S-wave (km/s) = 3.45362 3.69520 3.57645
# Velocity P-wave (km/s) = 6.28470 6.61545 6.45219
#
# Compressibility (1/GPa) = 0.02478557
#
# Stress axis : x y z
#
# Youngs Moduli (GPa) = 32.33989 79.50631 35.07301
#
# Poissons Ratio (x) = 0.50096 0.50384
# Poissons Ratio (y) = 0.20377 0.10334
# Poissons Ratio (z) = 0.46458 0.23426
#
# Static dielectric constant tensor:
#      x y z
#    x 3.339910 0.000000 0.000000 
#    y 0.000000 3.415270 0.000000 
#    z 0.000000 0.000000 2.978670 
# 
# 
# High freq. dielectric constant tensor:
#      x y z
#    x 1.677140 0.000000 0.000000 
#    y 0.000000 1.655120 0.000000 
#    z 0.000000 0.000000 1.629950 
# 
# From -- ./inp_files/17120.got.cif
#   From: 2010.03.12/outbox.cif.g09.slc.cpg/sg44_9_cif.got.tgz:17120.got - 2010.04.14 02:36:11.
