data_PCOD8189539
_publ_section_title
;
Structure prediction by ZEFSAII (Michael W. Deem and Ramdas Pophale) SiO2 
 PCOD8189539
Probable space group: I M M 2
;
_chemical_formula_sum "Si O2"
_cell_formula_units_Z 64
_cell_length_a 35.351946
_cell_length_b 9.171015
_cell_length_c 10.274182
_cell_angle_alpha 90.000000
_cell_angle_beta 90.000000
_cell_angle_gamma 90.000000
_cell_volume 3331.025701
_symmetry_space_group_name_H-M "I M M 2"
_symmetry_group_IT_number 44
_symmetry_cell_setting 'orthorhombic'
loop_
_space_group_symop_operation_xyz
x,y,z
-x,-y,z
-x,y,z
x,-y,z
1/2+x,1/2+y,1/2+z
1/2-x,1/2-y,1/2+z
1/2-x,1/2+y,1/2+z
1/2+x,1/2-y,1/2+z
loop_
_atom_site_type_symbol
_atom_site_label
_atom_site_fract_x
_atom_site_fract_y
_atom_site_fract_z
Si Si1 0.832297 0.831164 0.167050
Si Si2 0.455732 0.167209 0.431523
Si Si3 0.581271 0.827595 0.169355
Si Si4 0.456285 0.828177 0.906311
Si Si5 0.705807 0.828136 0.903144
Si Si6 0.707553 0.671751 0.402800
Si Si7 0.667233 0.827736 0.168054
Si Si8 0.080173 0.170287 0.168504
O O1 0.819031 0.742236 0.291224
O O2 0.876042 0.798532 0.138675
O O3 0.825097 0.000000 0.196961
O O4 0.808310 0.779611 0.042664
O O5 0.500000 0.177849 0.406136
O O6 0.435112 0.234303 0.304649
O O7 0.444925 0.263230 0.554531
O O8 0.443524 0.000000 0.458012
O O9 0.624193 0.775333 0.150811
O O10 0.578257 0.000000 0.175068
O O11 0.556339 0.771407 0.048401
O O12 0.500000 0.789136 0.884353
O O13 0.430678 0.744950 0.803328
O O14 0.448987 0.000000 0.890733
O O15 0.749106 0.777766 0.892308
O O16 0.701568 0.000000 0.889841
O O17 0.690234 0.774940 0.042070
O O18 0.702917 0.500000 0.382866
O O19 0.683953 0.752607 0.294053
O O20 0.670150 0.000000 0.187637
O O21 0.071384 0.000000 0.178561
#
# Coordination Sequence:
#
# PCOD8189539 Si02
#       8
#     8   8   8   8   8   8   8   8
#     4  10  22  39  57  78 108 145 181 218 263 317
#     4  10  20  35  56  81 108 140 179 222 268 318
#     4   9  18  34  57  83 108 135 175 227 273 315
#     4  10  20  36  59  83 107 140 180 221 268 319
#     4  10  21  36  56  82 109 138 176 223 270 315
#     4  10  21  37  55  78 109 142 178 221 266 315
#     4  10  20  35  56  81 108 140 178 221 269 318
#     4  11  23  37  54  79 111 146 181 218 263 314
#
# _framework density 19.2133
#
# number of rings (size 3 to 8) (size 9 to 14) (size 15 to 20)
#    0.000    2.000    0.000    3.375    0.000    8.000 
#    0.000    1.250    0.000    1.500    0.000    0.000 
#    0.000    0.000    0.000    0.000    0.000    0.000 
#
# Total GULP energy -396939.352009 kJ/mol
# GULP energy per Si atom -12404.354750 kJ/mol
# Density = 1.916957 g / cm^3
# Si number density = 19.213300 Si / 1000 Ang^3
#
#
#
# Elastic Constant Matrix: (Units=GPa)
#
#
# Indices 1 2 3 4 5 6 
#
# 1 74.0508 27.2701 18.9891 0.0000 0.0000 0.0000
# 2 27.2701 40.1213 33.1878 0.0000 0.0000 0.0000
# 3 18.9891 33.1878 112.2841 0.0000 0.0000 0.0000
# 4 0.0000 0.0000 0.0000 21.2249 0.0000 0.0000
# 5 0.0000 0.0000 0.0000 0.0000 45.1127 0.0000
# 6 0.0000 0.0000 0.0000 0.0000 0.0000 32.4790
#
#
#
# Elastic Compliance Matrix: (Units=1/GPa)
#
#
# Indices 1 2 3 4 5 6 
#
# 1 0.018062 -0.012905 0.000760 0.000000 0.000000 0.000000
# 2 -0.012905 0.042211 -0.010294 0.000000 0.000000 0.000000
# 3 0.000760 -0.010294 0.011820 0.000000 0.000000 0.000000
# 4 0.000000 0.000000 0.000000 0.047114 0.000000 0.000000
# 5 0.000000 0.000000 0.000000 0.000000 0.022167 0.000000
# 6 0.000000 0.000000 0.000000 0.000000 0.000000 0.030789
#
#
# Mechanical properties :
#
#
# Convention : Reuss Voigt Hill
#
# Bulk Modulus (GPa) = 36.74498 42.81670 39.78084
# Shear Modulus (GPa) = 22.11295 29.56395 25.83845
#
# Velocity S-wave (km/s) = 3.39620 3.92691 3.67116
# Velocity P-wave (km/s) = 5.87751 6.54936 6.22251
#
# Compressibility (1/GPa) = 0.02721460
#
# Stress axis : x y z
#
# Youngs Moduli (GPa) = 55.36546 23.69075 84.60230
#
# Poissons Ratio (x) = 0.30573 -0.06428
# Poissons Ratio (y) = 0.71449 0.87087
# Poissons Ratio (z) = -0.04206 0.24387
#
# Static dielectric constant tensor:
#      x y z
#    x 3.849170 0.000000 0.000000 
#    y 0.000000 3.317650 0.000000 
#    z 0.000000 0.000000 3.645960 
# 
# 
# High freq. dielectric constant tensor:
#      x y z
#    x 1.765170 0.000000 0.000000 
#    y 0.000000 1.723470 0.000000 
#    z 0.000000 0.000000 1.764090 
# 
# From -- ./inp_files/15058.got.cif
#   From: 2010.03.12/outbox.cif.g09.slc.cpg/sg44_8_cif.got.tgz:15058.got - 2010.04.14 02:36:11.
