data_PCOD8189596
_publ_section_title
;
Structure prediction by ZEFSAII (Michael W. Deem and Ramdas Pophale) SiO2 
 PCOD8189596
Probable space group: I M M 2
;
_chemical_formula_sum "Si O2"
_cell_formula_units_Z 56
_cell_length_a 8.736060
_cell_length_b 19.914710
_cell_length_c 15.437503
_cell_angle_alpha 90.000000
_cell_angle_beta 90.000000
_cell_angle_gamma 90.000000
_cell_volume 2685.756588
_symmetry_space_group_name_H-M "I M M 2"
_symmetry_group_IT_number 44
_symmetry_cell_setting 'orthorhombic'
loop_
_space_group_symop_operation_xyz
x,y,z
-x,-y,z
-x,y,z
x,-y,z
1/2+x,1/2+y,1/2+z
1/2-x,1/2-y,1/2+z
1/2-x,1/2+y,1/2+z
1/2+x,1/2-y,1/2+z
loop_
_atom_site_type_symbol
_atom_site_label
_atom_site_fract_x
_atom_site_fract_y
_atom_site_fract_z
Si Si1 0.175411 0.255510 0.640450
Si Si2 0.172981 0.110894 0.724756
Si Si3 0.171395 0.578724 0.883254
Si Si4 0.822771 0.198677 0.306872
Si Si5 0.818319 0.788969 0.958632
Si Si6 0.835630 0.926719 0.544594
Si Si7 0.321183 0.076979 0.899674
O O1 0.193024 0.183200 0.682754
O O2 0.267675 0.301284 0.707450
O O3 0.247548 0.255616 0.544554
O O4 0.000000 0.279330 0.634163
O O5 0.213776 0.063387 0.643974
O O6 0.292294 0.093976 0.799185
O O7 0.000000 0.099997 0.760568
O O8 0.191171 0.500000 0.864310
O O9 0.293221 0.620850 0.828863
O O10 0.202978 0.602387 0.983121
O O11 0.000000 0.602082 0.861083
O O12 0.734928 0.250274 0.371277
O O13 0.000000 0.216824 0.313714
O O14 0.769016 0.867717 0.956309
O O15 0.000000 0.784978 0.962760
O O16 0.000000 0.886007 0.539390
O O17 0.866471 0.000000 0.505727
O O18 0.500000 0.084597 0.918930
O O19 0.267940 0.000000 0.920496
#
# Coordination Sequence:
#
# PCOD8189596 Si02
#       7
#     8   8   8   8   8   8   8
#     4  11  23  40  64  95 128 164 210 266 326 390
#     4  10  20  35  58  88 121 160 205 256 317 385
#     4  10  21  37  58  86 121 161 206 258 317 380
#     4  12  24  41  65  93 127 166 211 265 320 383
#     4  12  25  43  67  96 130 172 220 273 328 390
#     4   9  17  30  50  80 118 157 197 241 298 370
#     4  11  24  41  63  92 129 173 220 274 334 395
#
# _framework density 20.850735
#
# number of rings (size 3 to 8) (size 9 to 14) (size 15 to 20)
#    0.000    1.286    1.429    5.143    0.000    4.857 
#    0.000    2.143    0.000    4.286    0.000    0.000 
#    0.000    0.000    0.000    0.000    0.000    0.000 
#
# Total GULP energy -346921.762174 kJ/mol
# GULP energy per Si atom -12390.062935 kJ/mol
# Density = 2.080328 g / cm^3
# Si number density = 20.850735 Si / 1000 Ang^3
#
#
#
# Elastic Constant Matrix: (Units=GPa)
#
#
# Indices 1 2 3 4 5 6 
#
# 1 120.8522 29.2214 28.0951 0.0000 0.0000 0.0000
# 2 29.2214 72.7111 10.5168 0.0000 0.0000 0.0000
# 3 28.0951 10.5168 82.6053 -0.0001 0.0000 0.0000
# 4 0.0000 0.0000 -0.0001 32.2623 0.0000 0.0000
# 5 0.0000 0.0000 0.0000 0.0000 38.2661 0.0000
# 6 0.0000 0.0000 0.0000 0.0000 0.0000 28.6499
#
#
#
# Elastic Compliance Matrix: (Units=1/GPa)
#
#
# Indices 1 2 3 4 5 6 
#
# 1 0.009796 -0.003520 -0.002884 0.000000 0.000000 0.000000
# 2 -0.003520 0.015276 -0.000748 0.000000 0.000000 0.000000
# 3 -0.002884 -0.000748 0.013182 0.000000 0.000000 0.000000
# 4 0.000000 0.000000 0.000000 0.030996 0.000000 0.000000
# 5 0.000000 0.000000 0.000000 0.000000 0.026133 0.000000
# 6 0.000000 0.000000 0.000000 0.000000 0.000000 0.034904
#
#
# Mechanical properties :
#
#
# Convention : Reuss Voigt Hill
#
# Bulk Modulus (GPa) = 41.75144 45.75946 43.75545
# Shear Modulus (GPa) = 32.77136 33.72468 33.24802
#
# Velocity S-wave (km/s) = 3.96878 4.02610 3.99754
# Velocity P-wave (km/s) = 6.40852 6.60352 6.50675
#
# Compressibility (1/GPa) = 0.02395127
#
# Stress axis : x y z
#
# Youngs Moduli (GPa) = 102.08244 65.46326 75.86269
#
# Poissons Ratio (x) = 0.23042 0.21876
# Poissons Ratio (y) = 0.35931 0.05672
# Poissons Ratio (z) = 0.29437 0.04895
#
# Static dielectric constant tensor:
#      x y z
#    x 3.920520 0.000000 0.000000 
#    y 0.000000 3.858420 0.000000 
#    z 0.000000 0.000000 4.031660 
# 
# 
# High freq. dielectric constant tensor:
#      x y z
#    x 1.818470 0.000000 0.000000 
#    y 0.000000 1.819790 0.000000 
#    z 0.000000 0.000000 1.804540 
# 
# From -- ./inp_files/16458.got.cif
#   From: 2010.03.12/outbox.cif.g09.slc.cpg/sg44_9_cif.got.tgz:16458.got - 2010.04.14 02:36:11.
