data_PCOD8189051
_publ_section_title
;
Structure prediction by ZEFSAII (Michael W. Deem and Ramdas Pophale) SiO2 
 PCOD8189051
Probable space group: I M M 2
;
_chemical_formula_sum "Si O2"
_cell_formula_units_Z 56
_cell_length_a 16.171357
_cell_length_b 19.097916
_cell_length_c 9.510937
_cell_angle_alpha 90.000000
_cell_angle_beta 90.000000
_cell_angle_gamma 90.000000
_cell_volume 2937.350342
_symmetry_space_group_name_H-M "I M M 2"
_symmetry_group_IT_number 44
_symmetry_cell_setting 'orthorhombic'
loop_
_space_group_symop_operation_xyz
x,y,z
-x,-y,z
-x,y,z
x,-y,z
1/2+x,1/2+y,1/2+z
1/2-x,1/2-y,1/2+z
1/2-x,1/2+y,1/2+z
1/2+x,1/2-y,1/2+z
loop_
_atom_site_type_symbol
_atom_site_label
_atom_site_fract_x
_atom_site_fract_y
_atom_site_fract_z
Si Si1 0.826014 0.918931 0.223510
Si Si2 0.337314 0.841564 0.188016
Si Si3 0.500000 0.921080 0.850743
Si Si4 0.676387 0.317613 0.220527
Si Si5 0.000000 0.421206 0.684922
Si Si6 0.849860 0.326769 0.358024
Si Si7 0.594290 0.677848 0.929975
Si Si8 0.405325 0.578778 0.428293
O O1 0.739545 0.881498 0.256269
O O2 0.896047 0.886649 0.323812
O O3 0.818071 0.000000 0.259441
O O4 0.849194 0.905752 0.062536
O O5 0.341156 0.763788 0.252007
O O6 0.419561 0.880683 0.239629
O O7 0.327489 0.842312 0.019688
O O8 0.417799 0.881122 0.798998
O O9 0.500000 0.000000 0.789865
O O10 0.500000 0.921921 0.017910
O O11 0.770618 0.336419 0.258275
O O12 0.614473 0.365291 0.309146
O O13 0.658107 0.332797 0.057677
O O14 0.000000 0.500000 0.745112
O O15 0.885725 0.248726 0.345108
O O16 0.500000 0.680940 0.986149
O O17 0.500000 0.586733 0.474281
O O18 0.387977 0.500000 0.371748
#
# Coordination Sequence:
#
# PCOD8189051 Si02
#       8
#     8   8   4   8   4   8   8   8
#     4  11  22  39  61  84 116 158 200 246 294 352
#     4  10  20  34  58  89 118 151 197 239 293 356
#     4   9  18  32  58  87 114 151 192 238 297 355
#     4  11  22  36  62  87 121 155 194 242 298 354
#     4   9  18  32  54  87 122 151 186 244 297 351
#     4  10  19  36  57  87 121 150 193 241 294 349
#     4  11  23  39  59  87 123 158 196 243 295 353
#     4  10  22  39  59  86 116 150 196 250 299 344
#
# _framework density 19.064800999999999
#
# number of rings (size 3 to 8) (size 9 to 14) (size 15 to 20)
#    0.000    1.714    3.571    1.286    4.000    2.571 
#    0.000    0.000    0.000    0.857    0.000    1.000 
#    0.000    0.000    0.000    0.000    0.000    0.000 
#
# Total GULP energy -347277.410568 kJ/mol
# GULP energy per Si atom -12402.764663 kJ/mol
# Density = 1.902141 g / cm^3
# Si number density = 19.064801 Si / 1000 Ang^3
#
#
#
# Elastic Constant Matrix: (Units=GPa)
#
#
# Indices 1 2 3 4 5 6 
#
# 1 128.0928 52.8251 26.1860 0.0000 0.0000 0.0000
# 2 52.8251 145.9169 44.5581 0.0000 0.0000 0.0000
# 3 26.1860 44.5581 41.3636 0.0000 0.0000 0.0000
# 4 0.0000 0.0000 0.0000 28.3487 0.0000 0.0000
# 5 0.0000 0.0000 0.0000 0.0000 28.1414 0.0000
# 6 0.0000 0.0000 0.0000 0.0000 0.0000 36.1247
#
#
#
# Elastic Compliance Matrix: (Units=1/GPa)
#
#
# Indices 1 2 3 4 5 6 
#
# 1 0.009494 -0.002387 -0.003439 0.000000 0.000000 0.000000
# 2 -0.002387 0.010813 -0.010137 0.000000 0.000000 0.000000
# 3 -0.003439 -0.010137 0.037273 0.000000 0.000000 0.000000
# 4 0.000000 0.000000 0.000000 0.035275 0.000000 0.000000
# 5 0.000000 0.000000 0.000000 0.000000 0.035535 0.000000
# 6 0.000000 0.000000 0.000000 0.000000 0.000000 0.027682
#
#
# Mechanical properties :
#
#
# Convention : Reuss Voigt Hill
#
# Bulk Modulus (GPa) = 38.98044 62.50129 50.74087
# Shear Modulus (GPa) = 25.43900 31.30991 28.37446
#
# Velocity S-wave (km/s) = 3.65683 4.05691 3.86206
# Velocity P-wave (km/s) = 6.19036 7.40267 6.82349
#
# Compressibility (1/GPa) = 0.02565389
#
# Stress axis : x y z
#
# Youngs Moduli (GPa) = 105.32651 92.48351 26.82926
#
# Poissons Ratio (x) = 0.22075 0.09227
# Poissons Ratio (y) = 0.25140 0.27196
# Poissons Ratio (z) = 0.36225 0.93748
#
# Static dielectric constant tensor:
#      x y z
#    x 3.553740 0.000000 0.000000 
#    y 0.000000 3.674010 0.000000 
#    z 0.000000 0.000000 3.069780 
# 
# 
# High freq. dielectric constant tensor:
#      x y z
#    x 1.755410 0.000000 0.000000 
#    y 0.000000 1.753940 0.000000 
#    z 0.000000 0.000000 1.700830 
# 
# From -- ./inp_files/7429.got.cif
#   From: 2010.03.12/outbox.cif.g09.slc.cpg/sg44_4_cif.got.tgz:7429.got - 2010.04.14 02:36:11.
