data_PCOD8189248
_publ_section_title
;
Structure prediction by ZEFSAII (Michael W. Deem and Ramdas Pophale) SiO2 
 PCOD8189248
Probable space group: I M M 2
;
_chemical_formula_sum "Si O2"
_cell_formula_units_Z 64
_cell_length_a 9.590986
_cell_length_b 9.158306
_cell_length_c 41.177798
_cell_angle_alpha 90.000000
_cell_angle_beta 90.000000
_cell_angle_gamma 90.000000
_cell_volume 3616.941846
_symmetry_space_group_name_H-M "I M M 2"
_symmetry_group_IT_number 44
_symmetry_cell_setting 'orthorhombic'
loop_
_space_group_symop_operation_xyz
x,y,z
-x,-y,z
-x,y,z
x,-y,z
1/2+x,1/2+y,1/2+z
1/2-x,1/2-y,1/2+z
1/2-x,1/2+y,1/2+z
1/2+x,1/2-y,1/2+z
loop_
_atom_site_type_symbol
_atom_site_label
_atom_site_fract_x
_atom_site_fract_y
_atom_site_fract_z
Si Si1 0.662145 0.170831 0.570450
Si Si2 0.159068 0.172173 0.254487
Si Si3 0.163932 0.331850 0.623734
Si Si4 0.162159 0.670969 0.388835
Si Si5 0.834405 0.164803 0.006526
Si Si6 0.653961 0.826792 0.196586
Si Si7 0.165563 0.661349 0.316468
Si Si8 0.337265 0.829341 0.442663
O O1 0.500000 0.206318 0.576511
O O2 0.749037 0.226078 0.600938
O O3 0.719712 0.252492 0.538508
O O4 0.687080 0.000000 0.565449
O O5 0.242223 0.237605 0.223718
O O6 0.222939 0.233535 0.288145
O O7 0.000000 0.222312 0.249983
O O8 0.173139 0.000000 0.256243
O O9 0.205645 0.500000 0.617159
O O10 0.204164 0.284845 0.660434
O O11 0.000000 0.309693 0.617739
O O12 0.190280 0.500000 0.395162
O O13 0.210376 0.714606 0.352328
O O14 0.254068 0.769425 0.412127
O O15 0.000000 0.707377 0.394444
O O16 0.779678 0.248822 0.974771
O O17 0.000000 0.165127 0.006466
O O18 0.775131 0.000000 0.006408
O O19 0.500000 0.762220 0.203120
O O20 0.648120 0.000000 0.199069
O O21 0.225781 0.500000 0.309883
O O22 0.000000 0.657048 0.315831
O O23 0.500000 0.796472 0.437209
O O24 0.308656 0.000000 0.446922
#
# Coordination Sequence:
#
# PCOD8189248 Si02
#       8
#     8   8   8   8   8   8   8   8
#     4  10  20  33  50  74 102 128 157 197 243 288
#     4   9  16  26  44  70  93 115 151 195 233 274
#     4   9  18  33  52  72  95 127 166 202 238 285
#     4   9  18  33  52  72  95 127 167 205 240 283
#     4   9  17  31  52  74  96 127 164 198 236 283
#     4   8  15  29  47  66  91 123 155 189 233 282
#     4   8  15  29  47  66  91 123 155 190 236 284
#     4  10  20  33  50  74 103 131 159 195 241 290
#
# _framework density 17.694507000000002
#
# number of rings (size 3 to 8) (size 9 to 14) (size 15 to 20)
#    0.000    3.000    0.000    2.625    0.000    4.500 
#    0.000    4.375    0.000    8.625    0.000    0.000 
#    0.000    0.000    0.000    0.000    0.000    0.000 
#
# Total GULP energy -396698.795662 kJ/mol
# GULP energy per Si atom -12396.837364 kJ/mol
# Density = 1.765423 g / cm^3
# Si number density = 17.694507 Si / 1000 Ang^3
#
#
#
# Elastic Constant Matrix: (Units=GPa)
#
#
# Indices 1 2 3 4 5 6 
#
# 1 48.1819 36.9804 57.5435 0.0000 0.0000 0.0000
# 2 36.9804 80.8548 66.5862 0.0000 0.0000 0.0000
# 3 57.5435 66.5862 167.6419 0.0000 0.0000 0.0000
# 4 0.0000 0.0000 0.0000 33.0091 0.0000 0.0000
# 5 0.0000 0.0000 0.0000 0.0000 29.2845 0.0000
# 6 0.0000 0.0000 0.0000 0.0000 0.0000 21.6617
#
#
#
# Elastic Compliance Matrix: (Units=1/GPa)
#
#
# Indices 1 2 3 4 5 6 
#
# 1 0.040383 -0.010484 -0.009697 0.000000 0.000000 0.000000
# 2 -0.010484 0.021102 -0.004783 0.000000 0.000000 0.000000
# 3 -0.009697 -0.004783 0.011193 0.000000 0.000000 0.000000
# 4 0.000000 0.000000 0.000000 0.030295 0.000000 0.000000
# 5 0.000000 0.000000 0.000000 0.000000 0.034148 0.000000
# 6 0.000000 0.000000 0.000000 0.000000 0.000000 0.046164
#
#
# Mechanical properties :
#
#
# Convention : Reuss Voigt Hill
#
# Bulk Modulus (GPa) = 43.95635 68.76656 56.36146
# Shear Modulus (GPa) = 20.76451 25.82897 23.29674
#
# Velocity S-wave (km/s) = 3.42936 3.82477 3.63245
# Velocity P-wave (km/s) = 6.36996 7.64544 7.03666
#
# Compressibility (1/GPa) = 0.02274984
#
# Stress axis : x y z
#
# Youngs Moduli (GPa) = 24.76316 47.38992 89.33775
#
# Poissons Ratio (x) = 0.49682 0.86634
# Poissons Ratio (y) = 0.25961 0.42729
# Poissons Ratio (z) = 0.24014 0.22666
#
# Static dielectric constant tensor:
#      x y z
#    x 3.082130 0.000000 0.000000 
#    y 0.000000 3.211390 0.000000 
#    z 0.000000 0.000000 3.580110 
# 
# 
# High freq. dielectric constant tensor:
#      x y z
#    x 1.651880 0.000000 0.000000 
#    y 0.000000 1.673060 0.000000 
#    z 0.000000 0.000000 1.700030 
# 
# From -- ./inp_files/27452.got.cif
#   From: 2010.03.12/outbox.cif.g09.slc.cpg/sg44_14_cif.got.tgz:27452.got - 2010.04.14 02:36:11.
