data_PCOD8189504
_publ_section_title
;
Structure prediction by ZEFSAII (Michael W. Deem and Ramdas Pophale) SiO2 
 PCOD8189504
Probable space group: I M M 2
;
_chemical_formula_sum "Si O2"
_cell_formula_units_Z 64
_cell_length_a 8.968752
_cell_length_b 17.931239
_cell_length_c 20.710249
_cell_angle_alpha 90.000000
_cell_angle_beta 90.000000
_cell_angle_gamma 90.000000
_cell_volume 3330.639551
_symmetry_space_group_name_H-M "I M M 2"
_symmetry_group_IT_number 44
_symmetry_cell_setting 'orthorhombic'
loop_
_space_group_symop_operation_xyz
x,y,z
-x,-y,z
-x,y,z
x,-y,z
1/2+x,1/2+y,1/2+z
1/2-x,1/2-y,1/2+z
1/2-x,1/2+y,1/2+z
1/2+x,1/2-y,1/2+z
loop_
_atom_site_type_symbol
_atom_site_label
_atom_site_fract_x
_atom_site_fract_y
_atom_site_fract_z
Si Si1 0.322557 0.416161 0.410330
Si Si2 0.675271 0.414571 0.912544
Si Si3 0.323631 0.667849 0.283014
Si Si4 0.823226 0.172284 0.285784
Si Si5 0.677468 0.583850 0.660634
Si Si6 0.175868 0.661399 0.033301
Si Si7 0.171352 0.412451 0.167133
Si Si8 0.177679 0.830189 0.035511
O O1 0.500000 0.418245 0.411671
O O2 0.258069 0.500000 0.409016
O O3 0.265009 0.372449 0.347615
O O4 0.260331 0.374521 0.473588
O O5 0.500000 0.406293 0.921538
O O6 0.720821 0.500000 0.900214
O O7 0.731179 0.366550 0.851585
O O8 0.752729 0.385801 0.976561
O O9 0.500000 0.677039 0.283745
O O10 0.250017 0.747898 0.278517
O O11 0.276823 0.617456 0.223042
O O12 0.766931 0.121933 0.226388
O O13 0.000000 0.181653 0.284024
O O14 0.500000 0.581944 0.658515
O O15 0.741446 0.500000 0.657441
O O16 0.740345 0.630416 0.599889
O O17 0.223315 0.625228 0.100799
O O18 0.237285 0.745783 0.032097
O O19 0.000000 0.659083 0.023451
O O20 0.194342 0.500000 0.160094
O O21 0.000000 0.391898 0.182787
O O22 0.000000 0.830681 0.036471
#
# Coordination Sequence:
#
# PCOD8189504 Si02
#       8
#     8   8   8   8   8   8   8   8
#     4   9  17  29  45  69 102 134 164 205 257 306
#     4  10  21  36  54  78 108 142 180 224 274 324
#     4  11  22  35  53  77 106 141 180 222 267 318
#     4  10  20  35  54  77 108 141 174 217 266 319
#     4   9  16  28  50  77 101 130 170 213 258 310
#     4  10  20  35  55  79 107 139 176 219 268 323
#     4  10  21  37  56  78 106 141 180 223 273 327
#     4   9  16  27  47  75 104 131 164 210 259 308
#
# _framework density 19.215529
#
# number of rings (size 3 to 8) (size 9 to 14) (size 15 to 20)
#    0.000    2.250    0.000    3.375    0.000    8.500 
#    0.000    0.000    0.000    1.125    0.000    0.000 
#    0.000    7.000    0.000    0.000    0.000    0.000 
#
# Total GULP energy -396880.991082 kJ/mol
# GULP energy per Si atom -12402.530971 kJ/mol
# Density = 1.917179 g / cm^3
# Si number density = 19.215529 Si / 1000 Ang^3
#
#
#
# Elastic Constant Matrix: (Units=GPa)
#
#
# Indices 1 2 3 4 5 6 
#
# 1 12.9072 19.6922 19.0735 0.0000 0.0000 0.0000
# 2 19.6922 115.8533 47.8173 0.0000 0.0000 0.0000
# 3 19.0735 47.8173 142.4242 0.0000 0.0000 0.0000
# 4 0.0000 0.0000 0.0000 46.4268 0.0000 0.0000
# 5 0.0000 0.0000 0.0000 0.0000 -6.9646 0.0000
# 6 0.0000 0.0000 0.0000 0.0000 0.0000 21.3396
#
#
#
# Elastic Compliance Matrix: (Units=1/GPa)
#
#
# Indices 1 2 3 4 5 6 
#
# 1 0.116503 -0.015513 -0.010394 0.000000 0.000000 0.000000
# 2 -0.015513 0.012086 -0.001980 0.000000 0.000000 0.000000
# 3 -0.010394 -0.001980 0.009078 0.000000 0.000000 0.000000
# 4 0.000000 0.000000 0.000000 0.021539 0.000000 0.000000
# 5 0.000000 0.000000 0.000000 0.000000 -0.143583 0.000000
# 6 0.000000 0.000000 0.000000 0.000000 0.000000 0.046861
#
#
# Mechanical properties :
#
#
# Convention : Reuss Voigt Hill
#
# Bulk Modulus (GPa) = 12.21106 49.37231 30.79168
# Shear Modulus (GPa) = 34.35142 24.46716 29.40929
#
# Velocity S-wave (km/s) = 4.23270 3.57221 3.91640
# Velocity P-wave (km/s) = 5.50056 6.53941 6.04236
#
# Compressibility (1/GPa) = 0.08189296
#
# Stress axis : x y z
#
# Youngs Moduli (GPa) = 8.58350 82.74270 110.15590
#
# Poissons Ratio (x) = 1.28356 1.14495
# Poissons Ratio (y) = 0.13315 0.21813
# Poissons Ratio (z) = 0.08922 0.16384
#
# Static dielectric constant tensor:
#      x y z
#    x 3.077070 0.000000 0.000000 
#    y 0.000000 3.777790 0.000000 
#    z 0.000000 0.000000 3.732640 
# 
# 
# High freq. dielectric constant tensor:
#      x y z
#    x 1.696290 0.000000 0.000000 
#    y 0.000000 1.769330 0.000000 
#    z 0.000000 0.000000 1.767300 
# 
# From -- ./inp_files/23256.got.cif
#   From: 2010.03.12/outbox.cif.g09.slc.cpg/sg44_12_cif.got.tgz:23256.got - 2010.04.14 02:36:11.
