data_PCOD8189877
_publ_section_title
;
Structure prediction by ZEFSAII (Michael W. Deem and Ramdas Pophale) SiO2 
 PCOD8189877
Probable space group: I M M 2
;
_chemical_formula_sum "Si O2"
_cell_formula_units_Z 64
_cell_length_a 15.456552
_cell_length_b 9.263319
_cell_length_c 23.074329
_cell_angle_alpha 90.000000
_cell_angle_beta 90.000000
_cell_angle_gamma 90.000000
_cell_volume 3303.758702
_symmetry_space_group_name_H-M "I M M 2"
_symmetry_group_IT_number 44
_symmetry_cell_setting 'orthorhombic'
loop_
_space_group_symop_operation_xyz
x,y,z
-x,-y,z
-x,y,z
x,-y,z
1/2+x,1/2+y,1/2+z
1/2-x,1/2-y,1/2+z
1/2-x,1/2+y,1/2+z
1/2+x,1/2-y,1/2+z
loop_
_atom_site_type_symbol
_atom_site_label
_atom_site_fract_x
_atom_site_fract_y
_atom_site_fract_z
Si Si1 0.399500 0.169224 0.040210
Si Si2 0.320614 0.335799 0.353463
Si Si3 0.097845 0.667743 0.073190
Si Si4 0.093280 0.163673 0.302658
Si Si5 0.274854 0.671035 0.129476
Si Si6 0.232920 0.671113 0.746203
Si Si7 0.637114 0.163674 0.909826
Si Si8 0.598570 0.657006 0.465802
O O1 0.500000 0.199342 0.055677
O O2 0.337256 0.262742 0.081003
O O3 0.377542 0.000000 0.047962
O O4 0.380791 0.220859 0.974512
O O5 0.330374 0.500000 0.329957
O O6 0.325034 0.225242 0.300088
O O7 0.236762 0.318872 0.393668
O O8 0.394854 0.290017 0.399096
O O9 0.093085 0.500000 0.061288
O O10 0.172259 0.705029 0.119889
O O11 0.000000 0.721852 0.091472
O O12 0.135650 0.734753 0.013633
O O13 0.168288 0.221552 0.260072
O O14 0.083499 0.246961 0.362942
O O15 0.000000 0.176134 0.270606
O O16 0.116741 0.000000 0.318582
O O17 0.291250 0.500000 0.132952
O O18 0.300012 0.746815 0.189619
O O19 0.222617 0.500000 0.737627
O O20 0.604432 0.000000 0.905424
O O21 0.500000 0.638502 0.482016
O O22 0.645702 0.500000 0.471288
#
# Coordination Sequence:
#
# PCOD8189877 Si02
#       8
#     8   8   8   8   8   8   8   8
#     4  10  21  37  57  81 109 141 178 220 265 314
#     4   9  17  31  51  75 104 134 165 207 258 310
#     4   9  19  35  54  79 111 143 175 214 262 317
#     4   9  18  32  50  75 106 135 164 205 258 313
#     4  11  23  38  56  77 104 141 183 225 268 313
#     4  10  21  36  53  72  97 133 177 219 259 309
#     4   9  17  30  51  78 105 134 167 203 250 311
#     4   9  17  30  51  79 106 132 166 209 258 312
#
# _framework density 19.371873999999998
#
# number of rings (size 3 to 8) (size 9 to 14) (size 15 to 20)
#    0.000    2.500    0.000    1.875    0.000    5.000 
#    0.000    3.125    0.000    2.250    0.000    0.000 
#    0.000    0.000    0.000    0.000    0.000    0.000 
#
# Total GULP energy -396540.763454 kJ/mol
# GULP energy per Si atom -12391.898858 kJ/mol
# Density = 1.932778 g / cm^3
# Si number density = 19.371874 Si / 1000 Ang^3
#
#
#
# Elastic Constant Matrix: (Units=GPa)
#
#
# Indices 1 2 3 4 5 6 
#
# 1 46.0461 24.8118 21.0940 0.0000 0.0000 0.0000
# 2 24.8118 63.5181 40.9552 0.0000 0.0000 0.0000
# 3 21.0940 40.9552 96.7477 0.0000 0.0000 0.0000
# 4 0.0000 0.0000 0.0000 35.0459 0.0000 0.0000
# 5 0.0000 0.0000 0.0000 0.0000 18.5006 0.0000
# 6 0.0000 0.0000 0.0000 0.0000 0.0000 22.5629
#
#
#
# Elastic Compliance Matrix: (Units=1/GPa)
#
#
# Indices 1 2 3 4 5 6 
#
# 1 0.027789 -0.009557 -0.002013 0.000000 0.000000 0.000000
# 2 -0.009557 0.024941 -0.008474 0.000000 0.000000 0.000000
# 3 -0.002013 -0.008474 0.014362 0.000000 0.000000 0.000000
# 4 0.000000 0.000000 0.000000 0.028534 0.000000 0.000000
# 5 0.000000 0.000000 0.000000 0.000000 0.054052 0.000000
# 6 0.000000 0.000000 0.000000 0.000000 0.000000 0.044320
#
#
# Mechanical properties :
#
#
# Convention : Reuss Voigt Hill
#
# Bulk Modulus (GPa) = 37.03223 42.22598 39.62911
# Shear Modulus (GPa) = 20.56854 23.18529 21.87691
#
# Velocity S-wave (km/s) = 3.26202 3.46331 3.36417
# Velocity P-wave (km/s) = 5.77457 6.15123 5.96587
#
# Compressibility (1/GPa) = 0.02700351
#
# Stress axis : x y z
#
# Youngs Moduli (GPa) = 35.98484 40.09493 69.62633
#
# Poissons Ratio (x) = 0.38320 0.14017
# Poissons Ratio (y) = 0.34391 0.59002
# Poissons Ratio (z) = 0.07245 0.33977
#
# Static dielectric constant tensor:
#      x y z
#    x 3.629510 0.000000 0.000000 
#    y 0.000000 3.608950 0.000000 
#    z 0.000000 0.000000 3.427460 
# 
# 
# High freq. dielectric constant tensor:
#      x y z
#    x 1.748510 0.000000 0.000000 
#    y 0.000000 1.747580 0.000000 
#    z 0.000000 0.000000 1.744870 
# 
# From -- ./inp_files/24364.got.cif
#   From: 2010.03.12/outbox.cif.g09.slc.cpg/sg44_13_cif.got.tgz:24364.got - 2010.04.14 02:36:11.
