data_PCOD8189932
_publ_section_title
;
Structure prediction by ZEFSAII (Michael W. Deem and Ramdas Pophale) SiO2 
 PCOD8189932
Probable space group: I M M 2
;
_chemical_formula_sum "Si O2"
_cell_formula_units_Z 64
_cell_length_a 18.285148
_cell_length_b 13.026124
_cell_length_c 13.101460
_cell_angle_alpha 90.000000
_cell_angle_beta 90.000000
_cell_angle_gamma 90.000000
_cell_volume 3120.566078
_symmetry_space_group_name_H-M "I M M 2"
_symmetry_group_IT_number 44
_symmetry_cell_setting 'orthorhombic'
loop_
_space_group_symop_operation_xyz
x,y,z
-x,-y,z
-x,y,z
x,-y,z
1/2+x,1/2+y,1/2+z
1/2-x,1/2-y,1/2+z
1/2-x,1/2+y,1/2+z
1/2+x,1/2-y,1/2+z
loop_
_atom_site_type_symbol
_atom_site_label
_atom_site_fract_x
_atom_site_fract_y
_atom_site_fract_z
Si Si1 0.413843 0.119071 0.598130
Si Si2 0.180991 0.618830 0.520247
Si Si3 0.912835 0.885873 0.430090
Si Si4 0.170196 0.619551 0.293910
Si Si5 0.337754 0.697193 0.517245
Si Si6 0.336098 0.620032 0.297503
Si Si7 0.919445 0.120180 0.210817
Si Si8 0.085851 0.240634 0.624732
O O1 0.500000 0.137552 0.589308
O O2 0.386014 0.164309 0.708665
O O3 0.369579 0.186088 0.514503
O O4 0.394570 0.000000 0.580717
O O5 0.205144 0.500000 0.531105
O O6 0.142736 0.637773 0.409608
O O7 0.250638 0.693570 0.528800
O O8 0.124303 0.648078 0.610545
O O9 0.886837 0.837398 0.320132
O O10 0.884850 0.820127 0.525391
O O11 0.000000 0.889163 0.429669
O O12 0.880603 0.000000 0.446042
O O13 0.172536 0.500000 0.270597
O O14 0.253299 0.660530 0.279921
O O15 0.361350 0.640232 0.413587
O O16 0.368779 0.638391 0.614739
O O17 0.344474 0.500000 0.273421
O O18 0.390364 0.683322 0.226372
O O19 0.000000 0.167089 0.188144
O O20 0.927124 0.000000 0.230969
O O21 0.000000 0.256412 0.628205
#
# Coordination Sequence:
#
# PCOD8189932 Si02
#       8
#     8   8   8   8   8   8   8   8
#     4  10  21  36  58  92 129 159 193 242 301 365
#     4  10  22  40  61  86 117 155 201 255 305 355
#     4   8  16  32  52  79 116 149 181 231 295 351
#     4   8  17  36  60  84 115 154 193 241 297 349
#     4  11  21  37  62  87 117 155 201 245 298 355
#     4  10  21  39  62  88 119 159 207 253 294 349
#     4   9  17  30  52  85 119 147 181 235 299 355
#     4  11  23  37  56  83 117 159 204 244 295 359
#
# _framework density 20.509098999999999
#
# number of rings (size 3 to 8) (size 9 to 14) (size 15 to 20)
#    0.000    2.375    0.000    4.125    1.750    2.500 
#    0.000    2.500    0.000    0.000    0.000    0.000 
#    0.000    0.000    0.000    0.000    0.000    0.000 
#
# Total GULP energy -396628.651499 kJ/mol
# GULP energy per Si atom -12394.645359 kJ/mol
# Density = 2.046242 g / cm^3
# Si number density = 20.509099 Si / 1000 Ang^3
#
#
#
# Elastic Constant Matrix: (Units=GPa)
#
#
# Indices 1 2 3 4 5 6 
#
# 1 96.6356 31.5888 44.3581 0.0000 0.0000 0.0000
# 2 31.5888 57.7405 21.3478 0.0000 0.0000 0.0000
# 3 44.3581 21.3478 105.3890 0.0000 0.0000 0.0000
# 4 0.0000 0.0000 0.0000 36.9507 0.0000 0.0000
# 5 0.0000 0.0000 0.0000 0.0000 35.3435 0.0000
# 6 0.0000 0.0000 0.0000 0.0000 0.0000 24.8732
#
#
#
# Elastic Compliance Matrix: (Units=1/GPa)
#
#
# Indices 1 2 3 4 5 6 
#
# 1 0.014620 -0.006187 -0.004900 0.000000 0.000000 0.000000
# 2 -0.006187 0.021339 -0.001719 0.000000 0.000000 0.000000
# 3 -0.004900 -0.001719 0.011899 0.000000 0.000000 0.000000
# 4 0.000000 0.000000 0.000000 0.027063 0.000000 0.000000
# 5 0.000000 0.000000 0.000000 0.000000 0.028294 0.000000
# 6 0.000000 0.000000 0.000000 0.000000 0.000000 0.040204
#
#
# Mechanical properties :
#
#
# Convention : Reuss Voigt Hill
#
# Bulk Modulus (GPa) = 44.94948 50.48382 47.71665
# Shear Modulus (GPa) = 28.33744 30.26484 29.30114
#
# Velocity S-wave (km/s) = 3.72116 3.84562 3.78390
# Velocity P-wave (km/s) = 6.35823 6.66237 6.51208
#
# Compressibility (1/GPa) = 0.02224720
#
# Stress axis : x y z
#
# Youngs Moduli (GPa) = 68.40045 46.86302 84.03861
#
# Poissons Ratio (x) = 0.28992 0.41181
# Poissons Ratio (y) = 0.42316 0.14442
# Poissons Ratio (z) = 0.33518 0.08054
#
# Static dielectric constant tensor:
#      x y z
#    x 3.564560 0.000000 0.000000 
#    y 0.000000 3.797420 0.000000 
#    z 0.000000 0.000000 3.789460 
# 
# 
# High freq. dielectric constant tensor:
#      x y z
#    x 1.784660 0.000000 0.000000 
#    y 0.000000 1.807070 0.000000 
#    z 0.000000 0.000000 1.799310 
# 
# From -- ./inp_files/13990.got.cif
#   From: 2010.03.12/outbox.cif.g09.slc.cpg/sg44_7_cif.got.tgz:13990.got - 2010.04.14 02:36:11.
