data_PCOD8189834
_publ_section_title
;
Structure prediction by ZEFSAII (Michael W. Deem and Ramdas Pophale) SiO2 
 PCOD8189834
Probable space group: I M M 2
;
_chemical_formula_sum "Si O2"
_cell_formula_units_Z 64
_cell_length_a 14.116217
_cell_length_b 9.168560
_cell_length_c 28.403861
_cell_angle_alpha 90.000000
_cell_angle_beta 90.000000
_cell_angle_gamma 90.000000
_cell_volume 3676.180575
_symmetry_space_group_name_H-M "I M M 2"
_symmetry_group_IT_number 44
_symmetry_cell_setting 'orthorhombic'
loop_
_space_group_symop_operation_xyz
x,y,z
-x,-y,z
-x,y,z
x,-y,z
1/2+x,1/2+y,1/2+z
1/2-x,1/2-y,1/2+z
1/2-x,1/2+y,1/2+z
1/2+x,1/2-y,1/2+z
loop_
_atom_site_type_symbol
_atom_site_label
_atom_site_fract_x
_atom_site_fract_y
_atom_site_fract_z
Si Si1 0.392732 0.829277 0.708840
Si Si2 0.265086 0.329009 0.136017
Si Si3 0.234914 0.170991 0.278195
Si Si4 0.395702 0.828533 0.457106
Si Si5 0.888637 0.669627 0.457106
Si Si6 0.738999 0.327587 0.028591
Si Si7 0.738999 0.672413 0.885621
Si Si8 0.607268 0.170723 0.205372
O O1 0.500000 0.780025 0.698665
O O2 0.330489 0.783831 0.663578
O O3 0.355541 0.749317 0.755471
O O4 0.385788 0.000000 0.718638
O O5 0.283343 0.500000 0.139110
O O6 0.254156 0.277019 0.082458
O O7 0.355541 0.250683 0.158742
O O8 0.245844 0.222981 0.331754
O O9 0.330489 0.216169 0.250634
O O10 0.216657 0.000000 0.275103
O O11 0.500000 0.753706 0.457106
O O12 0.337376 0.781351 0.503532
O O13 0.337376 0.781351 0.410681
O O14 0.409349 0.000000 0.457106
O O15 0.861214 0.500000 0.457106
O O16 0.847620 0.744680 0.503994
O O17 0.847620 0.744680 0.410219
O O18 0.000000 0.694153 0.457106
O O19 0.721246 0.500000 0.023485
O O20 0.721246 0.500000 0.890727
O O21 0.500000 0.219975 0.215547
O O22 0.614212 0.000000 0.195574
#
# Coordination Sequence:
#
# PCOD8189834 Si02
#       8
#     8   8   8   8   8   8   8   8
#     4   9  18  32  49  70  97 127 158 194 235 278
#     4   9  18  32  49  70  96 125 158 195 234 278
#     4   9  18  32  49  70  96 125 158 195 234 278
#     4   8  14  26  46  71  94 115 145 188 234 278
#     4  10  21  35  50  69  94 125 159 194 234 280
#     4   9  18  32  50  72  96 123 156 194 236 279
#     4   9  18  32  50  72  96 123 156 194 236 279
#     4   9  18  32  49  70  97 127 158 194 235 278
#
# _framework density 17.409372000000001
#
# number of rings (size 3 to 8) (size 9 to 14) (size 15 to 20)
#    0.000    3.000    0.000    1.125    0.000    4.500 
#    0.000   10.000    0.000    6.000    0.000   10.500 
#    0.000    0.000    0.000    0.000    0.000    0.000 
#
# Total GULP energy -396771.829715 kJ/mol
# GULP energy per Si atom -12399.119679 kJ/mol
# Density = 1.736975 g / cm^3
# Si number density = 17.409372 Si / 1000 Ang^3
#
#
#
# Elastic Constant Matrix: (Units=GPa)
#
#
# Indices 1 2 3 4 5 6 
#
# 1 134.0210 41.3916 70.0693 0.0000 0.0000 0.0000
# 2 41.3916 37.1047 41.6808 0.0000 0.0000 0.0000
# 3 70.0693 41.6808 168.2019 0.0000 0.0000 0.0000
# 4 0.0000 0.0000 0.0000 25.3340 0.0000 0.0000
# 5 0.0000 0.0000 0.0000 0.0000 12.8487 0.0000
# 6 0.0000 0.0000 0.0000 0.0000 0.0000 22.9238
#
#
#
# Elastic Compliance Matrix: (Units=1/GPa)
#
#
# Indices 1 2 3 4 5 6 
#
# 1 0.012009 -0.010777 -0.002332 0.000000 0.000000 0.000000
# 2 -0.010777 0.047018 -0.007162 0.000000 0.000000 0.000000
# 3 -0.002332 -0.007162 0.008691 0.000000 0.000000 0.000000
# 4 0.000000 0.000000 0.000000 0.039473 0.000000 0.000000
# 5 0.000000 0.000000 0.000000 0.000000 0.077829 0.000000
# 6 0.000000 0.000000 0.000000 0.000000 0.000000 0.043623
#
#
# Mechanical properties :
#
#
# Convention : Reuss Voigt Hill
#
# Bulk Modulus (GPa) = 36.79607 71.73453 54.26530
# Shear Modulus (GPa) = 17.96992 24.63372 21.30182
#
# Velocity S-wave (km/s) = 3.21627 3.76569 3.50177
# Velocity P-wave (km/s) = 5.91390 7.75894 6.89838
#
# Compressibility (1/GPa) = 0.02717682
#
# Stress axis : x y z
#
# Youngs Moduli (GPa) = 83.26926 21.26863 115.05518
#
# Poissons Ratio (x) = 0.22921 0.26834
# Poissons Ratio (y) = 0.89738 0.82399
# Poissons Ratio (z) = 0.19421 0.15232
#
# Static dielectric constant tensor:
#      x y z
#    x 3.409580 0.000000 0.000000 
#    y 0.000000 3.072370 0.000000 
#    z 0.000000 0.000000 3.391700 
# 
# 
# High freq. dielectric constant tensor:
#      x y z
#    x 1.675070 0.000000 0.000000 
#    y 0.000000 1.653680 0.000000 
#    z 0.000000 0.000000 1.675490 
# 
# From -- ./inp_files/27507.got.cif
#   From: 2010.03.12/outbox.cif.g09.slc.cpg/sg44_14_cif.got.tgz:27507.got - 2010.04.14 02:36:11.
