data_PCOD8189080
_publ_section_title
;
Structure prediction by ZEFSAII (Michael W. Deem and Ramdas Pophale) SiO2 
 PCOD8189080
Probable space group: I M M 2
;
_chemical_formula_sum "Si O2"
_cell_formula_units_Z 28
_cell_length_a 5.183593
_cell_length_b 26.160456
_cell_length_c 10.473194
_cell_angle_alpha 90.000000
_cell_angle_beta 90.000000
_cell_angle_gamma 90.000000
_cell_volume 1420.219112
_symmetry_space_group_name_H-M "I M M 2"
_symmetry_group_IT_number 44
_symmetry_cell_setting 'orthorhombic'
loop_
_space_group_symop_operation_xyz
x,y,z
-x,-y,z
-x,y,z
x,-y,z
1/2+x,1/2+y,1/2+z
1/2-x,1/2-y,1/2+z
1/2-x,1/2+y,1/2+z
1/2+x,1/2-y,1/2+z
loop_
_atom_site_type_symbol
_atom_site_label
_atom_site_fract_x
_atom_site_fract_y
_atom_site_fract_z
Si Si1 0.000000 0.110536 0.002650
Si Si2 0.000000 0.392457 0.114045
Si Si3 0.000000 0.685772 0.905303
Si Si4 0.500000 0.845108 0.114761
Si Si5 0.500000 0.500000 0.376414
Si Si6 0.000000 0.765861 0.524433
Si Si7 0.500000 0.346112 0.234359
Si Si8 0.000000 0.500000 0.201192
O O1 0.250465 0.120420 0.088834
O O2 0.000000 0.152323 0.887667
O O3 0.000000 0.051410 0.960959
O O4 0.751527 0.376135 0.192465
O O5 0.000000 0.453131 0.103312
O O6 0.000000 0.369421 0.972972
O O7 0.250611 0.717208 0.945982
O O8 0.000000 0.675232 0.757368
O O9 0.500000 0.795023 0.026275
O O10 0.248056 0.500000 0.290369
O O11 0.000000 0.789693 0.669116
#
# Coordination Sequence:
#
# PCOD8189080 Si02
#       8
#     4   4   4   4   2   4   4   2
#     4  12  24  42  62  96 125 162 211 254 319 366
#     4  10  19  36  62  88 122 155 197 257 304 356
#     4  10  23  44  58  91 129 162 205 251 308 371
#     4  12  26  40  63  90 128 170 204 250 303 392
#     4  12  24  40  64  90 132 156 206 274 300 374
#     4  10  23  39  66  87 124 167 202 258 307 366
#     4  10  20  38  59  92 122 153 197 257 313 356
#     4  12  18  36  64  98 116 156 206 260 324 340
#
# _framework density 19.71527
#
# number of rings (size 3 to 8) (size 9 to 14) (size 15 to 20)
#    0.000    1.143    2.857    3.429    4.000    0.000 
#    0.000    1.429    0.000    0.000    0.000    0.000 
#    0.000    0.000    0.000    0.000    0.000    0.000 
#
# Total GULP energy -173612.829738 kJ/mol
# GULP energy per Si atom -12400.916410 kJ/mol
# Density = 1.967040 g / cm^3
# Si number density = 19.715270 Si / 1000 Ang^3
#
#
#
# Elastic Constant Matrix: (Units=GPa)
#
#
# Indices 1 2 3 4 5 6 
#
# 1 181.3934 48.3015 40.8464 0.0001 0.0000 0.0000
# 2 48.3015 135.8637 25.8433 0.0002 0.0000 0.0000
# 3 40.8464 25.8433 92.6421 0.0003 0.0000 -0.0001
# 4 0.0001 0.0002 0.0003 23.0830 0.0000 -0.0001
# 5 0.0000 0.0000 0.0000 0.0000 27.3934 0.0000
# 6 0.0000 0.0000 -0.0001 -0.0001 0.0000 9.7855
#
#
#
# Elastic Compliance Matrix: (Units=1/GPa)
#
#
# Indices 1 2 3 4 5 6 
#
# 1 0.006545 -0.001877 -0.002362 0.000000 0.000000 0.000000
# 2 -0.001877 0.008311 -0.001491 0.000000 0.000000 0.000000
# 3 -0.002362 -0.001491 0.012251 0.000000 0.000000 0.000000
# 4 0.000000 0.000000 0.000000 0.043322 0.000000 0.000000
# 5 0.000000 0.000000 0.000000 0.000000 0.036505 0.000000
# 6 0.000000 0.000000 0.000000 0.000000 0.000000 0.102192
#
#
# Mechanical properties :
#
#
# Convention : Reuss Voigt Hill
#
# Bulk Modulus (GPa) = 63.90861 71.09798 67.50329
# Shear Modulus (GPa) = 22.14325 31.71290 26.92808
#
# Velocity S-wave (km/s) = 3.35498 4.01502 3.69975
# Velocity P-wave (km/s) = 6.89159 7.59174 7.25012
#
# Compressibility (1/GPa) = 0.01564734
#
# Stress axis : x y z
#
# Youngs Moduli (GPa) = 152.79649 120.31750 81.62317
#
# Poissons Ratio (x) = 0.22589 0.19278
# Poissons Ratio (y) = 0.28687 0.12168
# Poissons Ratio (z) = 0.36088 0.17936
#
# Static dielectric constant tensor:
#      x y z
#    x 3.902660 0.000000 0.000000 
#    y 0.000000 3.839300 0.000000 
#    z 0.000000 0.000000 3.449910 
# 
# 
# High freq. dielectric constant tensor:
#      x y z
#    x 1.798270 0.000000 0.000000 
#    y 0.000000 1.771370 0.000000 
#    z 0.000000 0.000000 1.752680 
# 
# From -- ./inp_files/3531.got.cif
#   From: 2010.03.12/outbox.cif.g09.slc.cpg/sg44_2_cif.got.tgz:3531.got - 2010.04.14 02:36:11.
