data_PCOD8189430
_publ_section_title
;
Structure prediction by ZEFSAII (Michael W. Deem and Ramdas Pophale) SiO2 
 PCOD8189430
Probable space group: I M M 2
;
_chemical_formula_sum "Si O2"
_cell_formula_units_Z 48
_cell_length_a 9.360722
_cell_length_b 7.878342
_cell_length_c 33.973077
_cell_angle_alpha 90.000000
_cell_angle_beta 90.000000
_cell_angle_gamma 90.000000
_cell_volume 2505.411466
_symmetry_space_group_name_H-M "I M M 2"
_symmetry_group_IT_number 44
_symmetry_cell_setting 'orthorhombic'
loop_
_space_group_symop_operation_xyz
x,y,z
-x,-y,z
-x,y,z
x,-y,z
1/2+x,1/2+y,1/2+z
1/2-x,1/2-y,1/2+z
1/2-x,1/2+y,1/2+z
1/2+x,1/2-y,1/2+z
loop_
_atom_site_type_symbol
_atom_site_label
_atom_site_fract_x
_atom_site_fract_y
_atom_site_fract_z
Si Si1 0.329872 0.000000 0.118660
Si Si2 0.841121 0.306092 0.324899
Si Si3 0.164752 0.188903 0.670678
Si Si4 0.668987 0.000000 0.030815
Si Si5 0.836453 0.807402 0.241475
Si Si6 0.837604 0.698418 0.897785
Si Si7 0.332530 0.305353 0.975782
O O1 0.273984 0.829941 0.140540
O O2 0.264797 0.000000 0.074633
O O3 0.500000 0.000000 0.116586
O O4 0.850397 0.500000 0.312397
O O5 0.782240 0.207835 0.286518
O O6 0.733214 0.288324 0.360769
O O7 0.000000 0.238286 0.336715
O O8 0.244776 0.192513 0.712292
O O9 0.000000 0.228200 0.679372
O O10 0.184510 0.000000 0.652365
O O11 0.500000 0.000000 0.033326
O O12 0.718975 0.173170 0.009164
O O13 0.000000 0.745854 0.239400
O O14 0.818946 0.000000 0.227404
O O15 0.830832 0.500000 0.890095
O O16 0.751568 0.747860 0.936765
O O17 0.000000 0.762519 0.902377
O O18 0.500000 0.285210 0.966870
O O19 0.297175 0.500000 0.988672
#
# Coordination Sequence:
#
# PCOD8189430 Si02
#       7
#     4   8   8   4   8   8   8
#     4   9  18  34  53  81 115 141 177 231 277 323
#     4  10  21  35  52  76 105 138 179 227 272 317
#     4  10  20  34  55  81 110 147 183 219 271 327
#     4   9  18  32  55  83 109 139 181 227 273 325
#     4  10  20  35  56  79 105 141 184 227 273 322
#     4  10  21  36  53  75 105 141 179 220 270 324
#     4   9  18  33  54  79 106 139 180 226 272 320
#
# _framework density 19.158529000000001
#
# number of rings (size 3 to 8) (size 9 to 14) (size 15 to 20)
#    0.000    2.333    0.833    1.500    1.167    4.333 
#    0.000    3.333    0.000    2.000    0.000    2.333 
#    0.000    0.000    0.000    0.000    0.000    0.000 
#
# Total GULP energy -297582.371591 kJ/mol
# GULP energy per Si atom -12399.265483 kJ/mol
# Density = 1.911492 g / cm^3
# Si number density = 19.158529 Si / 1000 Ang^3
#
#
#
# Elastic Constant Matrix: (Units=GPa)
#
#
# Indices 1 2 3 4 5 6 
#
# 1 58.9960 31.4236 48.9874 0.0000 0.0000 0.0000
# 2 31.4236 107.1121 64.8124 0.0000 0.0000 0.0000
# 3 48.9874 64.8124 145.1040 0.0000 0.0000 0.0000
# 4 0.0000 0.0000 0.0000 29.4705 0.0000 0.0000
# 5 0.0000 0.0000 0.0000 0.0000 21.4217 0.0000
# 6 0.0000 0.0000 0.0000 0.0000 0.0000 19.0694
#
#
#
# Elastic Compliance Matrix: (Units=1/GPa)
#
#
# Indices 1 2 3 4 5 6 
#
# 1 0.024217 -0.002957 -0.006855 0.000000 0.000000 0.000000
# 2 -0.002957 0.013155 -0.004878 0.000000 0.000000 0.000000
# 3 -0.006855 -0.004878 0.011385 0.000000 0.000000 0.000000
# 4 0.000000 0.000000 0.000000 0.033932 0.000000 0.000000
# 5 0.000000 0.000000 0.000000 0.000000 0.046682 0.000000
# 6 0.000000 0.000000 0.000000 0.000000 0.000000 0.052440
#
#
# Mechanical properties :
#
#
# Convention : Reuss Voigt Hill
#
# Bulk Modulus (GPa) = 51.60535 66.85099 59.22817
# Shear Modulus (GPa) = 22.97283 25.05826 24.01554
#
# Velocity S-wave (km/s) = 3.46655 3.62047 3.54435
# Velocity P-wave (km/s) = 6.55874 7.24199 6.90882
#
# Compressibility (1/GPa) = 0.01937784
#
# Stress axis : x y z
#
# Youngs Moduli (GPa) = 41.29272 76.01803 87.83835
#
# Poissons Ratio (x) = 0.22476 0.60215
# Poissons Ratio (y) = 0.12209 0.42844
# Poissons Ratio (z) = 0.28307 0.37078
#
# Static dielectric constant tensor:
#      x y z
#    x 3.310870 0.000000 0.000000 
#    y 0.000000 3.637090 0.000000 
#    z 0.000000 0.000000 3.493280 
# 
# 
# High freq. dielectric constant tensor:
#      x y z
#    x 1.716650 0.000000 0.000000 
#    y 0.000000 1.757250 0.000000 
#    z 0.000000 0.000000 1.738330 
# 
# From -- ./inp_files/26904.got.cif
#   From: 2010.03.12/outbox.cif.g09.slc.cpg/sg44_14_cif.got.tgz:26904.got - 2010.04.14 02:36:11.
