data_PCOD8189494
_publ_section_title
;
Structure prediction by ZEFSAII (Michael W. Deem and Ramdas Pophale) SiO2 
 PCOD8189494
Probable space group: I M M 2
;
_chemical_formula_sum "Si O2"
_cell_formula_units_Z 64
_cell_length_a 20.696459
_cell_length_b 8.703120
_cell_length_c 19.453510
_cell_angle_alpha 90.000000
_cell_angle_beta 90.000000
_cell_angle_gamma 90.000000
_cell_volume 3504.039488
_symmetry_space_group_name_H-M "I M M 2"
_symmetry_group_IT_number 44
_symmetry_cell_setting 'orthorhombic'
loop_
_space_group_symop_operation_xyz
x,y,z
-x,-y,z
-x,y,z
x,-y,z
1/2+x,1/2+y,1/2+z
1/2-x,1/2-y,1/2+z
1/2-x,1/2+y,1/2+z
1/2+x,1/2-y,1/2+z
loop_
_atom_site_type_symbol
_atom_site_label
_atom_site_fract_x
_atom_site_fract_y
_atom_site_fract_z
Si Si1 0.624521 0.321668 0.031740
Si Si2 0.429259 0.819270 0.316653
Si Si3 0.690088 0.817588 0.404817
Si Si4 0.875820 0.176707 0.686460
Si Si5 0.573672 0.176709 0.901072
Si Si6 0.227955 0.319505 0.179397
Si Si7 0.764426 0.180781 0.038592
Si Si8 0.814355 0.820478 0.316107
O O1 0.621257 0.500000 0.011130
O O2 0.599080 0.294504 0.109036
O O3 0.698301 0.270675 0.025127
O O4 0.579818 0.224934 0.980685
O O5 0.500000 0.758546 0.340419
O O6 0.372590 0.752479 0.364567
O O7 0.419137 0.775250 0.237369
O O8 0.426821 0.000000 0.321616
O O9 0.687832 0.730537 0.477479
O O10 0.753746 0.768318 0.362412
O O11 0.687796 0.000000 0.416183
O O12 0.801686 0.229921 0.693448
O O13 0.882722 0.000000 0.707243
O O14 0.500000 0.202054 0.877419
O O15 0.619393 0.281569 0.854526
O O16 0.594453 0.000000 0.893002
O O17 0.221574 0.500000 0.166245
O O18 0.203822 0.232018 0.110879
O O19 0.185085 0.269241 0.243987
O O20 0.751895 0.000000 0.038074
O O21 0.810884 0.000000 0.300346
#
# Coordination Sequence:
#
# PCOD8189494 Si02
#       8
#     8   8   8   8   8   8   8   8
#     4  10  20  35  53  77 109 148 188 226 274 326
#     4  10  21  36  54  77 108 146 184 222 267 321
#     4  10  20  35  55  81 111 143 182 227 277 327
#     4   9  19  33  51  76 108 145 182 220 265 319
#     4  11  24  39  55  79 111 148 188 230 277 331
#     4  10  20  35  56  82 114 145 180 227 278 328
#     4  11  21  33  55  84 112 142 182 229 280 330
#     4  11  21  35  59  85 110 144 184 230 281 328
#
# _framework density 18.264634999999998
#
# number of rings (size 3 to 8) (size 9 to 14) (size 15 to 20)
#    0.000    1.750    2.500    3.375    0.000    5.250 
#    0.000    2.500    0.000    0.750    0.000    1.750 
#    0.000    0.000    0.000    0.000    0.000    0.000 
#
# Total GULP energy -396885.891044 kJ/mol
# GULP energy per Si atom -12402.684095 kJ/mol
# Density = 1.822306 g / cm^3
# Si number density = 18.264635 Si / 1000 Ang^3
#
#
#
# Elastic Constant Matrix: (Units=GPa)
#
#
# Indices 1 2 3 4 5 6 
#
# 1 89.8218 20.8745 45.8378 0.0000 0.0000 0.0000
# 2 20.8745 39.2631 23.2635 0.0000 0.0000 0.0000
# 3 45.8378 23.2635 112.3460 0.0000 0.0000 0.0000
# 4 0.0000 0.0000 0.0000 35.3140 0.0000 0.0000
# 5 0.0000 0.0000 0.0000 0.0000 22.0808 0.0000
# 6 0.0000 0.0000 0.0000 0.0000 0.0000 22.3457
#
#
#
# Elastic Compliance Matrix: (Units=1/GPa)
#
#
# Indices 1 2 3 4 5 6 
#
# 1 0.014846 -0.004906 -0.005041 0.000000 0.000000 0.000000
# 2 -0.004906 0.030652 -0.004346 0.000000 0.000000 0.000000
# 3 -0.005041 -0.004346 0.011858 0.000000 0.000000 0.000000
# 4 0.000000 0.000000 0.000000 0.028317 0.000000 0.000000
# 5 0.000000 0.000000 0.000000 0.000000 0.045288 0.000000
# 6 0.000000 0.000000 0.000000 0.000000 0.000000 0.044751
#
#
# Mechanical properties :
#
#
# Convention : Reuss Voigt Hill
#
# Bulk Modulus (GPa) = 34.75796 46.82027 40.78912
# Shear Modulus (GPa) = 23.37663 26.04511 24.71087
#
# Velocity S-wave (km/s) = 3.58143 3.78032 3.68222
# Velocity P-wave (km/s) = 6.01446 6.68913 6.36074
#
# Compressibility (1/GPa) = 0.02877038
#
# Stress axis : x y z
#
# Youngs Moduli (GPa) = 67.35820 32.62405 84.33267
#
# Poissons Ratio (x) = 0.16005 0.42515
# Poissons Ratio (y) = 0.33046 0.36647
# Poissons Ratio (z) = 0.33958 0.14177
#
# Static dielectric constant tensor:
#      x y z
#    x 3.274060 0.000000 0.000000 
#    y 0.000000 3.302310 0.000000 
#    z 0.000000 0.000000 3.517150 
# 
# 
# High freq. dielectric constant tensor:
#      x y z
#    x 1.679250 0.000000 0.000000 
#    y 0.000000 1.711870 0.000000 
#    z 0.000000 0.000000 1.712280 
# 
# From -- ./inp_files/20759.got.cif
#   From: 2010.03.12/outbox.cif.g09.slc.cpg/sg44_11_cif.got.tgz:20759.got - 2010.04.14 02:36:11.
