data_PCOD8189962
_publ_section_title
;
Structure prediction by ZEFSAII (Michael W. Deem and Ramdas Pophale) SiO2 
 PCOD8189962
Probable space group: I M M 2
;
_chemical_formula_sum "Si O2"
_cell_formula_units_Z 64
_cell_length_a 8.795013
_cell_length_b 19.591598
_cell_length_c 19.998091
_cell_angle_alpha 90.000000
_cell_angle_beta 90.000000
_cell_angle_gamma 90.000000
_cell_volume 3445.838245
_symmetry_space_group_name_H-M "I M M 2"
_symmetry_group_IT_number 44
_symmetry_cell_setting 'orthorhombic'
loop_
_space_group_symop_operation_xyz
x,y,z
-x,-y,z
-x,y,z
x,-y,z
1/2+x,1/2+y,1/2+z
1/2-x,1/2-y,1/2+z
1/2-x,1/2+y,1/2+z
1/2+x,1/2-y,1/2+z
loop_
_atom_site_type_symbol
_atom_site_label
_atom_site_fract_x
_atom_site_fract_y
_atom_site_fract_z
Si Si1 0.177564 0.831362 0.006730
Si Si2 0.674499 0.579948 0.265796
Si Si3 0.322949 0.578648 0.757385
Si Si4 0.826719 0.676578 0.016217
Si Si5 0.674775 0.919818 0.119209
Si Si6 0.823134 0.677267 0.861907
Si Si7 0.678934 0.574790 0.116355
Si Si8 0.177953 0.678582 0.367575
O O1 0.215156 0.754960 0.031231
O O2 0.223687 0.883495 0.063965
O O3 0.000000 0.838544 0.989799
O O4 0.270443 0.848397 0.939964
O O5 0.500000 0.603121 0.276864
O O6 0.691072 0.500000 0.280534
O O7 0.731155 0.596930 0.190578
O O8 0.785656 0.619951 0.314778
O O9 0.500000 0.590330 0.743528
O O10 0.286790 0.500000 0.773921
O O11 0.231717 0.603064 0.692079
O O12 0.270683 0.622629 0.820081
O O13 0.723478 0.629838 0.061858
O O14 0.000000 0.661362 0.034855
O O15 0.794123 0.659335 0.939155
O O16 0.500000 0.897915 0.111184
O O17 0.697855 0.000000 0.109473
O O18 0.766145 0.753170 0.846044
O O19 0.000000 0.672783 0.843315
O O20 0.500000 0.568282 0.117516
O O21 0.748036 0.500000 0.098375
O O22 0.000000 0.694202 0.368525
#
# Coordination Sequence:
#
# PCOD8189962 Si02
#       8
#     8   8   8   8   8   8   8   8
#     4  10  21  38  57  78 108 144 182 222 267 322
#     4   9  19  37  57  77 106 144 182 218 262 320
#     4  10  21  37  57  82 111 143 181 225 273 324
#     4   9  20  36  54  78 106 138 176 218 263 313
#     4  10  21  37  57  82 111 143 181 224 270 322
#     4  10  21  38  57  78 108 145 184 223 268 324
#     4   9  19  35  55  79 106 138 176 215 257 311
#     4  11  22  36  56  82 110 139 178 227 276 325
#
# _framework density 18.573129999999999
#
# number of rings (size 3 to 8) (size 9 to 14) (size 15 to 20)
#    0.000    2.250    0.000    4.125    0.000    7.500 
#    0.000    6.250    0.000    0.000    0.000    0.000 
#    0.000    0.000    0.000    0.000    0.000    0.000 
#
# Total GULP energy -396890.688263 kJ/mol
# GULP energy per Si atom -12402.834008 kJ/mol
# Density = 1.853086 g / cm^3
# Si number density = 18.573130 Si / 1000 Ang^3
#
#
#
# Elastic Constant Matrix: (Units=GPa)
#
#
# Indices 1 2 3 4 5 6 
#
# 1 50.6896 25.3733 26.6334 0.0000 0.0000 0.0000
# 2 25.3733 70.0525 56.5097 0.0000 0.0000 0.0000
# 3 26.6334 56.5097 93.5004 0.0000 0.0000 0.0000
# 4 0.0000 0.0000 0.0000 35.6676 0.0000 0.0000
# 5 0.0000 0.0000 0.0000 0.0000 36.2506 0.0000
# 6 0.0000 0.0000 0.0000 0.0000 0.0000 33.5651
#
#
#
# Elastic Compliance Matrix: (Units=1/GPa)
#
#
# Indices 1 2 3 4 5 6 
#
# 1 0.024566 -0.006348 -0.003161 0.000000 0.000000 0.000000
# 2 -0.006348 0.029496 -0.016019 0.000000 0.000000 0.000000
# 3 -0.003161 -0.016019 0.021277 0.000000 0.000000 0.000000
# 4 0.000000 0.000000 0.000000 0.028037 0.000000 0.000000
# 5 0.000000 0.000000 0.000000 0.000000 0.027586 0.000000
# 6 0.000000 0.000000 0.000000 0.000000 0.000000 0.029793
#
#
# Mechanical properties :
#
#
# Convention : Reuss Voigt Hill
#
# Bulk Modulus (GPa) = 41.17953 47.91949 44.54951
# Shear Modulus (GPa) = 22.73709 28.14506 25.44107
#
# Velocity S-wave (km/s) = 3.50264 3.89699 3.70507
# Velocity P-wave (km/s) = 6.21109 6.79008 6.50703
#
# Compressibility (1/GPa) = 0.02428391
#
# Stress axis : x y z
#
# Youngs Moduli (GPa) = 40.70602 33.90265 46.99933
#
# Poissons Ratio (x) = 0.21522 0.14856
# Poissons Ratio (y) = 0.25841 0.75287
# Poissons Ratio (z) = 0.12867 0.54308
#
# Static dielectric constant tensor:
#      x y z
#    x 3.388980 0.000000 0.000000 
#    y 0.000000 3.360190 0.000000 
#    z 0.000000 0.000000 3.449760 
# 
# 
# High freq. dielectric constant tensor:
#      x y z
#    x 1.725890 0.000000 0.000000 
#    y 0.000000 1.720040 0.000000 
#    z 0.000000 0.000000 1.724910 
# 
# From -- ./inp_files/20770.got.cif
#   From: 2010.03.12/outbox.cif.g09.slc.cpg/sg44_11_cif.got.tgz:20770.got - 2010.04.14 02:36:11.
