data_PCOD8189958
_publ_section_title
;
Structure prediction by ZEFSAII (Michael W. Deem and Ramdas Pophale) SiO2 
 PCOD8189958
Probable space group: I M M 2
;
_chemical_formula_sum "Si O2"
_cell_formula_units_Z 64
_cell_length_a 15.412457
_cell_length_b 8.856942
_cell_length_c 24.002806
_cell_angle_alpha 90.000000
_cell_angle_beta 90.000000
_cell_angle_gamma 90.000000
_cell_volume 3276.556745
_symmetry_space_group_name_H-M "I M M 2"
_symmetry_group_IT_number 44
_symmetry_cell_setting 'orthorhombic'
loop_
_space_group_symop_operation_xyz
x,y,z
-x,-y,z
-x,y,z
x,-y,z
1/2+x,1/2+y,1/2+z
1/2-x,1/2-y,1/2+z
1/2-x,1/2+y,1/2+z
1/2+x,1/2-y,1/2+z
loop_
_atom_site_type_symbol
_atom_site_label
_atom_site_fract_x
_atom_site_fract_y
_atom_site_fract_z
Si Si1 0.599387 0.823732 0.186900
Si Si2 0.904304 0.321059 0.189147
Si Si3 0.661862 0.822534 0.809041
Si Si4 0.246684 0.820589 0.615450
Si Si5 0.402686 0.327570 0.417840
Si Si6 0.403673 0.326528 0.914054
Si Si7 0.245109 0.678397 0.989533
Si Si8 0.846510 0.321755 0.809007
O O1 0.500000 0.788257 0.171810
O O2 0.658768 0.736460 0.143368
O O3 0.618842 0.765582 0.249300
O O4 0.620368 0.000000 0.182660
O O5 0.904985 0.500000 0.185011
O O6 0.882949 0.270920 0.251887
O O7 0.831140 0.255203 0.147730
O O8 0.000000 0.257768 0.173073
O O9 0.599094 0.778718 0.859600
O O10 0.748343 0.727756 0.817851
O O11 0.682473 0.000000 0.809155
O O12 0.250701 0.760044 0.552477
O O13 0.245442 0.000000 0.617854
O O14 0.500000 0.315122 0.442163
O O15 0.372512 0.500000 0.412084
O O16 0.338746 0.245109 0.459952
O O17 0.403692 0.253266 0.356943
O O18 0.500000 0.309900 0.940225
O O19 0.385121 0.500000 0.897191
O O20 0.333331 0.269973 0.958962
O O21 0.235190 0.500000 0.988930
O O22 0.854950 0.500000 0.815034
#
# Coordination Sequence:
#
# PCOD8189958 Si02
#       8
#     8   8   8   8   8   8   8   8
#     4  10  22  39  59  85 118 155 192 234 289 349
#     4   9  18  33  54  82 116 148 181 229 284 337
#     4  11  20  33  57  86 116 148 187 235 290 350
#     4  10  21  38  60  86 114 149 197 243 284 333
#     4  11  24  40  60  88 120 153 191 239 293 348
#     4  10  21  37  56  81 115 152 192 237 285 342
#     4  10  22  39  60  85 115 155 197 239 288 339
#     4  11  21  36  60  87 118 154 192 237 292 353
#
# _framework density 19.532699999999998
#
# number of rings (size 3 to 8) (size 9 to 14) (size 15 to 20)
#    0.000    1.750    2.500    1.875    0.000    4.500 
#    0.000    2.500    0.000    1.125    0.000    0.000 
#    0.000    0.000    0.000    0.000    0.000    0.000 
#
# Total GULP energy -396869.093998 kJ/mol
# GULP energy per Si atom -12402.159187 kJ/mol
# Density = 1.948824 g / cm^3
# Si number density = 19.532700 Si / 1000 Ang^3
#
#
#
# Elastic Constant Matrix: (Units=GPa)
#
#
# Indices 1 2 3 4 5 6 
#
# 1 133.9096 14.7309 65.9188 0.0000 0.0000 0.0000
# 2 14.7309 22.3845 30.6625 0.0000 0.0000 0.0000
# 3 65.9188 30.6625 161.3312 0.0000 0.0000 0.0000
# 4 0.0000 0.0000 0.0000 27.0608 0.0000 0.0000
# 5 0.0000 0.0000 0.0000 0.0000 14.2587 0.0000
# 6 0.0000 0.0000 0.0000 0.0000 0.0000 27.6417
#
#
#
# Elastic Compliance Matrix: (Units=1/GPa)
#
#
# Indices 1 2 3 4 5 6 
#
# 1 0.009374 -0.001247 -0.003593 0.000000 0.000000 0.000000
# 2 -0.001247 0.060564 -0.011001 0.000000 0.000000 0.000000
# 3 -0.003593 -0.011001 0.009757 0.000000 0.000000 0.000000
# 4 0.000000 0.000000 0.000000 0.036954 0.000000 0.000000
# 5 0.000000 0.000000 0.000000 0.000000 0.070133 0.000000
# 6 0.000000 0.000000 0.000000 0.000000 0.000000 0.036177
#
#
# Mechanical properties :
#
#
# Convention : Reuss Voigt Hill
#
# Bulk Modulus (GPa) = 20.82778 60.02774 40.42776
# Shear Modulus (GPa) = 18.47433 27.54643 23.01038
#
# Velocity S-wave (km/s) = 3.07875 3.75943 3.43599
# Velocity P-wave (km/s) = 4.82954 7.04579 6.04018
#
# Compressibility (1/GPa) = 0.04801279
#
# Stress axis : x y z
#
# Youngs Moduli (GPa) = 106.68264 16.51140 102.48608
#
# Poissons Ratio (x) = 0.02059 0.36823
# Poissons Ratio (y) = 0.13302 1.12749
# Poissons Ratio (z) = 0.38331 0.18165
#
# Static dielectric constant tensor:
#      x y z
#    x 3.705030 0.000000 0.000000 
#    y 0.000000 3.364070 0.000000 
#    z 0.000000 0.000000 3.698830 
# 
# 
# High freq. dielectric constant tensor:
#      x y z
#    x 1.775990 0.000000 0.000000 
#    y 0.000000 1.742730 0.000000 
#    z 0.000000 0.000000 1.758310 
# 
# From -- ./inp_files/25101.got.cif
#   From: 2010.03.12/outbox.cif.g09.slc.cpg/sg44_13_cif.got.tgz:25101.got - 2010.04.14 02:36:11.
