data_PCOD8189552
_publ_section_title
;
Structure prediction by ZEFSAII (Michael W. Deem and Ramdas Pophale) SiO2 
 PCOD8189552
Probable space group: I M M 2
;
_chemical_formula_sum "Si O2"
_cell_formula_units_Z 48
_cell_length_a 16.270959
_cell_length_b 8.851666
_cell_length_c 18.563692
_cell_angle_alpha 90.000000
_cell_angle_beta 90.000000
_cell_angle_gamma 90.000000
_cell_volume 2673.637496
_symmetry_space_group_name_H-M "I M M 2"
_symmetry_group_IT_number 44
_symmetry_cell_setting 'orthorhombic'
loop_
_space_group_symop_operation_xyz
x,y,z
-x,-y,z
-x,y,z
x,-y,z
1/2+x,1/2+y,1/2+z
1/2-x,1/2-y,1/2+z
1/2-x,1/2+y,1/2+z
1/2+x,1/2-y,1/2+z
loop_
_atom_site_type_symbol
_atom_site_label
_atom_site_fract_x
_atom_site_fract_y
_atom_site_fract_z
Si Si1 0.317939 0.176113 0.829270
Si Si2 0.338524 0.822251 0.663700
Si Si3 0.500000 0.175213 0.445748
Si Si4 0.500000 0.321433 0.599399
Si Si5 0.767590 0.674399 0.548698
Si Si6 0.157995 0.827921 0.911251
Si Si7 0.404943 0.324090 0.957403
O O1 0.327627 0.221113 0.746764
O O2 0.225335 0.218144 0.852133
O O3 0.382939 0.267339 0.877293
O O4 0.334485 0.000000 0.843940
O O5 0.420363 0.741956 0.638082
O O6 0.259163 0.763094 0.620396
O O7 0.347031 0.000000 0.651852
O O8 0.500000 0.276848 0.516492
O O9 0.580893 0.216939 0.399959
O O10 0.500000 0.000000 0.466032
O O11 0.500000 0.500000 0.605381
O O12 0.781226 0.500000 0.567820
O O13 0.695370 0.695112 0.490619
O O14 0.852827 0.739336 0.518550
O O15 0.128904 0.000000 0.900560
O O16 0.500000 0.290019 0.972619
O O17 0.384507 0.500000 0.962018
#
# Coordination Sequence:
#
# PCOD8189552 Si02
#       7
#     8   8   4   4   8   8   8
#     4   9  21  38  57  80 110 146 182 221 277 332
#     4  11  22  37  57  83 113 145 183 228 272 327
#     4  12  22  32  54  84 110 139 180 231 272 314
#     4  12  24  36  52  80 116 151 180 217 272 334
#     4  10  20  35  57  81 108 146 184 224 275 328
#     4   9  18  35  55  77 107 143 181 220 268 328
#     4  10  21  36  56  83 111 143 185 231 273 318
#
# _framework density 17.953068999999999
#
# number of rings (size 3 to 8) (size 9 to 14) (size 15 to 20)
#    0.000    1.833    1.667    4.000    1.167    5.333 
#    0.000    0.000    1.833    0.000    0.000    0.000 
#    0.000    0.000    0.000    0.000    0.000    0.000 
#
# Total GULP energy -297686.877010 kJ/mol
# GULP energy per Si atom -12403.619875 kJ/mol
# Density = 1.791221 g / cm^3
# Si number density = 17.953069 Si / 1000 Ang^3
#
#
#
# Elastic Constant Matrix: (Units=GPa)
#
#
# Indices 1 2 3 4 5 6 
#
# 1 110.8611 56.9324 45.7614 0.0000 0.0000 0.0000
# 2 56.9324 107.3063 44.8878 0.0000 0.0000 0.0000
# 3 45.7614 44.8878 86.4970 0.0000 0.0000 0.0000
# 4 0.0000 0.0000 0.0000 27.4836 0.0000 0.0000
# 5 0.0000 0.0000 0.0000 0.0000 17.1937 0.0000
# 6 0.0000 0.0000 0.0000 0.0000 0.0000 34.2256
#
#
#
# Elastic Compliance Matrix: (Units=1/GPa)
#
#
# Indices 1 2 3 4 5 6 
#
# 1 0.013597 -0.005371 -0.004406 0.000000 0.000000 0.000000
# 2 -0.005371 0.014025 -0.004437 0.000000 0.000000 0.000000
# 3 -0.004406 -0.004437 0.016195 0.000000 0.000000 0.000000
# 4 0.000000 0.000000 0.000000 0.036385 0.000000 0.000000
# 5 0.000000 0.000000 0.000000 0.000000 0.058161 0.000000
# 6 0.000000 0.000000 0.000000 0.000000 0.000000 0.029218
#
#
# Mechanical properties :
#
#
# Convention : Reuss Voigt Hill
#
# Bulk Modulus (GPa) = 64.98261 66.64751 65.81506
# Shear Modulus (GPa) = 24.85847 26.25275 25.55561
#
# Velocity S-wave (km/s) = 3.72511 3.82815 3.77698
# Velocity P-wave (km/s) = 7.40110 7.53282 7.46725
#
# Compressibility (1/GPa) = 0.01538873
#
# Stress axis : x y z
#
# Youngs Moduli (GPa) = 73.54318 71.30313 61.74851
#
# Poissons Ratio (x) = 0.38297 0.27209
# Poissons Ratio (y) = 0.39500 0.27395
# Poissons Ratio (z) = 0.32407 0.31634
#
# Static dielectric constant tensor:
#      x y z
#    x 3.435680 0.000000 0.000000 
#    y 0.000000 3.377410 0.000000 
#    z 0.000000 0.000000 3.269880 
# 
# 
# High freq. dielectric constant tensor:
#      x y z
#    x 1.698900 0.000000 0.000000 
#    y 0.000000 1.705810 0.000000 
#    z 0.000000 0.000000 1.677650 
# 
# From -- ./inp_files/21728.got.cif
#   From: 2010.03.12/outbox.cif.g09.slc.cpg/sg44_11_cif.got.tgz:21728.got - 2010.04.14 02:36:11.
