data_PCOD8189868
_publ_section_title
;
Structure prediction by ZEFSAII (Michael W. Deem and Ramdas Pophale) SiO2 
 PCOD8189868
Probable space group: I M M 2
;
_chemical_formula_sum "Si O2"
_cell_formula_units_Z 48
_cell_length_a 14.188408
_cell_length_b 22.925975
_cell_length_c 7.351346
_cell_angle_alpha 90.000000
_cell_angle_beta 90.000000
_cell_angle_gamma 90.000000
_cell_volume 2391.268521
_symmetry_space_group_name_H-M "I M M 2"
_symmetry_group_IT_number 44
_symmetry_cell_setting 'orthorhombic'
loop_
_space_group_symop_operation_xyz
x,y,z
-x,-y,z
-x,y,z
x,-y,z
1/2+x,1/2+y,1/2+z
1/2-x,1/2-y,1/2+z
1/2-x,1/2+y,1/2+z
1/2+x,1/2-y,1/2+z
loop_
_atom_site_type_symbol
_atom_site_label
_atom_site_fract_x
_atom_site_fract_y
_atom_site_fract_z
Si Si1 0.393131 0.831363 0.669670
Si Si2 0.891642 0.231929 0.441191
Si Si3 0.750333 0.565902 0.140874
Si Si4 0.105855 0.687408 0.760222
Si Si5 0.892120 0.067371 0.955120
Si Si6 0.787014 0.122960 0.284446
O O1 0.500000 0.849457 0.710557
O O2 0.356776 0.785532 0.817250
O O3 0.335248 0.890791 0.684224
O O4 0.383331 0.799758 0.474307
O O5 0.877509 0.252238 0.650623
O O6 0.826152 0.177472 0.399487
O O7 0.000000 0.215595 0.399594
O O8 0.784915 0.500000 0.176909
O O9 0.662195 0.581507 0.269397
O O10 0.719088 0.570710 0.930069
O O11 0.183187 0.638573 0.705017
O O12 0.000000 0.663515 0.715639
O O13 0.854042 0.106337 0.119660
O O14 0.000000 0.084592 0.920372
O O15 0.881121 0.000000 0.010557
#
# Coordination Sequence:
#
# PCOD8189868 Si02
#       6
#     8   8   8   8   8   8
#     4   9  19  37  59  84 116 151 188 238 293 349
#     4  10  21  35  54  83 117 151 191 237 289 352
#     4  10  22  39  59  85 114 153 201 244 291 349
#     4   9  20  36  54  80 116 153 186 231 289 342
#     4  10  22  40  59  82 116 154 195 246 296 343
#     4  11  22  35  62  85 116 154 199 238 290 350
#
# _framework density 20.073028000000001
#
# number of rings (size 3 to 8) (size 9 to 14) (size 15 to 20)
#    0.000    2.167    0.000    2.000    4.667    3.000 
#    0.000    3.333    0.000    2.500    0.000    4.667 
#    0.000    0.000    0.000    0.000    0.000    0.000 
#
# Total GULP energy -297607.497923 kJ/mol
# GULP energy per Si atom -12400.312413 kJ/mol
# Density = 2.002734 g / cm^3
# Si number density = 20.073028 Si / 1000 Ang^3
#
#
#
# Elastic Constant Matrix: (Units=GPa)
#
#
# Indices 1 2 3 4 5 6 
#
# 1 103.6565 43.1668 41.1892 0.0003 -0.0002 0.0001
# 2 43.1668 80.2862 33.3340 0.0010 -0.0004 0.0003
# 3 41.1892 33.3340 73.6776 -0.0001 0.0003 0.0007
# 4 0.0003 0.0010 -0.0001 35.1716 -0.0001 -0.0001
# 5 -0.0002 -0.0004 0.0003 -0.0001 33.2260 -0.0006
# 6 0.0001 0.0003 0.0007 -0.0001 -0.0006 28.0189
#
#
#
# Elastic Compliance Matrix: (Units=1/GPa)
#
#
# Indices 1 2 3 4 5 6 
#
# 1 0.014006 -0.005269 -0.005446 0.000000 0.000000 0.000000
# 2 -0.005269 0.017319 -0.004890 0.000000 0.000000 0.000000
# 3 -0.005446 -0.004890 0.018829 0.000000 0.000000 0.000000
# 4 0.000000 0.000000 0.000000 0.028432 0.000000 0.000000
# 5 0.000000 0.000000 0.000000 0.000000 0.030097 0.000001
# 6 0.000000 0.000000 0.000000 0.000000 0.000001 0.035690
#
#
# Mechanical properties :
#
#
# Convention : Reuss Voigt Hill
#
# Bulk Modulus (GPa) = 52.78704 54.77782 53.78243
# Shear Modulus (GPa) = 27.48811 28.61199 28.05005
#
# Velocity S-wave (km/s) = 3.70456 3.77954 3.74224
# Velocity P-wave (km/s) = 6.68229 6.81139 6.74715
#
# Compressibility (1/GPa) = 0.01894404
#
# Stress axis : x y z
#
# Youngs Moduli (GPa) = 71.40049 57.74118 53.10854
#
# Poissons Ratio (x) = 0.30425 0.28922
# Poissons Ratio (y) = 0.37622 0.25969
# Poissons Ratio (z) = 0.38883 0.28234
#
# Static dielectric constant tensor:
#      x y z
#    x 3.848520 0.000000 0.000000 
#    y 0.000000 3.449160 0.000000 
#    z 0.000000 0.000000 3.743230 
# 
# 
# High freq. dielectric constant tensor:
#      x y z
#    x 1.795380 0.000000 0.000000 
#    y 0.000000 1.761940 0.000000 
#    z 0.000000 0.000000 1.793930 
# 
# From -- ./inp_files/7265.got.cif
#   From: 2010.03.12/outbox.cif.g09.slc.cpg/sg44_4_cif.got.tgz:7265.got - 2010.04.14 02:36:11.
