data_PCOD8189809
_publ_section_title
;
Structure prediction by ZEFSAII (Michael W. Deem and Ramdas Pophale) SiO2 
 PCOD8189809
Probable space group: I M M 2
;
_chemical_formula_sum "Si O2"
_cell_formula_units_Z 38
_cell_length_a 7.635976
_cell_length_b 24.288986
_cell_length_c 9.929815
_cell_angle_alpha 90.000000
_cell_angle_beta 90.000000
_cell_angle_gamma 90.000000
_cell_volume 1841.683922
_symmetry_space_group_name_H-M "I M M 2"
_symmetry_group_IT_number 44
_symmetry_cell_setting 'orthorhombic'
loop_
_space_group_symop_operation_xyz
x,y,z
-x,-y,z
-x,y,z
x,-y,z
1/2+x,1/2+y,1/2+z
1/2-x,1/2-y,1/2+z
1/2-x,1/2+y,1/2+z
1/2+x,1/2-y,1/2+z
loop_
_atom_site_type_symbol
_atom_site_label
_atom_site_fract_x
_atom_site_fract_y
_atom_site_fract_z
Si Si1 0.197782 0.693264 0.953540
Si Si2 0.000000 0.000000 0.441908
Si Si3 0.295808 0.212816 0.148865
Si Si4 0.799513 0.404889 0.530558
Si Si5 0.000000 0.935847 0.830094
Si Si6 0.305732 0.000000 0.238595
Si Si7 0.500000 0.382807 0.059534
O O1 0.259454 0.715077 0.806387
O O2 0.000000 0.669374 0.940952
O O3 0.193678 0.741566 0.063705
O O4 0.325991 0.645307 0.001941
O O5 0.824131 0.000000 0.359600
O O6 0.000000 0.946703 0.531105
O O7 0.500000 0.225802 0.133034
O O8 0.243910 0.154545 0.085332
O O9 0.676555 0.425171 0.412045
O O10 0.772199 0.445575 0.653750
O O11 0.000000 0.405658 0.478465
O O12 0.000000 0.886365 0.720835
O O13 0.000000 0.000000 0.781252
O O14 0.500000 0.000000 0.299182
#
# Coordination Sequence:
#
# PCOD8189809 Si02
#       7
#     8   2   8   8   4   4   4
#     4  11  26  45  68  97 137 176 223 276 341 399
#     4  12  24  42  70  90 130 188 216 282 354 384
#     4  10  23  43  67 101 133 176 224 275 330 404
#     4  10  22  40  67  99 137 171 221 279 333 398
#     4  12  25  44  68  98 133 182 230 273 339 407
#     4  10  20  39  67 101 133 168 227 282 334 408
#     4  12  28  47  64  97 140 172 232 284 327 412
#
# _framework density 20.633291
#
# number of rings (size 3 to 8) (size 9 to 14) (size 15 to 20)
#    0.000    1.263    2.632    1.895    5.895    3.368 
#    0.000    0.000    0.000    0.000    0.000    0.000 
#    0.000    0.000    0.000    0.000    0.000    0.000 
#
# Total GULP energy -235606.509854 kJ/mol
# GULP energy per Si atom -12400.342624 kJ/mol
# Density = 2.058633 g / cm^3
# Si number density = 20.633291 Si / 1000 Ang^3
#
#
#
# Elastic Constant Matrix: (Units=GPa)
#
#
# Indices 1 2 3 4 5 6 
#
# 1 96.2750 36.5516 39.1674 0.0001 0.0002 -0.0001
# 2 36.5516 120.7515 33.6725 -0.0001 0.0000 0.0000
# 3 39.1674 33.6725 91.0312 -0.0014 -0.0011 0.0009
# 4 0.0001 -0.0001 -0.0014 38.7084 -0.0001 0.0000
# 5 0.0002 0.0000 -0.0011 -0.0001 27.1720 0.0001
# 6 -0.0001 0.0000 0.0009 0.0000 0.0001 42.6719
#
#
#
# Elastic Compliance Matrix: (Units=1/GPa)
#
#
# Indices 1 2 3 4 5 6 
#
# 1 0.013346 -0.002719 -0.004737 0.000000 0.000000 0.000000
# 2 -0.002719 0.009788 -0.002451 0.000000 0.000000 0.000000
# 3 -0.004737 -0.002451 0.013930 0.000001 0.000001 0.000000
# 4 0.000000 0.000000 0.000001 0.025834 0.000000 0.000000
# 5 0.000000 0.000000 0.000001 0.000000 0.036803 0.000000
# 6 0.000000 0.000000 0.000000 0.000000 0.000000 0.023435
#
#
# Mechanical properties :
#
#
# Convention : Reuss Voigt Hill
#
# Bulk Modulus (GPa) = 57.96690 58.53786 58.25238
# Shear Modulus (GPa) = 33.62514 34.95487 34.29001
#
# Velocity S-wave (km/s) = 4.04128 4.12041 4.08104
# Velocity P-wave (km/s) = 7.06617 7.14627 7.10633
#
# Compressibility (1/GPa) = 0.01725122
#
# Stress axis : x y z
#
# Youngs Moduli (GPa) = 74.92759 102.16676 71.78894
#
# Poissons Ratio (x) = 0.27780 0.34004
# Poissons Ratio (y) = 0.20373 0.17593
# Poissons Ratio (z) = 0.35490 0.25037
#
# Static dielectric constant tensor:
#      x y z
#    x 3.780390 0.000000 0.000000 
#    y 0.000000 3.833200 0.000000 
#    z 0.000000 0.000000 3.728740 
# 
# 
# High freq. dielectric constant tensor:
#      x y z
#    x 1.816680 0.000000 0.000000 
#    y 0.000000 1.818070 0.000000 
#    z 0.000000 0.000000 1.807330 
# 
# From -- ./inp_files/4507.got.cif
#   From: 2010.03.12/outbox.cif.g09.slc.cpg/sg44_3_cif.got.tgz:4507.got - 2010.04.14 02:36:11.
