data_PCOD8189681
_publ_section_title
;
Structure prediction by ZEFSAII (Michael W. Deem and Ramdas Pophale) SiO2 
 PCOD8189681
Probable space group: I M M 2
;
_chemical_formula_sum "Si O2"
_cell_formula_units_Z 48
_cell_length_a 8.760764
_cell_length_b 23.034446
_cell_length_c 11.792746
_cell_angle_alpha 90.000000
_cell_angle_beta 90.000000
_cell_angle_gamma 90.000000
_cell_volume 2379.768422
_symmetry_space_group_name_H-M "I M M 2"
_symmetry_group_IT_number 44
_symmetry_cell_setting 'orthorhombic'
loop_
_space_group_symop_operation_xyz
x,y,z
-x,-y,z
-x,y,z
x,-y,z
1/2+x,1/2+y,1/2+z
1/2-x,1/2-y,1/2+z
1/2-x,1/2+y,1/2+z
1/2+x,1/2-y,1/2+z
loop_
_atom_site_type_symbol
_atom_site_label
_atom_site_fract_x
_atom_site_fract_y
_atom_site_fract_z
Si Si1 0.681665 0.139936 0.945750
Si Si2 0.180338 0.932393 0.742167
Si Si3 0.175815 0.773900 0.106012
Si Si4 0.824213 0.438081 0.645578
Si Si5 0.177179 0.644517 0.060574
Si Si6 0.824380 0.658986 0.808738
O O1 0.500000 0.143256 0.935417
O O2 0.746167 0.113398 0.829982
O O3 0.740706 0.202957 0.990214
O O4 0.748237 0.098193 0.043616
O O5 0.230870 0.908025 0.619484
O O6 0.000000 0.929727 0.753779
O O7 0.235427 0.000000 0.757759
O O8 0.200392 0.705360 0.124564
O O9 0.234741 0.798938 0.224718
O O10 0.000000 0.789655 0.089828
O O11 0.740266 0.500000 0.653493
O O12 0.806392 0.406657 0.765120
O O13 0.000000 0.446329 0.614268
O O14 0.000000 0.626045 0.055324
O O15 0.243082 0.656635 0.934739
O O16 0.000000 0.679857 0.808708
#
# Coordination Sequence:
#
# PCOD8189681 Si02
#       6
#     8   8   8   8   8   8
#     4  10  20  36  60  88 118 156 199 246 299 356
#     4  11  25  42  60  87 124 164 204 250 307 363
#     4  10  21  37  58  88 121 154 198 251 307 359
#     4   8  14  27  51  81 108 138 181 233 284 333
#     4  10  23  40  59  85 117 158 204 248 299 362
#     4   9  19  36  56  82 113 148 194 245 296 354
#
# _framework density 20.170031000000002
#
# number of rings (size 3 to 8) (size 9 to 14) (size 15 to 20)
#    0.000    2.333    0.000    3.000    2.333    4.667 
#    0.000    1.667    0.000    4.500    0.000    0.000 
#    0.000    0.000    0.000    0.000    0.000    0.000 
#
# Total GULP energy -297400.808108 kJ/mol
# GULP energy per Si atom -12391.700338 kJ/mol
# Density = 2.012412 g / cm^3
# Si number density = 20.170031 Si / 1000 Ang^3
#
#
#
# Elastic Constant Matrix: (Units=GPa)
#
#
# Indices 1 2 3 4 5 6 
#
# 1 78.3874 33.7495 33.3042 0.0001 0.0000 0.0000
# 2 33.7495 74.7520 23.7661 -0.0001 0.0000 0.0000
# 3 33.3042 23.7661 110.7035 -0.0002 0.0001 0.0000
# 4 0.0001 -0.0001 -0.0002 22.7519 0.0000 0.0000
# 5 0.0000 0.0000 0.0001 0.0000 31.3498 0.0000
# 6 0.0000 0.0000 0.0000 0.0000 0.0000 22.8215
#
#
#
# Elastic Compliance Matrix: (Units=1/GPa)
#
#
# Indices 1 2 3 4 5 6 
#
# 1 0.017179 -0.006561 -0.003760 0.000000 0.000000 0.000000
# 2 -0.006561 0.016863 -0.001646 0.000000 0.000000 0.000000
# 3 -0.003760 -0.001646 0.010518 0.000000 0.000000 0.000000
# 4 0.000000 0.000000 0.000000 0.043952 0.000000 0.000000
# 5 0.000000 0.000000 0.000000 0.000000 0.031898 0.000000
# 6 0.000000 0.000000 0.000000 0.000000 0.000000 0.043818
#
#
# Mechanical properties :
#
#
# Convention : Reuss Voigt Hill
#
# Bulk Modulus (GPa) = 48.48241 49.49807 48.99024
# Shear Modulus (GPa) = 25.63594 26.91950 26.27772
#
# Velocity S-wave (km/s) = 3.56896 3.65722 3.61336
# Velocity P-wave (km/s) = 6.40877 6.51363 6.46141
#
# Compressibility (1/GPa) = 0.02062604
#
# Stress axis : x y z
#
# Youngs Moduli (GPa) = 58.20949 59.30074 95.07788
#
# Poissons Ratio (x) = 0.38907 0.35747
# Poissons Ratio (y) = 0.38191 0.15654
# Poissons Ratio (z) = 0.21885 0.09764
#
# Static dielectric constant tensor:
#      x y z
#    x 3.442390 0.000000 0.000000 
#    y 0.000000 3.961280 0.000000 
#    z 0.000000 0.000000 3.738720 
# 
# 
# High freq. dielectric constant tensor:
#      x y z
#    x 1.765840 0.000000 0.000000 
#    y 0.000000 1.793700 0.000000 
#    z 0.000000 0.000000 1.790790 
# 
# From -- ./inp_files/11160.got.cif
#   From: 2010.03.12/outbox.cif.g09.slc.cpg/sg44_6_cif.got.tgz:11160.got - 2010.04.14 02:36:11.
