data_PCOD8189233
_publ_section_title
;
Structure prediction by ZEFSAII (Michael W. Deem and Ramdas Pophale) SiO2 
 PCOD8189233
Probable space group: I M M 2
;
_chemical_formula_sum "Si O2"
_cell_formula_units_Z 64
_cell_length_a 8.808471
_cell_length_b 19.535855
_cell_length_c 20.981761
_cell_angle_alpha 90.000000
_cell_angle_beta 90.000000
_cell_angle_gamma 90.000000
_cell_volume 3610.562671
_symmetry_space_group_name_H-M "I M M 2"
_symmetry_group_IT_number 44
_symmetry_cell_setting 'orthorhombic'
loop_
_space_group_symop_operation_xyz
x,y,z
-x,-y,z
-x,y,z
x,-y,z
1/2+x,1/2+y,1/2+z
1/2-x,1/2-y,1/2+z
1/2-x,1/2+y,1/2+z
1/2+x,1/2-y,1/2+z
loop_
_atom_site_type_symbol
_atom_site_label
_atom_site_fract_x
_atom_site_fract_y
_atom_site_fract_z
Si Si1 0.825022 0.075980 0.250000
Si Si2 0.323285 0.422170 0.371050
Si Si3 0.823285 0.422170 0.616108
Si Si4 0.825022 0.575980 0.237158
Si Si5 0.822217 0.214143 0.306678
Si Si6 0.320518 0.205673 0.928094
Si Si7 0.822217 0.714143 0.180479
Si Si8 0.679481 0.705673 0.559063
O O1 0.721961 0.090762 0.189121
O O2 0.786942 0.132609 0.303891
O O3 0.000000 0.083377 0.228069
O O4 0.793347 0.000000 0.278096
O O5 0.500000 0.405996 0.378947
O O6 0.284662 0.500000 0.390724
O O7 0.278038 0.409237 0.298037
O O8 0.228776 0.372751 0.417020
O O9 0.784665 0.500000 0.596432
O O10 0.728773 0.372751 0.570138
O O11 0.000000 0.405993 0.608211
O O12 0.793345 0.500000 0.209062
O O13 0.786943 0.632609 0.183267
O O14 0.000000 0.583376 0.259089
O O15 0.753383 0.246848 0.370984
O O16 0.752151 0.250000 0.243579
O O17 0.000000 0.229384 0.308082
O O18 0.500000 0.209976 0.933151
O O19 0.250001 0.233487 0.993579
O O20 0.753383 0.746848 0.116174
O O21 0.000000 0.729384 0.179076
O O22 0.500000 0.709977 0.554006
#
# Coordination Sequence:
#
# PCOD8189233 Si02
#       8
#     8   8   8   8   8   8   8   8
#     4   9  16  29  52  78 101 130 169 208 248 293
#     4  10  20  33  49  73 105 136 167 203 246 297
#     4  10  20  33  49  73 105 136 167 203 246 297
#     4   9  16  29  52  78 101 130 169 208 248 293
#     4   9  16  30  52  77 101 128 165 210 252 292
#     4  11  22  36  53  72 101 135 170 210 251 298
#     4   9  16  30  52  77 101 128 165 210 252 292
#     4  11  22  36  53  72 101 135 170 210 251 298
#
# _framework density 17.725770000000001
#
# number of rings (size 3 to 8) (size 9 to 14) (size 15 to 20)
#    0.000    2.250    2.500    1.500    0.000    2.000 
#    0.000    3.750    0.000    0.750    0.000    0.000 
#    0.000    0.000    0.000    0.000    0.000    0.250 
#
# Total GULP energy -396717.260687 kJ/mol
# GULP energy per Si atom -12397.414396 kJ/mol
# Density = 1.768543 g / cm^3
# Si number density = 17.725770 Si / 1000 Ang^3
#
#
#
# Elastic Constant Matrix: (Units=GPa)
#
#
# Indices 1 2 3 4 5 6 
#
# 1 44.6668 21.8599 28.5887 0.0000 0.0000 0.0000
# 2 21.8599 114.2318 68.5568 0.0000 0.0000 0.0000
# 3 28.5887 68.5568 129.1857 0.0000 0.0000 0.0000
# 4 0.0000 0.0000 0.0000 25.8625 0.0000 0.0000
# 5 0.0000 0.0000 0.0000 0.0000 24.1758 0.0000
# 6 0.0000 0.0000 0.0000 0.0000 0.0000 15.6972
#
#
#
# Elastic Compliance Matrix: (Units=1/GPa)
#
#
# Indices 1 2 3 4 5 6 
#
# 1 0.026479 -0.002275 -0.004653 0.000000 0.000000 0.000000
# 2 -0.002275 0.013041 -0.006417 0.000000 0.000000 0.000000
# 3 -0.004653 -0.006417 0.012176 0.000000 0.000000 0.000000
# 4 0.000000 0.000000 0.000000 0.038666 0.000000 0.000000
# 5 0.000000 0.000000 0.000000 0.000000 0.041364 0.000000
# 6 0.000000 0.000000 0.000000 0.000000 0.000000 0.063705
#
#
# Mechanical properties :
#
#
# Convention : Reuss Voigt Hill
#
# Bulk Modulus (GPa) = 39.98938 58.45503 49.22220
# Shear Modulus (GPa) = 21.69616 24.41903 23.05759
#
# Velocity S-wave (km/s) = 3.50235 3.71563 3.61057
# Velocity P-wave (km/s) = 6.24214 7.17335 6.72388
#
# Compressibility (1/GPa) = 0.02500664
#
# Stress axis : x y z
#
# Youngs Moduli (GPa) = 37.76554 76.68303 82.12991
#
# Poissons Ratio (x) = 0.17445 0.38212
# Poissons Ratio (y) = 0.08591 0.52703
# Poissons Ratio (z) = 0.17571 0.49208
#
# Static dielectric constant tensor:
#      x y z
#    x 3.104600 0.000000 0.000000 
#    y 0.000000 3.534270 0.000000 
#    z 0.000000 0.000000 3.235230 
# 
# 
# High freq. dielectric constant tensor:
#      x y z
#    x 1.666510 0.000000 0.000000 
#    y 0.000000 1.691190 0.000000 
#    z 0.000000 0.000000 1.659070 
# 
# From -- ./inp_files/20793.got.cif
#   From: 2010.03.12/outbox.cif.g09.slc.cpg/sg44_11_cif.got.tgz:20793.got - 2010.04.14 02:36:11.
