data_PCOD8189452
_publ_section_title
;
Structure prediction by ZEFSAII (Michael W. Deem and Ramdas Pophale) SiO2 
 PCOD8189452
Probable space group: I M M 2
;
_chemical_formula_sum "Si O2"
_cell_formula_units_Z 64
_cell_length_a 17.783687
_cell_length_b 20.283005
_cell_length_c 9.242340
_cell_angle_alpha 90.000000
_cell_angle_beta 90.000000
_cell_angle_gamma 90.000000
_cell_volume 3333.773151
_symmetry_space_group_name_H-M "I M M 2"
_symmetry_group_IT_number 44
_symmetry_cell_setting 'orthorhombic'
loop_
_space_group_symop_operation_xyz
x,y,z
-x,-y,z
-x,y,z
x,-y,z
1/2+x,1/2+y,1/2+z
1/2-x,1/2-y,1/2+z
1/2-x,1/2+y,1/2+z
1/2+x,1/2-y,1/2+z
loop_
_atom_site_type_symbol
_atom_site_label
_atom_site_fract_x
_atom_site_fract_y
_atom_site_fract_z
Si Si1 0.084918 0.693087 0.427150
Si Si2 0.776441 0.327214 0.283634
Si Si3 0.694907 0.131957 0.336730
Si Si4 0.292378 0.422947 0.091567
Si Si5 0.083669 0.572688 0.633128
Si Si6 0.089177 0.752913 0.928440
Si Si7 0.086316 0.183200 0.622021
Si Si8 0.780247 0.791563 0.099921
O O1 0.133480 0.685243 0.280752
O O2 0.101576 0.626337 0.513224
O O3 0.111041 0.753648 0.527548
O O4 0.000000 0.700470 0.376203
O O5 0.749240 0.400244 0.240947
O O6 0.744927 0.278030 0.158738
O O7 0.756424 0.308220 0.446931
O O8 0.736402 0.093035 0.462132
O O9 0.642456 0.077900 0.262468
O O10 0.639391 0.188231 0.397580
O O11 0.759402 0.156109 0.223892
O O12 0.311138 0.500000 0.100210
O O13 0.369386 0.382259 0.075119
O O14 0.090082 0.500000 0.563359
O O15 0.000000 0.585271 0.695659
O O16 0.099299 0.801363 0.791444
O O17 0.000000 0.738036 0.955112
O O18 0.129020 0.787822 0.068224
O O19 0.000000 0.167159 0.591591
#
# Coordination Sequence:
#
# PCOD8189452 Si02
#       8
#     8   8   8   8   8   8   8   8
#     4  10  20  35  59  90 123 160 202 249 304 363
#     4  12  21  38  58  90 126 157 196 251 306 363
#     4  12  21  39  61  87 125 163 207 252 303 370
#     4  12  26  42  61  89 124 165 211 258 309 365
#     4  10  20  34  55  86 124 166 209 247 294 370
#     4  11  21  35  62  94 124 159 201 254 316 373
#     4  10  20  39  65  92 119 157 209 258 308 370
#     4  12  21  36  65  91 121 156 199 257 315 361
#
# _framework density 19.197467
#
# number of rings (size 3 to 8) (size 9 to 14) (size 15 to 20)
#    0.000    0.875    6.250    2.250    0.000    1.250 
#    0.000    0.625    0.000    1.500    0.000    0.000 
#    0.000    0.000    0.000    0.000    0.000    0.000 
#
# Total GULP energy -396565.733680 kJ/mol
# GULP energy per Si atom -12392.679178 kJ/mol
# Density = 1.915377 g / cm^3
# Si number density = 19.197467 Si / 1000 Ang^3
#
#
#
# Elastic Constant Matrix: (Units=GPa)
#
#
# Indices 1 2 3 4 5 6 
#
# 1 100.1547 54.4327 34.9015 0.0000 0.0000 0.0000
# 2 54.4327 136.5545 41.3327 0.0000 0.0000 0.0000
# 3 34.9015 41.3327 67.9813 0.0000 0.0000 0.0000
# 4 0.0000 0.0000 0.0000 17.1954 0.0000 0.0000
# 5 0.0000 0.0000 0.0000 0.0000 37.6590 0.0000
# 6 0.0000 0.0000 0.0000 0.0000 0.0000 27.3823
#
#
#
# Elastic Compliance Matrix: (Units=1/GPa)
#
#
# Indices 1 2 3 4 5 6 
#
# 1 0.013824 -0.004121 -0.004592 0.000000 0.000000 0.000000
# 2 -0.004121 0.010203 -0.004088 0.000000 0.000000 0.000000
# 3 -0.004592 -0.004088 0.019553 0.000000 0.000000 0.000000
# 4 0.000000 0.000000 0.000000 0.058155 0.000000 0.000000
# 5 0.000000 0.000000 0.000000 0.000000 0.026554 0.000000
# 6 0.000000 0.000000 0.000000 0.000000 0.000000 0.036520
#
#
# Mechanical properties :
#
#
# Convention : Reuss Voigt Hill
#
# Bulk Modulus (GPa) = 55.62023 62.89157 59.25590
# Shear Modulus (GPa) = 25.45782 28.04892 26.75337
#
# Velocity S-wave (km/s) = 3.64552 3.82655 3.73713
# Velocity P-wave (km/s) = 6.83779 7.23566 7.03953
#
# Compressibility (1/GPa) = 0.01797907
#
# Stress axis : x y z
#
# Youngs Moduli (GPa) = 72.33656 98.01082 51.14335
#
# Poissons Ratio (x) = 0.40387 0.23485
# Poissons Ratio (y) = 0.29807 0.20907
# Poissons Ratio (z) = 0.33217 0.40066
#
# Static dielectric constant tensor:
#      x y z
#    x 4.077190 0.000000 0.000000 
#    y 0.000000 3.475990 0.000000 
#    z 0.000000 0.000000 3.532550 
# 
# 
# High freq. dielectric constant tensor:
#      x y z
#    x 1.768830 0.000000 0.000000 
#    y 0.000000 1.720270 0.000000 
#    z 0.000000 0.000000 1.740400 
# 
# From -- ./inp_files/8477.got.cif
#   From: 2010.03.12/outbox.cif.g09.slc.cpg/sg44_5_cif.got.tgz:8477.got - 2010.04.14 02:36:11.
