data_PCOD8189173
_publ_section_title
;
Structure prediction by ZEFSAII (Michael W. Deem and Ramdas Pophale) SiO2 
 PCOD8189173
Probable space group: I M M 2
;
_chemical_formula_sum "Si O2"
_cell_formula_units_Z 64
_cell_length_a 27.427402
_cell_length_b 13.745813
_cell_length_c 8.660076
_cell_angle_alpha 90.000000
_cell_angle_beta 90.000000
_cell_angle_gamma 90.000000
_cell_volume 3264.952044
_symmetry_space_group_name_H-M "I M M 2"
_symmetry_group_IT_number 44
_symmetry_cell_setting 'orthorhombic'
loop_
_space_group_symop_operation_xyz
x,y,z
-x,-y,z
-x,y,z
x,-y,z
1/2+x,1/2+y,1/2+z
1/2-x,1/2-y,1/2+z
1/2-x,1/2+y,1/2+z
1/2+x,1/2-y,1/2+z
loop_
_atom_site_type_symbol
_atom_site_label
_atom_site_fract_x
_atom_site_fract_y
_atom_site_fract_z
Si Si1 0.706374 0.763787 0.369150
Si Si2 0.147183 0.611576 0.629233
Si Si3 0.446284 0.613068 0.745193
Si Si4 0.355315 0.892793 0.786526
Si Si5 0.057061 0.703901 0.758300
Si Si6 0.109856 0.250581 0.051824
Si Si7 0.557690 0.606030 0.084152
Si Si8 0.253129 0.112068 0.634165
O O1 0.683611 0.834748 0.243061
O O2 0.663100 0.728305 0.482097
O O3 0.746648 0.823473 0.473517
O O4 0.727222 0.670503 0.275494
O O5 0.160145 0.500000 0.649741
O O6 0.157957 0.647872 0.455773
O O7 0.089693 0.627799 0.663485
O O8 0.500000 0.661861 0.729982
O O9 0.451867 0.500000 0.720744
O O10 0.411215 0.648820 0.609564
O O11 0.422873 0.634968 0.913942
O O12 0.391809 0.820607 0.700825
O O13 0.308656 0.901117 0.678961
O O14 0.379443 0.000000 0.803644
O O15 0.073133 0.812586 0.706065
O O16 0.000000 0.681339 0.732323
O O17 0.072303 0.697420 0.935713
O O18 0.500000 0.598496 0.070993
O O19 0.578652 0.500000 0.135454
O O20 0.231621 0.000000 0.612420
#
# Coordination Sequence:
#
# PCOD8189173 Si02
#       8
#     8   8   8   8   8   8   8   8
#     4  10  21  36  58  85 112 142 178 220 270 330
#     4  10  20  36  57  79 104 137 180 225 271 321
#     4   9  17  30  49  71  99 140 184 222 261 306
#     4   9  19  36  58  79 101 134 172 215 267 322
#     4  10  20  32  49  74 104 140 179 221 266 314
#     4  10  20  32  50  76 108 138 172 216 263 314
#     4   8  15  29  48  69  94 130 178 225 267 311
#     4  10  20  37  60  85 115 147 181 223 274 331
#
# _framework density 19.602125999999998
#
# number of rings (size 3 to 8) (size 9 to 14) (size 15 to 20)
#    0.000    2.500    0.000    3.000    0.000    4.250 
#    0.000    4.375    0.000   13.875    0.000    0.000 
#    0.000    0.000    0.000    0.000    0.000    0.000 
#
# Total GULP energy -396516.863720 kJ/mol
# GULP energy per Si atom -12391.151991 kJ/mol
# Density = 1.955751 g / cm^3
# Si number density = 19.602126 Si / 1000 Ang^3
#
#
#
# Elastic Constant Matrix: (Units=GPa)
#
#
# Indices 1 2 3 4 5 6 
#
# 1 39.3571 27.8324 20.0341 0.0000 0.0000 0.0000
# 2 27.8324 83.0501 53.0607 0.0000 0.0000 0.0000
# 3 20.0341 53.0607 102.4524 0.0000 0.0000 0.0000
# 4 0.0000 0.0000 0.0000 31.2268 0.0000 0.0000
# 5 0.0000 0.0000 0.0000 0.0000 28.0196 0.0000
# 6 0.0000 0.0000 0.0000 0.0000 0.0000 25.9719
#
#
#
# Elastic Compliance Matrix: (Units=1/GPa)
#
#
# Indices 1 2 3 4 5 6 
#
# 1 0.033383 -0.010487 -0.001097 0.000000 0.000000 0.000000
# 2 -0.010487 0.021290 -0.008975 0.000000 0.000000 0.000000
# 3 -0.001097 -0.008975 0.014624 0.000000 0.000000 0.000000
# 4 0.000000 0.000000 0.000000 0.032024 0.000000 0.000000
# 5 0.000000 0.000000 0.000000 0.000000 0.035689 0.000000
# 6 0.000000 0.000000 0.000000 0.000000 0.000000 0.038503
#
#
# Mechanical properties :
#
#
# Convention : Reuss Voigt Hill
#
# Bulk Modulus (GPa) = 35.48853 47.41268 41.45061
# Shear Modulus (GPa) = 22.12168 25.30583 23.71376
#
# Velocity S-wave (km/s) = 3.36301 3.59691 3.48193
# Velocity P-wave (km/s) = 5.76399 6.44130 6.11203
#
# Compressibility (1/GPa) = 0.02817812
#
# Stress axis : x y z
#
# Youngs Moduli (GPa) = 29.95568 46.97094 68.38307
#
# Poissons Ratio (x) = 0.49258 0.07499
# Poissons Ratio (y) = 0.31414 0.61377
# Poissons Ratio (z) = 0.03285 0.42158
#
# Static dielectric constant tensor:
#      x y z
#    x 3.313020 0.000000 0.000000 
#    y 0.000000 3.877550 0.000000 
#    z 0.000000 0.000000 3.819470 
# 
# 
# High freq. dielectric constant tensor:
#      x y z
#    x 1.733780 0.000000 0.000000 
#    y 0.000000 1.760500 0.000000 
#    z 0.000000 0.000000 1.777520 
# 
# From -- ./inp_files/10155.got.cif
#   From: 2010.03.12/outbox.cif.g09.slc.cpg/sg44_6_cif.got.tgz:10155.got - 2010.04.14 02:36:11.
