data_PCOD8189239
_publ_section_title
;
Structure prediction by ZEFSAII (Michael W. Deem and Ramdas Pophale) SiO2 
 PCOD8189239
Probable space group: I M M 2
;
_chemical_formula_sum "Si O2"
_cell_formula_units_Z 48
_cell_length_a 30.345331
_cell_length_b 8.807715
_cell_length_c 10.130584
_cell_angle_alpha 90.000000
_cell_angle_beta 90.000000
_cell_angle_gamma 90.000000
_cell_volume 2707.631851
_symmetry_space_group_name_H-M "I M M 2"
_symmetry_group_IT_number 44
_symmetry_cell_setting 'orthorhombic'
loop_
_space_group_symop_operation_xyz
x,y,z
-x,-y,z
-x,y,z
x,-y,z
1/2+x,1/2+y,1/2+z
1/2-x,1/2-y,1/2+z
1/2-x,1/2+y,1/2+z
1/2+x,1/2-y,1/2+z
loop_
_atom_site_type_symbol
_atom_site_label
_atom_site_fract_x
_atom_site_fract_y
_atom_site_fract_z
Si Si1 0.378963 0.679918 0.930890
Si Si2 0.049044 0.819551 0.633831
Si Si3 0.381180 0.678764 0.634234
Si Si4 0.782579 0.820480 0.144640
Si Si5 0.450832 0.680847 0.429196
Si Si6 0.214441 0.320508 0.421591
O O1 0.373160 0.500000 0.944387
O O2 0.394112 0.725036 0.783296
O O3 0.332513 0.755118 0.965502
O O4 0.415535 0.746448 0.030726
O O5 0.061680 0.765081 0.781378
O O6 0.000000 0.760448 0.596959
O O7 0.049392 0.000000 0.626814
O O8 0.383643 0.500000 0.616805
O O9 0.331608 0.734712 0.603188
O O10 0.415838 0.753581 0.531889
O O11 0.768864 0.743561 0.282085
O O12 0.782011 0.000000 0.167512
O O13 0.749345 0.767595 0.031515
O O14 0.500000 0.738084 0.465994
O O15 0.449903 0.500000 0.435101
O O16 0.211474 0.500000 0.412207
#
# Coordination Sequence:
#
# PCOD8189239 Si02
#       6
#     8   8   8   8   8   8
#     4   9  17  29  45  65  92 122 151 189 234 279
#     4   8  14  24  39  62  90 118 150 188 229 273
#     4   8  14  25  39  56  82 114 143 174 218 269
#     4   9  19  34  49  68  94 123 158 197 236 283
#     4   8  13  21  35  59  89 114 139 179 228 273
#     4  10  20  33  50  71  95 124 159 198 239 286
#
# _framework density 17.72767
#
# number of rings (size 3 to 8) (size 9 to 14) (size 15 to 20)
#    0.000    3.333    0.000    2.500    0.000    3.333 
#    0.000    6.667    0.000    0.500    0.000    0.000 
#    0.000    5.333    0.000    0.000    0.000    0.000 
#
# Total GULP energy -297469.497139 kJ/mol
# GULP energy per Si atom -12394.562381 kJ/mol
# Density = 1.768732 g / cm^3
# Si number density = 17.727670 Si / 1000 Ang^3
#
#
#
# Elastic Constant Matrix: (Units=GPa)
#
#
# Indices 1 2 3 4 5 6 
#
# 1 149.5922 24.2661 130.1468 0.0000 0.0000 0.0000
# 2 24.2661 19.3757 24.4998 0.0000 0.0000 0.0000
# 3 130.1468 24.4998 165.4756 0.0000 0.0000 0.0000
# 4 0.0000 0.0000 0.0000 15.7046 0.0000 0.0000
# 5 0.0000 0.0000 0.0000 0.0000 46.3515 0.0000
# 6 0.0000 0.0000 0.0000 0.0000 0.0000 17.4057
#
#
#
# Elastic Compliance Matrix: (Units=1/GPa)
#
#
# Indices 1 2 3 4 5 6 
#
# 1 0.021908 -0.006951 -0.016201 0.000000 0.000000 0.000000
# 2 -0.006951 0.065705 -0.004261 0.000000 0.000000 0.000000
# 3 -0.016201 -0.004261 0.019416 0.000000 0.000000 0.000000
# 4 0.000000 0.000000 0.000000 0.063676 0.000000 0.000000
# 5 0.000000 0.000000 0.000000 0.000000 0.021574 0.000000
# 6 0.000000 0.000000 0.000000 0.000000 0.000000 0.057452
#
#
# Mechanical properties :
#
#
# Convention : Reuss Voigt Hill
#
# Bulk Modulus (GPa) = 19.15639 76.91879 48.03759
# Shear Modulus (GPa) = 15.52995 26.26107 20.89551
#
# Velocity S-wave (km/s) = 2.96299 3.85302 3.43694
# Velocity P-wave (km/s) = 4.74712 7.95473 6.55030
#
# Compressibility (1/GPa) = 0.05220190
#
# Stress axis : x y z
#
# Youngs Moduli (GPa) = 45.64605 15.21963 51.50306
#
# Poissons Ratio (x) = 0.10580 0.83441
# Poissons Ratio (y) = 0.31730 0.21944
# Poissons Ratio (z) = 0.73952 0.06485
#
# Static dielectric constant tensor:
#      x y z
#    x 3.614520 0.000000 0.000000 
#    y 0.000000 2.757450 0.000000 
#    z 0.000000 0.000000 3.545120 
# 
# 
# High freq. dielectric constant tensor:
#      x y z
#    x 1.692250 0.000000 0.000000 
#    y 0.000000 1.630900 0.000000 
#    z 0.000000 0.000000 1.692190 
# 
# From -- ./inp_files/10040.got.cif
#   From: 2010.03.12/outbox.cif.g09.slc.cpg/sg44_6_cif.got.tgz:10040.got - 2010.04.14 02:36:11.
