data_PCOD8189686
_publ_section_title
;
Structure prediction by ZEFSAII (Michael W. Deem and Ramdas Pophale) SiO2 
 PCOD8189686
Probable space group: I M M 2
;
_chemical_formula_sum "Si O2"
_cell_formula_units_Z 40
_cell_length_a 8.867456
_cell_length_b 11.434909
_cell_length_c 19.801828
_cell_angle_alpha 90.000000
_cell_angle_beta 90.000000
_cell_angle_gamma 90.000000
_cell_volume 2007.876694
_symmetry_space_group_name_H-M "I M M 2"
_symmetry_group_IT_number 44
_symmetry_cell_setting 'orthorhombic'
loop_
_space_group_symop_operation_xyz
x,y,z
-x,-y,z
-x,y,z
x,-y,z
1/2+x,1/2+y,1/2+z
1/2-x,1/2-y,1/2+z
1/2-x,1/2+y,1/2+z
1/2+x,1/2-y,1/2+z
loop_
_atom_site_type_symbol
_atom_site_label
_atom_site_fract_x
_atom_site_fract_y
_atom_site_fract_z
Si Si1 0.675601 0.135261 0.286210
Si Si2 0.674426 0.766986 0.900328
Si Si3 0.176197 0.133051 0.025879
Si Si4 0.823027 0.000000 0.677753
Si Si5 0.676214 0.237763 0.661520
Si Si6 0.328582 0.000000 0.818257
O O1 0.500000 0.165298 0.282250
O O2 0.736840 0.165489 0.360772
O O3 0.761616 0.212910 0.231586
O O4 0.707612 0.000000 0.271405
O O5 0.500000 0.732597 0.903349
O O6 0.704697 0.888620 0.863521
O O7 0.736390 0.779632 0.976125
O O8 0.211901 0.171361 0.102183
O O9 0.000000 0.142411 0.009843
O O10 0.233855 0.000000 0.017653
O O11 0.753071 0.885269 0.643003
O O12 0.787168 0.000000 0.757044
O O13 0.000000 0.000000 0.665963
O O14 0.500000 0.216367 0.671366
O O15 0.500000 0.000000 0.790545
#
# Coordination Sequence:
#
# PCOD8189686 Si02
#       6
#     8   8   8   4   8   4
#     4  11  24  41  62  90 123 160 202 251 304 360
#     4  11  22  38  63  91 122 157 198 247 302 361
#     4  10  22  40  63  90 121 158 201 248 302 361
#     4  12  24  38  62  92 122 159 200 251 304 358
#     4  11  23  41  64  90 122 161 203 250 303 362
#     4  10  20  36  60  92 122 153 192 245 302 358
#
# _framework density 19.921543
#
# number of rings (size 3 to 8) (size 9 to 14) (size 15 to 20)
#    0.000    1.200    3.000    3.300    0.000    4.800 
#    1.800    0.000    0.000    0.000    0.000    0.000 
#    0.000    0.000    0.000    0.000    0.000    0.000 
#
# Total GULP energy -248121.831664 kJ/mol
# GULP energy per Si atom -12406.091583 kJ/mol
# Density = 1.987620 g / cm^3
# Si number density = 19.921543 Si / 1000 Ang^3
#
#
#
# Elastic Constant Matrix: (Units=GPa)
#
#
# Indices 1 2 3 4 5 6 
#
# 1 115.6975 52.3668 41.8869 0.0000 0.0000 0.0000
# 2 52.3668 87.8581 27.2200 0.0000 0.0000 0.0000
# 3 41.8869 27.2200 90.8143 0.0000 0.0000 0.0000
# 4 0.0000 0.0000 0.0000 33.5312 0.0000 0.0000
# 5 0.0000 0.0000 0.0000 0.0000 36.6907 0.0000
# 6 0.0000 0.0000 0.0000 0.0000 0.0000 29.9305
#
#
#
# Elastic Compliance Matrix: (Units=1/GPa)
#
#
# Indices 1 2 3 4 5 6 
#
# 1 0.013074 -0.006531 -0.004073 0.000000 0.000000 0.000000
# 2 -0.006531 0.015809 -0.001726 0.000000 0.000000 0.000000
# 3 -0.004073 -0.001726 0.013407 0.000000 0.000000 0.000000
# 4 0.000000 0.000000 0.000000 0.029823 0.000000 0.000000
# 5 0.000000 0.000000 0.000000 0.000000 0.027255 0.000000
# 6 0.000000 0.000000 0.000000 0.000000 0.000000 0.033411
#
#
# Mechanical properties :
#
#
# Convention : Reuss Voigt Hill
#
# Bulk Modulus (GPa) = 56.71800 59.70193 58.20996
# Shear Modulus (GPa) = 30.61568 31.55687 31.08628
#
# Velocity S-wave (km/s) = 3.92447 3.98434 3.95452
# Velocity P-wave (km/s) = 7.00484 7.15543 7.08054
#
# Compressibility (1/GPa) = 0.01763109
#
# Stress axis : x y z
#
# Youngs Moduli (GPa) = 76.49060 63.25376 74.58584
#
# Poissons Ratio (x) = 0.41308 0.30376
# Poissons Ratio (y) = 0.49953 0.12877
# Poissons Ratio (z) = 0.31151 0.10920
#
# Static dielectric constant tensor:
#      x y z
#    x 3.638090 0.000000 0.000000 
#    y 0.000000 3.756680 0.000000 
#    z 0.000000 0.000000 3.545310 
# 
# 
# High freq. dielectric constant tensor:
#      x y z
#    x 1.783770 0.000000 0.000000 
#    y 0.000000 1.780840 0.000000 
#    z 0.000000 0.000000 1.774650 
# 
# From -- ./inp_files/22793.got.cif
#   From: 2010.03.12/outbox.cif.g09.slc.cpg/sg44_12_cif.got.tgz:22793.got - 2010.04.14 02:36:11.
