data_PCOD8189712
_publ_section_title
;
Structure prediction by ZEFSAII (Michael W. Deem and Ramdas Pophale) SiO2 
 PCOD8189712
Probable space group: I M M 2
;
_chemical_formula_sum "Si O2"
_cell_formula_units_Z 52
_cell_length_a 13.444779
_cell_length_b 19.116251
_cell_length_c 10.327589
_cell_angle_alpha 90.000000
_cell_angle_beta 90.000000
_cell_angle_gamma 90.000000
_cell_volume 2654.332584
_symmetry_space_group_name_H-M "I M M 2"
_symmetry_group_IT_number 44
_symmetry_cell_setting 'orthorhombic'
loop_
_space_group_symop_operation_xyz
x,y,z
-x,-y,z
-x,y,z
x,-y,z
1/2+x,1/2+y,1/2+z
1/2-x,1/2-y,1/2+z
1/2-x,1/2+y,1/2+z
1/2+x,1/2-y,1/2+z
loop_
_atom_site_type_symbol
_atom_site_label
_atom_site_fract_x
_atom_site_fract_y
_atom_site_fract_z
Si Si1 0.113363 0.648514 0.865960
Si Si2 0.181334 0.786430 0.976595
Si Si3 0.609173 0.000000 0.498798
Si Si4 0.184572 0.854658 0.243286
Si Si5 0.382057 0.500000 0.832448
Si Si6 0.112929 0.232201 0.477501
Si Si7 0.698646 0.500000 0.125966
Si Si8 0.886660 0.138954 0.721108
O O1 0.140027 0.706204 0.976356
O O2 0.126770 0.569633 0.914861
O O3 0.195974 0.659656 0.754048
O O4 0.000000 0.660567 0.814573
O O5 0.301750 0.790902 0.960027
O O6 0.132046 0.827594 0.859542
O O7 0.146747 0.822574 0.108840
O O8 0.682423 0.000000 0.619052
O O9 0.500000 0.000000 0.559210
O O10 0.120667 0.821173 0.358678
O O11 0.161270 0.936147 0.250169
O O12 0.500000 0.500000 0.832948
O O13 0.346149 0.500000 0.981184
O O14 0.142882 0.193176 0.609654
O O15 0.000000 0.262889 0.483017
O O16 0.673041 0.432300 0.208178
O O17 0.000000 0.117597 0.704892
#
# Coordination Sequence:
#
# PCOD8189712 Si02
#       8
#     8   8   4   8   4   8   4   8
#     4  10  20  38  61  86 120 161 199 243 298 358
#     4  11  24  38  55  88 130 157 191 251 308 356
#     4  10  20  36  64  94 116 150 205 253 291 341
#     4  11  22  38  60  91 119 153 200 255 299 349
#     4  12  22  37  62  88 115 151 197 252 294 342
#     4  10  20  37  61  85 113 156 204 243 294 357
#     4  12  20  41  64  86 115 157 206 245 289 355
#     4  11  23  39  61  87 118 162 203 243 300 366
#
# _framework density 19.590610999999999
#
# number of rings (size 3 to 8) (size 9 to 14) (size 15 to 20)
#    0.000    1.231    3.077    4.385    0.000    4.923 
#    0.000    2.308    0.000    0.000    0.000    1.077 
#    0.000    0.000    0.000    0.000    0.000    0.000 
#
# Total GULP energy -322338.554059 kJ/mol
# GULP energy per Si atom -12397.636695 kJ/mol
# Density = 1.954602 g / cm^3
# Si number density = 19.590611 Si / 1000 Ang^3
#
#
#
# Elastic Constant Matrix: (Units=GPa)
#
#
# Indices 1 2 3 4 5 6 
#
# 1 88.4943 9.1142 8.9025 -0.0001 0.0000 0.0000
# 2 9.1142 95.1472 43.8727 -0.0001 0.0000 0.0000
# 3 8.9025 43.8727 115.5206 0.0001 0.0000 0.0000
# 4 -0.0001 -0.0001 0.0001 -16.6541 0.0000 0.0001
# 5 0.0000 0.0000 0.0000 0.0000 19.1583 0.0000
# 6 0.0000 0.0000 0.0000 0.0001 0.0000 21.8448
#
#
#
# Elastic Compliance Matrix: (Units=1/GPa)
#
#
# Indices 1 2 3 4 5 6 
#
# 1 0.011443 -0.000836 -0.000564 0.000000 0.000000 0.000000
# 2 -0.000836 0.012802 -0.004798 0.000000 0.000000 0.000000
# 3 -0.000564 -0.004798 0.010522 0.000000 0.000000 0.000000
# 4 0.000000 0.000000 0.000000 -0.060045 0.000000 0.000000
# 5 0.000000 0.000000 0.000000 0.000000 0.052197 0.000000
# 6 0.000000 0.000000 0.000000 0.000000 0.000000 0.045778
#
#
# Mechanical properties :
#
#
# Convention : Reuss Voigt Hill
#
# Bulk Modulus (GPa) = 44.69980 46.99343 45.84661
# Shear Modulus (GPa) = 54.02516 20.68798 37.35657
#
# Velocity S-wave (km/s) = 5.25708 3.25316 4.37150
# Velocity P-wave (km/s) = 7.72760 6.17661 6.99522
#
# Compressibility (1/GPa) = 0.02237146
#
# Stress axis : x y z
#
# Youngs Moduli (GPa) = 87.38944 78.11085 95.03872
#
# Poissons Ratio (x) = 0.06529 0.05364
# Poissons Ratio (y) = 0.07305 0.45596
# Poissons Ratio (z) = 0.04932 0.37475
#
# Static dielectric constant tensor:
#      x y z
#    x 3.893370 0.000000 0.000000 
#    y 0.000000 3.609650 0.000000 
#    z 0.000000 0.000000 3.341560 
# 
# 
# High freq. dielectric constant tensor:
#      x y z
#    x 1.783800 0.000000 0.000000 
#    y 0.000000 1.761360 0.000000 
#    z 0.000000 0.000000 1.737560 
# 
# From -- ./inp_files/7358.got.cif
#   From: 2010.03.12/outbox.cif.g09.slc.cpg/sg44_4_cif.got.tgz:7358.got - 2010.04.14 02:36:11.
