data_PCOD8189759
_publ_section_title
;
Structure prediction by ZEFSAII (Michael W. Deem and Ramdas Pophale) SiO2 
 PCOD8189759
Probable space group: I M M 2
;
_chemical_formula_sum "Si O2"
_cell_formula_units_Z 56
_cell_length_a 21.881877
_cell_length_b 15.035525
_cell_length_c 7.926393
_cell_angle_alpha 90.000000
_cell_angle_beta 90.000000
_cell_angle_gamma 90.000000
_cell_volume 2607.826961
_symmetry_space_group_name_H-M "I M M 2"
_symmetry_group_IT_number 44
_symmetry_cell_setting 'orthorhombic'
loop_
_space_group_symop_operation_xyz
x,y,z
-x,-y,z
-x,y,z
x,-y,z
1/2+x,1/2+y,1/2+z
1/2-x,1/2-y,1/2+z
1/2-x,1/2+y,1/2+z
1/2+x,1/2-y,1/2+z
loop_
_atom_site_type_symbol
_atom_site_label
_atom_site_fract_x
_atom_site_fract_y
_atom_site_fract_z
Si Si1 0.382065 0.100717 0.056250
Si Si2 0.750364 0.395029 0.435213
Si Si3 0.169330 0.897061 0.241492
Si Si4 0.826642 0.896476 0.617123
Si Si5 0.070227 0.229096 0.719127
Si Si6 0.568957 0.094159 0.707628
Si Si7 0.930003 0.778695 0.105026
O O1 0.402768 0.170557 0.199229
O O2 0.374762 0.000000 0.133104
O O3 0.320097 0.134798 0.962623
O O4 0.432656 0.101842 0.910491
O O5 0.747108 0.500000 0.430967
O O6 0.713607 0.357895 0.597061
O O7 0.721413 0.359603 0.257874
O O8 0.199537 0.882679 0.426951
O O9 0.104758 0.847559 0.224256
O O10 0.155788 0.000000 0.209764
O O11 0.889874 0.841897 0.617127
O O12 0.841658 0.000000 0.650497
O O13 0.000000 0.226713 0.657081
O O14 0.074993 0.196002 0.910598
O O15 0.500000 0.089352 0.640918
O O16 0.600353 0.180339 0.625894
O O17 0.602367 0.000000 0.657312
O O18 0.000000 0.777804 0.168322
#
# Coordination Sequence:
#
# PCOD8189759 Si02
#       7
#     8   8   8   8   8   8   8
#     4  10  21  39  61  87 119 161 207 257 312 368
#     4   9  19  40  61  85 123 156 200 255 301 362
#     4  10  20  37  62  88 119 161 202 248 307 366
#     4  10  21  40  65  92 123 163 205 254 312 369
#     4  11  23  39  60  91 126 162 209 261 314 376
#     4   9  18  35  58  82 111 150 196 247 301 352
#     4  10  21  37  57  85 123 160 201 255 308 370
#
# _framework density 21.473817
#
# number of rings (size 3 to 8) (size 9 to 14) (size 15 to 20)
#    0.000    2.143    1.429    1.286    0.000    3.714 
#    7.714    4.286    0.000    0.000    0.000    0.000 
#    0.000    0.000    0.000    0.000    0.000    0.000 
#
# Total GULP energy -346995.510634 kJ/mol
# GULP energy per Si atom -12392.696808 kJ/mol
# Density = 2.142494 g / cm^3
# Si number density = 21.473817 Si / 1000 Ang^3
#
#
#
# Elastic Constant Matrix: (Units=GPa)
#
#
# Indices 1 2 3 4 5 6 
#
# 1 84.6184 24.4667 30.9320 0.0000 0.0000 0.0000
# 2 24.4667 70.6507 23.1640 0.0000 0.0000 0.0000
# 3 30.9320 23.1640 104.9462 0.0000 0.0000 0.0000
# 4 0.0000 0.0000 0.0000 31.4777 0.0000 0.0000
# 5 0.0000 0.0000 0.0000 0.0000 26.1866 0.0000
# 6 0.0000 0.0000 0.0000 0.0000 0.0000 27.0489
#
#
#
# Elastic Compliance Matrix: (Units=1/GPa)
#
#
# Indices 1 2 3 4 5 6 
#
# 1 0.014133 -0.003804 -0.003326 0.000000 0.000000 0.000000
# 2 -0.003804 0.016282 -0.002473 0.000000 0.000000 0.000000
# 3 -0.003326 -0.002473 0.011055 0.000000 0.000000 0.000000
# 4 0.000000 0.000000 0.000000 0.031769 0.000000 0.000000
# 5 0.000000 0.000000 0.000000 0.000000 0.038187 0.000000
# 6 0.000000 0.000000 0.000000 0.000000 0.000000 0.036970
#
#
# Mechanical properties :
#
#
# Convention : Reuss Voigt Hill
#
# Bulk Modulus (GPa) = 44.91355 46.37120 45.64238
# Shear Modulus (GPa) = 28.56756 29.05282 28.81019
#
# Velocity S-wave (km/s) = 3.65135 3.68223 3.66682
# Velocity P-wave (km/s) = 6.22393 6.30235 6.26326
#
# Compressibility (1/GPa) = 0.02226499
#
# Stress axis : x y z
#
# Youngs Moduli (GPa) = 70.75398 61.41689 90.45840
#
# Poissons Ratio (x) = 0.23363 0.30087
# Poissons Ratio (y) = 0.26915 0.22367
# Poissons Ratio (z) = 0.23533 0.15186
#
# Static dielectric constant tensor:
#      x y z
#    x 3.809470 0.000000 0.000000 
#    y 0.000000 3.940390 0.000000 
#    z 0.000000 0.000000 3.858980 
# 
# 
# High freq. dielectric constant tensor:
#      x y z
#    x 1.825450 0.000000 0.000000 
#    y 0.000000 1.842560 0.000000 
#    z 0.000000 0.000000 1.837020 
# 
# From -- ./inp_files/8928.got.cif
#   From: 2010.03.12/outbox.cif.g09.slc.cpg/sg44_5_cif.got.tgz:8928.got - 2010.04.14 02:36:11.
