data_PCOD8189941
_publ_section_title
;
Structure prediction by ZEFSAII (Michael W. Deem and Ramdas Pophale) SiO2 
 PCOD8189941
Probable space group: I M M 2
;
_chemical_formula_sum "Si O2"
_cell_formula_units_Z 64
_cell_length_a 14.551655
_cell_length_b 8.792187
_cell_length_c 27.950023
_cell_angle_alpha 90.000000
_cell_angle_beta 90.000000
_cell_angle_gamma 90.000000
_cell_volume 3575.950313
_symmetry_space_group_name_H-M "I M M 2"
_symmetry_group_IT_number 44
_symmetry_cell_setting 'orthorhombic'
loop_
_space_group_symop_operation_xyz
x,y,z
-x,-y,z
-x,y,z
x,-y,z
1/2+x,1/2+y,1/2+z
1/2-x,1/2-y,1/2+z
1/2-x,1/2+y,1/2+z
1/2+x,1/2-y,1/2+z
loop_
_atom_site_type_symbol
_atom_site_label
_atom_site_fract_x
_atom_site_fract_y
_atom_site_fract_z
Si Si1 0.899114 0.180195 0.468400
Si Si2 0.607068 0.326159 0.511115
Si Si3 0.776105 0.179900 0.660008
Si Si4 0.895026 0.175816 0.841737
Si Si5 0.103785 0.178533 0.120457
Si Si6 0.288421 0.177844 0.427157
Si Si7 0.604669 0.178758 0.242011
Si Si8 0.102784 0.179833 0.574363
O O1 0.818990 0.226935 0.431617
O O2 0.876240 0.246229 0.521418
O O3 0.000000 0.239696 0.451120
O O4 0.902740 0.000000 0.473195
O O5 0.500000 0.309776 0.499280
O O6 0.638190 0.500000 0.501989
O O7 0.626631 0.277198 0.565683
O O8 0.662443 0.212345 0.477305
O O9 0.670836 0.234264 0.656866
O O10 0.823823 0.240729 0.707442
O O11 0.828293 0.249214 0.613610
O O12 0.780202 0.000000 0.661659
O O13 0.830078 0.222926 0.885043
O O14 0.868781 0.274555 0.795720
O O15 0.000000 0.206464 0.857388
O O16 0.878956 0.000000 0.829430
O O17 0.000000 0.228481 0.132994
O O18 0.115644 0.000000 0.127830
O O19 0.299583 0.000000 0.415642
O O20 0.500000 0.231352 0.230615
O O21 0.615189 0.000000 0.236566
O O22 0.000000 0.226328 0.589828
O O23 0.113818 0.000000 0.573913
#
# Coordination Sequence:
#
# PCOD8189941 Si02
#       8
#     8   8   8   8   8   8   8   8
#     4   8  15  28  44  65  97 134 168 201 237 279
#     4   9  18  32  48  68  99 138 173 205 247 298
#     4  11  20  30  50  78 105 133 167 207 252 303
#     4  10  21  37  55  74  99 130 161 197 248 307
#     4   9  19  35  51  68  97 138 179 216 253 294
#     4  11  20  29  48  76 101 128 166 210 252 297
#     4  10  21  37  56  78 104 131 161 201 248 299
#     4   8  14  25  42  67 100 134 165 197 235 283
#
# _framework density 17.897341000000001
#
# number of rings (size 3 to 8) (size 9 to 14) (size 15 to 20)
#    0.000    2.500    0.000    4.500    0.000    5.500 
#    0.000    1.250    0.000    2.250    0.000    8.750 
#    0.000    0.000    0.000    0.000    0.000    0.000 
#
# Total GULP energy -396742.611089 kJ/mol
# GULP energy per Si atom -12398.206597 kJ/mol
# Density = 1.785661 g / cm^3
# Si number density = 17.897341 Si / 1000 Ang^3
#
#
#
# Elastic Constant Matrix: (Units=GPa)
#
#
# Indices 1 2 3 4 5 6 
#
# 1 115.1826 31.3047 66.8954 0.0000 0.0000 0.0000
# 2 31.3047 43.9481 24.9524 0.0000 0.0000 0.0000
# 3 66.8954 24.9524 83.8874 0.0000 0.0000 0.0000
# 4 0.0000 0.0000 0.0000 28.4342 0.0000 0.0000
# 5 0.0000 0.0000 0.0000 0.0000 31.6320 0.0000
# 6 0.0000 0.0000 0.0000 0.0000 0.0000 21.7507
#
#
#
# Elastic Compliance Matrix: (Units=1/GPa)
#
#
# Indices 1 2 3 4 5 6 
#
# 1 0.017160 -0.005359 -0.012090 0.000000 0.000000 0.000000
# 2 -0.005359 0.029051 -0.004368 0.000000 0.000000 0.000000
# 3 -0.012090 -0.004368 0.022861 0.000000 0.000000 0.000000
# 4 0.000000 0.000000 0.000000 0.035169 0.000000 0.000000
# 5 0.000000 0.000000 0.000000 0.000000 0.031614 0.000000
# 6 0.000000 0.000000 0.000000 0.000000 0.000000 0.045976
#
#
# Mechanical properties :
#
#
# Convention : Reuss Voigt Hill
#
# Bulk Modulus (GPa) = 39.31038 54.36923 46.83980
# Shear Modulus (GPa) = 21.37266 24.35442 22.86354
#
# Velocity S-wave (km/s) = 3.45944 3.69288 3.57807
# Velocity P-wave (km/s) = 6.16190 6.97334 6.58014
#
# Compressibility (1/GPa) = 0.02543857
#
# Stress axis : x y z
#
# Youngs Moduli (GPa) = 58.27520 34.42194 43.74228
#
# Poissons Ratio (x) = 0.18446 0.52885
# Poissons Ratio (y) = 0.31229 0.19107
# Poissons Ratio (z) = 0.70455 0.15035
#
# Static dielectric constant tensor:
#      x y z
#    x 3.525990 0.000000 0.000000 
#    y 0.000000 3.071480 0.000000 
#    z 0.000000 0.000000 3.195430 
# 
# 
# High freq. dielectric constant tensor:
#      x y z
#    x 1.695090 0.000000 0.000000 
#    y 0.000000 1.676040 0.000000 
#    z 0.000000 0.000000 1.674370 
# 
# From -- ./inp_files/25782.got.cif
#   From: 2010.03.12/outbox.cif.g09.slc.cpg/sg44_13_cif.got.tgz:25782.got - 2010.04.14 02:36:11.
