data_PCOD8189655
_publ_section_title
;
Structure prediction by ZEFSAII (Michael W. Deem and Ramdas Pophale) SiO2 
 PCOD8189655
Probable space group: I M M 2
;
_chemical_formula_sum "Si O2"
_cell_formula_units_Z 64
_cell_length_a 24.350435
_cell_length_b 9.071499
_cell_length_c 15.071712
_cell_angle_alpha 90.000000
_cell_angle_beta 90.000000
_cell_angle_gamma 90.000000
_cell_volume 3329.265020
_symmetry_space_group_name_H-M "I M M 2"
_symmetry_group_IT_number 44
_symmetry_cell_setting 'orthorhombic'
loop_
_space_group_symop_operation_xyz
x,y,z
-x,-y,z
-x,y,z
x,-y,z
1/2+x,1/2+y,1/2+z
1/2-x,1/2-y,1/2+z
1/2-x,1/2+y,1/2+z
1/2+x,1/2-y,1/2+z
loop_
_atom_site_type_symbol
_atom_site_label
_atom_site_fract_x
_atom_site_fract_y
_atom_site_fract_z
Si Si1 0.609636 0.329487 0.095630
Si Si2 0.716318 0.166840 0.121886
Si Si3 0.436564 0.828877 0.266490
Si Si4 0.853801 0.326105 0.282249
Si Si5 0.860688 0.327962 0.925671
Si Si6 0.754841 0.666988 0.819784
Si Si7 0.159353 0.826178 0.099745
Si Si8 0.563477 0.668012 0.906035
O O1 0.613542 0.500000 0.118504
O O2 0.671162 0.271009 0.077264
O O3 0.580624 0.251435 0.177322
O O4 0.573467 0.297601 0.009223
O O5 0.712400 0.184934 0.227859
O O6 0.776512 0.214483 0.089298
O O7 0.703479 0.000000 0.093218
O O8 0.500000 0.798703 0.287014
O O9 0.402320 0.769410 0.350626
O O10 0.423501 0.000000 0.251738
O O11 0.852982 0.500000 0.268585
O O12 0.796343 0.276893 0.326595
O O13 0.864131 0.248626 0.188031
O O14 0.902988 0.281641 0.346555
O O15 0.870412 0.500000 0.944450
O O16 0.797916 0.296735 0.896944
O O17 0.872873 0.237303 0.015079
O O18 0.732022 0.500000 0.827051
O O19 0.150158 0.000000 0.107936
O O20 0.500000 0.693232 0.884590
O O21 0.581362 0.500000 0.884619
#
# Coordination Sequence:
#
# PCOD8189655 Si02
#       8
#     8   8   8   8   8   8   8   8
#     4  11  22  35  57  88 120 153 192 237 288 347
#     4   9  18  35  55  80 116 155 193 230 281 345
#     4  10  21  39  61  84 117 160 199 238 288 342
#     4  11  23  39  61  88 116 149 197 247 296 351
#     4  10  20  36  58  86 118 154 198 244 291 345
#     4   9  18  35  57  82 117 156 191 234 290 347
#     4  10  22  39  59  84 119 158 195 241 297 351
#     4  10  23  43  62  82 114 156 199 243 298 355
#
# _framework density 19.223462000000001
#
# number of rings (size 3 to 8) (size 9 to 14) (size 15 to 20)
#    0.000    2.000    1.250    3.000    1.750    5.500 
#    0.000    0.625    0.000    2.250    0.000    0.000 
#    0.000    0.000    0.000    0.000    0.000    0.000 
#
# Total GULP energy -396918.081006 kJ/mol
# GULP energy per Si atom -12403.690031 kJ/mol
# Density = 1.917971 g / cm^3
# Si number density = 19.223462 Si / 1000 Ang^3
#
#
#
# Elastic Constant Matrix: (Units=GPa)
#
#
# Indices 1 2 3 4 5 6 
#
# 1 77.9603 46.6885 43.9190 0.0000 0.0000 0.0000
# 2 46.6885 99.5322 60.4468 0.0000 0.0000 0.0000
# 3 43.9190 60.4468 106.3394 0.0000 0.0000 0.0000
# 4 0.0000 0.0000 0.0000 35.3297 0.0000 0.0000
# 5 0.0000 0.0000 0.0000 0.0000 27.0933 0.0000
# 6 0.0000 0.0000 0.0000 0.0000 0.0000 22.0198
#
#
#
# Elastic Compliance Matrix: (Units=1/GPa)
#
#
# Indices 1 2 3 4 5 6 
#
# 1 0.019018 -0.006339 -0.004251 0.000000 0.000000 0.000000
# 2 -0.006339 0.017457 -0.007305 0.000000 0.000000 0.000000
# 3 -0.004251 -0.007305 0.015312 0.000000 0.000000 0.000000
# 4 0.000000 0.000000 0.000000 0.028305 0.000000 0.000000
# 5 0.000000 0.000000 0.000000 0.000000 0.036909 0.000000
# 6 0.000000 0.000000 0.000000 0.000000 0.000000 0.045414
#
#
# Mechanical properties :
#
#
# Convention : Reuss Voigt Hill
#
# Bulk Modulus (GPa) = 62.51410 65.10449 63.80930
# Shear Modulus (GPa) = 24.56537 25.74042 25.15290
#
# Velocity S-wave (km/s) = 3.57863 3.66322 3.62117
# Velocity P-wave (km/s) = 7.04739 7.19951 7.12386
#
# Compressibility (1/GPa) = 0.01599639
#
# Stress axis : x y z
#
# Youngs Moduli (GPa) = 52.58051 57.28364 65.30812
#
# Poissons Ratio (x) = 0.36314 0.27764
# Poissons Ratio (y) = 0.33332 0.47707
# Poissons Ratio (z) = 0.22354 0.41845
#
# Static dielectric constant tensor:
#      x y z
#    x 3.445380 0.000000 0.000000 
#    y 0.000000 3.429490 0.000000 
#    z 0.000000 0.000000 3.468460 
# 
# 
# High freq. dielectric constant tensor:
#      x y z
#    x 1.739300 0.000000 0.000000 
#    y 0.000000 1.743770 0.000000 
#    z 0.000000 0.000000 1.749510 
# 
# From -- ./inp_files/16884.got.cif
#   From: 2010.03.12/outbox.cif.g09.slc.cpg/sg44_9_cif.got.tgz:16884.got - 2010.04.14 02:36:11.
