data_PCOD8189885
_publ_section_title
;
Structure prediction by ZEFSAII (Michael W. Deem and Ramdas Pophale) SiO2 
 PCOD8189885
Probable space group: I M M 2
;
_chemical_formula_sum "Si O2"
_cell_formula_units_Z 56
_cell_length_a 16.835352
_cell_length_b 8.946060
_cell_length_c 19.842695
_cell_angle_alpha 90.000000
_cell_angle_beta 90.000000
_cell_angle_gamma 90.000000
_cell_volume 2988.509665
_symmetry_space_group_name_H-M "I M M 2"
_symmetry_group_IT_number 44
_symmetry_cell_setting 'orthorhombic'
loop_
_space_group_symop_operation_xyz
x,y,z
-x,-y,z
-x,y,z
x,-y,z
1/2+x,1/2+y,1/2+z
1/2-x,1/2-y,1/2+z
1/2-x,1/2+y,1/2+z
1/2+x,1/2-y,1/2+z
loop_
_atom_site_type_symbol
_atom_site_label
_atom_site_fract_x
_atom_site_fract_y
_atom_site_fract_z
Si Si1 0.911445 0.666674 0.998400
Si Si2 0.661045 0.322979 0.290530
Si Si3 0.500000 0.821404 0.102283
Si Si4 0.243663 0.827149 0.175901
Si Si5 0.587764 0.169774 0.657155
Si Si6 0.726664 0.675069 0.429350
Si Si7 0.836584 0.675001 0.542927
Si Si8 0.000000 0.322123 0.758092
O O1 0.881142 0.500000 0.980010
O O2 0.855648 0.789144 0.965702
O O3 0.000000 0.690804 0.969739
O O4 0.912566 0.688250 0.077763
O O5 0.647637 0.500000 0.292016
O O6 0.701085 0.274389 0.221664
O O7 0.719198 0.270226 0.352015
O O8 0.576425 0.241879 0.296807
O O9 0.578039 0.755411 0.064076
O O10 0.500000 0.768026 0.179974
O O11 0.500000 0.000000 0.101817
O O12 0.152281 0.782104 0.188236
O O13 0.270101 0.792853 0.099574
O O14 0.256201 0.000000 0.194810
O O15 0.500000 0.210707 0.685479
O O16 0.609640 0.000000 0.677643
O O17 0.738115 0.500000 0.431507
O O18 0.801525 0.743426 0.472328
O O19 0.850377 0.500000 0.535165
O O20 0.000000 0.500000 0.763128
#
# Coordination Sequence:
#
# PCOD8189885 Si02
#       8
#     8   8   4   8   8   8   8   4
#     4   9  18  31  48  75 107 138 173 212 261 320
#     4  11  24  38  53  78 119 157 186 230 293 355
#     4   9  16  31  59  87 107 128 175 246 296 326
#     4  11  20  34  58  83 108 142 188 238 285 337
#     4   9  18  33  53  79 111 142 176 224 281 334
#     4  10  21  36  53  76 109 148 188 227 274 336
#     4   9  17  32  55  83 107 135 182 238 285 331
#     4  11  21  37  59  87 117 150 195 238 286 354
#
# _framework density 18.738436
#
# number of rings (size 3 to 8) (size 9 to 14) (size 15 to 20)
#    0.000    2.143    2.857    1.929    1.000    1.714 
#    0.000    1.429    1.571    0.000    0.000    0.000 
#    0.000    0.000    0.000    0.000    0.000    0.000 
#
# Total GULP energy -347036.953710 kJ/mol
# GULP energy per Si atom -12394.176918 kJ/mol
# Density = 1.869579 g / cm^3
# Si number density = 18.738436 Si / 1000 Ang^3
#
#
#
# Elastic Constant Matrix: (Units=GPa)
#
#
# Indices 1 2 3 4 5 6 
#
# 1 108.2120 31.6999 30.2863 0.0000 0.0000 0.0000
# 2 31.6999 33.6678 31.9799 0.0000 0.0000 0.0000
# 3 30.2863 31.9799 71.2413 0.0000 0.0000 0.0000
# 4 0.0000 0.0000 0.0000 21.3262 0.0000 0.0000
# 5 0.0000 0.0000 0.0000 0.0000 19.5117 0.0000
# 6 0.0000 0.0000 0.0000 0.0000 0.0000 28.5548
#
#
#
# Elastic Compliance Matrix: (Units=1/GPa)
#
#
# Indices 1 2 3 4 5 6 
#
# 1 0.012761 -0.011963 -0.000055 0.000000 0.000000 0.000000
# 2 -0.011963 0.062996 -0.023193 0.000000 0.000000 0.000000
# 3 -0.000055 -0.023193 0.024471 0.000000 0.000000 0.000000
# 4 0.000000 0.000000 0.000000 0.046891 0.000000 0.000000
# 5 0.000000 0.000000 0.000000 0.000000 0.051251 0.000000
# 6 0.000000 0.000000 0.000000 0.000000 0.000000 0.035020
#
#
# Mechanical properties :
#
#
# Convention : Reuss Voigt Hill
#
# Bulk Modulus (GPa) = 33.54944 44.56147 39.05545
# Shear Modulus (GPa) = 15.93644 21.82223 18.87933
#
# Velocity S-wave (km/s) = 2.91944 3.41628 3.17759
# Velocity P-wave (km/s) = 5.41361 6.27644 5.86092
#
# Compressibility (1/GPa) = 0.02980676
#
# Stress axis : x y z
#
# Youngs Moduli (GPa) = 78.36426 15.87413 40.86435
#
# Poissons Ratio (x) = 0.18990 0.00224
# Poissons Ratio (y) = 0.93746 0.94775
# Poissons Ratio (z) = 0.00430 0.36816
#
# Static dielectric constant tensor:
#      x y z
#    x 4.299650 0.000000 0.000000 
#    y 0.000000 3.227220 0.000000 
#    z 0.000000 0.000000 3.485550 
# 
# 
# High freq. dielectric constant tensor:
#      x y z
#    x 1.732540 0.000000 0.000000 
#    y 0.000000 1.702710 0.000000 
#    z 0.000000 0.000000 1.710090 
# 
# From -- ./inp_files/24165.got.cif
#   From: 2010.03.12/outbox.cif.g09.slc.cpg/sg44_13_cif.got.tgz:24165.got - 2010.04.14 02:36:11.
