data_PCOD8189618
_publ_section_title
;
Structure prediction by ZEFSAII (Michael W. Deem and Ramdas Pophale) SiO2 
 PCOD8189618
Probable space group: I M M 2
;
_chemical_formula_sum "Si O2"
_cell_formula_units_Z 64
_cell_length_a 27.445486
_cell_length_b 8.796331
_cell_length_c 13.061785
_cell_angle_alpha 90.000000
_cell_angle_beta 90.000000
_cell_angle_gamma 90.000000
_cell_volume 3153.370640
_symmetry_space_group_name_H-M "I M M 2"
_symmetry_group_IT_number 44
_symmetry_cell_setting 'orthorhombic'
loop_
_space_group_symop_operation_xyz
x,y,z
-x,-y,z
-x,y,z
x,-y,z
1/2+x,1/2+y,1/2+z
1/2-x,1/2-y,1/2+z
1/2-x,1/2+y,1/2+z
1/2+x,1/2-y,1/2+z
loop_
_atom_site_type_symbol
_atom_site_label
_atom_site_fract_x
_atom_site_fract_y
_atom_site_fract_z
Si Si1 0.054832 0.318989 0.856980
Si Si2 0.377800 0.819979 0.171778
Si Si3 0.701289 0.830838 0.617857
Si Si4 0.766292 0.169378 0.427697
Si Si5 0.624365 0.680103 0.955683
Si Si6 0.902382 0.680380 0.069236
Si Si7 0.943961 0.322805 0.286357
Si Si8 0.781614 0.821083 0.757162
O O1 0.056428 0.500000 0.859960
O O2 0.086406 0.258721 0.761128
O O3 0.000000 0.259402 0.842026
O O4 0.074965 0.251200 0.964714
O O5 0.323710 0.769952 0.200907
O O6 0.380232 0.000000 0.163167
O O7 0.393874 0.751538 0.062725
O O8 0.746756 0.836506 0.541931
O O9 0.652033 0.746140 0.582221
O O10 0.728013 0.763037 0.717439
O O11 0.682981 0.000000 0.644229
O O12 0.820940 0.237870 0.429727
O O13 0.724925 0.274714 0.374855
O O14 0.766322 0.000000 0.379384
O O15 0.623931 0.500000 0.968292
O O16 0.588931 0.728339 0.864293
O O17 0.901246 0.500000 0.055207
O O18 0.933498 0.726730 0.169072
O O19 0.932107 0.500000 0.301247
O O20 0.000000 0.286400 0.310697
O O21 0.790601 0.000000 0.742201
#
# Coordination Sequence:
#
# PCOD8189618 Si02
#       8
#     8   8   8   8   8   8   8   8
#     4   9  18  33  56  86 115 147 191 246 303 352
#     4  11  22  37  59  86 120 159 200 244 295 357
#     4   9  17  31  51  77 111 146 179 221 282 342
#     4  10  20  36  55  79 113 151 189 236 288 343
#     4  11  23  40  60  83 119 160 202 251 301 356
#     4   9  16  30  56  87 117 147 186 239 298 358
#     4  10  21  37  59  88 118 150 197 254 304 360
#     4  11  21  35  55  82 116 153 191 234 284 346
#
# _framework density 20.295745
#
# number of rings (size 3 to 8) (size 9 to 14) (size 15 to 20)
#    0.000    2.000    1.250    3.000    0.000    6.250 
#    0.000    1.250    0.000    6.375    0.000    0.000 
#    0.000    0.000    0.000    0.000    0.000    0.000 
#
# Total GULP energy -396598.224763 kJ/mol
# GULP energy per Si atom -12393.694524 kJ/mol
# Density = 2.024955 g / cm^3
# Si number density = 20.295745 Si / 1000 Ang^3
#
#
#
# Elastic Constant Matrix: (Units=GPa)
#
#
# Indices 1 2 3 4 5 6 
#
# 1 112.6588 20.1136 33.8947 0.0000 0.0000 0.0000
# 2 20.1136 42.6312 28.5073 0.0000 0.0000 0.0000
# 3 33.8947 28.5073 110.7096 0.0000 0.0000 0.0000
# 4 0.0000 0.0000 0.0000 20.1353 0.0000 0.0000
# 5 0.0000 0.0000 0.0000 0.0000 37.7667 0.0000
# 6 0.0000 0.0000 0.0000 0.0000 0.0000 24.4310
#
#
#
# Elastic Compliance Matrix: (Units=1/GPa)
#
#
# Indices 1 2 3 4 5 6 
#
# 1 0.010141 -0.003272 -0.002262 0.000000 0.000000 0.000000
# 2 -0.003272 0.029392 -0.006567 0.000000 0.000000 0.000000
# 3 -0.002262 -0.006567 0.011416 0.000000 0.000000 0.000000
# 4 0.000000 0.000000 0.000000 0.049664 0.000000 0.000000
# 5 0.000000 0.000000 0.000000 0.000000 0.026478 0.000000
# 6 0.000000 0.000000 0.000000 0.000000 0.000000 0.040932
#
#
# Mechanical properties :
#
#
# Convention : Reuss Voigt Hill
#
# Bulk Modulus (GPa) = 37.38658 47.89229 42.63944
# Shear Modulus (GPa) = 24.85828 28.69886 26.77857
#
# Velocity S-wave (km/s) = 3.50351 3.76444 3.63632
# Velocity P-wave (km/s) = 5.90144 6.52251 6.21973
#
# Compressibility (1/GPa) = 0.02674756
#
# Stress axis : x y z
#
# Youngs Moduli (GPa) = 98.60826 34.02326 87.59539
#
# Poissons Ratio (x) = 0.11132 0.19817
# Poissons Ratio (y) = 0.32263 0.57520
# Poissons Ratio (z) = 0.22308 0.22341
#
# Static dielectric constant tensor:
#      x y z
#    x 3.792530 0.000000 0.000000 
#    y 0.000000 3.277090 0.000000 
#    z 0.000000 0.000000 3.839830 
# 
# 
# High freq. dielectric constant tensor:
#      x y z
#    x 1.801950 0.000000 0.000000 
#    y 0.000000 1.746070 0.000000 
#    z 0.000000 0.000000 1.808340 
# 
# From -- ./inp_files/11488.got.cif
#   From: 2010.03.12/outbox.cif.g09.slc.cpg/sg44_6_cif.got.tgz:11488.got - 2010.04.14 02:36:11.
