data_PCOD8189535
_publ_section_title
;
Structure prediction by ZEFSAII (Michael W. Deem and Ramdas Pophale) SiO2 
 PCOD8189535
Probable space group: I M M 2
;
_chemical_formula_sum "Si O2"
_cell_formula_units_Z 48
_cell_length_a 8.739904
_cell_length_b 18.434159
_cell_length_c 15.172971
_cell_angle_alpha 90.000000
_cell_angle_beta 90.000000
_cell_angle_gamma 90.000000
_cell_volume 2444.559538
_symmetry_space_group_name_H-M "I M M 2"
_symmetry_group_IT_number 44
_symmetry_cell_setting 'orthorhombic'
loop_
_space_group_symop_operation_xyz
x,y,z
-x,-y,z
-x,y,z
x,-y,z
1/2+x,1/2+y,1/2+z
1/2-x,1/2-y,1/2+z
1/2-x,1/2+y,1/2+z
1/2+x,1/2-y,1/2+z
loop_
_atom_site_type_symbol
_atom_site_label
_atom_site_fract_x
_atom_site_fract_y
_atom_site_fract_z
Si Si1 0.817940 0.000000 0.671100
Si Si2 0.680390 0.269600 0.579503
Si Si3 0.318380 0.500000 0.976160
Si Si4 0.682331 0.578440 0.646699
Si Si5 0.818263 0.348676 0.222889
Si Si6 0.326792 0.234918 0.893299
Si Si7 0.173823 0.106958 0.336026
O O1 0.757389 0.072757 0.716344
O O2 0.746826 0.000000 0.572891
O O3 0.000000 0.000000 0.675663
O O4 0.500000 0.270327 0.590572
O O5 0.749101 0.350497 0.597843
O O6 0.744564 0.207927 0.647472
O O7 0.721816 0.254570 0.478477
O O8 0.500000 0.500000 0.989613
O O9 0.254140 0.429756 0.923246
O O10 0.500000 0.585308 0.648394
O O11 0.730093 0.500000 0.603585
O O12 0.750228 0.579114 0.745891
O O13 0.771879 0.324693 0.322418
O O14 0.000000 0.354572 0.214151
O O15 0.500000 0.220376 0.925341
O O16 0.314824 0.307396 0.836566
O O17 0.000000 0.079767 0.335360
#
# Coordination Sequence:
#
# PCOD8189535 Si02
#       7
#     4   8   4   8   8   8   8
#     4  11  23  37  55  84 113 140 186 249 297 329
#     4  10  20  35  56  84 113 145 187 232 277 331
#     4   9  16  25  45  80 111 130 162 223 285 327
#     4   9  15  27  50  78 107 138 172 217 268 320
#     4  10  21  39  59  78 111 157 195 229 281 350
#     4  10  20  35  56  80 107 148 192 228 271 331
#     4   9  14  25  48  76 104 133 171 213 262 325
#
# _framework density 19.635439999999999
#
# number of rings (size 3 to 8) (size 9 to 14) (size 15 to 20)
#    0.000    2.333    2.500    1.250    0.000    2.667 
#    1.500    0.000    0.000    0.000    0.000    0.000 
#    0.000    0.000    0.000    0.000    0.000    0.000 
#
# Total GULP energy -297314.843404 kJ/mol
# GULP energy per Si atom -12388.118475 kJ/mol
# Density = 1.959075 g / cm^3
# Si number density = 19.635440 Si / 1000 Ang^3
#
#
#
# Elastic Constant Matrix: (Units=GPa)
#
#
# Indices 1 2 3 4 5 6 
#
# 1 18.5678 21.9169 14.1055 0.0000 0.0000 0.0000
# 2 21.9169 138.7186 38.2288 0.0000 0.0000 0.0000
# 3 14.1055 38.2288 83.7235 0.0000 0.0000 0.0000
# 4 0.0000 0.0000 0.0000 28.6111 0.0000 0.0000
# 5 0.0000 0.0000 0.0000 0.0000 21.7790 0.0000
# 6 0.0000 0.0000 0.0000 0.0000 0.0000 13.4625
#
#
#
# Elastic Compliance Matrix: (Units=1/GPa)
#
#
# Indices 1 2 3 4 5 6 
#
# 1 0.070342 -0.008977 -0.007752 0.000000 0.000000 0.000000
# 2 -0.008977 0.009392 -0.002776 0.000000 0.000000 0.000000
# 3 -0.007752 -0.002776 0.014518 0.000000 0.000000 0.000000
# 4 0.000000 0.000000 0.000000 0.034952 0.000000 0.000000
# 5 0.000000 0.000000 0.000000 0.000000 0.045916 0.000000
# 6 0.000000 0.000000 0.000000 0.000000 0.000000 0.074280
#
#
# Mechanical properties :
#
#
# Convention : Reuss Voigt Hill
#
# Bulk Modulus (GPa) = 18.10236 43.27915 30.69075
# Shear Modulus (GPa) = 16.29595 23.88777 20.09186
#
# Velocity S-wave (km/s) = 2.88397 3.49171 3.20229
# Velocity P-wave (km/s) = 4.50876 6.19235 5.41637
#
# Compressibility (1/GPa) = 0.05524142
#
# Stress axis : x y z
#
# Youngs Moduli (GPa) = 14.21618 106.47040 68.88148
#
# Poissons Ratio (x) = 0.95583 0.53396
# Poissons Ratio (y) = 0.12762 0.19122
# Poissons Ratio (z) = 0.11020 0.29557
#
# Static dielectric constant tensor:
#      x y z
#    x 2.992710 0.000000 0.000000 
#    y 0.000000 3.879700 0.000000 
#    z 0.000000 0.000000 3.586500 
# 
# 
# High freq. dielectric constant tensor:
#      x y z
#    x 1.702150 0.000000 0.000000 
#    y 0.000000 1.783960 0.000000 
#    z 0.000000 0.000000 1.764880 
# 
# From -- ./inp_files/16143.got.cif
#   From: 2010.03.12/outbox.cif.g09.slc.cpg/sg44_9_cif.got.tgz:16143.got - 2010.04.14 02:36:11.
