data_PCOD8189894
_publ_section_title
;
Structure prediction by ZEFSAII (Michael W. Deem and Ramdas Pophale) SiO2 
 PCOD8189894
Probable space group: I M M 2
;
_chemical_formula_sum "Si O2"
_cell_formula_units_Z 32
_cell_length_a 9.170271
_cell_length_b 20.133348
_cell_length_c 9.232973
_cell_angle_alpha 90.000000
_cell_angle_beta 90.000000
_cell_angle_gamma 90.000000
_cell_volume 1704.667715
_symmetry_space_group_name_H-M "I M M 2"
_symmetry_group_IT_number 44
_symmetry_cell_setting 'orthorhombic'
loop_
_space_group_symop_operation_xyz
x,y,z
-x,-y,z
-x,y,z
x,-y,z
1/2+x,1/2+y,1/2+z
1/2-x,1/2-y,1/2+z
1/2-x,1/2+y,1/2+z
1/2+x,1/2-y,1/2+z
loop_
_atom_site_type_symbol
_atom_site_label
_atom_site_fract_x
_atom_site_fract_y
_atom_site_fract_z
Si Si1 0.670503 0.192212 0.424240
Si Si2 0.330068 0.316848 0.222625
Si Si3 0.673454 0.926548 0.225798
Si Si4 0.833401 0.577305 0.401173
O O1 0.500000 0.183816 0.457847
O O2 0.703098 0.256776 0.330165
O O3 0.757002 0.200593 0.571301
O O4 0.732023 0.127800 0.338552
O O5 0.500000 0.327083 0.196354
O O6 0.265108 0.384220 0.286857
O O7 0.500000 0.926393 0.221407
O O8 0.729746 0.000000 0.272051
O O9 0.727359 0.909367 0.063363
O O10 0.822682 0.500000 0.362659
O O11 0.000000 0.602020 0.386853
#
# Coordination Sequence:
#
# PCOD8189894 Si02
#       4
#     8   8   8   8
#     4  10  21  36  54  77 106 141 180 222 270 322
#     4  11  23  36  53  79 110 142 178 226 274 315
#     4   8  15  31  56  81 102 131 177 224 259 304
#     4   9  18  35  59  82 106 141 181 219 263 319
#
# _framework density 18.771986999999999
#
# number of rings (size 3 to 8) (size 9 to 14) (size 15 to 20)
#    0.000    2.500    0.000    3.750    0.000    5.500 
#    0.000    3.750    0.000    1.500    0.000    0.000 
#    0.000    0.000    0.000    0.000    0.000    0.000 
#
# Total GULP energy -198411.933606 kJ/mol
# GULP energy per Si atom -12400.745850 kJ/mol
# Density = 1.872926 g / cm^3
# Si number density = 18.771987 Si / 1000 Ang^3
#
#
#
# Elastic Constant Matrix: (Units=GPa)
#
#
# Indices 1 2 3 4 5 6 
#
# 1 70.4769 53.6996 70.4913 -0.0001 0.0000 0.0000
# 2 53.6996 95.6911 59.8821 0.0000 0.0000 0.0000
# 3 70.4913 59.8821 133.6102 0.0002 0.0000 0.0000
# 4 -0.0001 0.0000 0.0002 30.9659 0.0000 0.0000
# 5 0.0000 0.0000 0.0000 0.0000 30.5964 0.0000
# 6 0.0000 0.0000 0.0000 0.0000 0.0000 23.3346
#
#
#
# Elastic Compliance Matrix: (Units=1/GPa)
#
#
# Indices 1 2 3 4 5 6 
#
# 1 0.038184 -0.012260 -0.014651 0.000000 0.000000 0.000000
# 2 -0.012260 0.018460 -0.001805 0.000000 0.000000 0.000000
# 3 -0.014651 -0.001805 0.016023 0.000000 0.000000 0.000000
# 4 0.000000 0.000000 0.000000 0.032294 0.000000 0.000000
# 5 0.000000 0.000000 0.000000 0.000000 0.032684 0.000000
# 6 0.000000 0.000000 0.000000 0.000000 0.000000 0.042855
#
#
# Mechanical properties :
#
#
# Convention : Reuss Voigt Hill
#
# Bulk Modulus (GPa) = 65.63688 74.21381 69.92535
# Shear Modulus (GPa) = 20.57527 24.69305 22.63416
#
# Velocity S-wave (km/s) = 3.31427 3.63081 3.47615
# Velocity P-wave (km/s) = 7.04891 7.56288 7.31041
#
# Compressibility (1/GPa) = 0.01523534
#
# Stress axis : x y z
#
# Youngs Moduli (GPa) = 26.18878 54.17136 62.40922
#
# Poissons Ratio (x) = 0.66413 0.91436
# Poissons Ratio (y) = 0.32107 0.11267
# Poissons Ratio (z) = 0.38369 0.09780
#
# Static dielectric constant tensor:
#      x y z
#    x 3.170140 0.000000 0.000000 
#    y 0.000000 3.670910 0.000000 
#    z 0.000000 0.000000 3.470020 
# 
# 
# High freq. dielectric constant tensor:
#      x y z
#    x 1.698130 0.000000 0.000000 
#    y 0.000000 1.742460 0.000000 
#    z 0.000000 0.000000 1.734070 
# 
# From -- ./inp_files/4215.got.cif
#   From: 2010.03.12/outbox.cif.g09.slc.cpg/sg44_3_cif.got.tgz:4215.got - 2010.04.14 02:36:11.
