data_PCOD8189348
_publ_section_title
;
Structure prediction by ZEFSAII (Michael W. Deem and Ramdas Pophale) SiO2 
 PCOD8189348
Probable space group: I M M 2
;
_chemical_formula_sum "Si O2"
_cell_formula_units_Z 48
_cell_length_a 21.698474
_cell_length_b 9.032045
_cell_length_c 12.545330
_cell_angle_alpha 90.000000
_cell_angle_beta 90.000000
_cell_angle_gamma 90.000000
_cell_volume 2458.653766
_symmetry_space_group_name_H-M "I M M 2"
_symmetry_group_IT_number 44
_symmetry_cell_setting 'orthorhombic'
loop_
_space_group_symop_operation_xyz
x,y,z
-x,-y,z
-x,y,z
x,-y,z
1/2+x,1/2+y,1/2+z
1/2-x,1/2-y,1/2+z
1/2-x,1/2+y,1/2+z
1/2+x,1/2-y,1/2+z
loop_
_atom_site_type_symbol
_atom_site_label
_atom_site_fract_x
_atom_site_fract_y
_atom_site_fract_z
Si Si1 0.672049 0.826097 0.687160
Si Si2 0.707037 0.823873 0.125763
Si Si3 0.865547 0.675866 0.416365
Si Si4 0.069628 0.325313 0.027165
Si Si5 0.618589 0.175796 0.307055
Si Si6 0.000000 0.323720 0.689754
Si Si7 0.000000 0.324028 0.452054
O O1 0.724793 0.742251 0.621754
O O2 0.671288 0.774241 0.810575
O O3 0.605919 0.784635 0.635040
O O4 0.684579 0.000000 0.676933
O O5 0.677081 0.767907 0.238050
O O6 0.710714 0.000000 0.120675
O O7 0.668268 0.764135 0.023202
O O8 0.868561 0.500000 0.424055
O O9 0.935904 0.736625 0.402238
O O10 0.062393 0.500000 0.014087
O O11 0.000000 0.256763 0.028856
O O12 0.112297 0.265935 0.928653
O O13 0.559266 0.240325 0.247938
O O14 0.619558 0.000000 0.304466
O O15 0.000000 0.263962 0.571314
O O16 0.000000 0.500000 0.691961
O O17 0.000000 0.500000 0.445478
#
# Coordination Sequence:
#
# PCOD8189348 Si02
#       7
#     8   8   8   8   8   4   4
#     4  10  22  35  49  73 104 134 163 199 246 298
#     4  10  20  34  52  73  99 134 170 201 238 291
#     4   9  18  31  48  73 102 129 162 206 252 291
#     4   9  17  29  47  72 100 126 157 205 256 291
#     4   9  15  25  44  71 100 125 158 205 249 285
#     4   9  12  20  39  69 101 122 150 203 257 282
#     4   9  14  24  45  71  99 126 156 203 255 290
#
# _framework density 19.522880000000001
#
# number of rings (size 3 to 8) (size 9 to 14) (size 15 to 20)
#    0.000    2.667    2.500    0.000    3.500    0.000 
#    0.000    0.000    0.000    0.500    0.000    3.500 
#    0.000    0.000    0.000    0.000    0.000    0.000 
#
# Total GULP energy -297320.500290 kJ/mol
# GULP energy per Si atom -12388.354179 kJ/mol
# Density = 1.947844 g / cm^3
# Si number density = 19.522880 Si / 1000 Ang^3
#
#
#
# Elastic Constant Matrix: (Units=GPa)
#
#
# Indices 1 2 3 4 5 6 
#
# 1 130.9887 15.9722 60.8239 0.0000 0.0000 0.0000
# 2 15.9722 9.0258 15.3148 0.0000 0.0000 0.0000
# 3 60.8239 15.3148 127.4244 0.0000 0.0000 0.0000
# 4 0.0000 0.0000 0.0000 10.2979 0.0000 0.0000
# 5 0.0000 0.0000 0.0000 0.0000 30.2567 0.0000
# 6 0.0000 0.0000 0.0000 0.0000 0.0000 18.0013
#
#
#
# Elastic Compliance Matrix: (Units=1/GPa)
#
#
# Indices 1 2 3 4 5 6 
#
# 1 0.010927 -0.013173 -0.003633 0.000000 0.000000 0.000000
# 2 -0.013173 0.155058 -0.012348 0.000000 0.000000 0.000000
# 3 -0.003633 -0.012348 0.011066 0.000000 0.000000 0.000000
# 4 0.000000 0.000000 0.000000 0.097107 0.000000 0.000000
# 5 0.000000 0.000000 0.000000 0.000000 0.033051 0.000000
# 6 0.000000 0.000000 0.000000 0.000000 0.000000 0.055551
#
#
# Mechanical properties :
#
#
# Convention : Reuss Voigt Hill
#
# Bulk Modulus (GPa) = 8.42156 50.18451 29.30304
# Shear Modulus (GPa) = 10.85426 23.39971 17.12699
#
# Velocity S-wave (km/s) = 2.36047 3.46581 2.96510
# Velocity P-wave (km/s) = 3.42814 6.46352 5.17345
#
# Compressibility (1/GPa) = 0.11874281
#
# Stress axis : x y z
#
# Youngs Moduli (GPa) = 91.51313 6.44922 90.36798
#
# Poissons Ratio (x) = 0.08496 0.32828
# Poissons Ratio (y) = 1.20554 1.11585
# Poissons Ratio (z) = 0.33244 0.07963
#
# Static dielectric constant tensor:
#      x y z
#    x 3.709530 0.000000 0.000000 
#    y 0.000000 2.711750 0.000000 
#    z 0.000000 0.000000 3.828350 
# 
# 
# High freq. dielectric constant tensor:
#      x y z
#    x 1.772320 0.000000 0.000000 
#    y 0.000000 1.666290 0.000000 
#    z 0.000000 0.000000 1.774420 
# 
# From -- ./inp_files/12396.got.cif
#   From: 2010.03.12/outbox.cif.g09.slc.cpg/sg44_7_cif.got.tgz:12396.got - 2010.04.14 02:36:11.
