data_PCOD8189639
_publ_section_title
;
Structure prediction by ZEFSAII (Michael W. Deem and Ramdas Pophale) SiO2 
 PCOD8189639
Probable space group: I M M 2
;
_chemical_formula_sum "Si O2"
_cell_formula_units_Z 40
_cell_length_a 8.043006
_cell_length_b 25.964473
_cell_length_c 10.219226
_cell_angle_alpha 90.000000
_cell_angle_beta 90.000000
_cell_angle_gamma 90.000000
_cell_volume 2134.105616
_symmetry_space_group_name_H-M "I M M 2"
_symmetry_group_IT_number 44
_symmetry_cell_setting 'orthorhombic'
loop_
_space_group_symop_operation_xyz
x,y,z
-x,-y,z
-x,y,z
x,-y,z
1/2+x,1/2+y,1/2+z
1/2-x,1/2-y,1/2+z
1/2-x,1/2+y,1/2+z
1/2+x,1/2-y,1/2+z
loop_
_atom_site_type_symbol
_atom_site_label
_atom_site_fract_x
_atom_site_fract_y
_atom_site_fract_z
Si Si1 0.313916 0.706930 0.682460
Si Si2 0.000000 0.558396 0.854167
Si Si3 0.500000 0.058229 0.043714
Si Si4 0.697489 0.369934 0.913062
Si Si5 0.813150 0.181604 0.683983
Si Si6 0.679794 0.851146 0.951532
O O1 0.500000 0.725940 0.709534
O O2 0.256209 0.667241 0.793081
O O3 0.199141 0.756812 0.686867
O O4 0.311157 0.678759 0.541428
O O5 0.826789 0.582852 0.906375
O O6 0.000000 0.500000 0.905273
O O7 0.000000 0.560589 0.698773
O O8 0.334693 0.087884 0.989134
O O9 0.500000 0.000000 0.990951
O O10 0.500000 0.386516 0.908488
O O11 0.744735 0.339291 0.044072
O O12 0.711796 0.153945 0.798134
O O13 0.000000 0.165252 0.710066
O O14 0.500000 0.825260 0.981811
#
# Coordination Sequence:
#
# PCOD8189639 Si02
#       6
#     8   4   4   8   8   8
#     4  11  21  36  58  85 118 163 201 242 295 354
#     4  11  22  41  71  91 113 161 205 257 318 350
#     4   9  20  39  65  89 113 149 205 255 296 354
#     4  10  23  40  58  90 126 154 202 257 297 361
#     4  11  23  36  56  85 123 163 196 238 300 360
#     4  10  20  36  57  85 117 151 196 244 290 353
#
# _framework density 18.743214999999999
#
# number of rings (size 3 to 8) (size 9 to 14) (size 15 to 20)
#    0.600    1.000    2.000    3.000    4.200    2.000 
#    0.000    2.000    0.000    3.600    0.000    0.000 
#    0.000    0.000    0.000    0.000    0.000    0.000 
#
# Total GULP energy -247885.846826 kJ/mol
# GULP energy per Si atom -12394.292341 kJ/mol
# Density = 1.870055 g / cm^3
# Si number density = 18.743215 Si / 1000 Ang^3
#
#
#
# Elastic Constant Matrix: (Units=GPa)
#
#
# Indices 1 2 3 4 5 6 
#
# 1 72.6706 49.2707 28.8996 0.0003 -0.0003 0.0000
# 2 49.2707 125.3490 43.9780 -0.0014 0.0050 0.0004
# 3 28.8996 43.9780 111.1499 -0.0048 0.0169 0.0013
# 4 0.0003 -0.0014 -0.0048 12.4449 0.0073 0.0005
# 5 -0.0003 0.0050 0.0169 0.0073 5.2542 -0.0011
# 6 0.0000 0.0004 0.0013 0.0005 -0.0011 25.8849
#
#
#
# Elastic Compliance Matrix: (Units=1/GPa)
#
#
# Indices 1 2 3 4 5 6 
#
# 1 0.019270 -0.006754 -0.002338 -0.000002 0.000015 0.000000
# 2 -0.006754 0.011631 -0.002846 0.000000 -0.000002 0.000000
# 3 -0.002338 -0.002846 0.010731 0.000004 -0.000032 0.000000
# 4 -0.000002 0.000000 0.000004 0.080354 -0.000111 -0.000001
# 5 0.000015 -0.000002 -0.000032 -0.000111 0.190325 0.000008
# 6 0.000000 0.000000 0.000000 -0.000001 0.000008 0.038633
#
#
# Mechanical properties :
#
#
# Convention : Reuss Voigt Hill
#
# Bulk Modulus (GPa) = 56.31970 61.49624 58.90797
# Shear Modulus (GPa) = 13.13242 21.18488 17.15865
#
# Velocity S-wave (km/s) = 2.64985 3.36560 3.02894
# Velocity P-wave (km/s) = 6.28296 6.92705 6.61285
#
# Compressibility (1/GPa) = 0.01775578
#
# Stress axis : x y z
#
# Youngs Moduli (GPa) = 51.89485 85.97706 93.19025
#
# Poissons Ratio (x) = 0.58070 0.21787
# Poissons Ratio (y) = 0.35050 0.26521
# Poissons Ratio (z) = 0.12132 0.24468
#
# Static dielectric constant tensor:
#      x y z
#    x 3.401420 0.000000 0.000000 
#    y 0.000000 3.336050 0.000000 
#    z 0.000000 0.000000 3.476340 
# 
# 
# High freq. dielectric constant tensor:
#      x y z
#    x 1.727860 0.000000 0.000000 
#    y 0.000000 1.706830 0.000000 
#    z 0.000000 0.000000 1.739170 
# 
# From -- ./inp_files/4643.got.cif
#   From: 2010.03.12/outbox.cif.g09.slc.cpg/sg44_3_cif.got.tgz:4643.got - 2010.04.14 02:36:11.
