data_PCOD8189591
_publ_section_title
;
Structure prediction by ZEFSAII (Michael W. Deem and Ramdas Pophale) SiO2 
 PCOD8189591
Probable space group: I M M 2
;
_chemical_formula_sum "Si O2"
_cell_formula_units_Z 56
_cell_length_a 21.302253
_cell_length_b 8.832967
_cell_length_c 14.205723
_cell_angle_alpha 90.000000
_cell_angle_beta 90.000000
_cell_angle_gamma 90.000000
_cell_volume 2672.978640
_symmetry_space_group_name_H-M "I M M 2"
_symmetry_group_IT_number 44
_symmetry_cell_setting 'orthorhombic'
loop_
_space_group_symop_operation_xyz
x,y,z
-x,-y,z
-x,y,z
x,-y,z
1/2+x,1/2+y,1/2+z
1/2-x,1/2-y,1/2+z
1/2-x,1/2+y,1/2+z
1/2+x,1/2-y,1/2+z
loop_
_atom_site_type_symbol
_atom_site_label
_atom_site_fract_x
_atom_site_fract_y
_atom_site_fract_z
Si Si1 0.160585 0.668283 0.984580
Si Si2 0.930904 0.664627 0.816765
Si Si3 0.743992 0.320720 0.333463
Si Si4 0.571291 0.322511 0.007663
Si Si5 0.429059 0.321615 0.629857
Si Si6 0.388131 0.178103 0.818701
Si Si7 0.851493 0.826642 0.681609
O O1 0.183734 0.500000 0.015801
O O2 0.104561 0.656464 0.913307
O O3 0.218090 0.753284 0.932274
O O4 0.130262 0.752132 0.073765
O O5 0.924940 0.500000 0.765046
O O6 0.909584 0.801676 0.751230
O O7 0.000000 0.703806 0.848014
O O8 0.733780 0.500000 0.338852
O O9 0.815532 0.272356 0.323227
O O10 0.708367 0.255012 0.238523
O O11 0.500000 0.298213 0.046527
O O12 0.582427 0.500000 0.986930
O O13 0.624773 0.260041 0.081354
O O14 0.578298 0.224252 0.914652
O O15 0.500000 0.276347 0.594917
O O16 0.421102 0.500000 0.625002
O O17 0.423117 0.266486 0.736593
O O18 0.395098 0.000000 0.801915
O O19 0.837277 0.000000 0.664921
#
# Coordination Sequence:
#
# PCOD8189591 Si02
#       7
#     8   8   8   8   8   8   8
#     4  10  20  35  58  86 116 151 190 234 285 343
#     4   9  17  29  47  76 113 146 177 220 274 330
#     4   9  20  39  59  85 119 151 188 232 283 343
#     4  10  21  37  57  83 113 146 188 236 288 345
#     4  11  24  41  61  86 117 154 195 242 298 354
#     4  11  24  40  59  83 113 152 198 245 287 337
#     4   9  18  34  56  79 107 143 182 226 275 333
#
# _framework density 20.950410999999999
#
# number of rings (size 3 to 8) (size 9 to 14) (size 15 to 20)
#    0.000    2.143    0.000    2.571    0.000    8.000 
#    0.000    1.429    0.000    0.000    0.000    0.000 
#    0.000    0.000    0.000    0.000    0.000    0.000 
#
# Total GULP energy -346878.373736 kJ/mol
# GULP energy per Si atom -12388.513348 kJ/mol
# Density = 2.090273 g / cm^3
# Si number density = 20.950411 Si / 1000 Ang^3
#
#
#
# Elastic Constant Matrix: (Units=GPa)
#
#
# Indices 1 2 3 4 5 6 
#
# 1 86.1972 27.9949 15.3610 0.0000 0.0000 0.0000
# 2 27.9949 47.4194 19.9448 0.0000 0.0000 0.0000
# 3 15.3610 19.9448 92.1101 0.0000 0.0000 0.0000
# 4 0.0000 0.0000 0.0000 32.6904 0.0000 0.0000
# 5 0.0000 0.0000 0.0000 0.0000 -3.7804 0.0000
# 6 0.0000 0.0000 0.0000 0.0000 0.0000 24.8937
#
#
#
# Elastic Compliance Matrix: (Units=1/GPa)
#
#
# Indices 1 2 3 4 5 6 
#
# 1 0.014385 -0.008233 -0.000616 0.000000 0.000000 0.000000
# 2 -0.008233 0.027914 -0.004671 0.000000 0.000000 0.000000
# 3 -0.000616 -0.004671 0.011971 0.000000 0.000000 0.000000
# 4 0.000000 0.000000 0.000000 0.030590 0.000000 0.000000
# 5 0.000000 0.000000 0.000000 0.000000 -0.264525 0.000000
# 6 0.000000 0.000000 0.000000 0.000000 0.000000 0.040171
#
#
# Mechanical properties :
#
#
# Convention : Reuss Voigt Hill
#
# Bulk Modulus (GPa) = 36.72649 39.14758 37.93704
# Shear Modulus (GPa) = -48.36687 21.58914 -13.38887
#
# Velocity S-wave (km/s) = -4.81004 3.21360 -2.53073
# Velocity P-wave (km/s) = 3.64423 5.70053 3.09965
#
# Compressibility (1/GPa) = 0.02722830
#
# Stress axis : x y z
#
# Youngs Moduli (GPa) = 69.51622 35.82451 83.53659
#
# Poissons Ratio (x) = 0.29496 0.05147
# Poissons Ratio (y) = 0.57235 0.39022
# Poissons Ratio (z) = 0.04284 0.16734
#
# Static dielectric constant tensor:
#      x y z
#    x 3.957150 0.000000 0.000000 
#    y 0.000000 3.853600 0.000000 
#    z 0.000000 0.000000 3.822420 
# 
# 
# High freq. dielectric constant tensor:
#      x y z
#    x 1.827290 0.000000 0.000000 
#    y 0.000000 1.808380 0.000000 
#    z 0.000000 0.000000 1.817410 
# 
# From -- ./inp_files/19177.got.cif
#   From: 2010.03.12/outbox.cif.g09.slc.cpg/sg44_10_cif.got.tgz:19177.got - 2010.04.14 02:36:11.
