data_PCOD8189135
_publ_section_title
;
Structure prediction by ZEFSAII (Michael W. Deem and Ramdas Pophale) SiO2 
 PCOD8189135
Probable space group: I M M 2
;
_chemical_formula_sum "Si O2"
_cell_formula_units_Z 56
_cell_length_a 13.283662
_cell_length_b 14.554976
_cell_length_c 16.541374
_cell_angle_alpha 90.000000
_cell_angle_beta 90.000000
_cell_angle_gamma 90.000000
_cell_volume 3198.165186
_symmetry_space_group_name_H-M "I M M 2"
_symmetry_group_IT_number 44
_symmetry_cell_setting 'orthorhombic'
loop_
_space_group_symop_operation_xyz
x,y,z
-x,-y,z
-x,y,z
x,-y,z
1/2+x,1/2+y,1/2+z
1/2-x,1/2-y,1/2+z
1/2-x,1/2+y,1/2+z
1/2+x,1/2-y,1/2+z
loop_
_atom_site_type_symbol
_atom_site_label
_atom_site_fract_x
_atom_site_fract_y
_atom_site_fract_z
Si Si1 0.804965 0.220031 0.724220
Si Si2 0.119394 0.901155 0.406026
Si Si3 0.385647 0.223151 0.819565
Si Si4 0.885752 0.105527 0.584943
Si Si5 0.112754 0.895192 0.867820
Si Si6 0.619484 0.106630 0.138886
Si Si7 0.308627 0.106018 0.961856
O O1 0.688567 0.199590 0.746561
O O2 0.816909 0.165804 0.641780
O O3 0.873810 0.176708 0.794726
O O4 0.833823 0.327176 0.708445
O O5 0.154433 0.823881 0.344623
O O6 0.161016 0.881694 0.495726
O O7 0.000000 0.902578 0.414343
O O8 0.158658 0.000000 0.374318
O O9 0.500000 0.223074 0.787661
O O10 0.378813 0.157522 0.897219
O O11 0.000000 0.142488 0.590337
O O12 0.881870 0.000000 0.612047
O O13 0.191251 0.874884 0.940381
O O14 0.000000 0.882756 0.902595
O O15 0.128465 0.000000 0.835884
O O16 0.500000 0.120483 0.134680
O O17 0.646429 0.000000 0.158503
O O18 0.667262 0.137980 0.052911
O O19 0.337169 0.000000 0.953208
#
# Coordination Sequence:
#
# PCOD8189135 Si02
#       7
#     8   8   8   8   8   8   8
#     4  11  20  29  45  68  97 126 152 184 231 280
#     4   8  15  29  49  69  86 108 142 185 230 269
#     4  10  20  32  46  66  93 124 156 190 228 273
#     4   9  16  27  47  74  96 112 138 183 237 283
#     4   9  17  30  49  73  98 121 148 187 235 283
#     4  10  20  33  49  69  93 122 157 194 228 267
#     4   9  18  32  50  71  93 121 158 194 228 270
#
# _framework density 17.51004
#
# number of rings (size 3 to 8) (size 9 to 14) (size 15 to 20)
#    0.000    2.571    0.000    3.857    0.000    4.286 
#    0.000    0.714    0.000    0.857    0.000    0.000 
#    0.000    6.857    0.000    0.000    0.000    0.000 
#
# Total GULP energy -347056.905345 kJ/mol
# GULP energy per Si atom -12394.889477 kJ/mol
# Density = 1.747019 g / cm^3
# Si number density = 17.510040 Si / 1000 Ang^3
#
#
#
# Elastic Constant Matrix: (Units=GPa)
#
#
# Indices 1 2 3 4 5 6 
#
# 1 87.1916 30.5882 28.2372 0.0000 0.0000 0.0000
# 2 30.5882 64.4704 27.0636 0.0000 0.0000 0.0000
# 3 28.2372 27.0636 43.4225 0.0000 0.0000 0.0000
# 4 0.0000 0.0000 0.0000 27.8939 0.0000 0.0000
# 5 0.0000 0.0000 0.0000 0.0000 19.9457 0.0000
# 6 0.0000 0.0000 0.0000 0.0000 0.0000 20.6504
#
#
#
# Elastic Compliance Matrix: (Units=1/GPa)
#
#
# Indices 1 2 3 4 5 6 
#
# 1 0.015317 -0.004180 -0.007356 0.000000 0.000000 0.000000
# 2 -0.004180 0.022148 -0.011086 0.000000 0.000000 0.000000
# 3 -0.007356 -0.011086 0.034722 0.000000 0.000000 0.000000
# 4 0.000000 0.000000 0.000000 0.035850 0.000000 0.000000
# 5 0.000000 0.000000 0.000000 0.000000 0.050136 0.000000
# 6 0.000000 0.000000 0.000000 0.000000 0.000000 0.048425
#
#
# Mechanical properties :
#
#
# Convention : Reuss Voigt Hill
#
# Bulk Modulus (GPa) = 37.11270 40.76250 38.93760
# Shear Modulus (GPa) = 19.17008 20.97770 20.07389
#
# Velocity S-wave (km/s) = 3.31237 3.46502 3.38956
# Velocity P-wave (km/s) = 5.98917 6.27205 6.13224
#
# Compressibility (1/GPa) = 0.02694496
#
# Stress axis : x y z
#
# Youngs Moduli (GPa) = 65.28499 45.15150 28.79991
#
# Poissons Ratio (x) = 0.18871 0.21185
# Poissons Ratio (y) = 0.27286 0.31927
# Poissons Ratio (z) = 0.48023 0.50054
#
# Static dielectric constant tensor:
#      x y z
#    x 3.071960 0.000000 0.000000 
#    y 0.000000 4.341010 0.000000 
#    z 0.000000 0.000000 3.124350 
# 
# 
# High freq. dielectric constant tensor:
#      x y z
#    x 1.654060 0.000000 0.000000 
#    y 0.000000 1.691560 0.000000 
#    z 0.000000 0.000000 1.655330 
# 
# From -- ./inp_files/18421.got.cif
#   From: 2010.03.12/outbox.cif.g09.slc.cpg/sg44_10_cif.got.tgz:18421.got - 2010.04.14 02:36:11.
