data_PCOD8189783
_publ_section_title
;
Structure prediction by ZEFSAII (Michael W. Deem and Ramdas Pophale) SiO2 
 PCOD8189783
Probable space group: I M M 2
;
_chemical_formula_sum "Si O2"
_cell_formula_units_Z 56
_cell_length_a 20.071612
_cell_length_b 15.120178
_cell_length_c 9.696729
_cell_angle_alpha 90.000000
_cell_angle_beta 90.000000
_cell_angle_gamma 90.000000
_cell_volume 2942.824854
_symmetry_space_group_name_H-M "I M M 2"
_symmetry_group_IT_number 44
_symmetry_cell_setting 'orthorhombic'
loop_
_space_group_symop_operation_xyz
x,y,z
-x,-y,z
-x,y,z
x,-y,z
1/2+x,1/2+y,1/2+z
1/2-x,1/2-y,1/2+z
1/2-x,1/2+y,1/2+z
1/2+x,1/2-y,1/2+z
loop_
_atom_site_type_symbol
_atom_site_label
_atom_site_fract_x
_atom_site_fract_y
_atom_site_fract_z
Si Si1 0.077479 0.188889 0.047460
Si Si2 0.870835 0.168107 0.553197
Si Si3 0.680764 0.734894 0.777420
Si Si4 0.203392 0.602030 0.820793
Si Si5 0.575540 0.500000 0.902234
Si Si6 0.734992 0.100494 0.637885
Si Si7 0.423808 0.205521 0.274801
Si Si8 0.578008 0.500000 0.600975
O O1 0.118029 0.216395 0.181286
O O2 0.097311 0.087027 0.014359
O O3 0.000000 0.199704 0.085307
O O4 0.096385 0.245226 0.915049
O O5 0.841267 0.231932 0.435759
O O6 0.910054 0.087731 0.486524
O O7 0.812554 0.124308 0.641974
O O8 0.919015 0.225742 0.649088
O O9 0.741376 0.665593 0.749785
O O10 0.701085 0.835617 0.748465
O O11 0.218755 0.500000 0.782418
O O12 0.129920 0.626543 0.761777
O O13 0.204909 0.614793 0.985413
O O14 0.500000 0.500000 0.863998
O O15 0.613720 0.500000 0.753820
O O16 0.723700 0.000000 0.686722
O O17 0.500000 0.169186 0.279505
O O18 0.500000 0.500000 0.626389
#
# Coordination Sequence:
#
# PCOD8189783 Si02
#       8
#     8   8   8   8   4   8   8   4
#     4  10  21  36  58  87 119 157 198 244 300 354
#     4  11  22  36  58  89 121 159 196 243 301 366
#     4  11  21  37  65  86 120 152 198 251 296 349
#     4  10  22  38  63  92 116 155 206 245 292 353
#     4  11  20  33  57  89 121 159 199 234 296 373
#     4  10  20  38  62  87 118 152 197 253 298 346
#     4  11  23  40  59  85 123 161 197 247 304 353
#     4   9  18  33  53  85 121 151 197 242 282 351
#
# _framework density 19.029336000000001
#
# number of rings (size 3 to 8) (size 9 to 14) (size 15 to 20)
#    0.000    1.571    5.000    0.429    2.000    1.429 
#    0.000    2.143    0.000    0.429    0.000    0.000 
#    0.000    0.000    0.000    0.000    0.000    0.000 
#
# Total GULP energy -347105.617768 kJ/mol
# GULP energy per Si atom -12396.629206 kJ/mol
# Density = 1.898602 g / cm^3
# Si number density = 19.029336 Si / 1000 Ang^3
#
#
#
# Elastic Constant Matrix: (Units=GPa)
#
#
# Indices 1 2 3 4 5 6 
#
# 1 84.5834 33.6652 24.4308 0.0000 0.0000 0.0000
# 2 33.6652 120.2987 33.9967 0.0000 0.0000 0.0000
# 3 24.4308 33.9967 50.2290 0.0000 0.0000 0.0000
# 4 0.0000 0.0000 0.0000 30.1981 0.0000 0.0000
# 5 0.0000 0.0000 0.0000 0.0000 27.2830 0.0000
# 6 0.0000 0.0000 0.0000 0.0000 0.0000 6.9608
#
#
#
# Elastic Compliance Matrix: (Units=1/GPa)
#
#
# Indices 1 2 3 4 5 6 
#
# 1 0.014350 -0.002527 -0.005270 0.000000 0.000000 0.000000
# 2 -0.002527 0.010724 -0.006029 0.000000 0.000000 0.000000
# 3 -0.005270 -0.006029 0.026553 0.000000 0.000000 0.000000
# 4 0.000000 0.000000 0.000000 0.033115 0.000000 0.000000
# 5 0.000000 0.000000 0.000000 0.000000 0.036653 0.000000
# 6 0.000000 0.000000 0.000000 0.000000 0.000000 0.143662
#
#
# Mechanical properties :
#
#
# Convention : Reuss Voigt Hill
#
# Bulk Modulus (GPa) = 41.70913 48.81073 45.25993
# Shear Modulus (GPa) = 16.62790 23.75625 20.19208
#
# Velocity S-wave (km/s) = 2.95922 3.53711 3.26099
# Velocity P-wave (km/s) = 5.80017 6.51056 6.16560
#
# Compressibility (1/GPa) = 0.02397557
#
# Stress axis : x y z
#
# Youngs Moduli (GPa) = 69.68451 93.25256 37.66101
#
# Poissons Ratio (x) = 0.23562 0.19846
# Poissons Ratio (y) = 0.17607 0.22706
# Poissons Ratio (z) = 0.36722 0.56223
#
# Static dielectric constant tensor:
#      x y z
#    x 3.509830 0.000000 0.000000 
#    y 0.000000 3.586790 0.000000 
#    z 0.000000 0.000000 3.344860 
# 
# 
# High freq. dielectric constant tensor:
#      x y z
#    x 1.740560 0.000000 0.000000 
#    y 0.000000 1.736660 0.000000 
#    z 0.000000 0.000000 1.725140 
# 
# From -- ./inp_files/7425.got.cif
#   From: 2010.03.12/outbox.cif.g09.slc.cpg/sg44_4_cif.got.tgz:7425.got - 2010.04.14 02:36:11.
