data_PCOD8189466
_publ_section_title
;
Structure prediction by ZEFSAII (Michael W. Deem and Ramdas Pophale) SiO2 
 PCOD8189466
Probable space group: I M M 2
;
_chemical_formula_sum "Si O2"
_cell_formula_units_Z 64
_cell_length_a 32.358359
_cell_length_b 8.886986
_cell_length_c 11.704810
_cell_angle_alpha 90.000000
_cell_angle_beta 90.000000
_cell_angle_gamma 90.000000
_cell_volume 3365.932119
_symmetry_space_group_name_H-M "I M M 2"
_symmetry_group_IT_number 44
_symmetry_cell_setting 'orthorhombic'
loop_
_space_group_symop_operation_xyz
x,y,z
-x,-y,z
-x,y,z
x,-y,z
1/2+x,1/2+y,1/2+z
1/2-x,1/2-y,1/2+z
1/2-x,1/2+y,1/2+z
1/2+x,1/2-y,1/2+z
loop_
_atom_site_type_symbol
_atom_site_label
_atom_site_fract_x
_atom_site_fract_y
_atom_site_fract_z
Si Si1 0.398938 0.324520 0.686540
Si Si2 0.358041 0.822627 0.479840
Si Si3 0.375058 0.323590 0.238183
Si Si4 0.310190 0.825572 0.073579
Si Si5 0.547169 0.324221 0.091193
Si Si6 0.548484 0.832697 0.860209
Si Si7 0.225537 0.329844 0.105237
Si Si8 0.328645 0.169131 0.814864
O O1 0.403775 0.500000 0.666233
O O2 0.392166 0.247980 0.563861
O O3 0.439719 0.260612 0.747437
O O4 0.361736 0.289398 0.772706
O O5 0.366348 0.764443 0.353811
O O6 0.312030 0.778002 0.522322
O O7 0.363588 0.000000 0.483816
O O8 0.370731 0.500000 0.261448
O O9 0.340869 0.275915 0.146774
O O10 0.421278 0.283119 0.193561
O O11 0.262802 0.785484 0.095915
O O12 0.317449 0.000000 0.103515
O O13 0.317526 0.787784 0.942330
O O14 0.500000 0.274908 0.123847
O O15 0.548481 0.500000 0.064225
O O16 0.564086 0.242708 0.977653
O O17 0.500000 0.839185 0.863439
O O18 0.567729 0.000000 0.854320
O O19 0.239290 0.500000 0.073783
O O20 0.211998 0.320966 0.237163
O O21 0.347167 0.000000 0.805580
#
# Coordination Sequence:
#
# PCOD8189466 Si02
#       8
#     8   8   8   8   8   8   8   8
#     4  11  21  35  58  84 110 145 186 230 282 340
#     4  10  22  41  61  81 111 151 193 240 290 343
#     4  11  23  38  58  85 116 153 195 240 290 349
#     4  11  23  36  55  83 113 148 188 234 284 339
#     4   9  19  37  60  87 119 153 191 239 293 345
#     4  10  20  34  56  86 118 151 187 233 287 341
#     4   9  20  38  57  79 107 143 185 237 292 338
#     4   9  20  38  56  77 108 145 184 230 280 331
#
# _framework density 19.014050000000001
#
# number of rings (size 3 to 8) (size 9 to 14) (size 15 to 20)
#    0.000    2.000    0.000    4.125    1.750    7.250 
#    0.000    0.625    0.000    2.250    0.000    0.000 
#    0.000    0.000    0.000    0.000    0.000    0.000 
#
# Total GULP energy -396817.826177 kJ/mol
# GULP energy per Si atom -12400.557068 kJ/mol
# Density = 1.897077 g / cm^3
# Si number density = 19.014050 Si / 1000 Ang^3
#
#
#
# Elastic Constant Matrix: (Units=GPa)
#
#
# Indices 1 2 3 4 5 6 
#
# 1 70.8370 31.1022 47.8843 0.0000 0.0000 0.0000
# 2 31.1022 86.1045 42.0408 0.0000 0.0000 0.0000
# 3 47.8843 42.0408 131.2656 0.0000 0.0000 0.0000
# 4 0.0000 0.0000 0.0000 35.3210 0.0000 0.0000
# 5 0.0000 0.0000 0.0000 0.0000 18.2415 0.0000
# 6 0.0000 0.0000 0.0000 0.0000 0.0000 27.7072
#
#
#
# Elastic Compliance Matrix: (Units=1/GPa)
#
#
# Indices 1 2 3 4 5 6 
#
# 1 0.020021 -0.004345 -0.005912 0.000000 0.000000 0.000000
# 2 -0.004345 0.014710 -0.003126 0.000000 0.000000 0.000000
# 3 -0.005912 -0.003126 0.010776 0.000000 0.000000 0.000000
# 4 0.000000 0.000000 0.000000 0.028312 0.000000 0.000000
# 5 0.000000 0.000000 0.000000 0.000000 0.054820 0.000000
# 6 0.000000 0.000000 0.000000 0.000000 0.000000 0.036092
#
#
# Mechanical properties :
#
#
# Convention : Reuss Voigt Hill
#
# Bulk Modulus (GPa) = 53.36092 58.91797 56.13945
# Shear Modulus (GPa) = 25.28534 27.39927 26.34231
#
# Velocity S-wave (km/s) = 3.65063 3.80017 3.72615
# Velocity P-wave (km/s) = 6.77454 7.09288 6.93553
#
# Compressibility (1/GPa) = 0.01874030
#
# Stress axis : x y z
#
# Youngs Moduli (GPa) = 49.94736 67.98243 92.80024
#
# Poissons Ratio (x) = 0.29542 0.54861
# Poissons Ratio (y) = 0.21705 0.29009
# Poissons Ratio (z) = 0.29528 0.21251
#
# Static dielectric constant tensor:
#      x y z
#    x 3.489550 0.000000 0.000000 
#    y 0.000000 3.641610 0.000000 
#    z 0.000000 0.000000 3.627490 
# 
# 
# High freq. dielectric constant tensor:
#      x y z
#    x 1.735910 0.000000 0.000000 
#    y 0.000000 1.745830 0.000000 
#    z 0.000000 0.000000 1.740600 
# 
# From -- ./inp_files/15052.got.cif
#   From: 2010.03.12/outbox.cif.g09.slc.cpg/sg44_8_cif.got.tgz:15052.got - 2010.04.14 02:36:11.
