data_PCOD8189796
_publ_section_title
;
Structure prediction by ZEFSAII (Michael W. Deem and Ramdas Pophale) SiO2 
 PCOD8189796
Probable space group: I M M 2
;
_chemical_formula_sum "Si O2"
_cell_formula_units_Z 64
_cell_length_a 24.757023
_cell_length_b 14.399360
_cell_length_c 8.740256
_cell_angle_alpha 90.000000
_cell_angle_beta 90.000000
_cell_angle_gamma 90.000000
_cell_volume 3115.772666
_symmetry_space_group_name_H-M "I M M 2"
_symmetry_group_IT_number 44
_symmetry_cell_setting 'orthorhombic'
loop_
_space_group_symop_operation_xyz
x,y,z
-x,-y,z
-x,y,z
x,-y,z
1/2+x,1/2+y,1/2+z
1/2-x,1/2-y,1/2+z
1/2-x,1/2+y,1/2+z
1/2+x,1/2-y,1/2+z
loop_
_atom_site_type_symbol
_atom_site_label
_atom_site_fract_x
_atom_site_fract_y
_atom_site_fract_z
Si Si1 0.835269 0.169637 0.652900
Si Si2 0.782179 0.360972 0.632457
Si Si3 0.061078 0.279731 0.609578
Si Si4 0.741706 0.900354 0.468357
Si Si5 0.561832 0.105941 0.415507
Si Si6 0.625963 0.102913 0.910550
Si Si7 0.852941 0.705737 0.114316
Si Si8 0.827695 0.105522 0.988695
O O1 0.796889 0.257404 0.682876
O O2 0.895590 0.196322 0.595531
O O3 0.804125 0.113405 0.519868
O O4 0.841579 0.112719 0.809339
O O5 0.761020 0.409734 0.785559
O O6 0.834807 0.406945 0.556947
O O7 0.735528 0.372588 0.506916
O O8 0.072358 0.333465 0.766351
O O9 0.069867 0.352679 0.470786
O O10 0.000000 0.240594 0.601372
O O11 0.702173 0.820724 0.528601
O O12 0.722577 0.000000 0.535503
O O13 0.500000 0.109746 0.467689
O O14 0.596102 0.149432 0.551769
O O15 0.579965 0.000000 0.383327
O O16 0.652436 0.175488 0.790868
O O17 0.615519 0.000000 0.841291
O O18 0.860630 0.817090 0.089414
O O19 0.842464 0.000000 0.041298
#
# Coordination Sequence:
#
# PCOD8189796 Si02
#       8
#     8   8   8   8   8   8   8   8
#     4  11  21  40  63  90 126 162 206 260 319 375
#     4  11  22  40  58  91 131 170 205 249 306 375
#     4  10  22  40  64  90 122 165 208 258 317 379
#     4  12  23  37  63  93 127 165 207 255 312 383
#     4  10  20  38  65  95 128 163 203 251 308 379
#     4  11  23  37  60  92 134 173 208 251 305 382
#     4  12  23  39  61  93 131 172 211 254 310 368
#     4  12  24  40  61  88 125 167 213 262 314 370
#
# _framework density 20.540652999999999
#
# number of rings (size 3 to 8) (size 9 to 14) (size 15 to 20)
#    0.000    0.875    3.750    4.500    3.500    1.250 
#    0.000    0.000    0.000    2.625    0.000    0.000 
#    0.000    0.000    0.000    0.000    0.000    0.000 
#
# Total GULP energy -396677.379390 kJ/mol
# GULP energy per Si atom -12396.168106 kJ/mol
# Density = 2.049390 g / cm^3
# Si number density = 20.540653 Si / 1000 Ang^3
#
#
#
# Elastic Constant Matrix: (Units=GPa)
#
#
# Indices 1 2 3 4 5 6 
#
# 1 104.2935 35.7036 40.5656 0.0000 0.0000 0.0000
# 2 35.7036 117.8876 32.2662 0.0000 0.0000 0.0000
# 3 40.5656 32.2662 93.2054 0.0000 0.0000 0.0000
# 4 0.0000 0.0000 0.0000 23.3827 0.0000 0.0000
# 5 0.0000 0.0000 0.0000 0.0000 29.9861 0.0000
# 6 0.0000 0.0000 0.0000 0.0000 0.0000 22.3848
#
#
#
# Elastic Compliance Matrix: (Units=1/GPa)
#
#
# Indices 1 2 3 4 5 6 
#
# 1 0.012159 -0.002468 -0.004438 0.000000 0.000000 0.000000
# 2 -0.002468 0.009871 -0.002343 0.000000 0.000000 0.000000
# 3 -0.004438 -0.002343 0.013472 0.000000 0.000000 0.000000
# 4 0.000000 0.000000 0.000000 0.042767 0.000000 0.000000
# 5 0.000000 0.000000 0.000000 0.000000 0.033349 0.000000
# 6 0.000000 0.000000 0.000000 0.000000 0.000000 0.044673
#
#
# Mechanical properties :
#
#
# Convention : Reuss Voigt Hill
#
# Bulk Modulus (GPa) = 58.80766 59.16190 58.98478
# Shear Modulus (GPa) = 27.70747 28.94080 28.32414
#
# Velocity S-wave (km/s) = 3.67673 3.75767 3.71742
# Velocity P-wave (km/s) = 6.83495 6.90592 6.87053
#
# Compressibility (1/GPa) = 0.01700459
#
# Stress axis : x y z
#
# Youngs Moduli (GPa) = 82.24178 101.30222 74.23032
#
# Poissons Ratio (x) = 0.25001 0.32941
# Poissons Ratio (y) = 0.20297 0.17394
# Poissons Ratio (z) = 0.36496 0.23737
#
# Static dielectric constant tensor:
#      x y z
#    x 3.590260 0.000000 0.000000 
#    y 0.000000 3.791330 0.000000 
#    z 0.000000 0.000000 3.681510 
# 
# 
# High freq. dielectric constant tensor:
#      x y z
#    x 1.780360 0.000000 0.000000 
#    y 0.000000 1.800290 0.000000 
#    z 0.000000 0.000000 1.802380 
# 
# From -- ./inp_files/9484.got.cif
#   From: 2010.03.12/outbox.cif.g09.slc.cpg/sg44_5_cif.got.tgz:9484.got - 2010.04.14 02:36:11.
