data_PCOD8189687
_publ_section_title
;
Structure prediction by ZEFSAII (Michael W. Deem and Ramdas Pophale) SiO2 
 PCOD8189687
Probable space group: I M M 2
;
_chemical_formula_sum "Si O2"
_cell_formula_units_Z 40
_cell_length_a 11.516839
_cell_length_b 8.788570
_cell_length_c 20.029710
_cell_angle_alpha 90.000000
_cell_angle_beta 90.000000
_cell_angle_gamma 90.000000
_cell_volume 2027.338058
_symmetry_space_group_name_H-M "I M M 2"
_symmetry_group_IT_number 44
_symmetry_cell_setting 'orthorhombic'
loop_
_space_group_symop_operation_xyz
x,y,z
-x,-y,z
-x,y,z
x,-y,z
1/2+x,1/2+y,1/2+z
1/2-x,1/2-y,1/2+z
1/2-x,1/2+y,1/2+z
1/2+x,1/2-y,1/2+z
loop_
_atom_site_type_symbol
_atom_site_label
_atom_site_fract_x
_atom_site_fract_y
_atom_site_fract_z
Si Si1 0.865925 0.820468 0.521490
Si Si2 0.500000 0.677175 0.220529
Si Si3 0.280142 0.820238 0.151109
Si Si4 0.866807 0.677071 0.258313
Si Si5 0.754427 0.825102 0.384999
Si Si6 0.000000 0.328551 0.856260
O O1 0.783719 0.739319 0.575345
O O2 0.824741 0.763631 0.448835
O O3 0.000000 0.773215 0.532419
O O4 0.849057 0.000000 0.528340
O O5 0.500000 0.500000 0.202274
O O6 0.388192 0.754760 0.190554
O O7 0.500000 0.701758 0.299281
O O8 0.165548 0.763359 0.189732
O O9 0.283454 0.000000 0.150895
O O10 0.843468 0.500000 0.246771
O O11 0.788424 0.730548 0.319926
O O12 0.000000 0.712705 0.275183
O O13 0.616557 0.806204 0.400064
O O14 0.787172 0.000000 0.370989
O O15 0.000000 0.500000 0.825261
#
# Coordination Sequence:
#
# PCOD8189687 Si02
#       6
#     8   4   8   8   8   4
#     4  10  21  38  60  86 120 163 204 246 298 357
#     4  12  22  36  62  92 122 153 194 251 300 356
#     4  12  24  39  62  90 121 158 200 250 303 359
#     4  11  24  41  62  89 121 159 201 249 303 358
#     4  10  21  38  62  90 123 160 200 244 298 359
#     4  10  20  36  60  92 124 157 196 243 294 358
#
# _framework density 19.730305999999999
#
# number of rings (size 3 to 8) (size 9 to 14) (size 15 to 20)
#    0.000    1.200    3.000    3.900    0.000    3.200 
#    1.800    0.000    0.000    0.000    0.000    0.000 
#    0.000    0.000    0.000    0.000    0.000    0.000 
#
# Total GULP energy -248061.272448 kJ/mol
# GULP energy per Si atom -12403.063622 kJ/mol
# Density = 1.968540 g / cm^3
# Si number density = 19.730306 Si / 1000 Ang^3
#
#
#
# Elastic Constant Matrix: (Units=GPa)
#
#
# Indices 1 2 3 4 5 6 
#
# 1 91.6095 38.2056 37.3353 0.0000 0.0000 0.0000
# 2 38.2056 96.8622 48.4773 0.0000 0.0000 0.0000
# 3 37.3353 48.4773 119.6204 0.0000 0.0000 0.0000
# 4 0.0000 0.0000 0.0000 34.1550 0.0000 0.0000
# 5 0.0000 0.0000 0.0000 0.0000 39.5005 0.0000
# 6 0.0000 0.0000 0.0000 0.0000 0.0000 43.7399
#
#
#
# Elastic Compliance Matrix: (Units=1/GPa)
#
#
# Indices 1 2 3 4 5 6 
#
# 1 0.013687 -0.004090 -0.002614 0.000000 0.000000 0.000000
# 2 -0.004090 0.014173 -0.004467 0.000000 0.000000 0.000000
# 3 -0.002614 -0.004467 0.010986 0.000000 0.000000 0.000000
# 4 0.000000 0.000000 0.000000 0.029278 0.000000 0.000000
# 5 0.000000 0.000000 0.000000 0.000000 0.025316 0.000000
# 6 0.000000 0.000000 0.000000 0.000000 0.000000 0.022862
#
#
# Mechanical properties :
#
#
# Convention : Reuss Voigt Hill
#
# Bulk Modulus (GPa) = 60.59566 61.79204 61.19385
# Shear Modulus (GPa) = 34.68671 35.75068 35.21870
#
# Velocity S-wave (km/s) = 4.19745 4.26134 4.22952
# Velocity P-wave (km/s) = 7.36682 7.45643 7.41176
#
# Compressibility (1/GPa) = 0.01650283
#
# Stress axis : x y z
#
# Youngs Moduli (GPa) = 73.06093 70.55694 91.02416
#
# Poissons Ratio (x) = 0.28860 0.23797
# Poissons Ratio (y) = 0.29884 0.40661
# Poissons Ratio (z) = 0.19101 0.31518
#
# Static dielectric constant tensor:
#      x y z
#    x 3.654990 0.000000 0.000000 
#    y 0.000000 3.599330 0.000000 
#    z 0.000000 0.000000 3.664790 
# 
# 
# High freq. dielectric constant tensor:
#      x y z
#    x 1.772930 0.000000 0.000000 
#    y 0.000000 1.767950 0.000000 
#    z 0.000000 0.000000 1.765520 
# 
# From -- ./inp_files/22785.got.cif
#   From: 2010.03.12/outbox.cif.g09.slc.cpg/sg44_12_cif.got.tgz:22785.got - 2010.04.14 02:36:11.
