data_PCOD8189496
_publ_section_title
;
Structure prediction by ZEFSAII (Michael W. Deem and Ramdas Pophale) SiO2 
 PCOD8189496
Probable space group: I M M 2
;
_chemical_formula_sum "Si O2"
_cell_formula_units_Z 64
_cell_length_a 9.466205
_cell_length_b 15.422932
_cell_length_c 23.336072
_cell_angle_alpha 90.000000
_cell_angle_beta 90.000000
_cell_angle_gamma 90.000000
_cell_volume 3406.988010
_symmetry_space_group_name_H-M "I M M 2"
_symmetry_group_IT_number 44
_symmetry_cell_setting 'orthorhombic'
loop_
_space_group_symop_operation_xyz
x,y,z
-x,-y,z
-x,y,z
x,-y,z
1/2+x,1/2+y,1/2+z
1/2-x,1/2-y,1/2+z
1/2-x,1/2+y,1/2+z
1/2+x,1/2-y,1/2+z
loop_
_atom_site_type_symbol
_atom_site_label
_atom_site_fract_x
_atom_site_fract_y
_atom_site_fract_z
Si Si1 0.832503 0.597664 0.875000
Si Si2 0.667011 0.754361 0.462026
Si Si3 0.836274 0.732304 0.091367
Si Si4 0.161875 0.640340 0.747819
Si Si5 0.333886 0.897691 0.909859
Si Si6 0.339778 0.407125 0.646144
Si Si7 0.845208 0.901935 0.804645
Si Si8 0.159875 0.175534 0.691629
O O1 0.776684 0.500000 0.889472
O O2 0.776780 0.669298 0.920289
O O3 0.779876 0.625731 0.811966
O O4 0.000000 0.597752 0.877631
O O5 0.500000 0.734910 0.454288
O O6 0.699946 0.789031 0.525920
O O7 0.752118 0.664037 0.454667
O O8 0.785691 0.831082 0.104357
O O9 0.755124 0.668502 0.134935
O O10 0.000000 0.719028 0.103854
O O11 0.250280 0.582885 0.703947
O O12 0.183624 0.739003 0.729459
O O13 0.000000 0.610254 0.744043
O O14 0.500000 0.877974 0.911275
O O15 0.273173 0.866271 0.848001
O O16 0.305816 0.000000 0.922972
O O17 0.500000 0.387506 0.664425
O O18 0.327601 0.500000 0.613625
O O19 0.797368 0.897593 0.738016
O O20 0.000000 0.854039 0.812119
O O21 0.868193 0.000000 0.821838
O O22 0.000000 0.166154 0.669888
#
# Coordination Sequence:
#
# PCOD8189496 Si02
#       8
#     8   8   8   8   8   8   8   8
#     4   9  17  30  50  75 100 126 162 209 252 290
#     4  10  20  35  54  73  97 135 179 216 251 298
#     4   9  19  33  48  68  94 127 167 204 240 288
#     4   9  16  27  46  70  93 118 149 187 235 290
#     4  10  21  35  52  78 109 136 164 206 263 319
#     4   9  17  29  44  64  92 121 148 185 233 282
#     4   9  17  31  52  76 100 128 165 206 249 305
#     4   9  17  30  49  72  97 125 159 200 245 293
#
# _framework density 18.784921000000001
#
# number of rings (size 3 to 8) (size 9 to 14) (size 15 to 20)
#    0.000    2.750    0.000    1.500    0.000    5.000 
#    0.000    5.000    0.000    1.875    0.000    0.000 
#    0.000    0.000    0.000    0.000    0.000    0.000 
#
# Total GULP energy -396517.270898 kJ/mol
# GULP energy per Si atom -12391.164716 kJ/mol
# Density = 1.874217 g / cm^3
# Si number density = 18.784921 Si / 1000 Ang^3
#
#
#
# Elastic Constant Matrix: (Units=GPa)
#
#
# Indices 1 2 3 4 5 6 
#
# 1 59.8556 20.8565 36.6164 0.0000 0.0000 0.0000
# 2 20.8565 48.3063 23.2097 0.0000 0.0000 0.0000
# 3 36.6164 23.2097 105.5661 0.0000 0.0000 0.0000
# 4 0.0000 0.0000 0.0000 21.3934 0.0000 0.0000
# 5 0.0000 0.0000 0.0000 0.0000 28.6505 0.0000
# 6 0.0000 0.0000 0.0000 0.0000 0.0000 18.1662
#
#
#
# Elastic Compliance Matrix: (Units=1/GPa)
#
#
# Indices 1 2 3 4 5 6 
#
# 1 0.023063 -0.006836 -0.006497 0.000000 0.000000 0.000000
# 2 -0.006836 0.025173 -0.003163 0.000000 0.000000 0.000000
# 3 -0.006497 -0.003163 0.012422 0.000000 0.000000 0.000000
# 4 0.000000 0.000000 0.000000 0.046743 0.000000 0.000000
# 5 0.000000 0.000000 0.000000 0.000000 0.034903 0.000000
# 6 0.000000 0.000000 0.000000 0.000000 0.000000 0.055047
#
#
# Mechanical properties :
#
#
# Convention : Reuss Voigt Hill
#
# Bulk Modulus (GPa) = 36.14641 41.67701 38.91171
# Shear Modulus (GPa) = 20.87110 22.51171 21.69140
#
# Velocity S-wave (km/s) = 3.33687 3.46554 3.40181
# Velocity P-wave (km/s) = 5.84211 6.18448 6.01573
#
# Compressibility (1/GPa) = 0.02766526
#
# Stress axis : x y z
#
# Youngs Moduli (GPa) = 43.35911 39.72562 80.50486
#
# Poissons Ratio (x) = 0.27157 0.52301
# Poissons Ratio (y) = 0.29641 0.25466
# Poissons Ratio (z) = 0.28169 0.12566
#
# Static dielectric constant tensor:
#      x y z
#    x 3.334350 0.000000 0.000000 
#    y 0.000000 3.509190 0.000000 
#    z 0.000000 0.000000 3.445440 
# 
# 
# High freq. dielectric constant tensor:
#      x y z
#    x 1.705770 0.000000 0.000000 
#    y 0.000000 1.721950 0.000000 
#    z 0.000000 0.000000 1.721360 
# 
# From -- ./inp_files/23271.got.cif
#   From: 2010.03.12/outbox.cif.g09.slc.cpg/sg44_12_cif.got.tgz:23271.got - 2010.04.14 02:36:11.
