data_PCOD8189768
_publ_section_title
;
Structure prediction by ZEFSAII (Michael W. Deem and Ramdas Pophale) SiO2 
 PCOD8189768
Probable space group: I M M 2
;
_chemical_formula_sum "Si O2"
_cell_formula_units_Z 64
_cell_length_a 17.714859
_cell_length_b 13.472134
_cell_length_c 13.685095
_cell_angle_alpha 90.000000
_cell_angle_beta 90.000000
_cell_angle_gamma 90.000000
_cell_volume 3266.043091
_symmetry_space_group_name_H-M "I M M 2"
_symmetry_group_IT_number 44
_symmetry_cell_setting 'orthorhombic'
loop_
_space_group_symop_operation_xyz
x,y,z
-x,-y,z
-x,y,z
x,-y,z
1/2+x,1/2+y,1/2+z
1/2-x,1/2-y,1/2+z
1/2-x,1/2+y,1/2+z
1/2+x,1/2-y,1/2+z
loop_
_atom_site_type_symbol
_atom_site_label
_atom_site_fract_x
_atom_site_fract_y
_atom_site_fract_z
Si Si1 0.833624 0.884784 0.118310
Si Si2 0.841884 0.387674 0.615159
Si Si3 0.278405 0.115591 0.783203
Si Si4 0.914066 0.752560 0.274765
Si Si5 0.715555 0.611513 0.071593
Si Si6 0.411569 0.887769 0.320052
Si Si7 0.688085 0.741808 0.441358
Si Si8 0.585508 0.279416 0.998803
O O1 0.745296 0.867164 0.140869
O O2 0.882525 0.837901 0.204573
O O3 0.854556 0.000000 0.111311
O O4 0.854057 0.833045 0.015324
O O5 0.854003 0.500000 0.580774
O O6 0.890923 0.360807 0.709408
O O7 0.870352 0.322116 0.524968
O O8 0.364018 0.152952 0.766638
O O9 0.232842 0.134338 0.683883
O O10 0.237828 0.178539 0.866656
O O11 0.279900 0.000000 0.812849
O O12 0.910877 0.796757 0.383305
O O13 0.000000 0.724907 0.245721
O O14 0.738411 0.500000 0.044340
O O15 0.758282 0.684894 0.000022
O O16 0.626295 0.629237 0.054098
O O17 0.500000 0.879744 0.334772
O O18 0.374919 0.807705 0.390495
O O19 0.383338 0.000000 0.344033
O O20 0.500000 0.273907 0.036583
#
# Coordination Sequence:
#
# PCOD8189768 Si02
#       8
#     8   8   8   8   8   8   8   8
#     4  11  23  40  64  92 117 156 211 256 301 363
#     4  10  20  37  63  92 121 157 200 255 312 364
#     4  11  23  42  65  94 124 157 205 258 307 361
#     4  11  23  40  60  88 127 166 200 247 306 363
#     4  11  23  39  61  88 121 162 206 252 301 360
#     4  10  22  38  60  93 127 160 203 256 311 364
#     4  12  21  40  68  89 119 163 206 254 309 362
#     4  11  22  37  59  89 124 160 198 245 307 369
#
# _framework density 19.595576000000001
#
# number of rings (size 3 to 8) (size 9 to 14) (size 15 to 20)
#    0.000    1.125    3.750    2.625    0.000    4.000 
#    0.000    2.500    0.000    1.875    0.000    0.000 
#    0.000    0.000    0.000    0.000    0.000    0.000 
#
# Total GULP energy -396876.326025 kJ/mol
# GULP energy per Si atom -12402.385188 kJ/mol
# Density = 1.955098 g / cm^3
# Si number density = 19.595576 Si / 1000 Ang^3
#
#
#
# Elastic Constant Matrix: (Units=GPa)
#
#
# Indices 1 2 3 4 5 6 
#
# 1 84.9735 50.4655 58.5903 0.0000 0.0000 0.0000
# 2 50.4655 140.0648 82.2081 0.0000 0.0000 0.0000
# 3 58.5903 82.2081 117.6125 0.0000 0.0000 0.0000
# 4 0.0000 0.0000 0.0000 31.3904 0.0000 0.0000
# 5 0.0000 0.0000 0.0000 0.0000 30.7081 0.0000
# 6 0.0000 0.0000 0.0000 0.0000 0.0000 23.4972
#
#
#
# Elastic Compliance Matrix: (Units=1/GPa)
#
#
# Indices 1 2 3 4 5 6 
#
# 1 0.018285 -0.002106 -0.007637 0.000000 0.000000 0.000000
# 2 -0.002106 0.012349 -0.007582 0.000000 0.000000 0.000000
# 3 -0.007637 -0.007582 0.017607 0.000000 0.000000 0.000000
# 4 0.000000 0.000000 0.000000 0.031857 0.000000 0.000000
# 5 0.000000 0.000000 0.000000 0.000000 0.032565 0.000000
# 6 0.000000 0.000000 0.000000 0.000000 0.000000 0.042558
#
#
# Mechanical properties :
#
#
# Convention : Reuss Voigt Hill
#
# Bulk Modulus (GPa) = 73.58287 80.57539 77.07913
# Shear Modulus (GPa) = 25.72019 27.21161 26.46590
#
# Velocity S-wave (km/s) = 3.62684 3.73052 3.67905
# Velocity P-wave (km/s) = 7.42771 7.73073 7.58073
#
# Compressibility (1/GPa) = 0.01359012
#
# Stress axis : x y z
#
# Youngs Moduli (GPa) = 54.69050 80.98141 56.79612
#
# Poissons Ratio (x) = 0.17052 0.43375
# Poissons Ratio (y) = 0.11516 0.43065
# Poissons Ratio (z) = 0.41767 0.61403
#
# Static dielectric constant tensor:
#      x y z
#    x 3.682310 0.000000 0.000000 
#    y 0.000000 3.856350 0.000000 
#    z 0.000000 0.000000 3.679100 
# 
# 
# High freq. dielectric constant tensor:
#      x y z
#    x 1.759310 0.000000 0.000000 
#    y 0.000000 1.770620 0.000000 
#    z 0.000000 0.000000 1.771470 
# 
# From -- ./inp_files/13998.got.cif
#   From: 2010.03.12/outbox.cif.g09.slc.cpg/sg44_7_cif.got.tgz:13998.got - 2010.04.14 02:36:11.
