data_PCOD8189120
_publ_section_title
;
Structure prediction by ZEFSAII (Michael W. Deem and Ramdas Pophale) SiO2 
 PCOD8189120
Probable space group: I M M 2
;
_chemical_formula_sum "Si O2"
_cell_formula_units_Z 48
_cell_length_a 15.129698
_cell_length_b 9.401339
_cell_length_c 19.113710
_cell_angle_alpha 90.000000
_cell_angle_beta 90.000000
_cell_angle_gamma 90.000000
_cell_volume 2718.723022
_symmetry_space_group_name_H-M "I M M 2"
_symmetry_group_IT_number 44
_symmetry_cell_setting 'orthorhombic'
loop_
_space_group_symop_operation_xyz
x,y,z
-x,-y,z
-x,y,z
x,-y,z
1/2+x,1/2+y,1/2+z
1/2-x,1/2-y,1/2+z
1/2-x,1/2+y,1/2+z
1/2+x,1/2-y,1/2+z
loop_
_atom_site_type_symbol
_atom_site_label
_atom_site_fract_x
_atom_site_fract_y
_atom_site_fract_z
Si Si1 0.243777 0.167835 0.988140
Si Si2 0.399420 0.665536 0.227382
Si Si3 0.097397 0.669325 0.232249
Si Si4 0.600549 0.834832 0.090273
Si Si5 0.749669 0.831475 0.830815
Si Si6 0.897204 0.664212 0.074593
O O1 0.251735 0.228391 0.909374
O O2 0.159733 0.240696 0.022846
O O3 0.226725 0.000000 0.988770
O O4 0.334971 0.207688 0.026981
O O5 0.500000 0.701422 0.247564
O O6 0.385600 0.500000 0.210886
O O7 0.369359 0.748532 0.158355
O O8 0.340225 0.714818 0.292786
O O9 0.096666 0.500000 0.234376
O O10 0.167443 0.733374 0.287166
O O11 0.000000 0.727295 0.252237
O O12 0.122663 0.716363 0.153642
O O13 0.500000 0.795928 0.068326
O O14 0.608926 0.000000 0.108959
O O15 0.740642 0.000000 0.832727
O O16 0.870307 0.500000 0.065181
O O17 0.000000 0.686414 0.056538
#
# Coordination Sequence:
#
# PCOD8189120 Si02
#       6
#     8   8   8   8   8   8
#     4  10  20  31  46  71  99 126 154 186 231 282
#     4   9  17  30  49  69  87 115 157 197 229 265
#     4   8  14  26  46  69  89 113 150 193 230 265
#     4   9  18  32  48  68  96 126 155 190 231 275
#     4   9  17  28  43  66  94 120 148 186 230 273
#     4   9  18  33  52  72  93 120 156 195 233 274
#
# _framework density 17.655348
#
# number of rings (size 3 to 8) (size 9 to 14) (size 15 to 20)
#    0.000    3.000    0.000    2.000    0.000    3.667 
#    0.000    5.833    0.000    3.000    0.000    0.000 
#    0.000    0.000    0.000    0.000    0.000    0.000 
#
# Total GULP energy -297554.644876 kJ/mol
# GULP energy per Si atom -12398.110203 kJ/mol
# Density = 1.761516 g / cm^3
# Si number density = 17.655348 Si / 1000 Ang^3
#
#
#
# Elastic Constant Matrix: (Units=GPa)
#
#
# Indices 1 2 3 4 5 6 
#
# 1 121.4482 31.3139 96.4333 0.0000 0.0000 0.0000
# 2 31.3139 25.9346 35.7692 0.0000 0.0000 0.0000
# 3 96.4333 35.7692 168.1543 0.0000 0.0000 0.0000
# 4 0.0000 0.0000 0.0000 23.4412 0.0000 0.0000
# 5 0.0000 0.0000 0.0000 0.0000 22.5165 0.0000
# 6 0.0000 0.0000 0.0000 0.0000 0.0000 22.4390
#
#
#
# Elastic Compliance Matrix: (Units=1/GPa)
#
#
# Indices 1 2 3 4 5 6 
#
# 1 0.016728 -0.009859 -0.007496 0.000000 0.000000 0.000000
# 2 -0.009859 0.060379 -0.007189 0.000000 0.000000 0.000000
# 3 -0.007496 -0.007189 0.011775 0.000000 0.000000 0.000000
# 4 0.000000 0.000000 0.000000 0.042660 0.000000 0.000000
# 5 0.000000 0.000000 0.000000 0.000000 0.044412 0.000000
# 6 0.000000 0.000000 0.000000 0.000000 0.000000 0.044565
#
#
# Mechanical properties :
#
#
# Convention : Reuss Voigt Hill
#
# Bulk Modulus (GPa) = 25.13048 71.39664 48.26356
# Shear Modulus (GPa) = 17.67583 23.81406 20.74494
#
# Velocity S-wave (km/s) = 3.16754 3.67663 3.43154
# Velocity P-wave (km/s) = 5.25762 7.65182 6.56479
#
# Compressibility (1/GPa) = 0.03979232
#
# Stress axis : x y z
#
# Youngs Moduli (GPa) = 59.77970 16.56218 84.92538
#
# Poissons Ratio (x) = 0.16329 0.63660
# Poissons Ratio (y) = 0.58938 0.61056
# Poissons Ratio (z) = 0.44811 0.11907
#
# Static dielectric constant tensor:
#      x y z
#    x 3.489450 0.000000 0.000000 
#    y 0.000000 2.899200 0.000000 
#    z 0.000000 0.000000 3.436440 
# 
# 
# High freq. dielectric constant tensor:
#      x y z
#    x 1.697370 0.000000 0.000000 
#    y 0.000000 1.639810 0.000000 
#    z 0.000000 0.000000 1.680890 
# 
# From -- ./inp_files/16073.got.cif
#   From: 2010.03.12/outbox.cif.g09.slc.cpg/sg44_9_cif.got.tgz:16073.got - 2010.04.14 02:36:11.
