data_PCOD8189338
_publ_section_title
;
Structure prediction by ZEFSAII (Michael W. Deem and Ramdas Pophale) SiO2 
 PCOD8189338
Probable space group: I M M 2
;
_chemical_formula_sum "Si O2"
_cell_formula_units_Z 56
_cell_length_a 9.145905
_cell_length_b 21.960653
_cell_length_c 17.691240
_cell_angle_alpha 90.000000
_cell_angle_beta 90.000000
_cell_angle_gamma 90.000000
_cell_volume 3553.286369
_symmetry_space_group_name_H-M "I M M 2"
_symmetry_group_IT_number 44
_symmetry_cell_setting 'orthorhombic'
loop_
_space_group_symop_operation_xyz
x,y,z
-x,-y,z
-x,y,z
x,-y,z
1/2+x,1/2+y,1/2+z
1/2-x,1/2-y,1/2+z
1/2-x,1/2+y,1/2+z
1/2+x,1/2-y,1/2+z
loop_
_atom_site_type_symbol
_atom_site_label
_atom_site_fract_x
_atom_site_fract_y
_atom_site_fract_z
Si Si1 0.832152 0.711768 0.729210
Si Si2 0.325403 0.152503 0.943782
Si Si3 0.835302 0.179520 0.090626
Si Si4 0.669897 0.428656 0.327885
Si Si5 0.828565 0.725881 0.896784
Si Si6 0.831343 0.849385 0.689146
Si Si7 0.661668 0.179095 0.550270
O O1 0.733928 0.670250 0.674018
O O2 0.798982 0.694015 0.816151
O O3 0.793675 0.782846 0.720776
O O4 0.000000 0.699840 0.707647
O O5 0.500000 0.153533 0.946789
O O6 0.268581 0.094857 0.896645
O O7 0.267533 0.213533 0.903772
O O8 0.262243 0.144982 0.028498
O O9 0.833701 0.250503 0.072658
O O10 0.000000 0.153280 0.090079
O O11 0.500000 0.411572 0.342574
O O12 0.693343 0.500000 0.320002
O O13 0.726205 0.398038 0.250054
O O14 0.000000 0.744738 0.904790
O O15 0.785680 0.677160 0.962449
O O16 0.759624 0.860517 0.606881
O O17 0.000000 0.858995 0.674623
O O18 0.500000 0.151994 0.557567
#
# Coordination Sequence:
#
# PCOD8189338 Si02
#       7
#     8   8   8   8   8   8   8
#     4   9  15  25  42  62  86 111 141 176 211 252
#     4  11  20  29  43  61  84 112 146 183 221 256
#     4   9  17  28  41  58  83 112 144 173 209 260
#     4  10  20  34  49  62  80 113 153 187 225 266
#     4   9  16  28  43  61  87 117 146 174 210 259
#     4   9  16  27  42  58  79 108 141 178 215 252
#     4   8  15  25  39  58  81 111 141 170 206 252
#
# _framework density 15.760059
#
# number of rings (size 3 to 8) (size 9 to 14) (size 15 to 20)
#    0.000    2.714    1.429    2.571    0.000    4.857 
#    0.000    0.000    0.000    0.000    0.000    0.000 
#    0.000    1.143    0.000    9.143    0.000    3.000 
#
# Total GULP energy -347070.424721 kJ/mol
# GULP energy per Si atom -12395.372311 kJ/mol
# Density = 1.572419 g / cm^3
# Si number density = 15.760059 Si / 1000 Ang^3
#
#
#
# Elastic Constant Matrix: (Units=GPa)
#
#
# Indices 1 2 3 4 5 6 
#
# 1 86.4534 27.3285 63.0494 0.0000 0.0000 0.0000
# 2 27.3285 34.9651 35.1262 0.0000 0.0000 0.0000
# 3 63.0494 35.1262 157.5946 0.0000 0.0000 0.0000
# 4 0.0000 0.0000 0.0000 14.4202 0.0000 0.0000
# 5 0.0000 0.0000 0.0000 0.0000 31.1037 0.0000
# 6 0.0000 0.0000 0.0000 0.0000 0.0000 12.4321
#
#
#
# Elastic Compliance Matrix: (Units=1/GPa)
#
#
# Indices 1 2 3 4 5 6 
#
# 1 0.018270 -0.008938 -0.005317 0.000000 0.000000 0.000000
# 2 -0.008938 0.041224 -0.005613 0.000000 0.000000 0.000000
# 3 -0.005317 -0.005613 0.009724 0.000000 0.000000 0.000000
# 4 0.000000 0.000000 0.000000 0.069347 0.000000 0.000000
# 5 0.000000 0.000000 0.000000 0.000000 0.032150 0.000000
# 6 0.000000 0.000000 0.000000 0.000000 0.000000 0.080437
#
#
# Mechanical properties :
#
#
# Convention : Reuss Voigt Hill
#
# Bulk Modulus (GPa) = 33.91861 58.89127 46.40494
# Shear Modulus (GPa) = 16.62699 21.82514 19.22606
#
# Velocity S-wave (km/s) = 3.25161 3.72538 3.49653
# Velocity P-wave (km/s) = 5.97209 7.48018 6.76827
#
# Compressibility (1/GPa) = 0.02948234
#
# Stress axis : x y z
#
# Youngs Moduli (GPa) = 54.73433 24.25751 102.84230
#
# Poissons Ratio (x) = 0.21682 0.54683
# Poissons Ratio (y) = 0.48922 0.57721
# Poissons Ratio (z) = 0.29103 0.13615
#
# Static dielectric constant tensor:
#      x y z
#    x 3.057630 0.000000 0.000000 
#    y 0.000000 2.451430 0.000000 
#    z 0.000000 0.000000 3.432320 
# 
# 
# High freq. dielectric constant tensor:
#      x y z
#    x 1.605940 0.000000 0.000000 
#    y 0.000000 1.528720 0.000000 
#    z 0.000000 0.000000 1.623450 
# 
# From -- ./inp_files/20638.got.cif
#   From: 2010.03.12/outbox.cif.g09.slc.cpg/sg44_11_cif.got.tgz:20638.got - 2010.04.14 02:36:11.
