data_PCOD8189636
_publ_section_title
;
Structure prediction by ZEFSAII (Michael W. Deem and Ramdas Pophale) SiO2 
 PCOD8189636
Probable space group: I M M 2
;
_chemical_formula_sum "Si O2"
_cell_formula_units_Z 64
_cell_length_a 10.541900
_cell_length_b 13.270882
_cell_length_c 23.744602
_cell_angle_alpha 90.000000
_cell_angle_beta 90.000000
_cell_angle_gamma 90.000000
_cell_volume 3321.877203
_symmetry_space_group_name_H-M "I M M 2"
_symmetry_group_IT_number 44
_symmetry_cell_setting 'orthorhombic'
loop_
_space_group_symop_operation_xyz
x,y,z
-x,-y,z
-x,y,z
x,-y,z
1/2+x,1/2+y,1/2+z
1/2-x,1/2-y,1/2+z
1/2-x,1/2+y,1/2+z
1/2+x,1/2-y,1/2+z
loop_
_atom_site_type_symbol
_atom_site_label
_atom_site_fract_x
_atom_site_fract_y
_atom_site_fract_z
Si Si1 0.276598 0.729013 0.565170
Si Si2 0.142265 0.807811 0.405575
Si Si3 0.853267 0.235877 0.281399
Si Si4 0.854915 0.388379 0.469973
Si Si5 0.354400 0.383560 0.255486
Si Si6 0.354037 0.607799 0.130223
Si Si7 0.362216 0.887424 0.481293
Si Si8 0.145685 0.888833 0.174631
O O1 0.224323 0.642757 0.524805
O O2 0.165148 0.801780 0.586915
O O3 0.367833 0.804686 0.531137
O O4 0.342734 0.676320 0.617923
O O5 0.151639 0.828303 0.339068
O O6 0.166493 0.689287 0.418825
O O7 0.247358 0.872337 0.437761
O O8 0.000000 0.837986 0.426715
O O9 0.751589 0.325214 0.291878
O O10 0.800429 0.168313 0.229639
O O11 0.000000 0.273534 0.271442
O O12 0.810247 0.500000 0.450636
O O13 0.000000 0.390465 0.489162
O O14 0.500000 0.342952 0.264013
O O15 0.350847 0.500000 0.273065
O O16 0.301035 0.367106 0.192107
O O17 0.500000 0.591161 0.139890
O O18 0.296373 0.500000 0.108696
O O19 0.500000 0.878254 0.450655
O O20 0.346694 0.000000 0.506494
O O21 0.000000 0.906154 0.186921
O O22 0.210824 0.000000 0.168289
#
# Coordination Sequence:
#
# PCOD8189636 Si02
#       8
#     8   8   8   8   8   8   8   8
#     4  11  18  32  54  76 104 144 182 217 268 332
#     4   9  20  37  59  82 106 142 187 230 273 327
#     4  10  20  36  57  83 110 142 187 232 274 324
#     4   9  18  32  50  75 106 138 177 228 275 312
#     4   9  18  33  52  77 111 149 184 220 268 324
#     4   9  17  29  47  73 106 143 180 219 262 315
#     4  10  22  38  56  81 112 142 177 229 285 331
#     4  10  21  35  51  74 106 141 176 220 273 327
#
# _framework density 19.266214000000002
#
# number of rings (size 3 to 8) (size 9 to 14) (size 15 to 20)
#    0.000    2.375    1.250    2.250    0.000    2.500 
#    0.000    2.500    0.000    4.500    0.000    0.000 
#    0.000    0.000    0.000    0.000    0.000    0.000 
#
# Total GULP energy -396434.042629 kJ/mol
# GULP energy per Si atom -12388.563832 kJ/mol
# Density = 1.922236 g / cm^3
# Si number density = 19.266214 Si / 1000 Ang^3
#
#
#
# Elastic Constant Matrix: (Units=GPa)
#
#
# Indices 1 2 3 4 5 6 
#
# 1 86.3451 40.3626 31.5663 0.0000 0.0000 0.0000
# 2 40.3626 104.2066 30.9641 0.0000 0.0000 0.0000
# 3 31.5663 30.9641 90.3762 0.0000 0.0000 0.0000
# 4 0.0000 0.0000 0.0000 14.8160 0.0000 0.0000
# 5 0.0000 0.0000 0.0000 0.0000 25.8626 0.0000
# 6 0.0000 0.0000 0.0000 0.0000 0.0000 24.4051
#
#
#
# Elastic Compliance Matrix: (Units=1/GPa)
#
#
# Indices 1 2 3 4 5 6 
#
# 1 0.015153 -0.004784 -0.003654 0.000000 0.000000 0.000000
# 2 -0.004784 0.012194 -0.002507 0.000000 0.000000 0.000000
# 3 -0.003654 -0.002507 0.013200 0.000000 0.000000 0.000000
# 4 0.000000 0.000000 0.000000 0.067494 0.000000 0.000000
# 5 0.000000 0.000000 0.000000 0.000000 0.038666 0.000000
# 6 0.000000 0.000000 0.000000 0.000000 0.000000 0.040975
#
#
# Mechanical properties :
#
#
# Convention : Reuss Voigt Hill
#
# Bulk Modulus (GPa) = 53.59492 54.07931 53.83712
# Shear Modulus (GPa) = 23.17053 24.88574 24.02814
#
# Velocity S-wave (km/s) = 3.47169 3.59789 3.53535
# Velocity P-wave (km/s) = 6.62938 6.73723 6.68352
#
# Compressibility (1/GPa) = 0.01865849
#
# Stress axis : x y z
#
# Youngs Moduli (GPa) = 65.99192 82.00653 75.75772
#
# Poissons Ratio (x) = 0.39230 0.27680
# Poissons Ratio (y) = 0.31569 0.18993
# Poissons Ratio (z) = 0.24112 0.20559
#
# Static dielectric constant tensor:
#      x y z
#    x 3.368020 0.000000 0.000000 
#    y 0.000000 3.661990 0.000000 
#    z 0.000000 0.000000 3.403610 
# 
# 
# High freq. dielectric constant tensor:
#      x y z
#    x 1.735820 0.000000 0.000000 
#    y 0.000000 1.749780 0.000000 
#    z 0.000000 0.000000 1.738630 
# 
# From -- ./inp_files/25500.got.cif
#   From: 2010.03.12/outbox.cif.g09.slc.cpg/sg44_13_cif.got.tgz:25500.got - 2010.04.14 02:36:11.
