data_PCOD8189764
_publ_section_title
;
Structure prediction by ZEFSAII (Michael W. Deem and Ramdas Pophale) SiO2 
 PCOD8189764
Probable space group: I M M 2
;
_chemical_formula_sum "Si O2"
_cell_formula_units_Z 48
_cell_length_a 8.345160
_cell_length_b 14.527049
_cell_length_c 20.173702
_cell_angle_alpha 90.000000
_cell_angle_beta 90.000000
_cell_angle_gamma 90.000000
_cell_volume 2445.668953
_symmetry_space_group_name_H-M "I M M 2"
_symmetry_group_IT_number 44
_symmetry_cell_setting 'orthorhombic'
loop_
_space_group_symop_operation_xyz
x,y,z
-x,-y,z
-x,y,z
x,-y,z
1/2+x,1/2+y,1/2+z
1/2-x,1/2-y,1/2+z
1/2-x,1/2+y,1/2+z
1/2+x,1/2-y,1/2+z
loop_
_atom_site_type_symbol
_atom_site_label
_atom_site_fract_x
_atom_site_fract_y
_atom_site_fract_z
Si Si1 0.814267 0.185267 0.028690
Si Si2 0.185191 0.000000 0.225421
Si Si3 0.686224 0.500000 0.332076
Si Si4 0.183815 0.500000 0.188459
Si Si5 0.186151 0.688462 0.388765
Si Si6 0.689065 0.697594 0.761080
Si Si7 0.686378 0.684902 0.141249
Si Si8 0.815324 0.500000 0.581369
O O1 0.743324 0.262359 0.076256
O O2 0.000000 0.171381 0.044676
O O3 0.722799 0.089115 0.037876
O O4 0.788322 0.216224 0.953052
O O5 0.256850 0.093025 0.257641
O O6 0.209139 0.000000 0.146947
O O7 0.000000 0.000000 0.241770
O O8 0.500000 0.500000 0.351088
O O9 0.704057 0.500000 0.252982
O O10 0.770638 0.411891 0.362782
O O11 0.218049 0.410673 0.144216
O O12 0.000000 0.500000 0.212077
O O13 0.229643 0.763468 0.333175
O O14 0.000000 0.691448 0.407074
O O15 0.500000 0.703487 0.745023
O O16 0.782472 0.755891 0.706645
O O17 0.500000 0.663070 0.135490
O O18 0.000000 0.500000 0.602449
#
# Coordination Sequence:
#
# PCOD8189764 Si02
#       8
#     8   4   4   4   8   8   8   4
#     4  12  25  42  62  88 126 169 210 256 315 375
#     4  10  20  37  62  93 124 159 204 247 304 371
#     4  12  23  37  60  93 128 163 204 255 314 373
#     4  12  24  41  64  93 126 163 208 255 310 368
#     4  11  23  40  61  89 126 166 208 256 314 372
#     4  10  21  38  63  90 124 164 204 252 310 369
#     4  12  24  40  64  93 125 160 208 260 309 367
#     4  12  23  37  60  93 126 159 202 259 316 368
#
# _framework density 19.626531
#
# number of rings (size 3 to 8) (size 9 to 14) (size 15 to 20)
#    0.000    0.667    3.333    6.250    0.000    0.667 
#    0.000    0.833    0.000    2.000    0.000    0.000 
#    0.000    0.000    0.000    0.000    0.000    0.000 
#
# Total GULP energy -297755.994883 kJ/mol
# GULP energy per Si atom -12406.499787 kJ/mol
# Density = 1.958186 g / cm^3
# Si number density = 19.626531 Si / 1000 Ang^3
#
#
#
# Elastic Constant Matrix: (Units=GPa)
#
#
# Indices 1 2 3 4 5 6 
#
# 1 63.9829 26.7083 12.9572 0.0000 0.0000 0.0000
# 2 26.7083 146.8309 55.6267 0.0000 0.0000 0.0000
# 3 12.9572 55.6267 114.0140 0.0000 0.0000 0.0000
# 4 0.0000 0.0000 0.0000 27.8936 0.0000 0.0000
# 5 0.0000 0.0000 0.0000 0.0000 33.0890 0.0000
# 6 0.0000 0.0000 0.0000 0.0000 0.0000 31.2205
#
#
#
# Elastic Compliance Matrix: (Units=1/GPa)
#
#
# Indices 1 2 3 4 5 6 
#
# 1 0.016938 -0.002885 -0.000517 0.000000 0.000000 0.000000
# 2 -0.002885 0.008846 -0.003988 0.000000 0.000000 0.000000
# 3 -0.000517 -0.003988 0.010775 0.000000 0.000000 0.000000
# 4 0.000000 0.000000 0.000000 0.035851 0.000000 0.000000
# 5 0.000000 0.000000 0.000000 0.000000 0.030222 0.000000
# 6 0.000000 0.000000 0.000000 0.000000 0.000000 0.032030
#
#
# Mechanical properties :
#
#
# Convention : Reuss Voigt Hill
#
# Bulk Modulus (GPa) = 45.91619 57.26802 51.59210
# Shear Modulus (GPa) = 31.90751 33.74299 32.82525
#
# Velocity S-wave (km/s) = 4.03641 4.15089 4.09405
# Velocity P-wave (km/s) = 6.72081 7.22602 6.97799
#
# Compressibility (1/GPa) = 0.02177881
#
# Stress axis : x y z
#
# Youngs Moduli (GPa) = 59.03805 113.04229 92.80353
#
# Poissons Ratio (x) = 0.32613 0.04801
# Poissons Ratio (y) = 0.17033 0.37012
# Poissons Ratio (z) = 0.03054 0.45083
#
# Static dielectric constant tensor:
#      x y z
#    x 3.603290 0.000000 0.000000 
#    y 0.000000 3.874260 0.000000 
#    z 0.000000 0.000000 3.558740 
# 
# 
# High freq. dielectric constant tensor:
#      x y z
#    x 1.772330 0.000000 0.000000 
#    y 0.000000 1.771070 0.000000 
#    z 0.000000 0.000000 1.761070 
# 
# From -- ./inp_files/20397.got.cif
#   From: 2010.03.12/outbox.cif.g09.slc.cpg/sg44_11_cif.got.tgz:20397.got - 2010.04.14 02:36:11.
