data_PCOD8189367
_publ_section_title
;
Structure prediction by ZEFSAII (Michael W. Deem and Ramdas Pophale) SiO2 
 PCOD8189367
Probable space group: I M M 2
;
_chemical_formula_sum "Si O2"
_cell_formula_units_Z 64
_cell_length_a 9.387857
_cell_length_b 9.007209
_cell_length_c 41.267747
_cell_angle_alpha 90.000000
_cell_angle_beta 90.000000
_cell_angle_gamma 90.000000
_cell_volume 3489.534248
_symmetry_space_group_name_H-M "I M M 2"
_symmetry_group_IT_number 44
_symmetry_cell_setting 'orthorhombic'
loop_
_space_group_symop_operation_xyz
x,y,z
-x,-y,z
-x,y,z
x,-y,z
1/2+x,1/2+y,1/2+z
1/2-x,1/2-y,1/2+z
1/2-x,1/2+y,1/2+z
1/2+x,1/2-y,1/2+z
loop_
_atom_site_type_symbol
_atom_site_label
_atom_site_fract_x
_atom_site_fract_y
_atom_site_fract_z
Si Si1 0.333892 0.673302 0.785090
Si Si2 0.665473 0.327387 0.600038
Si Si3 0.669306 0.167145 0.536040
Si Si4 0.334769 0.170911 0.162742
Si Si5 0.830755 0.667345 0.349502
Si Si6 0.831971 0.171818 0.971562
Si Si7 0.665669 0.674118 0.914232
Si Si8 0.166708 0.828312 0.728307
O O1 0.500000 0.707782 0.780176
O O2 0.304298 0.500000 0.788688
O O3 0.273336 0.751856 0.817355
O O4 0.251138 0.734947 0.754502
O O5 0.500000 0.293576 0.605617
O O6 0.693440 0.500000 0.593423
O O7 0.727220 0.239089 0.569180
O O8 0.747848 0.271692 0.631768
O O9 0.500000 0.169008 0.536770
O O10 0.723481 0.263027 0.505643
O O11 0.728438 0.000000 0.532885
O O12 0.500000 0.191844 0.154729
O O13 0.287419 0.270196 0.193053
O O14 0.298213 0.000000 0.170709
O O15 0.770850 0.500000 0.350223
O O16 0.775656 0.753418 0.381147
O O17 0.000000 0.669294 0.349101
O O18 0.754306 0.259959 0.943484
O O19 0.000000 0.195276 0.967565
O O20 0.789456 0.000000 0.969941
O O21 0.500000 0.711788 0.919589
O O22 0.692518 0.500000 0.911993
O O23 0.000000 0.801876 0.734005
O O24 0.208664 0.000000 0.731204
#
# Coordination Sequence:
#
# PCOD8189367 Si02
#       8
#     8   8   8   8   8   8   8   8
#     4  10  20  34  54  79 104 131 167 210 253 298
#     4   9  17  30  49  72  96 123 160 205 248 293
#     4   9  17  30  49  72  98 129 164 203 250 301
#     4   9  18  33  51  70  96 131 166 200 245 300
#     4   9  17  31  52  76 103 135 168 204 250 301
#     4  10  20  34  53  76 102 134 172 212 254 300
#     4  10  20  34  53  77 105 136 170 208 251 300
#     4  10  21  36  53  74 102 136 171 207 251 302
#
# _framework density 18.340558000000001
#
# number of rings (size 3 to 8) (size 9 to 14) (size 15 to 20)
#    0.000    2.500    0.000    2.250    0.000    7.000 
#    0.000    2.500    0.000    6.000    0.000    0.000 
#    0.000    0.000    0.000    0.000    0.000    0.000 
#
# Total GULP energy -396870.203268 kJ/mol
# GULP energy per Si atom -12402.193852 kJ/mol
# Density = 1.829881 g / cm^3
# Si number density = 18.340558 Si / 1000 Ang^3
#
#
#
# Elastic Constant Matrix: (Units=GPa)
#
#
# Indices 1 2 3 4 5 6 
#
# 1 31.6364 31.0870 44.5330 0.0000 0.0000 0.0000
# 2 31.0870 103.0443 64.9690 0.0000 0.0000 0.0000
# 3 44.5330 64.9690 159.6932 0.0000 0.0000 0.0000
# 4 0.0000 0.0000 0.0000 42.7533 0.0000 0.0000
# 5 0.0000 0.0000 0.0000 0.0000 29.6225 0.0000
# 6 0.0000 0.0000 0.0000 0.0000 0.0000 22.4825
#
#
#
# Elastic Compliance Matrix: (Units=1/GPa)
#
#
# Indices 1 2 3 4 5 6 
#
# 1 0.058747 -0.009945 -0.012337 0.000000 0.000000 0.000000
# 2 -0.009945 0.014736 -0.003222 0.000000 0.000000 0.000000
# 3 -0.012337 -0.003222 0.011013 0.000000 0.000000 0.000000
# 4 0.000000 0.000000 0.000000 0.023390 0.000000 0.000000
# 5 0.000000 0.000000 0.000000 0.000000 0.033758 0.000000
# 6 0.000000 0.000000 0.000000 0.000000 0.000000 0.044479
#
#
# Mechanical properties :
#
#
# Convention : Reuss Voigt Hill
#
# Bulk Modulus (GPa) = 29.86021 63.95021 46.90521
# Shear Modulus (GPa) = 20.13744 29.22399 24.68071
#
# Velocity S-wave (km/s) = 3.31716 3.99608 3.67234
# Velocity P-wave (km/s) = 5.56666 7.49903 6.60391
#
# Compressibility (1/GPa) = 0.03348939
#
# Stress axis : x y z
#
# Youngs Moduli (GPa) = 17.02210 67.85996 90.80131
#
# Poissons Ratio (x) = 0.67487 1.12018
# Poissons Ratio (y) = 0.16929 0.29255
# Poissons Ratio (z) = 0.20999 0.21864
#
# Static dielectric constant tensor:
#      x y z
#    x 3.074420 0.000000 0.000000 
#    y 0.000000 3.545090 0.000000 
#    z 0.000000 0.000000 3.589140 
# 
# 
# High freq. dielectric constant tensor:
#      x y z
#    x 1.674550 0.000000 0.000000 
#    y 0.000000 1.723390 0.000000 
#    z 0.000000 0.000000 1.727320 
# 
# From -- ./inp_files/27446.got.cif
#   From: 2010.03.12/outbox.cif.g09.slc.cpg/sg44_14_cif.got.tgz:27446.got - 2010.04.14 02:36:11.
