data_PCOD8189993
_publ_section_title
;
Structure prediction by ZEFSAII (Michael W. Deem and Ramdas Pophale) SiO2 
 PCOD8189993
Probable space group: I M M 2
;
_chemical_formula_sum "Si O2"
_cell_formula_units_Z 40
_cell_length_a 9.075680
_cell_length_b 19.522072
_cell_length_c 10.597652
_cell_angle_alpha 90.000000
_cell_angle_beta 90.000000
_cell_angle_gamma 90.000000
_cell_volume 1877.650422
_symmetry_space_group_name_H-M "I M M 2"
_symmetry_group_IT_number 44
_symmetry_cell_setting 'orthorhombic'
loop_
_space_group_symop_operation_xyz
x,y,z
-x,-y,z
-x,y,z
x,-y,z
1/2+x,1/2+y,1/2+z
1/2-x,1/2-y,1/2+z
1/2-x,1/2+y,1/2+z
1/2+x,1/2-y,1/2+z
loop_
_atom_site_type_symbol
_atom_site_label
_atom_site_fract_x
_atom_site_fract_y
_atom_site_fract_z
Si Si1 0.828119 0.215449 0.045680
Si Si2 0.173724 0.074837 0.941414
Si Si3 0.337386 0.419356 0.165502
Si Si4 0.173115 0.797792 0.324871
Si Si5 0.672664 0.921067 0.420705
O O1 0.791047 0.238368 0.189545
O O2 0.000000 0.226222 0.014161
O O3 0.784594 0.134581 0.038835
O O4 0.735494 0.255793 0.942411
O O5 0.230954 0.098410 0.802614
O O6 0.000000 0.066184 0.928551
O O7 0.240574 0.000000 0.981495
O O8 0.500000 0.385700 0.144802
O O9 0.354723 0.500000 0.154995
O O10 0.224711 0.394006 0.058384
O O11 0.245027 0.873545 0.319428
O O12 0.000000 0.806592 0.341598
O O13 0.500000 0.909407 0.411210
O O14 0.715982 0.000000 0.395634
#
# Coordination Sequence:
#
# PCOD8189993 Si02
#       5
#     8   8   8   8   8
#     4  10  23  42  63  90 123 161 205 254 309 367
#     4   8  15  31  58  89 118 151 195 247 301 357
#     4   8  14  27  51  85 119 152 193 237 289 354
#     4  11  25  42  62  89 122 164 209 254 308 367
#     4  10  21  37  59  88 123 160 200 251 307 362
#
# _framework density 21.30322
#
# number of rings (size 3 to 8) (size 9 to 14) (size 15 to 20)
#    0.000    2.600    0.000    2.400    2.800    3.600 
#    0.000    2.000    0.000    0.600    0.000    0.000 
#    0.000    0.000    0.000    0.000    0.000    0.000 
#
# Total GULP energy -247845.710374 kJ/mol
# GULP energy per Si atom -12392.285519 kJ/mol
# Density = 2.125473 g / cm^3
# Si number density = 21.303220 Si / 1000 Ang^3
#
#
#
# Elastic Constant Matrix: (Units=GPa)
#
#
# Indices 1 2 3 4 5 6 
#
# 1 88.2498 37.3770 54.6085 0.0000 0.0000 0.0000
# 2 37.3770 82.4490 47.9430 0.0001 0.0000 0.0000
# 3 54.6085 47.9430 121.3634 0.0004 -0.0001 0.0000
# 4 0.0000 0.0001 0.0004 33.0649 0.0000 0.0000
# 5 0.0000 0.0000 -0.0001 0.0000 27.9320 0.0000
# 6 0.0000 0.0000 0.0000 0.0000 0.0000 28.4356
#
#
#
# Elastic Compliance Matrix: (Units=1/GPa)
#
#
# Indices 1 2 3 4 5 6 
#
# 1 0.016738 -0.004165 -0.005886 0.000000 0.000000 0.000000
# 2 -0.004165 0.016782 -0.004755 0.000000 0.000000 0.000000
# 3 -0.005886 -0.004755 0.012767 0.000000 0.000000 0.000000
# 4 0.000000 0.000000 0.000000 0.030244 0.000000 0.000000
# 5 0.000000 0.000000 0.000000 0.000000 0.035801 0.000000
# 6 0.000000 0.000000 0.000000 0.000000 0.000000 0.035167
#
#
# Mechanical properties :
#
#
# Convention : Reuss Voigt Hill
#
# Bulk Modulus (GPa) = 59.97512 63.54655 61.76083
# Shear Modulus (GPa) = 27.37186 28.02875 27.70031
#
# Velocity S-wave (km/s) = 3.58840 3.63120 3.60986
# Velocity P-wave (km/s) = 6.73669 6.89022 6.81389
#
# Compressibility (1/GPa) = 0.01667358
#
# Stress axis : x y z
#
# Youngs Moduli (GPa) = 59.74518 59.58710 78.32905
#
# Poissons Ratio (x) = 0.24820 0.46103
# Poissons Ratio (y) = 0.24885 0.37248
# Poissons Ratio (z) = 0.35165 0.28336
#
# Static dielectric constant tensor:
#      x y z
#    x 3.577730 0.000000 0.000000 
#    y 0.000000 3.995770 0.000000 
#    z 0.000000 0.000000 4.079100 
# 
# 
# High freq. dielectric constant tensor:
#      x y z
#    x 1.804220 0.000000 0.000000 
#    y 0.000000 1.836480 0.000000 
#    z 0.000000 0.000000 1.834230 
# 
# From -- ./inp_files/10994.got.cif
#   From: 2010.03.12/outbox.cif.g09.slc.cpg/sg44_6_cif.got.tgz:10994.got - 2010.04.14 02:36:11.
