data_PCOD8189853
_publ_section_title
;
Structure prediction by ZEFSAII (Michael W. Deem and Ramdas Pophale) SiO2 
 PCOD8189853
Probable space group: I M M 2
;
_chemical_formula_sum "Si O2"
_cell_formula_units_Z 40
_cell_length_a 9.381662
_cell_length_b 9.382335
_cell_length_c 25.095580
_cell_angle_alpha 90.000000
_cell_angle_beta 90.000000
_cell_angle_gamma 90.000000
_cell_volume 2208.960526
_symmetry_space_group_name_H-M "I M M 2"
_symmetry_group_IT_number 44
_symmetry_cell_setting 'orthorhombic'
loop_
_space_group_symop_operation_xyz
x,y,z
-x,-y,z
-x,y,z
x,-y,z
1/2+x,1/2+y,1/2+z
1/2-x,1/2-y,1/2+z
1/2-x,1/2+y,1/2+z
1/2+x,1/2-y,1/2+z
loop_
_atom_site_type_symbol
_atom_site_label
_atom_site_fract_x
_atom_site_fract_y
_atom_site_fract_z
Si Si1 0.333158 0.664683 0.723970
Si Si2 0.835292 0.166819 0.931011
Si Si3 0.834642 0.161596 0.639067
Si Si4 0.334736 0.165244 0.827485
Si Si5 0.661610 0.334663 0.015914
O O1 0.500000 0.687826 0.715289
O O2 0.292578 0.500000 0.730042
O O3 0.255372 0.727511 0.672852
O O4 0.281101 0.745444 0.776922
O O5 0.754547 0.218882 0.878055
O O6 0.000000 0.207321 0.924934
O O7 0.812065 0.000000 0.939702
O O8 0.772496 0.244650 0.982124
O O9 0.804771 0.195106 0.577490
O O10 0.000000 0.181992 0.652573
O O11 0.787461 0.000000 0.652511
O O12 0.500000 0.194429 0.839893
O O13 0.305499 0.000000 0.815070
O O14 0.500000 0.287411 0.002512
O O15 0.681923 0.500000 0.002371
#
# Coordination Sequence:
#
# PCOD8189853 Si02
#       5
#     8   8   8   8   8
#     4  10  21  35  52  78 109 137 168 210 259 307
#     4  10  21  35  52  78 109 137 168 210 259 307
#     4   9  19  36  56  77 102 135 175 215 255 302
#     4   9  18  34  54  73  98 138 182 215 248 299
#     4   9  19  36  56  77 102 135 175 215 255 302
#
# _framework density 18.108066000000001
#
# number of rings (size 3 to 8) (size 9 to 14) (size 15 to 20)
#    0.000    2.600    0.000    2.400    0.000    6.400 
#    0.000   10.000    0.000    0.000    0.000    0.000 
#    0.000    0.000    0.000    0.000    0.000    0.000 
#
# Total GULP energy -248063.279857 kJ/mol
# GULP energy per Si atom -12403.163993 kJ/mol
# Density = 1.806685 g / cm^3
# Si number density = 18.108066 Si / 1000 Ang^3
#
#
#
# Elastic Constant Matrix: (Units=GPa)
#
#
# Indices 1 2 3 4 5 6 
#
# 1 81.5932 51.0096 66.8172 0.0000 0.0000 0.0000
# 2 51.0096 81.7767 66.8910 0.0000 0.0000 0.0000
# 3 66.8172 66.8910 119.1684 0.0000 0.0000 0.0000
# 4 0.0000 0.0000 0.0000 35.4918 0.0000 0.0000
# 5 0.0000 0.0000 0.0000 0.0000 35.4850 0.0000
# 6 0.0000 0.0000 0.0000 0.0000 0.0000 31.1335
#
#
#
# Elastic Compliance Matrix: (Units=1/GPa)
#
#
# Indices 1 2 3 4 5 6 
#
# 1 0.024996 -0.007632 -0.009731 0.000000 0.000000 0.000000
# 2 -0.007632 0.024939 -0.009720 0.000000 0.000000 0.000000
# 3 -0.009731 -0.009720 0.019304 0.000000 0.000000 0.000000
# 4 0.000000 0.000000 0.000000 0.028175 0.000000 0.000000
# 5 0.000000 0.000000 0.000000 0.000000 0.028181 0.000000
# 6 0.000000 0.000000 0.000000 0.000000 0.000000 0.032120
#
#
# Mechanical properties :
#
#
# Convention : Reuss Voigt Hill
#
# Bulk Modulus (GPa) = 66.34219 72.44154 69.39186
# Shear Modulus (GPa) = 23.05151 26.94344 24.99747
#
# Velocity S-wave (km/s) = 3.57178 3.86155 3.71949
# Velocity P-wave (km/s) = 7.32984 7.74429 7.53991
#
# Compressibility (1/GPa) = 0.01507336
#
# Stress axis : x y z
#
# Youngs Moduli (GPa) = 40.00609 40.09738 51.80365
#
# Poissons Ratio (x) = 0.30601 0.50412
# Poissons Ratio (y) = 0.30532 0.50352
# Poissons Ratio (z) = 0.38932 0.38973
#
# Static dielectric constant tensor:
#      x y z
#    x 3.282750 0.000000 0.000000 
#    y 0.000000 3.283190 0.000000 
#    z 0.000000 0.000000 3.330240 
# 
# 
# High freq. dielectric constant tensor:
#      x y z
#    x 1.698330 0.000000 0.000000 
#    y 0.000000 1.698340 0.000000 
#    z 0.000000 0.000000 1.708960 
# 
# From -- ./inp_files/22752.got.cif
#   From: 2010.03.12/outbox.cif.g09.slc.cpg/sg44_12_cif.got.tgz:22752.got - 2010.04.14 02:36:11.
