data_PCOD8189297
_publ_section_title
;
Structure prediction by ZEFSAII (Michael W. Deem and Ramdas Pophale) SiO2 
 PCOD8189297
Probable space group: I M M 2
;
_chemical_formula_sum "Si O2"
_cell_formula_units_Z 32
_cell_length_a 10.351190
_cell_length_b 18.212530
_cell_length_c 9.198128
_cell_angle_alpha 90.000000
_cell_angle_beta 90.000000
_cell_angle_gamma 90.000000
_cell_volume 1734.043585
_symmetry_space_group_name_H-M "I M M 2"
_symmetry_group_IT_number 44
_symmetry_cell_setting 'orthorhombic'
loop_
_space_group_symop_operation_xyz
x,y,z
-x,-y,z
-x,y,z
x,-y,z
1/2+x,1/2+y,1/2+z
1/2-x,1/2-y,1/2+z
1/2-x,1/2+y,1/2+z
1/2+x,1/2-y,1/2+z
loop_
_atom_site_type_symbol
_atom_site_label
_atom_site_fract_x
_atom_site_fract_y
_atom_site_fract_z
Si Si1 0.500000 0.413800 0.231300
Si Si2 0.246886 0.085155 0.543872
Si Si3 0.780149 0.916878 0.205299
Si Si4 0.000000 0.836884 0.038142
Si Si5 0.500000 0.917007 0.234204
Si Si6 0.500000 0.163759 0.528526
O O1 0.500000 0.500000 0.269265
O O2 0.375311 0.391126 0.138722
O O3 0.500000 0.366566 0.375924
O O4 0.216126 0.102661 0.375748
O O5 0.370388 0.130824 0.601652
O O6 0.279186 0.000000 0.563970
O O7 0.871547 0.862657 0.119237
O O8 0.632812 0.907175 0.143181
O O9 0.828853 0.000000 0.179997
O O10 0.000000 0.750217 0.042311
O O11 0.500000 0.857629 0.360323
O O12 0.500000 0.000000 0.302533
#
# Coordination Sequence:
#
# PCOD8189297 Si02
#       6
#     4   8   8   4   4   4
#     4  10  21  36  53  76 105 136 170 208 254 304
#     4   9  18  36  60  77  93 129 181 223 246 282
#     4   9  17  33  56  78  98 129 177 219 248 288
#     4  12  23  31  47  79 117 142 154 194 264 324
#     4   8  16  34  60  79  91 123 181 231 249 273
#     4  10  20  33  52  78 107 133 167 209 257 305
#
# _framework density 18.453977999999999
#
# number of rings (size 3 to 8) (size 9 to 14) (size 15 to 20)
#    0.000    2.500    0.000    4.500    0.000    6.000 
#    0.000    1.250    0.000    3.000    0.000    0.000 
#    0.000    0.000    0.000    0.000    0.000    0.000 
#
# Total GULP energy -198338.079980 kJ/mol
# GULP energy per Si atom -12396.129999 kJ/mol
# Density = 1.841198 g / cm^3
# Si number density = 18.453978 Si / 1000 Ang^3
#
#
#
# Elastic Constant Matrix: (Units=GPa)
#
#
# Indices 1 2 3 4 5 6 
#
# 1 193.9308 88.7236 69.3352 0.0001 0.0000 0.0000
# 2 88.7236 121.6584 51.4684 0.0000 0.0000 0.0001
# 3 69.3352 51.4684 74.3525 0.0008 0.0006 -0.0002
# 4 0.0001 0.0000 0.0008 19.5759 0.0002 0.0000
# 5 0.0000 0.0000 0.0006 0.0002 9.7350 0.0000
# 6 0.0000 0.0001 -0.0002 0.0000 0.0000 17.8296
#
#
#
# Elastic Compliance Matrix: (Units=1/GPa)
#
#
# Indices 1 2 3 4 5 6 
#
# 1 0.009091 -0.004304 -0.005499 0.000000 0.000000 0.000000
# 2 -0.004304 0.013661 -0.005443 0.000000 0.000000 0.000000
# 3 -0.005499 -0.005443 0.022345 -0.000001 -0.000001 0.000000
# 4 0.000000 0.000000 -0.000001 0.051083 -0.000001 0.000000
# 5 0.000000 0.000000 -0.000001 -0.000001 0.102722 0.000000
# 6 0.000000 0.000000 0.000000 0.000000 0.000000 0.056086
#
#
# Mechanical properties :
#
#
# Convention : Reuss Voigt Hill
#
# Bulk Modulus (GPa) = 68.46421 89.88843 79.17632
# Shear Modulus (GPa) = 17.22061 21.45574 19.33818
#
# Velocity S-wave (km/s) = 3.05809 3.41348 3.24066
# Velocity P-wave (km/s) = 7.04626 8.02191 7.54986
#
# Compressibility (1/GPa) = 0.01460617
#
# Stress axis : x y z
#
# Youngs Moduli (GPa) = 109.99301 73.19927 44.75304
#
# Poissons Ratio (x) = 0.31505 0.24608
# Poissons Ratio (y) = 0.47341 0.24359
# Poissons Ratio (z) = 0.60481 0.39843
#
# Static dielectric constant tensor:
#      x y z
#    x 3.881730 0.000000 0.000000 
#    y 0.000000 3.200090 0.000000 
#    z 0.000000 0.000000 3.095340 
# 
# 
# High freq. dielectric constant tensor:
#      x y z
#    x 1.743810 0.000000 0.000000 
#    y 0.000000 1.701340 0.000000 
#    z 0.000000 0.000000 1.678710 
# 
# From -- ./inp_files/5427.got.cif
#   From: 2010.03.12/outbox.cif.g09.slc.cpg/sg44_3_cif.got.tgz:5427.got - 2010.04.14 02:36:11.
