data_PCOD8189946
_publ_section_title
;
Structure prediction by ZEFSAII (Michael W. Deem and Ramdas Pophale) SiO2 
 PCOD8189946
Probable space group: I M M 2
;
_chemical_formula_sum "Si O2"
_cell_formula_units_Z 28
_cell_length_a 7.502271
_cell_length_b 22.200460
_cell_length_c 9.418196
_cell_angle_alpha 90.000000
_cell_angle_beta 90.000000
_cell_angle_gamma 90.000000
_cell_volume 1568.636966
_symmetry_space_group_name_H-M "I M M 2"
_symmetry_group_IT_number 44
_symmetry_cell_setting 'orthorhombic'
loop_
_space_group_symop_operation_xyz
x,y,z
-x,-y,z
-x,y,z
x,-y,z
1/2+x,1/2+y,1/2+z
1/2-x,1/2-y,1/2+z
1/2-x,1/2+y,1/2+z
1/2+x,1/2-y,1/2+z
loop_
_atom_site_type_symbol
_atom_site_label
_atom_site_fract_x
_atom_site_fract_y
_atom_site_fract_z
Si Si1 0.500000 0.755309 0.868330
Si Si2 0.500000 0.117105 0.960266
Si Si3 0.696507 0.642706 0.930918
Si Si4 0.500000 0.852873 0.653926
Si Si5 0.704955 0.430000 0.659711
O O1 0.676212 0.713700 0.889830
O O2 0.500000 0.783402 0.709133
O O3 0.500000 0.810098 0.982509
O O4 0.677544 0.088498 0.025315
O O5 0.500000 0.102862 0.790888
O O6 0.500000 0.616576 0.971438
O O7 0.774204 0.606550 0.796623
O O8 0.824629 0.634056 0.063428
O O9 0.500000 0.413775 0.625112
O O10 0.730090 0.500000 0.692889
#
# Coordination Sequence:
#
# PCOD8189946 Si02
#       5
#     4   4   8   4   8
#     4   8  22  33  53  88 116 144 186 232 295 341
#     4  10  22  34  55  87 121 146 189 242 294 349
#     4   9  20  37  57  84 116 150 197 236 285 349
#     4  10  21  37  55  87 115 150 185 238 301 340
#     4  10  21  39  62  84 112 158 202 239 281 343
#
# _framework density 17.849892000000001
#
# number of rings (size 3 to 8) (size 9 to 14) (size 15 to 20)
#    1.714    0.857    0.000    1.286    4.000    1.143 
#    2.571    2.857    0.000    3.429    0.000    0.000 
#    0.000    0.000    0.000    0.000    0.000    0.000 
#
# Total GULP energy -173483.640210 kJ/mol
# GULP energy per Si atom -12391.688586 kJ/mol
# Density = 1.780926 g / cm^3
# Si number density = 17.849892 Si / 1000 Ang^3
#
#
#
# Elastic Constant Matrix: (Units=GPa)
#
#
# Indices 1 2 3 4 5 6 
#
# 1 98.8607 25.6033 73.3499 0.0000 0.0000 0.0000
# 2 25.6033 78.5814 31.7767 0.0001 0.0000 0.0000
# 3 73.3499 31.7767 137.6027 0.0007 -0.0001 0.0001
# 4 0.0000 0.0001 0.0007 31.9410 0.0000 0.0001
# 5 0.0000 0.0000 -0.0001 0.0000 29.3117 -0.0001
# 6 0.0000 0.0000 0.0001 0.0001 -0.0001 7.0583
#
#
#
# Elastic Compliance Matrix: (Units=1/GPa)
#
#
# Indices 1 2 3 4 5 6 
#
# 1 0.017034 -0.002072 -0.008601 0.000000 0.000000 0.000000
# 2 -0.002072 0.014288 -0.002195 0.000000 0.000000 0.000000
# 3 -0.008601 -0.002195 0.012359 0.000000 0.000000 0.000000
# 4 0.000000 0.000000 0.000000 0.031308 0.000000 0.000000
# 5 0.000000 0.000000 0.000000 0.000000 0.034116 0.000000
# 6 0.000000 0.000000 0.000000 0.000000 0.000000 0.141677
#
#
# Mechanical properties :
#
#
# Convention : Reuss Voigt Hill
#
# Bulk Modulus (GPa) = 55.72745 64.05607 59.89176
# Shear Modulus (GPa) = 17.69910 25.94987 21.82449
#
# Velocity S-wave (km/s) = 3.15231 3.81699 3.50046
# Velocity P-wave (km/s) = 6.67362 7.44243 7.06848
#
# Compressibility (1/GPa) = 0.01794448
#
# Stress axis : x y z
#
# Youngs Moduli (GPa) = 58.70733 69.98697 80.91053
#
# Poissons Ratio (x) = 0.14499 0.69595
# Poissons Ratio (y) = 0.12162 0.17763
# Poissons Ratio (z) = 0.50497 0.15364
#
# Static dielectric constant tensor:
#      x y z
#    x 3.169700 0.000000 0.000000 
#    y 0.000000 3.244950 0.000000 
#    z 0.000000 0.000000 3.088550 
# 
# 
# High freq. dielectric constant tensor:
#      x y z
#    x 1.688040 0.000000 0.000000 
#    y 0.000000 1.683690 0.000000 
#    z 0.000000 0.000000 1.679150 
# 
# From -- ./inp_files/4364.got.cif
#   From: 2010.03.12/outbox.cif.g09.slc.cpg/sg44_3_cif.got.tgz:4364.got - 2010.04.14 02:36:11.
