data_PCOD8189008
_publ_section_title
;
Structure prediction by ZEFSAII (Michael W. Deem and Ramdas Pophale) SiO2 
 PCOD8189008
Probable space group: I M M 2
;
_chemical_formula_sum "Si O2"
_cell_formula_units_Z 64
_cell_length_a 8.922000
_cell_length_b 24.580372
_cell_length_c 14.994948
_cell_angle_alpha 90.000000
_cell_angle_beta 90.000000
_cell_angle_gamma 90.000000
_cell_volume 3288.483250
_symmetry_space_group_name_H-M "I M M 2"
_symmetry_group_IT_number 44
_symmetry_cell_setting 'orthorhombic'
loop_
_space_group_symop_operation_xyz
x,y,z
-x,-y,z
-x,y,z
x,-y,z
1/2+x,1/2+y,1/2+z
1/2-x,1/2-y,1/2+z
1/2-x,1/2+y,1/2+z
1/2+x,1/2-y,1/2+z
loop_
_atom_site_type_symbol
_atom_site_label
_atom_site_fract_x
_atom_site_fract_y
_atom_site_fract_z
Si Si1 0.175037 0.897142 0.592010
Si Si2 0.176323 0.642708 0.425029
Si Si3 0.171285 0.224902 0.627527
Si Si4 0.323626 0.351192 0.797957
Si Si5 0.174779 0.833355 0.096237
Si Si6 0.827149 0.563058 0.269065
Si Si7 0.673960 0.259105 0.331693
Si Si8 0.171433 0.562963 0.917783
O O1 0.207567 0.832886 0.582796
O O2 0.224215 0.919441 0.687437
O O3 0.267823 0.928090 0.517067
O O4 0.000000 0.909481 0.579723
O O5 0.241427 0.629271 0.523206
O O6 0.226060 0.595821 0.356500
O O7 0.242080 0.700844 0.397988
O O8 0.000000 0.647204 0.430905
O O9 0.277917 0.270257 0.584924
O O10 0.202957 0.219044 0.732411
O O11 0.000000 0.242672 0.610796
O O12 0.500000 0.343420 0.810260
O O13 0.278934 0.354777 0.693924
O O14 0.241965 0.300703 0.844805
O O15 0.270644 0.405913 0.845257
O O16 0.000000 0.838183 0.079345
O O17 0.803594 0.500000 0.290718
O O18 0.000000 0.576158 0.245706
O O19 0.500000 0.257602 0.356540
O O20 0.184579 0.500000 0.893513
O O21 0.000000 0.582913 0.913243
#
# Coordination Sequence:
#
# PCOD8189008 Si02
#       8
#     8   8   8   8   8   8   8   8
#     4  11  22  37  59  89 121 156 197 243 295 352
#     4  11  22  36  58  86 120 159 199 244 293 348
#     4   9  19  35  55  83 119 155 191 233 285 349
#     4  10  22  41  63  88 117 151 196 248 301 353
#     4  10  22  38  59  86 119 155 194 243 298 354
#     4  10  22  40  60  84 118 160 203 246 294 351
#     4  10  19  35  58  85 119 154 191 237 289 350
#     4  11  25  43  62  86 117 156 202 247 295 353
#
# _framework density 19.461857999999999
#
# number of rings (size 3 to 8) (size 9 to 14) (size 15 to 20)
#    0.000    1.750    1.250    2.625    1.750    6.250 
#    0.000    0.625    0.000    2.250    0.000    0.000 
#    0.000    0.000    0.000    0.000    0.000    0.000 
#
# Total GULP energy -396962.284098 kJ/mol
# GULP energy per Si atom -12405.071378 kJ/mol
# Density = 1.941756 g / cm^3
# Si number density = 19.461858 Si / 1000 Ang^3
#
#
#
# Elastic Constant Matrix: (Units=GPa)
#
#
# Indices 1 2 3 4 5 6 
#
# 1 71.5107 29.7736 42.3352 0.0000 0.0000 0.0000
# 2 29.7736 79.3074 44.9399 0.0000 0.0000 0.0000
# 3 42.3352 44.9399 103.9035 0.0005 -0.0001 -0.0001
# 4 0.0000 0.0000 0.0005 30.2916 0.0000 0.0000
# 5 0.0000 0.0000 -0.0001 0.0000 35.8294 0.0000
# 6 0.0000 0.0000 -0.0001 0.0000 0.0000 27.5960
#
#
#
# Elastic Compliance Matrix: (Units=1/GPa)
#
#
# Indices 1 2 3 4 5 6 
#
# 1 0.019206 -0.003677 -0.006235 0.000000 0.000000 0.000000
# 2 -0.003677 0.017407 -0.006030 0.000000 0.000000 0.000000
# 3 -0.006235 -0.006030 0.014773 0.000000 0.000000 0.000000
# 4 0.000000 0.000000 0.000000 0.033012 0.000000 0.000000
# 5 0.000000 0.000000 0.000000 0.000000 0.027910 0.000000
# 6 0.000000 0.000000 0.000000 0.000000 0.000000 0.036237
#
#
# Mechanical properties :
#
#
# Convention : Reuss Voigt Hill
#
# Bulk Modulus (GPa) = 51.28059 54.31324 52.79691
# Shear Modulus (GPa) = 26.74777 27.92159 27.33468
#
# Velocity S-wave (km/s) = 3.71127 3.79183 3.75177
# Velocity P-wave (km/s) = 6.69113 6.86577 6.77901
#
# Compressibility (1/GPa) = 0.01950056
#
# Stress axis : x y z
#
# Youngs Moduli (GPa) = 52.06654 57.44855 67.69092
#
# Poissons Ratio (x) = 0.21126 0.42205
# Poissons Ratio (y) = 0.19146 0.40821
# Poissons Ratio (z) = 0.32464 0.34644
#
# Static dielectric constant tensor:
#      x y z
#    x 3.612520 0.000000 0.000000 
#    y 0.000000 3.512120 0.000000 
#    z 0.000000 0.000000 3.643740 
# 
# 
# High freq. dielectric constant tensor:
#      x y z
#    x 1.767520 0.000000 0.000000 
#    y 0.000000 1.746330 0.000000 
#    z 0.000000 0.000000 1.763520 
# 
# From -- ./inp_files/16819.got.cif
#   From: 2010.03.12/outbox.cif.g09.slc.cpg/sg44_9_cif.got.tgz:16819.got - 2010.04.14 02:36:11.
