data_PCOD8189221
_publ_section_title
;
Structure prediction by ZEFSAII (Michael W. Deem and Ramdas Pophale) SiO2 
 PCOD8189221
Probable space group: I M M 2
;
_chemical_formula_sum "Si O2"
_cell_formula_units_Z 64
_cell_length_a 14.469127
_cell_length_b 8.873033
_cell_length_c 28.326170
_cell_angle_alpha 90.000000
_cell_angle_beta 90.000000
_cell_angle_gamma 90.000000
_cell_volume 3636.656507
_symmetry_space_group_name_H-M "I M M 2"
_symmetry_group_IT_number 44
_symmetry_cell_setting 'orthorhombic'
loop_
_space_group_symop_operation_xyz
x,y,z
-x,-y,z
-x,y,z
x,-y,z
1/2+x,1/2+y,1/2+z
1/2-x,1/2-y,1/2+z
1/2-x,1/2+y,1/2+z
1/2+x,1/2-y,1/2+z
loop_
_atom_site_type_symbol
_atom_site_label
_atom_site_fract_x
_atom_site_fract_y
_atom_site_fract_z
Si Si1 0.107435 0.175595 0.032130
Si Si2 0.107048 0.173938 0.869956
Si Si3 0.607026 0.326950 0.815135
Si Si4 0.895016 0.322408 0.412894
Si Si5 0.215445 0.176928 0.224828
Si Si6 0.103072 0.325342 0.771725
Si Si7 0.222921 0.322670 0.951185
Si Si8 0.602851 0.679292 0.637924
O O1 0.131235 0.229993 0.085284
O O2 0.000000 0.206367 0.020744
O O3 0.129853 0.000000 0.024707
O O4 0.171477 0.272249 0.998301
O O5 0.128269 0.226657 0.817041
O O6 0.166786 0.271066 0.905529
O O7 0.000000 0.199506 0.882375
O O8 0.135052 0.000000 0.875176
O O9 0.500000 0.312026 0.802373
O O10 0.634365 0.500000 0.825727
O O11 0.633988 0.229294 0.860533
O O12 0.662848 0.259401 0.770776
O O13 0.884942 0.500000 0.416168
O O14 0.826048 0.247049 0.450529
O O15 0.000000 0.270537 0.424224
O O16 0.324629 0.214083 0.229904
O O17 0.174697 0.247666 0.176402
O O18 0.196703 0.000000 0.222880
O O19 0.111807 0.500000 0.786478
O O20 0.000000 0.288163 0.753084
O O21 0.231811 0.500000 0.950889
O O22 0.500000 0.738826 0.650229
O O23 0.602088 0.500000 0.638825
#
# Coordination Sequence:
#
# PCOD8189221 Si02
#       8
#     8   8   8   8   8   8   8   8
#     4   9  18  33  52  73  97 124 156 198 246 293
#     4  10  20  33  49  70  98 131 166 203 242 287
#     4   9  16  26  43  69  98 124 154 194 237 281
#     4  10  21  36  52  70  96 130 166 203 239 277
#     4   9  15  24  42  67  93 123 158 195 235 277
#     4   9  17  28  42  64  96 130 162 196 234 277
#     4  12  23  33  50  73  97 127 161 198 242 293
#     4   8  14  26  46  71  95 119 151 193 239 283
#
# _framework density 17.598582
#
# number of rings (size 3 to 8) (size 9 to 14) (size 15 to 20)
#    0.000    2.500    0.000    4.125    0.000    5.750 
#    0.000    0.000    0.000    2.250    0.000    5.250 
#    0.000    0.000    0.000    0.000    0.000    0.000 
#
# Total GULP energy -396743.580376 kJ/mol
# GULP energy per Si atom -12398.236887 kJ/mol
# Density = 1.755853 g / cm^3
# Si number density = 17.598582 Si / 1000 Ang^3
#
#
#
# Elastic Constant Matrix: (Units=GPa)
#
#
# Indices 1 2 3 4 5 6 
#
# 1 114.3412 37.3177 79.6019 0.0000 0.0000 0.0000
# 2 37.3177 63.5144 35.7543 0.0000 0.0000 0.0000
# 3 79.6019 35.7543 103.1192 0.0000 0.0000 0.0000
# 4 0.0000 0.0000 0.0000 18.8147 0.0000 0.0000
# 5 0.0000 0.0000 0.0000 0.0000 31.2242 0.0000
# 6 0.0000 0.0000 0.0000 0.0000 0.0000 19.4229
#
#
#
# Elastic Compliance Matrix: (Units=1/GPa)
#
#
# Indices 1 2 3 4 5 6 
#
# 1 0.019590 -0.003724 -0.013831 0.000000 0.000000 0.000000
# 2 -0.003724 0.020271 -0.004154 0.000000 0.000000 0.000000
# 3 -0.013831 -0.004154 0.021815 0.000000 0.000000 0.000000
# 4 0.000000 0.000000 0.000000 0.053150 0.000000 0.000000
# 5 0.000000 0.000000 0.000000 0.000000 0.032026 0.000000
# 6 0.000000 0.000000 0.000000 0.000000 0.000000 0.051486
#
#
# Mechanical properties :
#
#
# Convention : Reuss Voigt Hill
#
# Bulk Modulus (GPa) = 54.77171 65.14695 59.95933
# Shear Modulus (GPa) = 20.17420 22.44576 21.30998
#
# Velocity S-wave (km/s) = 3.38946 3.57519 3.48356
# Velocity P-wave (km/s) = 6.81970 7.35808 7.09400
#
# Compressibility (1/GPa) = 0.01825760
#
# Stress axis : x y z
#
# Youngs Moduli (GPa) = 51.04588 49.33206 45.84090
#
# Poissons Ratio (x) = 0.18372 0.63404
# Poissons Ratio (y) = 0.19010 0.19041
# Poissons Ratio (z) = 0.70603 0.20491
#
# Static dielectric constant tensor:
#      x y z
#    x 3.515960 0.000000 0.000000 
#    y 0.000000 3.045240 0.000000 
#    z 0.000000 0.000000 3.312920 
# 
# 
# High freq. dielectric constant tensor:
#      x y z
#    x 1.687110 0.000000 0.000000 
#    y 0.000000 1.655660 0.000000 
#    z 0.000000 0.000000 1.661740 
# 
# From -- ./inp_files/27308.got.cif
#   From: 2010.03.12/outbox.cif.g09.slc.cpg/sg44_14_cif.got.tgz:27308.got - 2010.04.14 02:36:11.
