data_PCOD8189300
_publ_section_title
;
Structure prediction by ZEFSAII (Michael W. Deem and Ramdas Pophale) SiO2 
 PCOD8189300
Probable space group: I M M 2
;
_chemical_formula_sum "Si O2"
_cell_formula_units_Z 64
_cell_length_a 18.313755
_cell_length_b 9.189423
_cell_length_c 20.923687
_cell_angle_alpha 90.000000
_cell_angle_beta 90.000000
_cell_angle_gamma 90.000000
_cell_volume 3521.306738
_symmetry_space_group_name_H-M "I M M 2"
_symmetry_group_IT_number 44
_symmetry_cell_setting 'orthorhombic'
loop_
_space_group_symop_operation_xyz
x,y,z
-x,-y,z
-x,y,z
x,-y,z
1/2+x,1/2+y,1/2+z
1/2-x,1/2-y,1/2+z
1/2-x,1/2+y,1/2+z
1/2+x,1/2-y,1/2+z
loop_
_atom_site_type_symbol
_atom_site_label
_atom_site_fract_x
_atom_site_fract_y
_atom_site_fract_z
Si Si1 0.667946 0.171120 0.204420
Si Si2 0.582607 0.173710 0.081625
Si Si3 0.916203 0.671350 0.081918
Si Si4 0.413482 0.160610 0.439635
Si Si5 0.087057 0.666701 0.307314
Si Si6 0.414489 0.330803 0.317018
Si Si7 0.336579 0.670843 0.694115
Si Si8 0.915503 0.669694 0.444929
O O1 0.633018 0.231743 0.138714
O O2 0.630041 0.249804 0.262967
O O3 0.752490 0.211435 0.203754
O O4 0.654119 0.000000 0.211795
O O5 0.500000 0.231581 0.092352
O O6 0.581488 0.000000 0.080126
O O7 0.616567 0.229415 0.012817
O O8 0.908944 0.500000 0.094452
O O9 0.864175 0.757316 0.129277
O O10 0.000000 0.720244 0.092743
O O11 0.888797 0.711416 0.010316
O O12 0.500000 0.150657 0.440568
O O13 0.386668 0.273285 0.385904
O O14 0.381553 0.000000 0.424055
O O15 0.112950 0.500000 0.296180
O O16 0.119234 0.770355 0.254100
O O17 0.114703 0.730177 0.376890
O O18 0.000000 0.672802 0.304306
O O19 0.500000 0.298012 0.307345
O O20 0.396785 0.500000 0.313733
O O21 0.349066 0.500000 0.688780
O O22 0.901768 0.500000 0.439933
O O23 0.000000 0.706013 0.449864
#
# Coordination Sequence:
#
# PCOD8189300 Si02
#       8
#     8   8   8   8   8   8   8   8
#     4  10  21  35  49  68  99 138 173 202 238 292
#     4   8  13  25  49  75  92 112 150 197 240 283
#     4   9  18  34  56  78  98 127 169 209 248 303
#     4   8  15  30  53  78 101 127 162 203 247 300
#     4   9  17  31  52  74  95 123 160 201 247 302
#     4  10  20  33  52  79 105 128 161 208 257 300
#     4  11  23  34  45  68 103 137 169 209 250 286
#     4   7  11  22  44  74  97 110 140 196 247 283
#
# _framework density 18.175070999999999
#
# number of rings (size 3 to 8) (size 9 to 14) (size 15 to 20)
#    0.000    3.000    0.000    3.750    0.000    4.750 
#    0.000    2.500    0.000    2.250    0.000    1.750 
#    0.000    0.000    0.000    0.000    0.000    0.000 
#
# Total GULP energy -396487.527906 kJ/mol
# GULP energy per Si atom -12390.235247 kJ/mol
# Density = 1.813370 g / cm^3
# Si number density = 18.175071 Si / 1000 Ang^3
#
#
#
# Elastic Constant Matrix: (Units=GPa)
#
#
# Indices 1 2 3 4 5 6 
#
# 1 52.9908 36.1356 53.0498 0.0000 0.0000 0.0000
# 2 36.1356 53.3152 55.3686 0.0000 0.0000 0.0000
# 3 53.0498 55.3686 182.5326 0.0000 0.0000 0.0000
# 4 0.0000 0.0000 0.0000 16.2689 0.0000 0.0000
# 5 0.0000 0.0000 0.0000 0.0000 -2.2654 0.0000
# 6 0.0000 0.0000 0.0000 0.0000 0.0000 19.7129
#
#
#
# Elastic Compliance Matrix: (Units=1/GPa)
#
#
# Indices 1 2 3 4 5 6 
#
# 1 0.037634 -0.020655 -0.004672 0.000000 0.000000 0.000000
# 2 -0.020655 0.038719 -0.005742 0.000000 0.000000 0.000000
# 3 -0.004672 -0.005742 0.008578 0.000000 0.000000 0.000000
# 4 0.000000 0.000000 0.000000 0.061467 0.000000 0.000000
# 5 0.000000 0.000000 0.000000 0.000000 -0.441421 0.000000
# 6 0.000000 0.000000 0.000000 0.000000 0.000000 0.050728
#
#
# Mechanical properties :
#
#
# Convention : Reuss Voigt Hill
#
# Bulk Modulus (GPa) = 43.87392 64.21627 54.04510
# Shear Modulus (GPa) = -28.64345 16.36225 -6.14060
#
# Velocity S-wave (km/s) = -3.97416 3.00368 -1.84009
# Velocity P-wave (km/s) = 1.77014 6.88754 5.02850
#
# Compressibility (1/GPa) = 0.02279258
#
# Stress axis : x y z
#
# Youngs Moduli (GPa) = 26.57198 25.82736 116.57696
#
# Poissons Ratio (x) = 0.53346 0.54467
# Poissons Ratio (y) = 0.54884 0.66935
# Poissons Ratio (z) = 0.12415 0.14829
#
# Static dielectric constant tensor:
#      x y z
#    x 2.987210 0.000000 0.000000 
#    y 0.000000 3.101200 0.000000 
#    z 0.000000 0.000000 3.932160 
# 
# 
# High freq. dielectric constant tensor:
#      x y z
#    x 1.668060 0.000000 0.000000 
#    y 0.000000 1.673250 0.000000 
#    z 0.000000 0.000000 1.733840 
# 
# From -- ./inp_files/24346.got.cif
#   From: 2010.03.12/outbox.cif.g09.slc.cpg/sg44_13_cif.got.tgz:24346.got - 2010.04.14 02:36:11.
