data_PCOD8189406
_publ_section_title
;
Structure prediction by ZEFSAII (Michael W. Deem and Ramdas Pophale) SiO2 
 PCOD8189406
Probable space group: I M M 2
;
_chemical_formula_sum "Si O2"
_cell_formula_units_Z 48
_cell_length_a 16.459974
_cell_length_b 8.777221
_cell_length_c 18.372018
_cell_angle_alpha 90.000000
_cell_angle_beta 90.000000
_cell_angle_gamma 90.000000
_cell_volume 2654.257423
_symmetry_space_group_name_H-M "I M M 2"
_symmetry_group_IT_number 44
_symmetry_cell_setting 'orthorhombic'
loop_
_space_group_symop_operation_xyz
x,y,z
-x,-y,z
-x,y,z
x,-y,z
1/2+x,1/2+y,1/2+z
1/2-x,1/2-y,1/2+z
1/2-x,1/2+y,1/2+z
1/2+x,1/2-y,1/2+z
loop_
_atom_site_type_symbol
_atom_site_label
_atom_site_fract_x
_atom_site_fract_y
_atom_site_fract_z
Si Si1 0.236015 0.820684 0.299040
Si Si2 0.500000 0.680520 0.416971
Si Si3 0.593122 0.821997 0.880596
Si Si4 0.334065 0.179313 0.441319
Si Si5 0.837443 0.819177 0.676625
Si Si6 0.308430 0.821540 0.022757
Si Si7 0.500000 0.319592 0.253805
O O1 0.145402 0.769024 0.320902
O O2 0.298387 0.771034 0.362804
O O3 0.261434 0.737239 0.224708
O O4 0.236611 0.000000 0.286115
O O5 0.500000 0.500000 0.419924
O O6 0.579642 0.743231 0.456630
O O7 0.500000 0.746369 0.335108
O O8 0.500000 0.768381 0.874348
O O9 0.602631 0.000000 0.864049
O O10 0.624060 0.783876 0.961816
O O11 0.275459 0.238305 0.504409
O O12 0.343009 0.000000 0.447360
O O13 0.839487 0.743715 0.598194
O O14 0.920015 0.759648 0.713640
O O15 0.833622 0.000000 0.669245
O O16 0.292038 0.000000 0.028981
O O17 0.500000 0.500000 0.256432
#
# Coordination Sequence:
#
# PCOD8189406 Si02
#       7
#     8   4   8   8   8   8   4
#     4  10  20  34  54  80 108 141 182 225 269 318
#     4  11  19  33  57  83 111 142 181 226 269 319
#     4   9  19  36  57  80 107 141 181 222 268 321
#     4  10  20  35  54  80 110 144 184 225 269 321
#     4  11  21  36  55  79 112 148 181 219 268 325
#     4  10  21  36  55  80 111 146 181 221 270 324
#     4   9  20  33  51  81 113 144 177 214 267 323
#
# _framework density 18.084153000000001
#
# number of rings (size 3 to 8) (size 9 to 14) (size 15 to 20)
#    0.000    2.000    1.667    2.250    1.167    2.333 
#    0.000    1.250    1.833    0.000    0.000    0.000 
#    0.000    0.000    0.000    0.000    0.000    0.000 
#
# Total GULP energy -297693.831664 kJ/mol
# GULP energy per Si atom -12403.909653 kJ/mol
# Density = 1.804299 g / cm^3
# Si number density = 18.084153 Si / 1000 Ang^3
#
#
#
# Elastic Constant Matrix: (Units=GPa)
#
#
# Indices 1 2 3 4 5 6 
#
# 1 125.9378 25.3596 21.6378 0.0000 0.0000 0.0000
# 2 25.3596 55.9159 10.1313 0.0000 0.0000 0.0000
# 3 21.6378 10.1313 57.4452 0.0000 0.0000 0.0000
# 4 0.0000 0.0000 0.0000 32.2105 0.0000 0.0000
# 5 0.0000 0.0000 0.0000 0.0000 28.9972 0.0000
# 6 0.0000 0.0000 0.0000 0.0000 0.0000 28.9583
#
#
#
# Elastic Compliance Matrix: (Units=1/GPa)
#
#
# Indices 1 2 3 4 5 6 
#
# 1 0.009156 -0.003644 -0.002806 0.000000 0.000000 0.000000
# 2 -0.003644 0.019925 -0.002141 0.000000 0.000000 0.000000
# 3 -0.002806 -0.002141 0.018843 0.000000 0.000000 0.000000
# 4 0.000000 0.000000 0.000000 0.031046 0.000000 0.000000
# 5 0.000000 0.000000 0.000000 0.000000 0.034486 0.000000
# 6 0.000000 0.000000 0.000000 0.000000 0.000000 0.034532
#
#
# Mechanical properties :
#
#
# Convention : Reuss Voigt Hill
#
# Bulk Modulus (GPa) = 32.53080 39.28402 35.90741
# Shear Modulus (GPa) = 28.50329 30.17788 29.34059
#
# Velocity S-wave (km/s) = 3.97438 4.08946 4.03233
# Velocity P-wave (km/s) = 6.25208 6.63840 6.44813
#
# Compressibility (1/GPa) = 0.03074010
#
# Stress axis : x y z
#
# Youngs Moduli (GPa) = 109.21321 50.18881 53.07131
#
# Poissons Ratio (x) = 0.18290 0.14893
# Poissons Ratio (y) = 0.39800 0.11364
# Poissons Ratio (z) = 0.30647 0.10747
#
# Static dielectric constant tensor:
#      x y z
#    x 3.411340 0.000000 0.000000 
#    y 0.000000 3.275500 0.000000 
#    z 0.000000 0.000000 3.204300 
# 
# 
# High freq. dielectric constant tensor:
#      x y z
#    x 1.703830 0.000000 0.000000 
#    y 0.000000 1.705840 0.000000 
#    z 0.000000 0.000000 1.683300 
# 
# From -- ./inp_files/20328.got.cif
#   From: 2010.03.12/outbox.cif.g09.slc.cpg/sg44_11_cif.got.tgz:20328.got - 2010.04.14 02:36:11.
