data_PCOD8189732
_publ_section_title
;
Structure prediction by ZEFSAII (Michael W. Deem and Ramdas Pophale) SiO2 
 PCOD8189732
Probable space group: I M M 2
;
_chemical_formula_sum "Si O2"
_cell_formula_units_Z 64
_cell_length_a 24.585613
_cell_length_b 9.073904
_cell_length_c 14.926342
_cell_angle_alpha 90.000000
_cell_angle_beta 90.000000
_cell_angle_gamma 90.000000
_cell_volume 3329.880204
_symmetry_space_group_name_H-M "I M M 2"
_symmetry_group_IT_number 44
_symmetry_cell_setting 'orthorhombic'
loop_
_space_group_symop_operation_xyz
x,y,z
-x,-y,z
-x,y,z
x,-y,z
1/2+x,1/2+y,1/2+z
1/2-x,1/2-y,1/2+z
1/2-x,1/2+y,1/2+z
1/2+x,1/2-y,1/2+z
loop_
_atom_site_type_symbol
_atom_site_label
_atom_site_fract_x
_atom_site_fract_y
_atom_site_fract_z
Si Si1 0.437663 0.330916 0.564930
Si Si2 0.648108 0.825596 0.686872
Si Si3 0.601580 0.825546 0.391880
Si Si4 0.277022 0.831247 0.365201
Si Si5 0.936437 0.169310 0.713870
Si Si6 0.255510 0.831489 0.162102
Si Si7 0.633229 0.830577 0.072248
Si Si8 0.328789 0.169932 0.885306
O O1 0.500000 0.320269 0.595542
O O2 0.418804 0.500000 0.556239
O O3 0.402906 0.249097 0.639959
O O4 0.432333 0.253483 0.468876
O O5 0.704201 0.773056 0.640545
O O6 0.647386 0.771896 0.790803
O O7 0.642794 0.000000 0.675854
O O8 0.664957 0.785905 0.406689
O O9 0.581683 0.769063 0.296256
O O10 0.591810 0.000000 0.395609
O O11 0.279517 0.797222 0.259816
O O12 0.228647 0.742379 0.411455
O O13 0.264457 0.000000 0.384203
O O14 0.907302 0.222976 0.623372
O O15 0.000000 0.187426 0.697295
O O16 0.920600 0.000000 0.732826
O O17 0.304028 0.795441 0.094425
O O18 0.235751 0.000000 0.153900
O O19 0.619420 0.000000 0.097262
O O20 0.627860 0.802055 0.965149
O O21 0.315258 0.000000 0.874549
#
# Coordination Sequence:
#
# PCOD8189732 Si02
#       8
#     8   8   8   8   8   8   8   8
#     4  11  25  43  61  83 112 151 200 247 296 353
#     4  10  21  38  59  86 117 150 194 244 296 350
#     4  11  22  38  60  89 119 152 193 237 290 351
#     4   9  18  33  53  82 117 151 187 225 275 343
#     4  11  24  40  58  84 119 158 199 242 290 347
#     4   9  17  33  55  82 117 153 188 230 281 343
#     4  10  20  37  59  85 117 155 198 241 290 345
#     4   9  20  36  57  86 118 152 192 239 290 345
#
# _framework density 19.219911
#
# number of rings (size 3 to 8) (size 9 to 14) (size 15 to 20)
#    0.000    2.000    1.250    1.875    1.750    6.000 
#    0.000    0.625    0.000    3.750    0.000    0.000 
#    0.000    0.000    0.000    0.000    0.000    0.000 
#
# Total GULP energy -396856.293406 kJ/mol
# GULP energy per Si atom -12401.759169 kJ/mol
# Density = 1.917617 g / cm^3
# Si number density = 19.219911 Si / 1000 Ang^3
#
#
#
# Elastic Constant Matrix: (Units=GPa)
#
#
# Indices 1 2 3 4 5 6 
#
# 1 87.4851 55.1011 36.8250 0.0000 0.0000 0.0000
# 2 55.1011 96.9500 39.5581 0.0000 0.0000 0.0000
# 3 36.8250 39.5581 77.2311 0.0000 0.0000 0.0000
# 4 0.0000 0.0000 0.0000 28.0313 0.0000 0.0000
# 5 0.0000 0.0000 0.0000 0.0000 29.3230 0.0000
# 6 0.0000 0.0000 0.0000 0.0000 0.0000 32.6107
#
#
#
# Elastic Compliance Matrix: (Units=1/GPa)
#
#
# Indices 1 2 3 4 5 6 
#
# 1 0.018939 -0.008950 -0.004446 0.000000 0.000000 0.000000
# 2 -0.008950 0.017269 -0.004578 0.000000 0.000000 0.000000
# 3 -0.004446 -0.004578 0.017413 0.000000 0.000000 0.000000
# 4 0.000000 0.000000 0.000000 0.035674 0.000000 0.000000
# 5 0.000000 0.000000 0.000000 0.000000 0.034103 0.000000
# 6 0.000000 0.000000 0.000000 0.000000 0.000000 0.030665
#
#
# Mechanical properties :
#
#
# Convention : Reuss Voigt Hill
#
# Bulk Modulus (GPa) = 56.58289 58.29275 57.43782
# Shear Modulus (GPa) = 25.52299 26.67181 26.09740
#
# Velocity S-wave (km/s) = 3.64805 3.72925 3.68887
# Velocity P-wave (km/s) = 6.87372 6.99559 6.93492
#
# Compressibility (1/GPa) = 0.01767319
#
# Stress axis : x y z
#
# Youngs Moduli (GPa) = 52.80142 57.90722 57.42812
#
# Poissons Ratio (x) = 0.51825 0.25534
# Poissons Ratio (y) = 0.47255 0.26290
# Poissons Ratio (z) = 0.23477 0.26510
#
# Static dielectric constant tensor:
#      x y z
#    x 3.445850 0.000000 0.000000 
#    y 0.000000 3.565960 0.000000 
#    z 0.000000 0.000000 3.567820 
# 
# 
# High freq. dielectric constant tensor:
#      x y z
#    x 1.736840 0.000000 0.000000 
#    y 0.000000 1.751500 0.000000 
#    z 0.000000 0.000000 1.750320 
# 
# From -- ./inp_files/16818.got.cif
#   From: 2010.03.12/outbox.cif.g09.slc.cpg/sg44_9_cif.got.tgz:16818.got - 2010.04.14 02:36:11.
