data_PCOD8189152
_publ_section_title
;
Structure prediction by ZEFSAII (Michael W. Deem and Ramdas Pophale) SiO2 
 PCOD8189152
Probable space group: I M M 2
;
_chemical_formula_sum "Si O2"
_cell_formula_units_Z 64
_cell_length_a 9.048662
_cell_length_b 20.683507
_cell_length_c 19.669491
_cell_angle_alpha 90.000000
_cell_angle_beta 90.000000
_cell_angle_gamma 90.000000
_cell_volume 3681.303852
_symmetry_space_group_name_H-M "I M M 2"
_symmetry_group_IT_number 44
_symmetry_cell_setting 'orthorhombic'
loop_
_space_group_symop_operation_xyz
x,y,z
-x,-y,z
-x,y,z
x,-y,z
1/2+x,1/2+y,1/2+z
1/2-x,1/2-y,1/2+z
1/2-x,1/2+y,1/2+z
1/2+x,1/2-y,1/2+z
loop_
_atom_site_type_symbol
_atom_site_label
_atom_site_fract_x
_atom_site_fract_y
_atom_site_fract_z
Si Si1 0.327915 0.377819 0.889330
Si Si2 0.674302 0.928685 0.110297
Si Si3 0.668309 0.377015 0.735336
Si Si4 0.172524 0.274178 0.233417
Si Si5 0.324365 0.810571 0.024369
Si Si6 0.170403 0.426331 0.016200
Si Si7 0.824877 0.732695 0.382210
Si Si8 0.824438 0.182576 0.602162
O O1 0.500000 0.382127 0.909885
O O2 0.303513 0.401201 0.812073
O O3 0.266405 0.304866 0.896103
O O4 0.233826 0.421977 0.939834
O O5 0.500000 0.921888 0.111276
O O6 0.728689 0.918816 0.186837
O O7 0.743096 0.874333 0.060211
O O8 0.722078 0.000000 0.084672
O O9 0.500000 0.389873 0.714427
O O10 0.705799 0.301675 0.726443
O O11 0.227538 0.295538 0.309301
O O12 0.267144 0.314368 0.179416
O O13 0.000000 0.289406 0.222205
O O14 0.500000 0.811507 0.027718
O O15 0.267031 0.746142 0.062096
O O16 0.271986 0.811507 0.945418
O O17 0.188069 0.500000 0.041295
O O18 0.260793 0.381076 0.067176
O O19 0.000000 0.405010 0.016217
O O20 0.000000 0.738738 0.377725
O O21 0.000000 0.178173 0.601923
#
# Coordination Sequence:
#
# PCOD8189152 Si02
#       8
#     8   8   8   8   8   8   8   8
#     4   9  17  32  52  74  99 133 176 212 247 297
#     4  10  20  32  47  71 104 138 172 213 256 300
#     4   9  18  31  49  73 103 138 175 211 247 300
#     4   9  17  30  51  77 103 130 164 209 261 306
#     4   9  16  29  51  75  97 128 172 214 251 292
#     4  11  24  38  51  73 106 138 169 211 262 312
#     4   8  14  28  51  75  99 129 164 208 256 300
#     4  11  20  33  56  78 100 133 174 215 253 301
#
# _framework density 17.385144
#
# number of rings (size 3 to 8) (size 9 to 14) (size 15 to 20)
#    0.000    2.500    2.500    2.250    0.000    2.250 
#    0.000    4.375    0.000    0.750    0.000    3.500 
#    0.000    0.000    0.000    0.000    0.000    0.000 
#
# Total GULP energy -396681.844594 kJ/mol
# GULP energy per Si atom -12396.307644 kJ/mol
# Density = 1.734557 g / cm^3
# Si number density = 17.385144 Si / 1000 Ang^3
#
#
#
# Elastic Constant Matrix: (Units=GPa)
#
#
# Indices 1 2 3 4 5 6 
#
# 1 46.2218 35.4376 35.3927 0.0000 0.0000 0.0000
# 2 35.4376 95.6408 61.2139 0.0000 0.0000 0.0000
# 3 35.3927 61.2139 131.7237 0.0000 0.0000 0.0000
# 4 0.0000 0.0000 0.0000 23.4002 0.0000 0.0000
# 5 0.0000 0.0000 0.0000 0.0000 26.9789 0.0000
# 6 0.0000 0.0000 0.0000 0.0000 0.0000 19.9077
#
#
#
# Elastic Compliance Matrix: (Units=1/GPa)
#
#
# Indices 1 2 3 4 5 6 
#
# 1 0.031903 -0.009016 -0.004382 0.000000 0.000000 0.000000
# 2 -0.009016 0.017430 -0.005678 0.000000 0.000000 0.000000
# 3 -0.004382 -0.005678 0.011407 0.000000 0.000000 0.000000
# 4 0.000000 0.000000 0.000000 0.042735 0.000000 0.000000
# 5 0.000000 0.000000 0.000000 0.000000 0.037066 0.000000
# 6 0.000000 0.000000 0.000000 0.000000 0.000000 0.050232
#
#
# Mechanical properties :
#
#
# Convention : Reuss Voigt Hill
#
# Bulk Modulus (GPa) = 44.26915 59.74161 52.00538
# Shear Modulus (GPa) = 21.14574 23.49352 22.31963
#
# Velocity S-wave (km/s) = 3.49135 3.68007 3.58695
# Velocity P-wave (km/s) = 6.46311 7.24537 6.86539
#
# Compressibility (1/GPa) = 0.02258909
#
# Stress axis : x y z
#
# Youngs Moduli (GPa) = 31.34532 57.37085 87.66171
#
# Poissons Ratio (x) = 0.51727 0.38413
# Poissons Ratio (y) = 0.28262 0.49771
# Poissons Ratio (z) = 0.13735 0.32573
#
# Static dielectric constant tensor:
#      x y z
#    x 2.967050 0.000000 0.000000 
#    y 0.000000 3.162080 0.000000 
#    z 0.000000 0.000000 3.467440 
# 
# 
# High freq. dielectric constant tensor:
#      x y z
#    x 1.646420 0.000000 0.000000 
#    y 0.000000 1.647780 0.000000 
#    z 0.000000 0.000000 1.678970 
# 
# From -- ./inp_files/23301.got.cif
#   From: 2010.03.12/outbox.cif.g09.slc.cpg/sg44_12_cif.got.tgz:23301.got - 2010.04.14 02:36:11.
