data_PCOD8189534
_publ_section_title
;
Structure prediction by ZEFSAII (Michael W. Deem and Ramdas Pophale) SiO2 
 PCOD8189534
Probable space group: I M M 2
;
_chemical_formula_sum "Si O2"
_cell_formula_units_Z 56
_cell_length_a 9.098113
_cell_length_b 14.072048
_cell_length_c 22.861031
_cell_angle_alpha 90.000000
_cell_angle_beta 90.000000
_cell_angle_gamma 90.000000
_cell_volume 2926.876832
_symmetry_space_group_name_H-M "I M M 2"
_symmetry_group_IT_number 44
_symmetry_cell_setting 'orthorhombic'
loop_
_space_group_symop_operation_xyz
x,y,z
-x,-y,z
-x,y,z
x,-y,z
1/2+x,1/2+y,1/2+z
1/2-x,1/2-y,1/2+z
1/2-x,1/2+y,1/2+z
1/2+x,1/2-y,1/2+z
loop_
_atom_site_type_symbol
_atom_site_label
_atom_site_fract_x
_atom_site_fract_y
_atom_site_fract_z
Si Si1 0.672143 0.223097 0.409240
Si Si2 0.332473 0.109626 0.295044
Si Si3 0.828177 0.610640 0.024682
Si Si4 0.172368 0.109202 0.176432
Si Si5 0.172932 0.778556 0.627196
Si Si6 0.168784 0.108588 0.742774
Si Si7 0.672839 0.891499 0.860907
O O1 0.500000 0.243473 0.409884
O O2 0.721311 0.167251 0.351249
O O3 0.719379 0.160801 0.464599
O O4 0.756416 0.324047 0.410409
O O5 0.500000 0.135637 0.277959
O O6 0.230912 0.136731 0.240566
O O7 0.318389 0.000000 0.312026
O O8 0.787558 0.500000 0.019992
O O9 0.735080 0.657633 0.075669
O O10 0.000000 0.624910 0.037638
O O11 0.251600 0.174610 0.127839
O O12 0.000000 0.128233 0.174557
O O13 0.210797 0.000000 0.161640
O O14 0.215025 0.828813 0.687810
O O15 0.000000 0.767012 0.618541
O O16 0.266200 0.139780 0.797692
O O17 0.000000 0.125469 0.760468
O O18 0.198474 0.000000 0.725223
O O19 0.500000 0.878145 0.860787
O O20 0.718096 0.000000 0.874973
#
# Coordination Sequence:
#
# PCOD8189534 Si02
#       7
#     8   8   8   8   8   8   8
#     4  10  20  35  56  80 106 141 182 219 261 316
#     4   9  17  31  53  81 112 143 175 215 265 320
#     4  10  22  40  60  82 109 141 178 220 265 316
#     4  10  21  36  54  79 111 144 180 223 270 322
#     4  11  22  36  56  81 109 143 183 225 270 320
#     4   9  18  33  53  78 109 143 177 215 263 320
#     4  10  21  35  52  78 110 141 176 220 268 316
#
# _framework density 19.133023000000001
#
# number of rings (size 3 to 8) (size 9 to 14) (size 15 to 20)
#    0.000    2.143    0.000    3.000    0.000   10.000 
#    0.000    2.143    0.000    3.429    0.000    0.000 
#    0.000    0.000    0.000    0.000    0.000    0.000 
#
# Total GULP energy -347291.448892 kJ/mol
# GULP energy per Si atom -12403.266032 kJ/mol
# Density = 1.908948 g / cm^3
# Si number density = 19.133023 Si / 1000 Ang^3
#
#
#
# Elastic Constant Matrix: (Units=GPa)
#
#
# Indices 1 2 3 4 5 6 
#
# 1 81.2951 66.8798 58.8296 0.0000 0.0000 0.0000
# 2 66.8798 133.8811 82.7440 0.0000 0.0000 0.0000
# 3 58.8296 82.7440 88.0939 0.0000 0.0000 0.0000
# 4 0.0000 0.0000 0.0000 35.6930 0.0000 0.0000
# 5 0.0000 0.0000 0.0000 0.0000 29.3752 0.0000
# 6 0.0000 0.0000 0.0000 0.0000 0.0000 30.1811
#
#
#
# Elastic Compliance Matrix: (Units=1/GPa)
#
#
# Indices 1 2 3 4 5 6 
#
# 1 0.025251 -0.005226 -0.011954 0.000000 0.000000 0.000000
# 2 -0.005226 0.018887 -0.014250 0.000000 0.000000 0.000000
# 3 -0.011954 -0.014250 0.032720 0.000000 0.000000 0.000000
# 4 0.000000 0.000000 0.000000 0.028017 0.000000 0.000000
# 5 0.000000 0.000000 0.000000 0.000000 0.034042 0.000000
# 6 0.000000 0.000000 0.000000 0.000000 0.000000 0.033133
#
#
# Mechanical properties :
#
#
# Convention : Reuss Voigt Hill
#
# Bulk Modulus (GPa) = 71.44480 80.01966 75.73223
# Shear Modulus (GPa) = 20.87023 25.37098 23.12060
#
# Velocity S-wave (km/s) = 3.30630 3.64542 3.48000
# Velocity P-wave (km/s) = 7.21094 7.72220 7.47095
#
# Compressibility (1/GPa) = 0.01399682
#
# Stress axis : x y z
#
# Youngs Moduli (GPa) = 39.60290 52.94623 30.56276
#
# Poissons Ratio (x) = 0.27668 0.36535
# Poissons Ratio (y) = 0.20695 0.43553
# Poissons Ratio (z) = 0.47342 0.75450
#
# Static dielectric constant tensor:
#      x y z
#    x 3.427570 0.000000 0.000000 
#    y 0.000000 3.778670 0.000000 
#    z 0.000000 0.000000 3.385860 
# 
# 
# High freq. dielectric constant tensor:
#      x y z
#    x 1.740330 0.000000 0.000000 
#    y 0.000000 1.763780 0.000000 
#    z 0.000000 0.000000 1.724130 
# 
# From -- ./inp_files/23001.got.cif
#   From: 2010.03.12/outbox.cif.g09.slc.cpg/sg44_12_cif.got.tgz:23001.got - 2010.04.14 02:36:11.
