data_PCOD8189543
_publ_section_title
;
Structure prediction by ZEFSAII (Michael W. Deem and Ramdas Pophale) SiO2 
 PCOD8189543
Probable space group: I M M 2
;
_chemical_formula_sum "Si O2"
_cell_formula_units_Z 40
_cell_length_a 9.076551
_cell_length_b 7.660356
_cell_length_c 29.264775
_cell_angle_alpha 90.000000
_cell_angle_beta 90.000000
_cell_angle_gamma 90.000000
_cell_volume 2034.768448
_symmetry_space_group_name_H-M "I M M 2"
_symmetry_group_IT_number 44
_symmetry_cell_setting 'orthorhombic'
loop_
_space_group_symop_operation_xyz
x,y,z
-x,-y,z
-x,y,z
x,-y,z
1/2+x,1/2+y,1/2+z
1/2-x,1/2-y,1/2+z
1/2-x,1/2+y,1/2+z
1/2+x,1/2-y,1/2+z
loop_
_atom_site_type_symbol
_atom_site_label
_atom_site_fract_x
_atom_site_fract_y
_atom_site_fract_z
Si Si1 0.824003 0.500000 0.070500
Si Si2 0.331632 0.307609 0.404406
Si Si3 0.672494 0.203990 0.127607
Si Si4 0.337005 0.293597 0.717317
Si Si5 0.173802 0.197337 0.317364
Si Si6 0.175001 0.500000 0.966956
O O1 0.761185 0.322878 0.092313
O O2 0.000000 0.500000 0.074741
O O3 0.766254 0.500000 0.018495
O O4 0.500000 0.257783 0.394260
O O5 0.317733 0.500000 0.426415
O O6 0.248088 0.311924 0.356326
O O7 0.263661 0.170371 0.440458
O O8 0.500000 0.240499 0.122638
O O9 0.721480 0.261900 0.178506
O O10 0.710309 0.000000 0.118540
O O11 0.500000 0.219152 0.704992
O O12 0.348652 0.500000 0.721488
O O13 0.284664 0.224932 0.767156
O O14 0.000000 0.204951 0.323737
O O15 0.232429 0.000000 0.322690
O O16 0.000000 0.500000 0.968504
#
# Coordination Sequence:
#
# PCOD8189543 Si02
#       6
#     4   8   8   8   8   4
#     4  11  23  39  63  89 111 147 199 247 296 347
#     4  10  20  35  56  81 109 143 185 231 280 334
#     4  10  21  38  59  85 119 153 188 237 293 349
#     4   8  15  30  53  80 111 150 194 232 272 330
#     4   9  17  31  53  81 113 150 188 227 273 326
#     4   9  20  39  59  81 109 143 187 241 290 335
#
# _framework density 19.658256999999999
#
# number of rings (size 3 to 8) (size 9 to 14) (size 15 to 20)
#    0.000    2.600    1.000    2.100    0.000    3.200 
#    1.800    6.000    0.000    0.000    0.000    0.000 
#    0.000    0.000    0.000    0.000    0.000    0.000 
#
# Total GULP energy -247924.983464 kJ/mol
# GULP energy per Si atom -12396.249173 kJ/mol
# Density = 1.961351 g / cm^3
# Si number density = 19.658257 Si / 1000 Ang^3
#
#
#
# Elastic Constant Matrix: (Units=GPa)
#
#
# Indices 1 2 3 4 5 6 
#
# 1 68.8434 37.2267 54.3661 0.0000 0.0000 0.0000
# 2 37.2267 101.4349 65.5597 0.0000 0.0000 0.0000
# 3 54.3661 65.5597 167.5340 0.0000 0.0000 0.0000
# 4 0.0000 0.0000 0.0000 14.2539 0.0000 0.0000
# 5 0.0000 0.0000 0.0000 0.0000 27.5404 0.0000
# 6 0.0000 0.0000 0.0000 0.0000 0.0000 22.9876
#
#
#
# Elastic Compliance Matrix: (Units=1/GPa)
#
#
# Indices 1 2 3 4 5 6 
#
# 1 0.020902 -0.004400 -0.005061 0.000000 0.000000 0.000000
# 2 -0.004400 0.014122 -0.004099 0.000000 0.000000 0.000000
# 3 -0.005061 -0.004099 0.009215 0.000000 0.000000 0.000000
# 4 0.000000 0.000000 0.000000 0.070156 0.000000 0.000000
# 5 0.000000 0.000000 0.000000 0.000000 0.036310 0.000000
# 6 0.000000 0.000000 0.000000 0.000000 0.000000 0.043502
#
#
# Mechanical properties :
#
#
# Convention : Reuss Voigt Hill
#
# Bulk Modulus (GPa) = 58.41055 72.45746 65.43401
# Shear Modulus (GPa) = 22.02323 25.00036 23.51180
#
# Velocity S-wave (km/s) = 3.35073 3.57003 3.46211
# Velocity P-wave (km/s) = 6.68934 7.34384 7.02422
#
# Compressibility (1/GPa) = 0.01712020
#
# Stress axis : x y z
#
# Youngs Moduli (GPa) = 47.84318 70.81000 108.51743
#
# Poissons Ratio (x) = 0.31156 0.54920
# Poissons Ratio (y) = 0.21051 0.44477
# Poissons Ratio (z) = 0.24213 0.29022
#
# Static dielectric constant tensor:
#      x y z
#    x 3.377290 0.000000 0.000000 
#    y 0.000000 3.515580 0.000000 
#    z 0.000000 0.000000 3.750010 
# 
# 
# High freq. dielectric constant tensor:
#      x y z
#    x 1.746180 0.000000 0.000000 
#    y 0.000000 1.762390 0.000000 
#    z 0.000000 0.000000 1.764870 
# 
# From -- ./inp_files/25937.got.cif
#   From: 2010.03.12/outbox.cif.g09.slc.cpg/sg44_13_cif.got.tgz:25937.got - 2010.04.14 02:36:11.
