data_PCOD8189497
_publ_section_title
;
Structure prediction by ZEFSAII (Michael W. Deem and Ramdas Pophale) SiO2 
 PCOD8189497
Probable space group: I M M 2
;
_chemical_formula_sum "Si O2"
_cell_formula_units_Z 64
_cell_length_a 9.025364
_cell_length_b 19.127829
_cell_length_c 20.415596
_cell_angle_alpha 90.000000
_cell_angle_beta 90.000000
_cell_angle_gamma 90.000000
_cell_volume 3524.459058
_symmetry_space_group_name_H-M "I M M 2"
_symmetry_group_IT_number 44
_symmetry_cell_setting 'orthorhombic'
loop_
_space_group_symop_operation_xyz
x,y,z
-x,-y,z
-x,y,z
x,-y,z
1/2+x,1/2+y,1/2+z
1/2-x,1/2-y,1/2+z
1/2-x,1/2+y,1/2+z
1/2+x,1/2-y,1/2+z
loop_
_atom_site_type_symbol
_atom_site_label
_atom_site_fract_x
_atom_site_fract_y
_atom_site_fract_z
Si Si1 0.329102 0.081893 0.971810
Si Si2 0.673010 0.672273 0.217345
Si Si3 0.674083 0.833112 0.218128
Si Si4 0.828398 0.080829 0.838683
Si Si5 0.329102 0.581893 0.830961
Si Si6 0.826990 0.672273 0.085425
Si Si7 0.674083 0.333112 0.584643
Si Si8 0.328398 0.919171 0.464088
O O1 0.500000 0.104054 0.976420
O O2 0.267758 0.103492 0.900950
O O3 0.307034 0.000000 0.983916
O O4 0.235053 0.121826 0.025500
O O5 0.500000 0.661811 0.207052
O O6 0.714321 0.752522 0.231783
O O7 0.730461 0.626137 0.277836
O O8 0.750000 0.645225 0.151385
O O9 0.500000 0.845211 0.211557
O O10 0.735052 0.878174 0.277271
O O11 0.750000 0.859155 0.151385
O O12 0.000000 0.096907 0.854169
O O13 0.804118 0.000000 0.820957
O O14 0.500000 0.604055 0.826351
O O15 0.307034 0.500000 0.818854
O O16 0.267758 0.603492 0.901821
O O17 0.785679 0.752522 0.070987
O O18 0.000000 0.661811 0.095719
O O19 0.769539 0.626137 0.024935
O O20 0.500000 0.345211 0.591213
O O21 0.500000 0.903093 0.448601
O O22 0.304118 0.000000 0.481814
#
# Coordination Sequence:
#
# PCOD8189497 Si02
#       8
#     8   8   8   8   8   8   8   8
#     4  10  21  36  53  75 102 131 167 210 253 299
#     4   9  19  34  52  76 104 134 169 208 249 295
#     4  10  20  35  54  75 102 134 168 207 250 298
#     4   9  18  34  54  75 102 136 171 206 247 296
#     4  10  21  36  53  75 102 131 167 210 253 299
#     4   9  19  34  52  76 104 134 169 208 249 295
#     4  10  20  35  54  75 102 134 168 207 250 298
#     4   9  18  34  54  75 102 136 171 206 247 296
#
# _framework density 18.158816000000002
#
# number of rings (size 3 to 8) (size 9 to 14) (size 15 to 20)
#    0.000    2.500    0.000    1.500    0.000    5.500 
#    0.000    5.000    0.000    0.000    0.000    0.000 
#    0.000    0.000    0.000    0.000    0.000    0.000 
#
# Total GULP energy -396922.204860 kJ/mol
# GULP energy per Si atom -12403.818902 kJ/mol
# Density = 1.811749 g / cm^3
# Si number density = 18.158816 Si / 1000 Ang^3
#
#
#
# Elastic Constant Matrix: (Units=GPa)
#
#
# Indices 1 2 3 4 5 6 
#
# 1 80.5368 39.8598 66.2079 0.0000 0.0000 0.0000
# 2 39.8598 60.8135 74.4658 0.0000 0.0000 0.0000
# 3 66.2079 74.4658 163.7078 0.0000 0.0000 0.0000
# 4 0.0000 0.0000 0.0000 40.0894 0.0000 0.0000
# 5 0.0000 0.0000 0.0000 0.0000 40.2414 0.0000
# 6 0.0000 0.0000 0.0000 0.0000 0.0000 23.1542
#
#
#
# Elastic Compliance Matrix: (Units=1/GPa)
#
#
# Indices 1 2 3 4 5 6 
#
# 1 0.019906 -0.007199 -0.004776 0.000000 0.000000 0.000000
# 2 -0.007199 0.039722 -0.015157 0.000000 0.000000 0.000000
# 3 -0.004776 -0.015157 0.014934 0.000000 0.000000 0.000000
# 4 0.000000 0.000000 0.000000 0.024944 0.000000 0.000000
# 5 0.000000 0.000000 0.000000 0.000000 0.024850 0.000000
# 6 0.000000 0.000000 0.000000 0.000000 0.000000 0.043189
#
#
# Mechanical properties :
#
#
# Convention : Reuss Voigt Hill
#
# Bulk Modulus (GPa) = 49.26498 74.01392 61.63945
# Shear Modulus (GPa) = 21.87473 28.99862 25.43668
#
# Velocity S-wave (km/s) = 3.47455 4.00051 3.74677
# Velocity P-wave (km/s) = 6.57918 7.88584 7.26196
#
# Compressibility (1/GPa) = 0.02029840
#
# Stress axis : x y z
#
# Youngs Moduli (GPa) = 50.23646 25.17514 66.96049
#
# Poissons Ratio (x) = 0.18124 0.31978
# Poissons Ratio (y) = 0.36167 1.01490
# Poissons Ratio (z) = 0.23991 0.38157
#
# Static dielectric constant tensor:
#      x y z
#    x 3.390980 0.000000 0.000000 
#    y 0.000000 3.346730 0.000000 
#    z 0.000000 0.000000 3.499370 
# 
# 
# High freq. dielectric constant tensor:
#      x y z
#    x 1.708040 0.000000 0.000000 
#    y 0.000000 1.697410 0.000000 
#    z 0.000000 0.000000 1.712900 
# 
# From -- ./inp_files/20783.got.cif
#   From: 2010.03.12/outbox.cif.g09.slc.cpg/sg44_11_cif.got.tgz:20783.got - 2010.04.14 02:36:11.
