data_PCOD8189964
_publ_section_title
;
Structure prediction by ZEFSAII (Michael W. Deem and Ramdas Pophale) SiO2 
 PCOD8189964
Probable space group: I M M 2
;
_chemical_formula_sum "Si O2"
_cell_formula_units_Z 64
_cell_length_a 22.667026
_cell_length_b 8.938167
_cell_length_c 15.480767
_cell_angle_alpha 90.000000
_cell_angle_beta 90.000000
_cell_angle_gamma 90.000000
_cell_volume 3136.429151
_symmetry_space_group_name_H-M "I M M 2"
_symmetry_group_IT_number 44
_symmetry_cell_setting 'orthorhombic'
loop_
_space_group_symop_operation_xyz
x,y,z
-x,-y,z
-x,y,z
x,-y,z
1/2+x,1/2+y,1/2+z
1/2-x,1/2-y,1/2+z
1/2-x,1/2+y,1/2+z
1/2+x,1/2-y,1/2+z
loop_
_atom_site_type_symbol
_atom_site_label
_atom_site_fract_x
_atom_site_fract_y
_atom_site_fract_z
Si Si1 0.315977 0.321978 0.355380
Si Si2 0.064508 0.676828 0.442726
Si Si3 0.067495 0.826504 0.088282
Si Si4 0.736963 0.675454 0.178818
Si Si5 0.069292 0.664212 0.257521
Si Si6 0.874937 0.671935 0.611776
Si Si7 0.932937 0.672162 0.788829
Si Si8 0.821914 0.676660 0.029957
O O1 0.316367 0.500000 0.362979
O O2 0.270861 0.267033 0.278447
O O3 0.383377 0.269520 0.337457
O O4 0.292244 0.251489 0.445158
O O5 0.058475 0.500000 0.453705
O O6 0.096173 0.713046 0.350445
O O7 0.101598 0.739453 0.522128
O O8 0.000000 0.752134 0.446495
O O9 0.083825 0.789309 0.187374
O O10 0.109771 0.728531 0.028025
O O11 0.000000 0.781370 0.067800
O O12 0.078960 0.000000 0.071382
O O13 0.741621 0.500000 0.182597
O O14 0.679429 0.721787 0.128208
O O15 0.792220 0.734298 0.120594
O O16 0.094554 0.500000 0.228586
O O17 0.000000 0.646566 0.272361
O O18 0.853756 0.500000 0.604374
O O19 0.924457 0.687599 0.685691
O O20 0.924463 0.500000 0.817353
O O21 0.000000 0.726215 0.811081
O O22 0.817059 0.500000 0.020226
#
# Coordination Sequence:
#
# PCOD8189964 Si02
#       8
#     8   8   8   8   8   8   8   8
#     4  10  21  39  61  84 113 147 185 233 283 331
#     4   8  13  23  43  73 107 143 186 232 274 320
#     4  10  21  37  57  83 114 144 178 226 282 335
#     4   9  21  41  59  78 110 147 182 229 283 330
#     4   8  14  27  47  70 102 144 183 220 265 320
#     4   9  16  28  50  78 107 144 189 235 276 321
#     4   9  17  30  51  81 116 152 189 228 274 330
#     4  11  23  41  64  86 110 146 189 230 275 333
#
# _framework density 20.405370000000001
#
# number of rings (size 3 to 8) (size 9 to 14) (size 15 to 20)
#    0.000    2.750    0.000    2.250    0.000    4.500 
#    2.250    0.625    0.000    1.875    0.000    0.000 
#    0.000    0.000    0.000    0.000    0.000    0.000 
#
# Total GULP energy -396474.030730 kJ/mol
# GULP energy per Si atom -12389.813460 kJ/mol
# Density = 2.035893 g / cm^3
# Si number density = 20.405370 Si / 1000 Ang^3
#
#
#
# Elastic Constant Matrix: (Units=GPa)
#
#
# Indices 1 2 3 4 5 6 
#
# 1 73.7887 21.8339 41.4111 0.0000 0.0000 0.0000
# 2 21.8339 29.5069 38.8877 0.0000 0.0000 0.0000
# 3 41.4111 38.8877 123.1431 0.0000 0.0000 0.0000
# 4 0.0000 0.0000 0.0000 27.5137 0.0000 0.0000
# 5 0.0000 0.0000 0.0000 0.0000 23.0734 0.0000
# 6 0.0000 0.0000 0.0000 0.0000 0.0000 20.2676
#
#
#
# Elastic Compliance Matrix: (Units=1/GPa)
#
#
# Indices 1 2 3 4 5 6 
#
# 1 0.018047 -0.009174 -0.003172 0.000000 0.000000 0.000000
# 2 -0.009174 0.062713 -0.016719 0.000000 0.000000 0.000000
# 3 -0.003172 -0.016719 0.014467 0.000000 0.000000 0.000000
# 4 0.000000 0.000000 0.000000 0.036346 0.000000 0.000000
# 5 0.000000 0.000000 0.000000 0.000000 0.043340 0.000000
# 6 0.000000 0.000000 0.000000 0.000000 0.000000 0.049340
#
#
# Mechanical properties :
#
#
# Convention : Reuss Voigt Hill
#
# Bulk Modulus (GPa) = 26.95607 47.85600 37.40604
# Shear Modulus (GPa) = 16.96363 22.45800 19.71081
#
# Velocity S-wave (km/s) = 2.88641 3.32112 3.11136
# Velocity P-wave (km/s) = 4.93431 6.18142 5.59274
#
# Compressibility (1/GPa) = 0.03709739
#
# Stress axis : x y z
#
# Youngs Moduli (GPa) = 55.41160 15.94558 69.12196
#
# Poissons Ratio (x) = 0.14628 0.21925
# Poissons Ratio (y) = 0.50832 1.15568
# Poissons Ratio (z) = 0.17576 0.26660
#
# Static dielectric constant tensor:
#      x y z
#    x 3.628270 0.000000 0.000000 
#    y 0.000000 3.391500 0.000000 
#    z 0.000000 0.000000 4.138950 
# 
# 
# High freq. dielectric constant tensor:
#      x y z
#    x 1.775110 0.000000 0.000000 
#    y 0.000000 1.768960 0.000000 
#    z 0.000000 0.000000 1.812890 
# 
# From -- ./inp_files/19455.got.cif
#   From: 2010.03.12/outbox.cif.g09.slc.cpg/sg44_10_cif.got.tgz:19455.got - 2010.04.14 02:36:11.
