data_PCOD8189308
_publ_section_title
;
Structure prediction by ZEFSAII (Michael W. Deem and Ramdas Pophale) SiO2 
 PCOD8189308
Probable space group: I M M 2
;
_chemical_formula_sum "Si O2"
_cell_formula_units_Z 40
_cell_length_a 9.465044
_cell_length_b 8.922049
_cell_length_c 25.534685
_cell_angle_alpha 90.000000
_cell_angle_beta 90.000000
_cell_angle_gamma 90.000000
_cell_volume 2156.342517
_symmetry_space_group_name_H-M "I M M 2"
_symmetry_group_IT_number 44
_symmetry_cell_setting 'orthorhombic'
loop_
_space_group_symop_operation_xyz
x,y,z
-x,-y,z
-x,y,z
x,-y,z
1/2+x,1/2+y,1/2+z
1/2-x,1/2-y,1/2+z
1/2-x,1/2+y,1/2+z
1/2+x,1/2-y,1/2+z
loop_
_atom_site_type_symbol
_atom_site_label
_atom_site_fract_x
_atom_site_fract_y
_atom_site_fract_z
Si Si1 0.343518 0.322027 0.838890
Si Si2 0.162254 0.173276 0.044190
Si Si3 0.166451 0.829244 0.455780
Si Si4 0.838996 0.678023 0.742889
Si Si5 0.837377 0.675961 0.151517
O O1 0.500000 0.257178 0.826517
O O2 0.350837 0.500000 0.837086
O O3 0.294767 0.274011 0.897062
O O4 0.234264 0.259999 0.795863
O O5 0.209893 0.268925 0.094347
O O6 0.000000 0.206201 0.030095
O O7 0.187925 0.000000 0.057252
O O8 0.255534 0.219149 0.994997
O O9 0.000000 0.817503 0.465004
O O10 0.217663 0.000000 0.464755
O O11 0.829505 0.500000 0.740127
O O12 0.760514 0.743772 0.693187
O O13 0.000000 0.734015 0.743019
O O14 0.813400 0.500000 0.154974
O O15 0.000000 0.720564 0.162290
#
# Coordination Sequence:
#
# PCOD8189308 Si02
#       5
#     8   8   8   8   8
#     4   8  15  30  52  76 103 137 175 211 248 296
#     4  10  21  36  54  77 104 135 172 213 258 307
#     4   9  18  33  54  80 107 136 172 212 254 301
#     4  10  20  33  52  80 109 136 169 210 257 306
#     4  10  21  37  56  76  99 133 176 216 257 307
#
# _framework density 18.549927
#
# number of rings (size 3 to 8) (size 9 to 14) (size 15 to 20)
#    0.000    2.600    0.000    3.000    0.000    5.600 
#    0.000    3.000    0.000    1.200    0.000    0.000 
#    0.000    0.000    0.000    0.000    0.000    0.000 
#
# Total GULP energy -248010.618376 kJ/mol
# GULP energy per Si atom -12400.530919 kJ/mol
# Density = 1.850771 g / cm^3
# Si number density = 18.549927 Si / 1000 Ang^3
#
#
#
# Elastic Constant Matrix: (Units=GPa)
#
#
# Indices 1 2 3 4 5 6 
#
# 1 95.3331 21.1484 74.4644 0.0000 0.0000 0.0000
# 2 21.1484 17.3465 10.3678 0.0000 0.0000 0.0000
# 3 74.4644 10.3678 128.3497 0.0000 0.0000 0.0000
# 4 0.0000 0.0000 0.0000 30.4882 0.0000 0.0000
# 5 0.0000 0.0000 0.0000 0.0000 36.4839 0.0000
# 6 0.0000 0.0000 0.0000 0.0000 0.0000 26.1589
#
#
#
# Elastic Compliance Matrix: (Units=1/GPa)
#
#
# Indices 1 2 3 4 5 6 
#
# 1 0.026138 -0.023960 -0.013229 0.000000 0.000000 0.000000
# 2 -0.023960 0.082536 0.007233 0.000000 0.000000 0.000000
# 3 -0.013229 0.007233 0.014882 0.000000 0.000000 0.000000
# 4 0.000000 0.000000 0.000000 0.032800 0.000000 0.000000
# 5 0.000000 0.000000 0.000000 0.000000 0.027409 0.000000
# 6 0.000000 0.000000 0.000000 0.000000 0.000000 0.038228
#
#
# Mechanical properties :
#
#
# Convention : Reuss Voigt Hill
#
# Bulk Modulus (GPa) = 15.71196 50.33228 33.02212
# Shear Modulus (GPa) = 16.49524 27.62944 22.06234
#
# Velocity S-wave (km/s) = 2.98524 3.86354 3.45244
# Velocity P-wave (km/s) = 4.51339 6.86258 5.80800
#
# Compressibility (1/GPa) = 0.06364579
#
# Stress axis : x y z
#
# Youngs Moduli (GPa) = 38.25897 12.11590 67.19594
#
# Poissons Ratio (x) = 0.29029 0.88892
# Poissons Ratio (y) = 0.91667 -0.48606
# Poissons Ratio (z) = 0.50612 -0.08764
#
# Static dielectric constant tensor:
#      x y z
#    x 3.483850 0.000000 0.000000 
#    y 0.000000 3.179960 0.000000 
#    z 0.000000 0.000000 3.570430 
# 
# 
# High freq. dielectric constant tensor:
#      x y z
#    x 1.716630 0.000000 0.000000 
#    y 0.000000 1.697580 0.000000 
#    z 0.000000 0.000000 1.732650 
# 
# From -- ./inp_files/22747.got.cif
#   From: 2010.03.12/outbox.cif.g09.slc.cpg/sg44_12_cif.got.tgz:22747.got - 2010.04.14 02:36:11.
