data_PCOD8189898
_publ_section_title
;
Structure prediction by ZEFSAII (Michael W. Deem and Ramdas Pophale) SiO2 
 PCOD8189898
Probable space group: I M M 2
;
_chemical_formula_sum "Si O2"
_cell_formula_units_Z 48
_cell_length_a 9.227385
_cell_length_b 30.043439
_cell_length_c 9.090061
_cell_angle_alpha 90.000000
_cell_angle_beta 90.000000
_cell_angle_gamma 90.000000
_cell_volume 2519.968330
_symmetry_space_group_name_H-M "I M M 2"
_symmetry_group_IT_number 44
_symmetry_cell_setting 'orthorhombic'
loop_
_space_group_symop_operation_xyz
x,y,z
-x,-y,z
-x,y,z
x,-y,z
1/2+x,1/2+y,1/2+z
1/2-x,1/2-y,1/2+z
1/2-x,1/2+y,1/2+z
1/2+x,1/2-y,1/2+z
loop_
_atom_site_type_symbol
_atom_site_label
_atom_site_fract_x
_atom_site_fract_y
_atom_site_fract_z
Si Si1 0.667964 0.291911 0.628760
Si Si2 0.331163 0.378243 0.816269
Si Si3 0.329995 0.792662 0.824823
Si Si4 0.666047 0.550243 0.345872
Si Si5 0.831506 0.448333 0.636844
Si Si6 0.667346 0.632115 0.150069
O O1 0.500000 0.290881 0.582954
O O2 0.707507 0.337438 0.710698
O O3 0.708007 0.251714 0.736151
O O4 0.764646 0.287537 0.485637
O O5 0.500000 0.390519 0.810888
O O6 0.240777 0.421188 0.768674
O O7 0.284459 0.365414 0.981053
O O8 0.500000 0.799954 0.840602
O O9 0.264354 0.834753 0.742932
O O10 0.500000 0.553289 0.398574
O O11 0.706537 0.500000 0.297394
O O12 0.762864 0.566429 0.481966
O O13 0.694826 0.582023 0.207398
O O14 0.801201 0.500000 0.667821
O O15 0.000000 0.437112 0.630269
O O16 0.500000 0.646047 0.169392
#
# Coordination Sequence:
#
# PCOD8189898 Si02
#       6
#     8   8   8   8   8   8
#     4  10  22  39  57  80 111 144 180 224 271 319
#     4  10  21  37  57  80 108 145 186 225 267 319
#     4  11  23  38  59  85 111 143 182 222 270 326
#     4   9  18  34  56  80 106 141 185 227 269 322
#     4  10  21  36  54  79 111 144 179 224 277 327
#     4  10  21  37  57  82 113 145 180 226 274 320
#
# _framework density 19.047858000000002
#
# number of rings (size 3 to 8) (size 9 to 14) (size 15 to 20)
#    0.000    2.000    0.000    3.000    0.000   10.333 
#    0.000    1.667    0.000    2.000    0.000    0.000 
#    0.000    0.000    0.000    0.000    0.000    0.000 
#
# Total GULP energy -297724.923111 kJ/mol
# GULP energy per Si atom -12405.205130 kJ/mol
# Density = 1.900450 g / cm^3
# Si number density = 19.047858 Si / 1000 Ang^3
#
#
#
# Elastic Constant Matrix: (Units=GPa)
#
#
# Indices 1 2 3 4 5 6 
#
# 1 89.7247 58.6717 78.9131 0.0018 0.0020 0.0001
# 2 58.6717 97.5438 62.2289 0.0045 0.0011 -0.0007
# 3 78.9131 62.2289 150.3130 -0.0254 -0.0112 0.0032
# 4 0.0018 0.0045 -0.0254 32.9370 -0.0031 0.0007
# 5 0.0020 0.0011 -0.0112 -0.0031 28.5523 0.0002
# 6 0.0001 -0.0007 0.0032 0.0007 0.0002 31.3707
#
#
#
# Elastic Compliance Matrix: (Units=1/GPa)
#
#
# Indices 1 2 3 4 5 6 
#
# 1 0.025722 -0.009318 -0.009646 -0.000008 -0.000005 0.000001
# 2 -0.009318 0.017306 -0.002273 -0.000004 -0.000001 0.000001
# 3 -0.009646 -0.002273 0.012658 0.000011 0.000006 -0.000001
# 4 -0.000008 -0.000004 0.000011 0.030361 0.000003 -0.000001
# 5 -0.000005 -0.000001 0.000006 0.000003 0.035023 0.000000
# 6 0.000001 0.000001 -0.000001 -0.000001 0.000000 0.031877
#
#
# Mechanical properties :
#
#
# Convention : Reuss Voigt Hill
#
# Bulk Modulus (GPa) = 75.68676 81.91212 78.79944
# Shear Modulus (GPa) = 25.02170 27.75652 26.38911
#
# Velocity S-wave (km/s) = 3.62833 3.82147 3.72615
# Velocity P-wave (km/s) = 7.57458 7.91001 7.74411
#
# Compressibility (1/GPa) = 0.01321235
#
# Stress axis : x y z
#
# Youngs Moduli (GPa) = 38.87699 57.78212 79.00027
#
# Poissons Ratio (x) = 0.53839 0.76208
# Poissons Ratio (y) = 0.36224 0.17958
# Poissons Ratio (z) = 0.37503 0.13135
#
# Static dielectric constant tensor:
#      x y z
#    x 3.519200 0.000000 0.000000 
#    y 0.000000 3.634870 0.000000 
#    z 0.000000 0.000000 3.506460 
# 
# 
# High freq. dielectric constant tensor:
#      x y z
#    x 1.738380 0.000000 0.000000 
#    y 0.000000 1.753110 0.000000 
#    z 0.000000 0.000000 1.744360 
# 
# From -- ./inp_files/4871.got.cif
#   From: 2010.03.12/outbox.cif.g09.slc.cpg/sg44_3_cif.got.tgz:4871.got - 2010.04.14 02:36:11.
