data_PCOD8189391
_publ_section_title
;
Structure prediction by ZEFSAII (Michael W. Deem and Ramdas Pophale) SiO2 
 PCOD8189391
Probable space group: I M M 2
;
_chemical_formula_sum "Si O2"
_cell_formula_units_Z 48
_cell_length_a 9.477478
_cell_length_b 9.024280
_cell_length_c 31.022634
_cell_angle_alpha 90.000000
_cell_angle_beta 90.000000
_cell_angle_gamma 90.000000
_cell_volume 2653.285698
_symmetry_space_group_name_H-M "I M M 2"
_symmetry_group_IT_number 44
_symmetry_cell_setting 'orthorhombic'
loop_
_space_group_symop_operation_xyz
x,y,z
-x,-y,z
-x,y,z
x,-y,z
1/2+x,1/2+y,1/2+z
1/2-x,1/2-y,1/2+z
1/2-x,1/2+y,1/2+z
1/2+x,1/2-y,1/2+z
loop_
_atom_site_type_symbol
_atom_site_label
_atom_site_fract_x
_atom_site_fract_y
_atom_site_fract_z
Si Si1 0.656413 0.823358 0.293540
Si Si2 0.836271 0.826498 0.614907
Si Si3 0.663135 0.674857 0.539968
Si Si4 0.832549 0.664496 0.699755
Si Si5 0.155369 0.175515 0.369862
Si Si6 0.335080 0.327685 0.966537
O O1 0.500000 0.756613 0.298570
O O2 0.722821 0.779933 0.246717
O O3 0.746841 0.754543 0.332690
O O4 0.651072 0.000000 0.296609
O O5 0.739854 0.744990 0.580719
O O6 0.785216 0.776868 0.662422
O O7 0.000000 0.783377 0.607216
O O8 0.812984 0.000000 0.610235
O O9 0.500000 0.724555 0.539467
O O10 0.678101 0.500000 0.543187
O O11 0.738009 0.728795 0.496679
O O12 0.773311 0.500000 0.689038
O O13 0.000000 0.656324 0.703409
O O14 0.210581 0.213626 0.417770
O O15 0.000000 0.243426 0.363573
O O16 0.148223 0.000000 0.364928
O O17 0.500000 0.291824 0.974245
O O18 0.306915 0.500000 0.976516
#
# Coordination Sequence:
#
# PCOD8189391 Si02
#       6
#     8   8   8   8   8   8
#     4   8  13  22  39  64  92 124 163 200 233 274
#     4  10  20  34  54  77  98 125 164 204 242 290
#     4  11  24  38  51  71  99 128 160 200 247 298
#     4   8  14  26  45  69  97 128 162 200 238 277
#     4   8  14  25  42  67  98 126 154 194 239 279
#     4   9  18  33  53  76 100 128 165 204 241 287
#
# _framework density 18.090776999999999
#
# number of rings (size 3 to 8) (size 9 to 14) (size 15 to 20)
#    0.000    3.000    0.000    3.500    0.000    5.333 
#    0.000    2.500    0.000    4.000    0.000    2.333 
#    0.000    0.000    0.000    0.000    0.000    0.000 
#
# Total GULP energy -297460.721478 kJ/mol
# GULP energy per Si atom -12394.196728 kJ/mol
# Density = 1.804960 g / cm^3
# Si number density = 18.090777 Si / 1000 Ang^3
#
#
#
# Elastic Constant Matrix: (Units=GPa)
#
#
# Indices 1 2 3 4 5 6 
#
# 1 86.8536 39.2767 78.3179 0.0000 0.0000 0.0000
# 2 39.2767 50.4190 45.9217 0.0000 0.0000 0.0000
# 3 78.3179 45.9217 172.5022 0.0000 0.0000 0.0000
# 4 0.0000 0.0000 0.0000 25.2531 0.0000 0.0000
# 5 0.0000 0.0000 0.0000 0.0000 31.9277 0.0000
# 6 0.0000 0.0000 0.0000 0.0000 0.0000 19.0890
#
#
#
# Elastic Compliance Matrix: (Units=1/GPa)
#
#
# Indices 1 2 3 4 5 6 
#
# 1 0.023582 -0.011378 -0.007678 0.000000 0.000000 0.000000
# 2 -0.011378 0.031671 -0.003266 0.000000 0.000000 0.000000
# 3 -0.007678 -0.003266 0.010152 0.000000 0.000000 0.000000
# 4 0.000000 0.000000 0.000000 0.039599 0.000000 0.000000
# 5 0.000000 0.000000 0.000000 0.000000 0.031321 0.000000
# 6 0.000000 0.000000 0.000000 0.000000 0.000000 0.052386
#
#
# Mechanical properties :
#
#
# Convention : Reuss Voigt Hill
#
# Bulk Modulus (GPa) = 48.16126 70.75637 59.45881
# Shear Modulus (GPa) = 20.80957 25.00453 22.90705
#
# Velocity S-wave (km/s) = 3.39527 3.72179 3.56227
# Velocity P-wave (km/s) = 6.48461 7.59379 7.06102
#
# Compressibility (1/GPa) = 0.02076358
#
# Stress axis : x y z
#
# Youngs Moduli (GPa) = 42.40560 31.57426 98.50207
#
# Poissons Ratio (x) = 0.35924 0.75626
# Poissons Ratio (y) = 0.48247 0.32167
# Poissons Ratio (z) = 0.32557 0.10311
#
# Static dielectric constant tensor:
#      x y z
#    x 3.366630 0.000000 0.000000 
#    y 0.000000 2.996060 0.000000 
#    z 0.000000 0.000000 3.740010 
# 
# 
# High freq. dielectric constant tensor:
#      x y z
#    x 1.677550 0.000000 0.000000 
#    y 0.000000 1.662080 0.000000 
#    z 0.000000 0.000000 1.722170 
# 
# From -- ./inp_files/26868.got.cif
#   From: 2010.03.12/outbox.cif.g09.slc.cpg/sg44_14_cif.got.tgz:26868.got - 2010.04.14 02:36:11.
