data_PCOD8189174
_publ_section_title
;
Structure prediction by ZEFSAII (Michael W. Deem and Ramdas Pophale) SiO2 
 PCOD8189174
Probable space group: I M M 2
;
_chemical_formula_sum "Si O2"
_cell_formula_units_Z 56
_cell_length_a 8.805558
_cell_length_b 16.247780
_cell_length_c 22.762145
_cell_angle_alpha 90.000000
_cell_angle_beta 90.000000
_cell_angle_gamma 90.000000
_cell_volume 3256.597593
_symmetry_space_group_name_H-M "I M M 2"
_symmetry_group_IT_number 44
_symmetry_cell_setting 'orthorhombic'
loop_
_space_group_symop_operation_xyz
x,y,z
-x,-y,z
-x,y,z
x,-y,z
1/2+x,1/2+y,1/2+z
1/2-x,1/2-y,1/2+z
1/2-x,1/2+y,1/2+z
1/2+x,1/2-y,1/2+z
loop_
_atom_site_type_symbol
_atom_site_label
_atom_site_fract_x
_atom_site_fract_y
_atom_site_fract_z
Si Si1 0.326551 0.404819 0.135990
Si Si2 0.675942 0.000000 0.441378
Si Si3 0.825202 0.145275 0.506436
Si Si4 0.822802 0.758483 0.920976
Si Si5 0.823782 0.406089 0.363049
Si Si6 0.675558 0.180440 0.743669
Si Si7 0.322266 0.830911 0.300298
Si Si8 0.178181 0.000000 0.316705
O O1 0.500000 0.398808 0.157560
O O2 0.280870 0.500000 0.125581
O O3 0.303111 0.353448 0.076274
O O4 0.218943 0.363874 0.183645
O O5 0.710735 0.079259 0.479760
O O6 0.500000 0.000000 0.422022
O O7 0.780643 0.000000 0.384763
O O8 0.774906 0.231824 0.477906
O O9 0.000000 0.124314 0.490850
O O10 0.777507 0.851956 0.906787
O O11 0.779273 0.699827 0.865906
O O12 0.000000 0.753941 0.935505
O O13 0.776556 0.500000 0.373093
O O14 0.786943 0.382902 0.295907
O O15 0.000000 0.390650 0.377123
O O16 0.500000 0.204025 0.742164
O O17 0.767528 0.264903 0.752275
O O18 0.500000 0.842470 0.293734
O O19 0.244379 0.918046 0.286456
O O20 0.000000 0.000000 0.308041
#
# Coordination Sequence:
#
# PCOD8189174 Si02
#       8
#     8   4   8   8   8   8   8   4
#     4  10  21  36  52  74 103 138 176 211 254 306
#     4  12  22  32  48  74 108 140 172 211 252 303
#     4  11  21  35  52  73 104 141 176 211 251 306
#     4  10  20  32  49  75 105 134 169 212 258 307
#     4   9  18  33  52  74 102 135 172 210 253 306
#     4  10  20  34  52  76 104 136 173 214 256 302
#     4  10  20  34  51  74 105 138 172 213 256 306
#     4  12  22  32  52  78 106 140 172 209 256 309
#
# _framework density 17.195861000000001
#
# number of rings (size 3 to 8) (size 9 to 14) (size 15 to 20)
#    0.000    1.714    2.143    3.429    0.000    4.000 
#    0.000    0.000    0.000    0.000    1.857    0.000 
#    0.000    0.000    0.000    0.000    0.000    0.000 
#
# Total GULP energy -347294.373732 kJ/mol
# GULP energy per Si atom -12403.370490 kJ/mol
# Density = 1.715672 g / cm^3
# Si number density = 17.195861 Si / 1000 Ang^3
#
#
#
# Elastic Constant Matrix: (Units=GPa)
#
#
# Indices 1 2 3 4 5 6 
#
# 1 81.3209 48.0412 33.3645 0.0000 0.0000 0.0000
# 2 48.0412 115.5366 39.8463 0.0000 0.0000 0.0000
# 3 33.3645 39.8463 74.4749 0.0000 0.0000 0.0000
# 4 0.0000 0.0000 0.0000 20.4217 0.0000 0.0000
# 5 0.0000 0.0000 0.0000 0.0000 26.9974 0.0000
# 6 0.0000 0.0000 0.0000 0.0000 0.0000 31.4491
#
#
#
# Elastic Compliance Matrix: (Units=1/GPa)
#
#
# Indices 1 2 3 4 5 6 
#
# 1 0.017637 -0.005651 -0.004878 0.000000 0.000000 0.000000
# 2 -0.005651 0.012425 -0.004116 0.000000 0.000000 0.000000
# 3 -0.004878 -0.004116 0.017815 0.000000 0.000000 0.000000
# 4 0.000000 0.000000 0.000000 0.048967 0.000000 0.000000
# 5 0.000000 0.000000 0.000000 0.000000 0.037041 0.000000
# 6 0.000000 0.000000 0.000000 0.000000 0.000000 0.031797
#
#
# Mechanical properties :
#
#
# Convention : Reuss Voigt Hill
#
# Bulk Modulus (GPa) = 53.80237 57.09295 55.44766
# Shear Modulus (GPa) = 24.85507 25.77900 25.31704
#
# Velocity S-wave (km/s) = 3.80598 3.87607 3.84119
# Velocity P-wave (km/s) = 7.11828 7.30107 7.21025
#
# Compressibility (1/GPa) = 0.01858654
#
# Stress axis : x y z
#
# Youngs Moduli (GPa) = 56.69981 80.48553 56.13401
#
# Poissons Ratio (x) = 0.45485 0.27380
# Poissons Ratio (y) = 0.32043 0.23103
# Poissons Ratio (z) = 0.27656 0.33126
#
# Static dielectric constant tensor:
#      x y z
#    x 3.235830 0.000000 0.000000 
#    y 0.000000 3.295290 0.000000 
#    z 0.000000 0.000000 2.978990 
# 
# 
# High freq. dielectric constant tensor:
#      x y z
#    x 1.676090 0.000000 0.000000 
#    y 0.000000 1.661170 0.000000 
#    z 0.000000 0.000000 1.633410 
# 
# From -- ./inp_files/23117.got.cif
#   From: 2010.03.12/outbox.cif.g09.slc.cpg/sg44_12_cif.got.tgz:23117.got - 2010.04.14 02:36:11.
