data_PCOD8189068
_publ_section_title
;
Structure prediction by ZEFSAII (Michael W. Deem and Ramdas Pophale) SiO2 
 PCOD8189068
Probable space group: I M M 2
;
_chemical_formula_sum "Si O2"
_cell_formula_units_Z 40
_cell_length_a 8.994738
_cell_length_b 11.599049
_cell_length_c 19.947085
_cell_angle_alpha 90.000000
_cell_angle_beta 90.000000
_cell_angle_gamma 90.000000
_cell_volume 2081.087493
_symmetry_space_group_name_H-M "I M M 2"
_symmetry_group_IT_number 44
_symmetry_cell_setting 'orthorhombic'
loop_
_space_group_symop_operation_xyz
x,y,z
-x,-y,z
-x,y,z
x,-y,z
1/2+x,1/2+y,1/2+z
1/2-x,1/2-y,1/2+z
1/2-x,1/2+y,1/2+z
1/2+x,1/2-y,1/2+z
loop_
_atom_site_type_symbol
_atom_site_label
_atom_site_fract_x
_atom_site_fract_y
_atom_site_fract_z
Si Si1 0.675703 0.734516 0.368290
Si Si2 0.177079 0.500000 0.349744
Si Si3 0.330101 0.703192 0.128166
Si Si4 0.673705 0.000000 0.699317
Si Si5 0.326382 0.126940 0.240180
Si Si6 0.330388 0.366135 0.982497
O O1 0.500000 0.713560 0.367550
O O2 0.758305 0.614603 0.384589
O O3 0.735511 0.787274 0.297700
O O4 0.717023 0.825434 0.425853
O O5 0.240011 0.500000 0.274036
O O6 0.000000 0.500000 0.356554
O O7 0.500000 0.664350 0.141483
O O8 0.221809 0.611505 0.159812
O O9 0.295678 0.823944 0.165473
O O10 0.300346 0.710992 0.048831
O O11 0.500000 0.000000 0.705798
O O12 0.500000 0.113780 0.253389
O O13 0.251288 0.000000 0.245192
O O14 0.500000 0.349113 0.957926
O O15 0.299588 0.500000 0.999544
#
# Coordination Sequence:
#
# PCOD8189068 Si02
#       6
#     8   4   8   4   8   8
#     4  11  22  37  60  85 115 151 193 241 290 344
#     4  11  23  39  59  85 117 148 191 240 297 355
#     4  10  19  36  60  83 113 151 195 234 277 346
#     4  11  21  33  57  89 117 140 181 244 297 337
#     4   9  18  33  56  85 112 144 189 235 279 333
#     4  10  21  37  57  83 117 155 194 237 288 344
#
# _framework density 19.22072
#
# number of rings (size 3 to 8) (size 9 to 14) (size 15 to 20)
#    0.000    1.800    3.000    1.800    0.000    2.800 
#    1.800    0.000    0.000    1.800    0.000    0.000 
#    0.000    0.000    0.000    0.000    0.000    0.000 
#
# Total GULP energy -247997.132337 kJ/mol
# GULP energy per Si atom -12399.856617 kJ/mol
# Density = 1.917697 g / cm^3
# Si number density = 19.220720 Si / 1000 Ang^3
#
#
#
# Elastic Constant Matrix: (Units=GPa)
#
#
# Indices 1 2 3 4 5 6 
#
# 1 52.2513 26.6991 26.5356 0.0000 0.0000 0.0000
# 2 26.6991 119.0590 38.4092 0.0000 0.0000 0.0000
# 3 26.5356 38.4092 103.9763 0.0000 0.0000 0.0000
# 4 0.0000 0.0000 0.0000 33.0239 0.0000 0.0000
# 5 0.0000 0.0000 0.0000 0.0000 28.1552 0.0000
# 6 0.0000 0.0000 0.0000 0.0000 0.0000 18.4763
#
#
#
# Elastic Compliance Matrix: (Units=1/GPa)
#
#
# Indices 1 2 3 4 5 6 
#
# 1 0.023388 -0.003768 -0.004577 0.000000 0.000000 0.000000
# 2 -0.003768 0.010143 -0.002785 0.000000 0.000000 0.000000
# 3 -0.004577 -0.002785 0.011814 0.000000 0.000000 0.000000
# 4 0.000000 0.000000 0.000000 0.030281 0.000000 0.000000
# 5 0.000000 0.000000 0.000000 0.000000 0.035517 0.000000
# 6 0.000000 0.000000 0.000000 0.000000 0.000000 0.054123
#
#
# Mechanical properties :
#
#
# Convention : Reuss Voigt Hill
#
# Bulk Modulus (GPa) = 43.31832 50.95272 47.13552
# Shear Modulus (GPa) = 25.61179 28.17392 26.89286
#
# Velocity S-wave (km/s) = 3.65432 3.83274 3.74459
# Velocity P-wave (km/s) = 6.35544 6.79363 6.57818
#
# Compressibility (1/GPa) = 0.02308492
#
# Stress axis : x y z
#
# Youngs Moduli (GPa) = 42.75672 98.59288 84.64223
#
# Poissons Ratio (x) = 0.37153 0.38739
# Poissons Ratio (y) = 0.16112 0.23573
# Poissons Ratio (z) = 0.19569 0.27459
#
# Static dielectric constant tensor:
#      x y z
#    x 3.243820 0.000000 0.000000 
#    y 0.000000 3.474370 0.000000 
#    z 0.000000 0.000000 3.522690 
# 
# 
# High freq. dielectric constant tensor:
#      x y z
#    x 1.725350 0.000000 0.000000 
#    y 0.000000 1.748390 0.000000 
#    z 0.000000 0.000000 1.746560 
# 
# From -- ./inp_files/20049.got.cif
#   From: 2010.03.12/outbox.cif.g09.slc.cpg/sg44_11_cif.got.tgz:20049.got - 2010.04.14 02:36:11.
