data_PCOD8189923
_publ_section_title
;
Structure prediction by ZEFSAII (Michael W. Deem and Ramdas Pophale) SiO2 
 PCOD8189923
Probable space group: I M M 2
;
_chemical_formula_sum "Si O2"
_cell_formula_units_Z 56
_cell_length_a 12.843897
_cell_length_b 21.257411
_cell_length_c 10.764186
_cell_angle_alpha 90.000000
_cell_angle_beta 90.000000
_cell_angle_gamma 90.000000
_cell_volume 2938.924147
_symmetry_space_group_name_H-M "I M M 2"
_symmetry_group_IT_number 44
_symmetry_cell_setting 'orthorhombic'
loop_
_space_group_symop_operation_xyz
x,y,z
-x,-y,z
-x,y,z
x,-y,z
1/2+x,1/2+y,1/2+z
1/2-x,1/2-y,1/2+z
1/2-x,1/2+y,1/2+z
1/2+x,1/2-y,1/2+z
loop_
_atom_site_type_symbol
_atom_site_label
_atom_site_fract_x
_atom_site_fract_y
_atom_site_fract_z
Si Si1 0.310562 0.072628 0.666160
Si Si2 0.500000 0.926234 0.224441
Si Si3 0.112476 0.222062 0.756289
Si Si4 0.675821 0.156046 0.138665
Si Si5 0.380810 0.317253 0.773037
Si Si6 0.500000 0.925844 0.499588
Si Si7 0.881860 0.128265 0.541930
Si Si8 0.812590 0.682833 0.357480
O O1 0.396800 0.096826 0.569865
O O2 0.198629 0.077450 0.597440
O O3 0.327357 0.116878 0.785798
O O4 0.326355 0.000000 0.707487
O O5 0.391286 0.907035 0.157743
O O6 0.500000 0.896892 0.362604
O O7 0.500000 0.000000 0.225630
O O8 0.123948 0.295770 0.734644
O O9 0.133269 0.191112 0.622181
O O10 0.189899 0.197205 0.860756
O O11 0.000000 0.205348 0.809924
O O12 0.799839 0.153645 0.171405
O O13 0.651746 0.176102 0.998005
O O14 0.500000 0.330423 0.730244
O O15 0.369249 0.241587 0.789485
O O16 0.356150 0.353659 0.900754
O O17 0.500000 0.000000 0.491236
O O18 0.000000 0.101804 0.553648
#
# Coordination Sequence:
#
# PCOD8189923 Si02
#       8
#     8   4   8   8   8   4   8   8
#     4  10  21  37  57  82 113 152 196 240 291 349
#     4  11  24  39  61  87 117 160 200 237 284 347
#     4   9  17  34  53  78 109 150 191 235 292 341
#     4  11  21  36  56  83 120 156 192 237 288 351
#     4  10  21  36  57  86 115 152 195 241 297 351
#     4   9  20  39  55  75 111 148 191 237 272 325
#     4   9  17  33  58  79 107 142 189 247 291 335
#     4  10  22  34  55  85 120 154 189 239 298 350
#
# _framework density 19.054593000000001
#
# number of rings (size 3 to 8) (size 9 to 14) (size 15 to 20)
#    0.000    2.143    2.143    0.857    2.000    1.429 
#    0.000    0.714    0.000    1.286    0.000    2.000 
#    0.000    0.000    0.000    0.000    0.000    0.000 
#
# Total GULP energy -347015.183424 kJ/mol
# GULP energy per Si atom -12393.399408 kJ/mol
# Density = 1.901122 g / cm^3
# Si number density = 19.054593 Si / 1000 Ang^3
#
#
#
# Elastic Constant Matrix: (Units=GPa)
#
#
# Indices 1 2 3 4 5 6 
#
# 1 127.5058 29.1891 31.8410 0.0001 0.0000 0.0000
# 2 29.1891 71.5735 27.4520 0.0001 0.0000 0.0000
# 3 31.8410 27.4520 62.9880 0.0004 0.0000 -0.0001
# 4 0.0001 0.0001 0.0004 19.4034 0.0000 0.0000
# 5 0.0000 0.0000 0.0000 0.0000 25.9479 0.0000
# 6 0.0000 0.0000 -0.0001 0.0000 0.0000 27.5368
#
#
#
# Elastic Compliance Matrix: (Units=1/GPa)
#
#
# Indices 1 2 3 4 5 6 
#
# 1 0.009304 -0.002390 -0.003662 0.000000 0.000000 0.000000
# 2 -0.002390 0.017390 -0.006371 0.000000 0.000000 0.000000
# 3 -0.003662 -0.006371 0.020504 0.000000 0.000000 0.000000
# 4 0.000000 0.000000 0.000000 0.051537 0.000000 0.000000
# 5 0.000000 0.000000 0.000000 0.000000 0.038539 0.000000
# 6 0.000000 0.000000 0.000000 0.000000 0.000000 0.036315
#
#
# Mechanical properties :
#
#
# Convention : Reuss Voigt Hill
#
# Bulk Modulus (GPa) = 44.73746 48.78128 46.75937
# Shear Modulus (GPa) = 24.28538 26.14997 25.21767
#
# Velocity S-wave (km/s) = 3.57391 3.70857 3.64186
# Velocity P-wave (km/s) = 6.36867 6.63283 6.50209
#
# Compressibility (1/GPa) = 0.02235263
#
# Stress axis : x y z
#
# Youngs Moduli (GPa) = 107.47674 57.50468 48.77171
#
# Poissons Ratio (x) = 0.13744 0.17859
# Poissons Ratio (y) = 0.25687 0.31072
# Poissons Ratio (z) = 0.39356 0.36635
#
# Static dielectric constant tensor:
#      x y z
#    x 3.830790 0.000000 0.000000 
#    y 0.000000 3.211940 0.000000 
#    z 0.000000 0.000000 3.355160 
# 
# 
# High freq. dielectric constant tensor:
#      x y z
#    x 1.756500 0.000000 0.000000 
#    y 0.000000 1.718180 0.000000 
#    z 0.000000 0.000000 1.726680 
# 
# From -- ./inp_files/7416.got.cif
#   From: 2010.03.12/outbox.cif.g09.slc.cpg/sg44_4_cif.got.tgz:7416.got - 2010.04.14 02:36:11.
