data_PCOD8189560
_publ_section_title
;
Structure prediction by ZEFSAII (Michael W. Deem and Ramdas Pophale) SiO2 
 PCOD8189560
Probable space group: I M M 2
;
_chemical_formula_sum "Si O2"
_cell_formula_units_Z 32
_cell_length_a 9.038018
_cell_length_b 7.942395
_cell_length_c 23.690598
_cell_angle_alpha 90.000000
_cell_angle_beta 90.000000
_cell_angle_gamma 90.000000
_cell_volume 1700.594254
_symmetry_space_group_name_H-M "I M M 2"
_symmetry_group_IT_number 44
_symmetry_cell_setting 'orthorhombic'
loop_
_space_group_symop_operation_xyz
x,y,z
-x,-y,z
-x,y,z
x,-y,z
1/2+x,1/2+y,1/2+z
1/2-x,1/2-y,1/2+z
1/2-x,1/2+y,1/2+z
1/2+x,1/2-y,1/2+z
loop_
_atom_site_type_symbol
_atom_site_label
_atom_site_fract_x
_atom_site_fract_y
_atom_site_fract_z
Si Si1 0.171488 0.688046 0.829850
Si Si2 0.823679 0.000000 0.628587
Si Si3 0.665130 0.186035 0.539000
Si Si4 0.324482 0.500000 0.256425
Si Si5 0.666942 0.809327 0.935757
O O1 0.194585 0.500000 0.804167
O O2 0.255288 0.694570 0.889229
O O3 0.000000 0.723678 0.842321
O O4 0.234005 0.830118 0.787102
O O5 0.757382 0.167598 0.597815
O O6 0.765143 0.000000 0.692614
O O7 0.000000 0.000000 0.624145
O O8 0.500000 0.257206 0.551177
O O9 0.749535 0.305401 0.495568
O O10 0.654480 0.000000 0.511036
O O11 0.500000 0.500000 0.255489
O O12 0.500000 0.744151 0.944633
O O13 0.670046 0.000000 0.913670
#
# Coordination Sequence:
#
# PCOD8189560 Si02
#       5
#     8   4   8   4   8
#     4  10  20  35  57  83 112 150 190 229 279 340
#     4   9  17  33  57  79 107 149 188 233 284 329
#     4   9  19  34  53  78 104 142 186 224 279 338
#     4   9  18  35  57  83 115 151 192 233 278 333
#     4  11  22  34  51  80 115 149 187 235 290 340
#
# _framework density 18.816951
#
# number of rings (size 3 to 8) (size 9 to 14) (size 15 to 20)
#    0.750    1.500    1.250    2.250    0.000    5.000 
#    0.000    3.750    0.000    4.500    0.000    0.000 
#    0.000    0.000    0.000    0.000    0.000    0.000 
#
# Total GULP energy -198303.387314 kJ/mol
# GULP energy per Si atom -12393.961707 kJ/mol
# Density = 1.877412 g / cm^3
# Si number density = 18.816951 Si / 1000 Ang^3
#
#
#
# Elastic Constant Matrix: (Units=GPa)
#
#
# Indices 1 2 3 4 5 6 
#
# 1 111.0089 27.5493 52.4154 0.0000 0.0000 0.0000
# 2 27.5493 89.2922 44.4326 0.0000 0.0000 0.0000
# 3 52.4154 44.4326 140.0632 0.0000 0.0000 0.0000
# 4 0.0000 0.0000 0.0000 29.3959 0.0000 0.0000
# 5 0.0000 0.0000 0.0000 0.0000 27.2178 0.0000
# 6 0.0000 0.0000 0.0000 0.0000 0.0000 18.7758
#
#
#
# Elastic Compliance Matrix: (Units=1/GPa)
#
#
# Indices 1 2 3 4 5 6 
#
# 1 0.011135 -0.001617 -0.003654 0.000000 0.000000 0.000000
# 2 -0.001617 0.013533 -0.003688 0.000000 0.000000 0.000000
# 3 -0.003654 -0.003688 0.009677 0.000000 0.000000 0.000000
# 4 0.000000 0.000000 0.000000 0.034018 0.000000 0.000000
# 5 0.000000 0.000000 0.000000 0.000000 0.036741 0.000000
# 6 0.000000 0.000000 0.000000 0.000000 0.000000 0.053260
#
#
# Mechanical properties :
#
#
# Convention : Reuss Voigt Hill
#
# Bulk Modulus (GPa) = 60.87577 65.46211 63.16894
# Shear Modulus (GPa) = 27.50905 29.47569 28.49237
#
# Velocity S-wave (km/s) = 3.82767 3.96213 3.89548
# Velocity P-wave (km/s) = 7.20809 7.46965 7.34003
#
# Compressibility (1/GPa) = 0.01642690
#
# Stress axis : x y z
#
# Youngs Moduli (GPa) = 89.80744 73.89165 103.33783
#
# Poissons Ratio (x) = 0.11950 0.37759
# Poissons Ratio (y) = 0.14524 0.38111
# Poissons Ratio (z) = 0.32815 0.27251
#
# Static dielectric constant tensor:
#      x y z
#    x 3.379420 0.000000 0.000000 
#    y 0.000000 3.300970 0.000000 
#    z 0.000000 0.000000 3.294330 
# 
# 
# High freq. dielectric constant tensor:
#      x y z
#    x 1.726880 0.000000 0.000000 
#    y 0.000000 1.715980 0.000000 
#    z 0.000000 0.000000 1.714000 
# 
# From -- ./inp_files/24551.got.cif
#   From: 2010.03.12/outbox.cif.g09.slc.cpg/sg44_13_cif.got.tgz:24551.got - 2010.04.14 02:36:11.
