data_PCOD8189269
_publ_section_title
;
Structure prediction by ZEFSAII (Michael W. Deem and Ramdas Pophale) SiO2 
 PCOD8189269
Probable space group: I M M 2
;
_chemical_formula_sum "Si O2"
_cell_formula_units_Z 48
_cell_length_a 9.150661
_cell_length_b 9.388881
_cell_length_c 31.026508
_cell_angle_alpha 90.000000
_cell_angle_beta 90.000000
_cell_angle_gamma 90.000000
_cell_volume 2665.625904
_symmetry_space_group_name_H-M "I M M 2"
_symmetry_group_IT_number 44
_symmetry_cell_setting 'orthorhombic'
loop_
_space_group_symop_operation_xyz
x,y,z
-x,-y,z
-x,y,z
x,-y,z
1/2+x,1/2+y,1/2+z
1/2-x,1/2-y,1/2+z
1/2-x,1/2+y,1/2+z
1/2+x,1/2-y,1/2+z
loop_
_atom_site_type_symbol
_atom_site_label
_atom_site_fract_x
_atom_site_fract_y
_atom_site_fract_z
Si Si1 0.837464 0.830691 0.413760
Si Si2 0.328875 0.835445 0.756761
Si Si3 0.674098 0.160320 0.087623
Si Si4 0.830758 0.835248 0.669841
Si Si5 0.674123 0.659063 0.008226
Si Si6 0.667283 0.168733 0.330862
O O1 0.779717 0.781258 0.460937
O O2 0.728125 0.776248 0.376823
O O3 0.000000 0.769016 0.404526
O O4 0.845628 0.000000 0.414273
O O5 0.500000 0.805827 0.755049
O O6 0.260849 0.788663 0.711339
O O7 0.259684 0.739891 0.793511
O O8 0.292986 0.000000 0.766410
O O9 0.500000 0.161728 0.086124
O O10 0.728632 0.243394 0.129887
O O11 0.737710 0.237356 0.045029
O O12 0.735336 0.000000 0.089009
O O13 0.000000 0.803097 0.679583
O O14 0.806395 0.000000 0.658107
O O15 0.500000 0.653020 0.010306
O O16 0.736978 0.500000 0.015945
O O17 0.500000 0.217094 0.327134
O O18 0.684525 0.000000 0.326581
#
# Coordination Sequence:
#
# PCOD8189269 Si02
#       6
#     8   8   8   8   8   8
#     4   8  14  26  45  68  94 125 161 199 236 277
#     4  10  21  36  53  73  97 126 162 203 246 293
#     4   9  16  25  40  66  97 123 151 193 239 279
#     4   9  17  30  48  68  92 124 159 194 235 285
#     4   8  13  23  41  63  87 120 161 198 233 276
#     4  10  20  33  51  75 101 129 162 200 243 292
#
# _framework density 18.007028999999999
#
# number of rings (size 3 to 8) (size 9 to 14) (size 15 to 20)
#    0.000    3.000    0.000    2.500    0.000    4.667 
#    0.000    2.500    0.000    4.000    0.000    4.667 
#    0.000    0.000    0.000    0.000    0.000    0.000 
#
# Total GULP energy -297537.816120 kJ/mol
# GULP energy per Si atom -12397.409005 kJ/mol
# Density = 1.796604 g / cm^3
# Si number density = 18.007029 Si / 1000 Ang^3
#
#
#
# Elastic Constant Matrix: (Units=GPa)
#
#
# Indices 1 2 3 4 5 6 
#
# 1 58.9104 26.8436 55.7575 0.0000 0.0000 0.0000
# 2 26.8436 70.8322 69.3558 0.0000 0.0000 0.0000
# 3 55.7575 69.3558 180.0939 0.0000 0.0000 0.0000
# 4 0.0000 0.0000 0.0000 30.5188 0.0000 0.0000
# 5 0.0000 0.0000 0.0000 0.0000 25.3348 0.0000
# 6 0.0000 0.0000 0.0000 0.0000 0.0000 15.6663
#
#
#
# Elastic Compliance Matrix: (Units=1/GPa)
#
#
# Indices 1 2 3 4 5 6 
#
# 1 0.024394 -0.002969 -0.006409 0.000000 0.000000 0.000000
# 2 -0.002969 0.023026 -0.007948 0.000000 0.000000 0.000000
# 3 -0.006409 -0.007948 0.010598 0.000000 0.000000 0.000000
# 4 0.000000 0.000000 0.000000 0.032767 0.000000 0.000000
# 5 0.000000 0.000000 0.000000 0.000000 0.039471 0.000000
# 6 0.000000 0.000000 0.000000 0.000000 0.000000 0.063831
#
#
# Mechanical properties :
#
#
# Convention : Reuss Voigt Hill
#
# Bulk Modulus (GPa) = 42.79980 68.19447 55.49713
# Shear Modulus (GPa) = 21.13921 24.82928 22.98424
#
# Velocity S-wave (km/s) = 3.43000 3.71734 3.57656
# Velocity P-wave (km/s) = 6.28542 7.50853 6.92404
#
# Compressibility (1/GPa) = 0.02336460
#
# Stress axis : x y z
#
# Youngs Moduli (GPa) = 40.99391 43.43002 94.35998
#
# Poissons Ratio (x) = 0.12896 0.60474
# Poissons Ratio (y) = 0.12173 0.74997
# Poissons Ratio (z) = 0.26272 0.34518
#
# Static dielectric constant tensor:
#      x y z
#    x 3.057220 0.000000 0.000000 
#    y 0.000000 3.226260 0.000000 
#    z 0.000000 0.000000 3.689600 
# 
# 
# High freq. dielectric constant tensor:
#      x y z
#    x 1.659360 0.000000 0.000000 
#    y 0.000000 1.674760 0.000000 
#    z 0.000000 0.000000 1.715640 
# 
# From -- ./inp_files/26867.got.cif
#   From: 2010.03.12/outbox.cif.g09.slc.cpg/sg44_14_cif.got.tgz:26867.got - 2010.04.14 02:36:11.
