data_PCOD8189441
_publ_section_title
;
Structure prediction by ZEFSAII (Michael W. Deem and Ramdas Pophale) SiO2 
 PCOD8189441
Probable space group: I M M 2
;
_chemical_formula_sum "Si O2"
_cell_formula_units_Z 64
_cell_length_a 24.875735
_cell_length_b 8.852789
_cell_length_c 15.067688
_cell_angle_alpha 90.000000
_cell_angle_beta 90.000000
_cell_angle_gamma 90.000000
_cell_volume 3318.200724
_symmetry_space_group_name_H-M "I M M 2"
_symmetry_group_IT_number 44
_symmetry_cell_setting 'orthorhombic'
loop_
_space_group_symop_operation_xyz
x,y,z
-x,-y,z
-x,y,z
x,-y,z
1/2+x,1/2+y,1/2+z
1/2-x,1/2-y,1/2+z
1/2-x,1/2+y,1/2+z
1/2+x,1/2-y,1/2+z
loop_
_atom_site_type_symbol
_atom_site_label
_atom_site_fract_x
_atom_site_fract_y
_atom_site_fract_z
Si Si1 0.777967 0.675317 0.628400
Si Si2 0.641569 0.678529 0.428776
Si Si3 0.153082 0.675792 0.300411
Si Si4 0.938929 0.326730 0.434571
Si Si5 0.832463 0.322879 0.100897
Si Si6 0.737964 0.825218 0.332825
Si Si7 0.887544 0.822062 0.597672
Si Si8 0.439770 0.679637 0.280464
O O1 0.770275 0.500000 0.605810
O O2 0.728289 0.765991 0.587796
O O3 0.781968 0.705100 0.733164
O O4 0.831485 0.736839 0.582046
O O5 0.640129 0.500000 0.432502
O O6 0.630044 0.744439 0.526747
O O7 0.700209 0.731287 0.397775
O O8 0.596047 0.741342 0.361878
O O9 0.168332 0.500000 0.306346
O O10 0.098257 0.715595 0.350949
O O11 0.145427 0.723938 0.197750
O O12 0.201068 0.769452 0.345357
O O13 0.929367 0.500000 0.463644
O O14 0.926727 0.218496 0.517082
O O15 0.000000 0.299436 0.403968
O O16 0.834183 0.500000 0.085772
O O17 0.734792 0.000000 0.358774
O O18 0.914778 0.762632 0.688133
O O19 0.877137 0.000000 0.601211
O O20 0.500000 0.744908 0.290535
O O21 0.440883 0.500000 0.280649
#
# Coordination Sequence:
#
# PCOD8189441 Si02
#       8
#     8   8   8   8   8   8   8   8
#     4  10  20  35  55  82 116 152 189 229 281 341
#     4  11  21  35  57  83 115 154 192 233 285 340
#     4   9  20  39  60  80 109 149 191 236 289 345
#     4  10  22  40  60  83 112 149 194 241 288 342
#     4  10  21  37  57  82 114 149 191 240 289 341
#     4  10  20  34  55  83 115 147 185 232 279 336
#     4  11  21  35  57  85 117 152 190 233 283 340
#     4   9  19  36  57  81 112 152 195 233 276 337
#
# _framework density 19.287562000000001
#
# number of rings (size 3 to 8) (size 9 to 14) (size 15 to 20)
#    0.000    2.000    1.250    2.250    1.750    2.750 
#    0.000    0.625    0.000    4.500    0.000    0.000 
#    0.000    0.000    0.000    0.000    0.000    0.000 
#
# Total GULP energy -396935.136376 kJ/mol
# GULP energy per Si atom -12404.223012 kJ/mol
# Density = 1.924366 g / cm^3
# Si number density = 19.287562 Si / 1000 Ang^3
#
#
#
# Elastic Constant Matrix: (Units=GPa)
#
#
# Indices 1 2 3 4 5 6 
#
# 1 121.6642 29.2158 63.7927 0.0000 0.0000 0.0000
# 2 29.2158 60.0974 33.3438 0.0000 0.0000 0.0000
# 3 63.7927 33.3438 117.7099 0.0000 0.0000 0.0000
# 4 0.0000 0.0000 0.0000 31.7856 0.0000 0.0000
# 5 0.0000 0.0000 0.0000 0.0000 30.3285 0.0000
# 6 0.0000 0.0000 0.0000 0.0000 0.0000 21.3948
#
#
#
# Elastic Compliance Matrix: (Units=1/GPa)
#
#
# Indices 1 2 3 4 5 6 
#
# 1 0.011815 -0.002600 -0.005667 0.000000 0.000000 0.000000
# 2 -0.002600 0.020315 -0.004346 0.000000 0.000000 0.000000
# 3 -0.005667 -0.004346 0.012797 0.000000 0.000000 0.000000
# 4 0.000000 0.000000 0.000000 0.031461 0.000000 0.000000
# 5 0.000000 0.000000 0.000000 0.000000 0.032972 0.000000
# 6 0.000000 0.000000 0.000000 0.000000 0.000000 0.046740
#
#
# Mechanical properties :
#
#
# Convention : Reuss Voigt Hill
#
# Bulk Modulus (GPa) = 50.75367 61.35290 56.05329
# Shear Modulus (GPa) = 26.61104 28.24302 27.42703
#
# Velocity S-wave (km/s) = 3.71846 3.83079 3.77504
# Velocity P-wave (km/s) = 6.69382 7.17253 6.93731
#
# Compressibility (1/GPa) = 0.01970301
#
# Stress axis : x y z
#
# Youngs Moduli (GPa) = 84.63941 49.22578 78.14043
#
# Poissons Ratio (x) = 0.12797 0.44279
# Poissons Ratio (y) = 0.22003 0.33957
# Poissons Ratio (z) = 0.47962 0.21392
#
# Static dielectric constant tensor:
#      x y z
#    x 3.498290 0.000000 0.000000 
#    y 0.000000 3.394250 0.000000 
#    z 0.000000 0.000000 3.658380 
# 
# 
# High freq. dielectric constant tensor:
#      x y z
#    x 1.739820 0.000000 0.000000 
#    y 0.000000 1.743210 0.000000 
#    z 0.000000 0.000000 1.755750 
# 
# From -- ./inp_files/16804.got.cif
#   From: 2010.03.12/outbox.cif.g09.slc.cpg/sg44_9_cif.got.tgz:16804.got - 2010.04.14 02:36:11.
