data_PCOD8189758
_publ_section_title
;
Structure prediction by ZEFSAII (Michael W. Deem and Ramdas Pophale) SiO2 
 PCOD8189758
Probable space group: I M M 2
;
_chemical_formula_sum "Si O2"
_cell_formula_units_Z 48
_cell_length_a 7.701516
_cell_length_b 9.205212
_cell_length_c 33.725320
_cell_angle_alpha 90.000000
_cell_angle_beta 90.000000
_cell_angle_gamma 90.000000
_cell_volume 2390.925787
_symmetry_space_group_name_H-M "I M M 2"
_symmetry_group_IT_number 44
_symmetry_cell_setting 'orthorhombic'
loop_
_space_group_symop_operation_xyz
x,y,z
-x,-y,z
-x,y,z
x,-y,z
1/2+x,1/2+y,1/2+z
1/2-x,1/2-y,1/2+z
1/2-x,1/2+y,1/2+z
1/2+x,1/2-y,1/2+z
loop_
_atom_site_type_symbol
_atom_site_label
_atom_site_fract_x
_atom_site_fract_y
_atom_site_fract_z
Si Si1 0.000000 0.168699 0.574630
Si Si2 0.198307 0.841410 0.939031
Si Si3 0.699926 0.662560 0.864987
Si Si4 0.000000 0.327116 0.656754
Si Si5 0.196471 0.667249 0.201223
Si Si6 0.699959 0.168095 0.513971
Si Si7 0.797565 0.164981 0.788715
O O1 0.175251 0.205840 0.550560
O O2 0.000000 0.272770 0.612009
O O3 0.000000 0.000000 0.587625
O O4 0.204934 0.758652 0.897509
O O5 0.000000 0.864478 0.949789
O O6 0.289700 0.000000 0.935474
O O7 0.277564 0.751566 0.975666
O O8 0.500000 0.659931 0.876380
O O9 0.777870 0.500000 0.865430
O O10 0.725361 0.727885 0.821657
O O11 0.826423 0.270871 0.677921
O O12 0.000000 0.500000 0.657881
O O13 0.252066 0.500000 0.193907
O O14 0.201983 0.702537 0.247861
O O15 0.000000 0.694847 0.186125
O O16 0.500000 0.209471 0.524748
O O17 0.713138 0.000000 0.502757
O O18 0.000000 0.190379 0.782089
O O19 0.758034 0.000000 0.802010
#
# Coordination Sequence:
#
# PCOD8189758 Si02
#       7
#     4   8   8   4   8   8   8
#     4  10  22  40  64  90 120 158 208 254 298 372
#     4  10  21  37  57  82 113 151 196 245 300 359
#     4  11  24  37  51  78 117 158 201 248 297 354
#     4  12  26  42  62  94 134 168 204 256 316 378
#     4  10  21  41  69  94 121 163 211 258 310 373
#     4   9  19  37  61  88 118 154 196 248 306 359
#     4  10  20  37  62  88 116 151 198 253 306 361
#
# _framework density 20.075906
#
# number of rings (size 3 to 8) (size 9 to 14) (size 15 to 20)
#    0.000    1.833    0.833    2.750    1.167    7.667 
#    0.000    1.667    0.000    0.000    0.000    0.000 
#    0.000    0.000    0.000    0.000    0.000    0.000 
#
# Total GULP energy -297617.066809 kJ/mol
# GULP energy per Si atom -12400.711117 kJ/mol
# Density = 2.003021 g / cm^3
# Si number density = 20.075906 Si / 1000 Ang^3
#
#
#
# Elastic Constant Matrix: (Units=GPa)
#
#
# Indices 1 2 3 4 5 6 
#
# 1 90.0403 46.7639 45.1162 0.0000 0.0000 0.0000
# 2 46.7639 147.6477 85.4368 0.0001 -0.0001 0.0000
# 3 45.1162 85.4368 125.0713 0.0000 0.0000 0.0000
# 4 0.0000 0.0001 0.0000 33.1290 -0.0001 0.0000
# 5 0.0000 -0.0001 0.0000 -0.0001 -57.1919 0.0000
# 6 0.0000 0.0000 0.0000 0.0000 0.0000 19.2733
#
#
#
# Elastic Compliance Matrix: (Units=1/GPa)
#
#
# Indices 1 2 3 4 5 6 
#
# 1 0.014101 -0.002518 -0.003366 0.000000 0.000000 0.000000
# 2 -0.002518 0.011650 -0.007050 0.000000 0.000000 0.000000
# 3 -0.003366 -0.007050 0.014025 0.000000 0.000000 0.000000
# 4 0.000000 0.000000 0.000000 0.030185 0.000000 0.000000
# 5 0.000000 0.000000 0.000000 0.000000 -0.017485 0.000000
# 6 0.000000 0.000000 0.000000 0.000000 0.000000 0.051885
#
#
# Mechanical properties :
#
#
# Convention : Reuss Voigt Hill
#
# Bulk Modulus (GPa) = 71.90279 79.71036 75.80658
# Shear Modulus (GPa) = 37.07402 11.40490 24.23946
#
# Velocity S-wave (km/s) = 4.30198 2.38605 3.47852
# Velocity P-wave (km/s) = 7.78262 6.88343 7.34680
#
# Compressibility (1/GPa) = 0.01390767
#
# Stress axis : x y z
#
# Youngs Moduli (GPa) = 70.91828 85.83883 71.29922
#
# Poissons Ratio (x) = 0.21615 0.24002
# Poissons Ratio (y) = 0.17858 0.50263
# Poissons Ratio (z) = 0.23873 0.60513
#
# Static dielectric constant tensor:
#      x y z
#    x 3.891970 0.000000 0.000000 
#    y 0.000000 3.968600 0.000000 
#    z 0.000000 0.000000 3.538600 
# 
# 
# High freq. dielectric constant tensor:
#      x y z
#    x 1.790210 0.000000 0.000000 
#    y 0.000000 1.780800 0.000000 
#    z 0.000000 0.000000 1.780080 
# 
# From -- ./inp_files/26878.got.cif
#   From: 2010.03.12/outbox.cif.g09.slc.cpg/sg44_14_cif.got.tgz:26878.got - 2010.04.14 02:36:11.
