data_PCOD8189196
_publ_section_title
;
Structure prediction by ZEFSAII (Michael W. Deem and Ramdas Pophale) SiO2 
 PCOD8189196
Probable space group: I M M 2
;
_chemical_formula_sum "Si O2"
_cell_formula_units_Z 48
_cell_length_a 7.745418
_cell_length_b 8.841821
_cell_length_c 34.255823
_cell_angle_alpha 90.000000
_cell_angle_beta 90.000000
_cell_angle_gamma 90.000000
_cell_volume 2345.962064
_symmetry_space_group_name_H-M "I M M 2"
_symmetry_group_IT_number 44
_symmetry_cell_setting 'orthorhombic'
loop_
_space_group_symop_operation_xyz
x,y,z
-x,-y,z
-x,y,z
x,-y,z
1/2+x,1/2+y,1/2+z
1/2-x,1/2-y,1/2+z
1/2-x,1/2+y,1/2+z
1/2+x,1/2-y,1/2+z
loop_
_atom_site_type_symbol
_atom_site_label
_atom_site_fract_x
_atom_site_fract_y
_atom_site_fract_z
Si Si1 0.193771 0.678800 0.228970
Si Si2 0.301096 0.670045 0.145898
Si Si3 0.000000 0.178580 0.359503
Si Si4 0.696955 0.664188 0.570421
Si Si5 0.797807 0.677018 0.993469
Si Si6 0.500000 0.179266 0.943663
Si Si7 0.194537 0.823555 0.812276
O O1 0.201723 0.500000 0.225549
O O2 0.271549 0.744915 0.188628
O O3 0.301141 0.729364 0.266933
O O4 0.000000 0.738837 0.234200
O O5 0.500000 0.669718 0.135327
O O6 0.225204 0.500000 0.144844
O O7 0.206564 0.766308 0.113278
O O8 0.827211 0.222427 0.336289
O O9 0.000000 0.270272 0.399211
O O10 0.000000 0.000000 0.367348
O O11 0.500000 0.638352 0.560202
O O12 0.791512 0.500000 0.569425
O O13 0.769463 0.773042 0.536494
O O14 0.766184 0.500000 0.989701
O O15 0.677105 0.760179 0.962396
O O16 0.000000 0.716769 0.985755
O O17 0.500000 0.000000 0.946646
O O18 0.000000 0.797247 0.827947
O O19 0.247893 0.000000 0.815845
#
# Coordination Sequence:
#
# PCOD8189196 Si02
#       7
#     8   8   4   8   8   4   8
#     4   9  16  30  56  86 117 153 201 258 313 368
#     4  10  20  32  50  81 117 155 202 256 309 364
#     4  12  26  44  64  92 130 168 208 256 310 378
#     4  10  21  37  56  80 114 158 206 254 307 365
#     4  10  22  42  68  96 127 164 207 256 311 374
#     4  12  26  44  70  98 128 164 206 258 314 378
#     4  10  20  38  66  95 124 161 208 261 316 375
#
# _framework density 20.460688000000001
#
# number of rings (size 3 to 8) (size 9 to 14) (size 15 to 20)
#    0.000    1.833    0.833    3.500    1.167    6.000 
#    0.000    0.833    0.000    2.000    0.000    0.000 
#    0.000    0.000    0.000    0.000    0.000    0.000 
#
# Total GULP energy -297521.764249 kJ/mol
# GULP energy per Si atom -12396.740177 kJ/mol
# Density = 2.041412 g / cm^3
# Si number density = 20.460688 Si / 1000 Ang^3
#
#
#
# Elastic Constant Matrix: (Units=GPa)
#
#
# Indices 1 2 3 4 5 6 
#
# 1 90.7529 40.0347 40.0011 0.0000 0.0000 0.0000
# 2 40.0347 108.8464 48.6562 0.0000 0.0000 0.0000
# 3 40.0011 48.6562 132.6229 0.0000 0.0000 0.0000
# 4 0.0000 0.0000 0.0000 26.8382 0.0000 0.0000
# 5 0.0000 0.0000 0.0000 0.0000 -10.1577 0.0000
# 6 0.0000 0.0000 0.0000 0.0000 0.0000 24.3582
#
#
#
# Elastic Compliance Matrix: (Units=1/GPa)
#
#
# Indices 1 2 3 4 5 6 
#
# 1 0.013962 -0.003891 -0.002784 0.000000 0.000000 0.000000
# 2 -0.003891 0.012074 -0.003256 0.000000 0.000000 0.000000
# 3 -0.002784 -0.003256 0.009574 0.000000 0.000000 0.000000
# 4 0.000000 0.000000 0.000000 0.037260 0.000000 0.000000
# 5 0.000000 0.000000 0.000000 0.000000 -0.098448 0.000000
# 6 0.000000 0.000000 0.000000 0.000000 0.000000 0.041054
#
#
# Mechanical properties :
#
#
# Convention : Reuss Voigt Hill
#
# Bulk Modulus (GPa) = 63.49619 65.51181 64.50400
# Shear Modulus (GPa) = 123.18694 21.77642 72.48168
#
# Velocity S-wave (km/s) = 7.76771 3.26591 5.95833
# Velocity P-wave (km/s) = 10.56174 6.80510 8.88425
#
# Compressibility (1/GPa) = 0.01574898
#
# Stress axis : x y z
#
# Youngs Moduli (GPa) = 71.62072 82.82294 104.44580
#
# Poissons Ratio (x) = 0.32228 0.29075
# Poissons Ratio (y) = 0.27869 0.34008
# Poissons Ratio (z) = 0.19937 0.26967
#
# Static dielectric constant tensor:
#      x y z
#    x 3.792230 0.000000 0.000000 
#    y 0.000000 3.626020 0.000000 
#    z 0.000000 0.000000 3.815430 
# 
# 
# High freq. dielectric constant tensor:
#      x y z
#    x 1.803670 0.000000 0.000000 
#    y 0.000000 1.776710 0.000000 
#    z 0.000000 0.000000 1.806550 
# 
# From -- ./inp_files/26884.got.cif
#   From: 2010.03.12/outbox.cif.g09.slc.cpg/sg44_14_cif.got.tgz:26884.got - 2010.04.14 02:36:11.
