data_PCOD8189864
_publ_section_title
;
Structure prediction by ZEFSAII (Michael W. Deem and Ramdas Pophale) SiO2 
 PCOD8189864
Probable space group: I M M 2
;
_chemical_formula_sum "Si O2"
_cell_formula_units_Z 48
_cell_length_a 9.023996
_cell_length_b 7.724973
_cell_length_c 33.622443
_cell_angle_alpha 90.000000
_cell_angle_beta 90.000000
_cell_angle_gamma 90.000000
_cell_volume 2343.824720
_symmetry_space_group_name_H-M "I M M 2"
_symmetry_group_IT_number 44
_symmetry_cell_setting 'orthorhombic'
loop_
_space_group_symop_operation_xyz
x,y,z
-x,-y,z
-x,y,z
x,-y,z
1/2+x,1/2+y,1/2+z
1/2-x,1/2-y,1/2+z
1/2-x,1/2+y,1/2+z
1/2+x,1/2-y,1/2+z
loop_
_atom_site_type_symbol
_atom_site_label
_atom_site_fract_x
_atom_site_fract_y
_atom_site_fract_z
Si Si1 0.829481 0.000000 0.105150
Si Si2 0.667530 0.302802 0.298901
Si Si3 0.170429 0.194694 0.649739
Si Si4 0.171268 0.000000 0.011442
Si Si5 0.833878 0.804026 0.224396
Si Si6 0.833079 0.703102 0.884576
Si Si7 0.325394 0.700617 0.964331
O O1 0.756806 0.174646 0.121472
O O2 0.809203 0.000000 0.058322
O O3 0.000000 0.000000 0.118237
O O4 0.500000 0.228705 0.297511
O O5 0.672044 0.500000 0.284975
O O6 0.769320 0.196193 0.268881
O O7 0.728372 0.287052 0.343926
O O8 0.233578 0.193957 0.694501
O O9 0.000000 0.252040 0.651460
O O10 0.187135 0.000000 0.632612
O O11 0.247388 0.824539 0.996019
O O12 0.000000 0.000000 0.998572
O O13 0.000000 0.727615 0.225085
O O14 0.835112 0.000000 0.208523
O O15 0.830652 0.500000 0.878480
O O16 0.727207 0.759375 0.920581
O O17 0.000000 0.769009 0.893767
O O18 0.500000 0.726900 0.967315
O O19 0.280963 0.500000 0.972751
#
# Coordination Sequence:
#
# PCOD8189864 Si02
#       7
#     4   8   8   4   8   8   8
#     4  11  25  45  67  97 129 163 207 259 317 375
#     4  10  21  35  53  82 118 157 205 257 307 366
#     4  11  24  42  67  96 126 165 208 254 310 375
#     4  11  25  43  67  95 127 165 211 259 309 379
#     4  11  23  38  58  85 119 161 209 260 312 365
#     4   9  18  34  56  82 115 158 206 255 309 368
#     4  10  22  40  63  93 128 165 207 259 316 375
#
# _framework density 20.479347000000001
#
# number of rings (size 3 to 8) (size 9 to 14) (size 15 to 20)
#    0.000    1.667    0.833    3.000    1.167    9.000 
#    0.000    5.000    0.000    0.000    0.000    0.000 
#    0.000    0.000    0.000    0.000    0.000    0.000 
#
# Total GULP energy -297675.165139 kJ/mol
# GULP energy per Si atom -12403.131881 kJ/mol
# Density = 2.043274 g / cm^3
# Si number density = 20.479347 Si / 1000 Ang^3
#
#
#
# Elastic Constant Matrix: (Units=GPa)
#
#
# Indices 1 2 3 4 5 6 
#
# 1 147.2264 57.9827 71.1401 0.0000 0.0000 0.0000
# 2 57.9827 94.5150 47.7891 0.0000 0.0000 0.0000
# 3 71.1401 47.7891 107.7895 0.0000 0.0000 0.0000
# 4 0.0000 0.0000 0.0000 26.8645 0.0000 0.0000
# 5 0.0000 0.0000 0.0000 0.0000 35.2917 0.0000
# 6 0.0000 0.0000 0.0000 0.0000 0.0000 22.6838
#
#
#
# Elastic Compliance Matrix: (Units=1/GPa)
#
#
# Indices 1 2 3 4 5 6 
#
# 1 0.011021 -0.003974 -0.005512 0.000000 0.000000 0.000000
# 2 -0.003974 0.015071 -0.004059 0.000000 0.000000 0.000000
# 3 -0.005512 -0.004059 0.014714 0.000000 0.000000 0.000000
# 4 0.000000 0.000000 0.000000 0.037224 0.000000 0.000000
# 5 0.000000 0.000000 0.000000 0.000000 0.028335 0.000000
# 6 0.000000 0.000000 0.000000 0.000000 0.000000 0.044084
#
#
# Mechanical properties :
#
#
# Convention : Reuss Voigt Hill
#
# Bulk Modulus (GPa) = 72.90366 78.15053 75.52709
# Shear Modulus (GPa) = 27.45596 28.47595 27.96596
#
# Velocity S-wave (km/s) = 3.66548 3.73295 3.69937
# Velocity P-wave (km/s) = 7.32054 7.53813 7.43013
#
# Compressibility (1/GPa) = 0.01371673
#
# Stress axis : x y z
#
# Youngs Moduli (GPa) = 90.73934 66.35462 67.96071
#
# Poissons Ratio (x) = 0.26370 0.37457
# Poissons Ratio (y) = 0.36061 0.27584
# Poissons Ratio (z) = 0.50011 0.26932
#
# Static dielectric constant tensor:
#      x y z
#    x 3.777720 0.000000 0.000000 
#    y 0.000000 3.678580 0.000000 
#    z 0.000000 0.000000 3.624730 
# 
# 
# High freq. dielectric constant tensor:
#      x y z
#    x 1.801920 0.000000 0.000000 
#    y 0.000000 1.807060 0.000000 
#    z 0.000000 0.000000 1.798990 
# 
# From -- ./inp_files/26978.got.cif
#   From: 2010.03.12/outbox.cif.g09.slc.cpg/sg44_14_cif.got.tgz:26978.got - 2010.04.14 02:36:11.
