data_PCOD8189027
_publ_section_title
;
Structure prediction by ZEFSAII (Michael W. Deem and Ramdas Pophale) SiO2 
 PCOD8189027
Probable space group: I M M 2
;
_chemical_formula_sum "Si O2"
_cell_formula_units_Z 64
_cell_length_a 14.822472
_cell_length_b 17.451923
_cell_length_c 11.845963
_cell_angle_alpha 90.000000
_cell_angle_beta 90.000000
_cell_angle_gamma 90.000000
_cell_volume 3064.321290
_symmetry_space_group_name_H-M "I M M 2"
_symmetry_group_IT_number 44
_symmetry_cell_setting 'orthorhombic'
loop_
_space_group_symop_operation_xyz
x,y,z
-x,-y,z
-x,y,z
x,-y,z
1/2+x,1/2+y,1/2+z
1/2-x,1/2-y,1/2+z
1/2-x,1/2+y,1/2+z
1/2+x,1/2-y,1/2+z
loop_
_atom_site_type_symbol
_atom_site_label
_atom_site_fract_x
_atom_site_fract_y
_atom_site_fract_z
Si Si1 0.395336 0.915677 0.897480
Si Si2 0.393884 0.414986 0.399907
Si Si3 0.724795 0.325517 0.823768
Si Si4 0.399371 0.590397 0.650242
Si Si5 0.682583 0.692082 0.207966
Si Si6 0.399351 0.088979 0.412823
Si Si7 0.330411 0.913168 0.650006
Si Si8 0.104264 0.258232 0.496958
O O1 0.500000 0.924175 0.918673
O O2 0.378146 0.892825 0.767868
O O3 0.351262 0.000000 0.926752
O O4 0.358976 0.845547 0.975092
O O5 0.500000 0.422446 0.398656
O O6 0.352916 0.500000 0.372683
O O7 0.363622 0.386695 0.524751
O O8 0.364926 0.352365 0.309586
O O9 0.669420 0.382059 0.744467
O O10 0.742758 0.248496 0.756583
O O11 0.821475 0.362123 0.853921
O O12 0.663684 0.304317 0.931096
O O13 0.500000 0.625017 0.670892
O O14 0.405340 0.500000 0.657750
O O15 0.738370 0.633269 0.131093
O O16 0.611704 0.737815 0.129677
O O17 0.500000 0.113468 0.370488
O O18 0.398243 0.104029 0.547372
O O19 0.382204 0.000000 0.384769
O O20 0.298921 0.000000 0.647176
O O21 0.000000 0.251939 0.458933
#
# Coordination Sequence:
#
# PCOD8189027 Si02
#       8
#     8   8   8   8   8   8   8   8
#     4   9  18  36  62  90 120 160 209 258 310 369
#     4   9  20  41  67  92 120 161 213 262 310 368
#     4  12  24  39  64  92 130 167 209 253 324 382
#     4   9  20  41  68  96 125 162 211 265 316 374
#     4  12  24  38  59  91 131 168 205 255 315 374
#     4  10  22  41  63  89 125 168 214 261 310 372
#     4  10  19  35  60  89 122 161 208 256 304 366
#     4  11  24  42  61  93 135 169 204 259 319 381
#
# _framework density 20.885538
#
# number of rings (size 3 to 8) (size 9 to 14) (size 15 to 20)
#    0.000    1.750    2.500    2.625    1.750    2.500 
#    0.000    2.500    0.000    4.500    0.000    0.000 
#    0.000    0.000    0.000    0.000    0.000    0.000 
#
# Total GULP energy -396624.245384 kJ/mol
# GULP energy per Si atom -12394.507668 kJ/mol
# Density = 2.083800 g / cm^3
# Si number density = 20.885538 Si / 1000 Ang^3
#
#
#
# Elastic Constant Matrix: (Units=GPa)
#
#
# Indices 1 2 3 4 5 6 
#
# 1 96.9753 45.4304 44.4522 0.0000 0.0000 0.0000
# 2 45.4304 87.3949 56.3701 0.0000 0.0000 0.0000
# 3 44.4522 56.3701 103.8129 0.0000 0.0000 0.0000
# 4 0.0000 0.0000 0.0000 31.2312 0.0000 0.0000
# 5 0.0000 0.0000 0.0000 0.0000 26.8611 0.0000
# 6 0.0000 0.0000 0.0000 0.0000 0.0000 31.3775
#
#
#
# Elastic Compliance Matrix: (Units=1/GPa)
#
#
# Indices 1 2 3 4 5 6 
#
# 1 0.014295 -0.005360 -0.003210 0.000000 0.000000 0.000000
# 2 -0.005360 0.019620 -0.008358 0.000000 0.000000 0.000000
# 3 -0.003210 -0.008358 0.015546 0.000000 0.000000 0.000000
# 4 0.000000 0.000000 0.000000 0.032019 0.000000 0.000000
# 5 0.000000 0.000000 0.000000 0.000000 0.037229 0.000000
# 6 0.000000 0.000000 0.000000 0.000000 0.000000 0.031870
#
#
# Mechanical properties :
#
#
# Convention : Reuss Voigt Hill
#
# Bulk Modulus (GPa) = 64.09118 64.52095 64.30607
# Shear Modulus (GPa) = 26.36624 27.35598 26.86111
#
# Velocity S-wave (km/s) = 3.55690 3.62305 3.59013
# Velocity P-wave (km/s) = 6.90089 6.96144 6.93123
#
# Compressibility (1/GPa) = 0.01560277
#
# Stress axis : x y z
#
# Youngs Moduli (GPa) = 69.95682 50.96905 64.32546
#
# Poissons Ratio (x) = 0.27319 0.20651
# Poissons Ratio (y) = 0.37497 0.53765
# Poissons Ratio (z) = 0.22459 0.42602
#
# Static dielectric constant tensor:
#      x y z
#    x 3.792850 0.000000 0.000000 
#    y 0.000000 3.800360 0.000000 
#    z 0.000000 0.000000 3.890910 
# 
# 
# High freq. dielectric constant tensor:
#      x y z
#    x 1.818110 0.000000 0.000000 
#    y 0.000000 1.822510 0.000000 
#    z 0.000000 0.000000 1.811090 
# 
# From -- ./inp_files/13455.got.cif
#   From: 2010.03.12/outbox.cif.g09.slc.cpg/sg44_7_cif.got.tgz:13455.got - 2010.04.14 02:36:11.
