data_PCOD8189437
_publ_section_title
;
Structure prediction by ZEFSAII (Michael W. Deem and Ramdas Pophale) SiO2 
 PCOD8189437
Probable space group: I M M 2
;
_chemical_formula_sum "Si O2"
_cell_formula_units_Z 64
_cell_length_a 24.374042
_cell_length_b 9.293084
_cell_length_c 15.125893
_cell_angle_alpha 90.000000
_cell_angle_beta 90.000000
_cell_angle_gamma 90.000000
_cell_volume 3426.166322
_symmetry_space_group_name_H-M "I M M 2"
_symmetry_group_IT_number 44
_symmetry_cell_setting 'orthorhombic'
loop_
_space_group_symop_operation_xyz
x,y,z
-x,-y,z
-x,y,z
x,-y,z
1/2+x,1/2+y,1/2+z
1/2-x,1/2-y,1/2+z
1/2-x,1/2+y,1/2+z
1/2+x,1/2-y,1/2+z
loop_
_atom_site_type_symbol
_atom_site_label
_atom_site_fract_x
_atom_site_fract_y
_atom_site_fract_z
Si Si1 0.062699 0.668818 0.058180
Si Si2 0.639846 0.829169 0.049944
Si Si3 0.237638 0.164675 0.027468
Si Si4 0.635178 0.334574 0.419629
Si Si5 0.157780 0.832825 0.725027
Si Si6 0.063632 0.164804 0.415686
Si Si7 0.603643 0.166315 0.751201
Si Si8 0.280294 0.163364 0.694939
O O1 0.068684 0.500000 0.045424
O O2 0.086399 0.715139 0.153090
O O3 0.000000 0.719644 0.052519
O O4 0.095207 0.740243 0.978187
O O5 0.632718 0.767400 0.148892
O O6 0.630655 0.000000 0.051014
O O7 0.699719 0.784229 0.011586
O O8 0.595028 0.757282 0.988291
O O9 0.199610 0.191714 0.942230
O O10 0.239563 0.000000 0.055923
O O11 0.208847 0.245145 0.107883
O O12 0.620023 0.500000 0.436999
O O13 0.627263 0.295018 0.316545
O O14 0.222342 0.798425 0.739722
O O15 0.149237 0.000000 0.699455
O O16 0.072539 0.232292 0.319349
O O17 0.000000 0.172213 0.440021
O O18 0.084452 0.000000 0.415899
O O19 0.669396 0.188933 0.762838
O O20 0.587212 0.000000 0.768838
O O21 0.281214 0.000000 0.661963
#
# Coordination Sequence:
#
# PCOD8189437 Si02
#       8
#     8   8   8   8   8   8   8   8
#     4  10  21  37  56  80 113 150 189 234 278 324
#     4  10  21  38  61  85 112 146 187 236 286 337
#     4   9  18  32  53  82 116 147 180 224 274 329
#     4  10  20  34  55  82 114 152 189 228 274 329
#     4   9  19  35  56  82 117 153 186 228 279 334
#     4  11  25  42  59  82 112 147 191 240 287 339
#     4  10  20  35  58  85 114 150 188 228 279 338
#     4   9  17  31  54  81 112 149 185 220 269 331
#
# _framework density 18.679770000000001
#
# number of rings (size 3 to 8) (size 9 to 14) (size 15 to 20)
#    0.000    2.250    1.250    1.125    1.750    3.750 
#    0.000    0.625    0.000    0.750    0.000    0.000 
#    0.000    0.000    0.000    0.000    0.000    0.000 
#
# Total GULP energy -396770.781158 kJ/mol
# GULP energy per Si atom -12399.086911 kJ/mol
# Density = 1.863725 g / cm^3
# Si number density = 18.679770 Si / 1000 Ang^3
#
#
#
# Elastic Constant Matrix: (Units=GPa)
#
#
# Indices 1 2 3 4 5 6 
#
# 1 89.0301 43.6562 54.3588 0.0000 0.0000 0.0000
# 2 43.6562 77.4687 54.0552 0.0000 0.0000 0.0000
# 3 54.3588 54.0552 112.3476 0.0000 0.0000 0.0000
# 4 0.0000 0.0000 0.0000 34.1090 0.0000 0.0000
# 5 0.0000 0.0000 0.0000 0.0000 27.7298 0.0000
# 6 0.0000 0.0000 0.0000 0.0000 0.0000 27.2422
#
#
#
# Elastic Compliance Matrix: (Units=1/GPa)
#
#
# Indices 1 2 3 4 5 6 
#
# 1 0.017613 -0.005990 -0.005640 0.000000 0.000000 0.000000
# 2 -0.005990 0.021470 -0.007432 0.000000 0.000000 0.000000
# 3 -0.005640 -0.007432 0.015205 0.000000 0.000000 0.000000
# 4 0.000000 0.000000 0.000000 0.029318 0.000000 0.000000
# 5 0.000000 0.000000 0.000000 0.000000 0.036062 0.000000
# 6 0.000000 0.000000 0.000000 0.000000 0.000000 0.036708
#
#
# Mechanical properties :
#
#
# Convention : Reuss Voigt Hill
#
# Bulk Modulus (GPa) = 61.86301 64.77633 63.31967
# Shear Modulus (GPa) = 25.01407 26.26794 25.64101
#
# Velocity S-wave (km/s) = 3.66334 3.75403 3.70896
# Velocity P-wave (km/s) = 7.14724 7.31730 7.23277
#
# Compressibility (1/GPa) = 0.01616475
#
# Stress axis : x y z
#
# Youngs Moduli (GPa) = 56.77646 46.57727 65.76600
#
# Poissons Ratio (x) = 0.27901 0.37091
# Poissons Ratio (y) = 0.34010 0.48875
# Poissons Ratio (z) = 0.32021 0.34615
#
# Static dielectric constant tensor:
#      x y z
#    x 3.482030 0.000000 0.000000 
#    y 0.000000 3.429780 0.000000 
#    z 0.000000 0.000000 3.402320 
# 
# 
# High freq. dielectric constant tensor:
#      x y z
#    x 1.722620 0.000000 0.000000 
#    y 0.000000 1.722750 0.000000 
#    z 0.000000 0.000000 1.718510 
# 
# From -- ./inp_files/16805.got.cif
#   From: 2010.03.12/outbox.cif.g09.slc.cpg/sg44_9_cif.got.tgz:16805.got - 2010.04.14 02:36:11.
