data_PCOD8189793
_publ_section_title
;
Structure prediction by ZEFSAII (Michael W. Deem and Ramdas Pophale) SiO2 
 PCOD8189793
Probable space group: I M M 2
;
_chemical_formula_sum "Si O2"
_cell_formula_units_Z 48
_cell_length_a 14.441852
_cell_length_b 8.420424
_cell_length_c 20.175719
_cell_angle_alpha 90.000000
_cell_angle_beta 90.000000
_cell_angle_gamma 90.000000
_cell_volume 2453.498919
_symmetry_space_group_name_H-M "I M M 2"
_symmetry_group_IT_number 44
_symmetry_cell_setting 'orthorhombic'
loop_
_space_group_symop_operation_xyz
x,y,z
-x,-y,z
-x,y,z
x,-y,z
1/2+x,1/2+y,1/2+z
1/2-x,1/2-y,1/2+z
1/2-x,1/2+y,1/2+z
1/2+x,1/2-y,1/2+z
loop_
_atom_site_type_symbol
_atom_site_label
_atom_site_fract_x
_atom_site_fract_y
_atom_site_fract_z
Si Si1 0.310314 0.816083 0.141940
Si Si2 0.803231 0.686582 0.024037
Si Si3 0.500000 0.189154 0.326677
Si Si4 0.500000 0.182004 0.942790
Si Si5 0.000000 0.814731 0.586284
Si Si6 0.807188 0.815554 0.781223
Si Si7 0.815613 0.815830 0.395851
Si Si8 0.000000 0.312520 0.975581
O O1 0.236230 0.786195 0.084544
O O2 0.410828 0.764529 0.117819
O O3 0.277854 0.716204 0.205605
O O4 0.312165 0.000000 0.160831
O O5 0.794529 0.500000 0.039282
O O6 0.909212 0.742620 0.015115
O O7 0.748699 0.731693 0.957531
O O8 0.411201 0.253536 0.288643
O O9 0.500000 0.258032 0.401387
O O10 0.500000 0.000000 0.325032
O O11 0.410036 0.216038 0.898316
O O12 0.500000 0.000000 0.966046
O O13 0.500000 0.293180 0.007283
O O14 0.000000 0.000000 0.602830
O O15 0.737992 0.720967 0.828555
O O16 0.800579 0.000000 0.798298
O O17 0.841313 0.000000 0.397873
O O18 0.000000 0.500000 0.967432
#
# Coordination Sequence:
#
# PCOD8189793 Si02
#       8
#     8   8   4   4   4   8   8   4
#     4  12  25  41  61  89 125 165 208 255 312 374
#     4  10  20  38  64  91 122 161 204 250 305 365
#     4  11  20  38  63  92 127 164 203 248 311 375
#     4  12  24  39  62  95 128 161 207 257 308 366
#     4  12  23  39  62  91 126 162 203 256 316 373
#     4  12  25  41  61  91 128 165 208 258 313 371
#     4  11  22  40  66  92 124 164 207 256 309 366
#     4   9  18  36  63  92 121 157 199 243 295 360
#
# _framework density 19.563894999999999
#
# number of rings (size 3 to 8) (size 9 to 14) (size 15 to 20)
#    0.000    0.833    3.333    5.750    0.000    0.667 
#    0.000    1.250    0.000    1.000    0.000    0.000 
#    0.000    0.000    0.000    0.000    0.000    0.000 
#
# Total GULP energy -297769.495620 kJ/mol
# GULP energy per Si atom -12407.062318 kJ/mol
# Density = 1.951937 g / cm^3
# Si number density = 19.563895 Si / 1000 Ang^3
#
#
#
# Elastic Constant Matrix: (Units=GPa)
#
#
# Indices 1 2 3 4 5 6 
#
# 1 131.3558 25.1407 44.8139 0.0000 0.0000 0.0000
# 2 25.1407 73.8554 11.3944 0.0000 0.0000 0.0000
# 3 44.8139 11.3944 114.5865 0.0000 0.0000 0.0000
# 4 0.0000 0.0000 0.0000 32.5551 0.0000 0.0000
# 5 0.0000 0.0000 0.0000 0.0000 266.9307 0.0000
# 6 0.0000 0.0000 0.0000 0.0000 0.0000 24.9331
#
#
#
# Elastic Compliance Matrix: (Units=1/GPa)
#
#
# Indices 1 2 3 4 5 6 
#
# 1 0.009264 -0.002635 -0.003361 0.000000 0.000000 0.000000
# 2 -0.002635 0.014500 -0.000411 0.000000 0.000000 0.000000
# 3 -0.003361 -0.000411 0.010082 0.000000 0.000000 0.000000
# 4 0.000000 0.000000 0.000000 0.030717 0.000000 0.000000
# 5 0.000000 0.000000 0.000000 0.000000 0.003746 0.000000
# 6 0.000000 0.000000 0.000000 0.000000 0.000000 0.040107
#
#
# Mechanical properties :
#
#
# Convention : Reuss Voigt Hill
#
# Bulk Modulus (GPa) = 47.54666 53.61062 50.57864
# Shear Modulus (GPa) = 38.98853 80.78036 59.88444
#
# Velocity S-wave (km/s) = 4.46901 6.43274 5.53860
# Velocity P-wave (km/s) = 7.14041 9.09043 8.17378
#
# Compressibility (1/GPa) = 0.02103197
#
# Stress axis : x y z
#
# Youngs Moduli (GPa) = 107.94611 68.96373 99.18262
#
# Poissons Ratio (x) = 0.18171 0.33335
# Poissons Ratio (y) = 0.28443 0.04080
# Poissons Ratio (z) = 0.36281 0.02837
#
# Static dielectric constant tensor:
#      x y z
#    x 3.667660 0.000000 0.000000 
#    y 0.000000 3.513040 0.000000 
#    z 0.000000 0.000000 3.565030 
# 
# 
# High freq. dielectric constant tensor:
#      x y z
#    x 1.765520 0.000000 0.000000 
#    y 0.000000 1.764450 0.000000 
#    z 0.000000 0.000000 1.762080 
# 
# From -- ./inp_files/21748.got.cif
#   From: 2010.03.12/outbox.cif.g09.slc.cpg/sg44_11_cif.got.tgz:21748.got - 2010.04.14 02:36:11.
