data_PCOD8189442
_publ_section_title
;
Structure prediction by ZEFSAII (Michael W. Deem and Ramdas Pophale) SiO2 
 PCOD8189442
Probable space group: I M M 2
;
_chemical_formula_sum "Si O2"
_cell_formula_units_Z 56
_cell_length_a 21.305443
_cell_length_b 9.159051
_cell_length_c 14.099611
_cell_angle_alpha 90.000000
_cell_angle_beta 90.000000
_cell_angle_gamma 90.000000
_cell_volume 2751.364802
_symmetry_space_group_name_H-M "I M M 2"
_symmetry_group_IT_number 44
_symmetry_cell_setting 'orthorhombic'
loop_
_space_group_symop_operation_xyz
x,y,z
-x,-y,z
-x,y,z
x,-y,z
1/2+x,1/2+y,1/2+z
1/2-x,1/2-y,1/2+z
1/2-x,1/2+y,1/2+z
1/2+x,1/2-y,1/2+z
loop_
_atom_site_type_symbol
_atom_site_label
_atom_site_fract_x
_atom_site_fract_y
_atom_site_fract_z
Si Si1 0.641336 0.326683 0.453310
Si Si2 0.820359 0.335953 0.132597
Si Si3 0.000000 0.159376 0.934131
Si Si4 0.570687 0.836205 0.765095
Si Si5 0.000000 0.161006 0.712705
Si Si6 0.426609 0.666895 0.948440
Si Si7 0.887140 0.672081 0.624257
Si Si8 0.297625 0.668705 0.252188
O O1 0.638211 0.500000 0.459289
O O2 0.684068 0.268018 0.540403
O O3 0.568331 0.263903 0.457783
O O4 0.679754 0.281736 0.357246
O O5 0.809963 0.500000 0.094699
O O6 0.890017 0.310300 0.170941
O O7 0.775803 0.310152 0.225352
O O8 0.000000 0.137211 0.822953
O O9 0.000000 0.000000 0.983512
O O10 0.500000 0.810306 0.731859
O O11 0.589777 0.718114 0.843315
O O12 0.580319 0.000000 0.806404
O O13 0.059813 0.252039 0.685259
O O14 0.000000 0.000000 0.662823
O O15 0.500000 0.689692 0.972108
O O16 0.405946 0.500000 0.959965
O O17 0.386513 0.768383 0.017617
O O18 0.896084 0.500000 0.623779
O O19 0.823729 0.720693 0.673781
O O20 0.318695 0.500000 0.236105
#
# Coordination Sequence:
#
# PCOD8189442 Si02
#       8
#     8   8   4   8   4   8   8   8
#     4  10  21  39  63  90 121 162 208 256 307 368
#     4  10  23  41  62  90 121 159 201 251 313 377
#     4   9  18  35  61  90 119 158 205 251 304 366
#     4   9  19  37  58  82 118 157 198 251 308 364
#     4  11  19  35  59  84 121 162 199 245 310 372
#     4  10  20  34  55  83 117 157 198 240 294 356
#     4  12  23  34  55  89 123 157 203 254 309 363
#     4  10  22  42  62  82 118 164 209 250 303 372
#
# _framework density 20.353535000000001
#
# number of rings (size 3 to 8) (size 9 to 14) (size 15 to 20)
#    0.000    1.857    2.143    1.929    1.000    3.429 
#    0.000    1.429    0.000    0.000    0.000    0.000 
#    0.000    0.000    0.000    0.000    0.000    0.000 
#
# Total GULP energy -346928.001609 kJ/mol
# GULP energy per Si atom -12390.285772 kJ/mol
# Density = 2.030721 g / cm^3
# Si number density = 20.353535 Si / 1000 Ang^3
#
#
#
# Elastic Constant Matrix: (Units=GPa)
#
#
# Indices 1 2 3 4 5 6 
#
# 1 81.8393 26.0050 47.9483 0.0000 0.0000 0.0000
# 2 26.0050 100.3369 39.8530 0.0000 0.0000 0.0000
# 3 47.9483 39.8530 103.4379 0.0000 0.0000 0.0000
# 4 0.0000 0.0000 0.0000 35.1781 0.0000 0.0000
# 5 0.0000 0.0000 0.0000 0.0000 30.9167 0.0000
# 6 0.0000 0.0000 0.0000 0.0000 0.0000 27.4935
#
#
#
# Elastic Compliance Matrix: (Units=1/GPa)
#
#
# Indices 1 2 3 4 5 6 
#
# 1 0.016965 -0.001503 -0.007285 0.000000 0.000000 0.000000
# 2 -0.001503 0.011900 -0.003888 0.000000 0.000000 0.000000
# 3 -0.007285 -0.003888 0.014542 0.000000 0.000000 0.000000
# 4 0.000000 0.000000 0.000000 0.028427 0.000000 0.000000
# 5 0.000000 0.000000 0.000000 0.000000 0.032345 0.000000
# 6 0.000000 0.000000 0.000000 0.000000 0.000000 0.036372
#
#
# Mechanical properties :
#
#
# Convention : Reuss Voigt Hill
#
# Bulk Modulus (GPa) = 55.38602 57.02520 56.20561
# Shear Modulus (GPa) = 29.08286 30.17152 29.62719
#
# Velocity S-wave (km/s) = 3.78416 3.85434 3.81941
# Velocity P-wave (km/s) = 6.80913 6.91997 6.86477
#
# Compressibility (1/GPa) = 0.01805510
#
# Stress axis : x y z
#
# Youngs Moduli (GPa) = 58.94566 84.03067 68.76416
#
# Poissons Ratio (x) = 0.12634 0.50093
# Poissons Ratio (y) = 0.08862 0.26736
# Poissons Ratio (z) = 0.42940 0.32672
#
# Static dielectric constant tensor:
#      x y z
#    x 4.016800 0.000000 0.000000 
#    y 0.000000 3.613140 0.000000 
#    z 0.000000 0.000000 3.569140 
# 
# 
# High freq. dielectric constant tensor:
#      x y z
#    x 1.792120 0.000000 0.000000 
#    y 0.000000 1.780640 0.000000 
#    z 0.000000 0.000000 1.793290 
# 
# From -- ./inp_files/19252.got.cif
#   From: 2010.03.12/outbox.cif.g09.slc.cpg/sg44_10_cif.got.tgz:19252.got - 2010.04.14 02:36:11.
