data_PCOD8189633
_publ_section_title
;
Structure prediction by ZEFSAII (Michael W. Deem and Ramdas Pophale) SiO2 
 PCOD8189633
Probable space group: I M M 2
;
_chemical_formula_sum "Si O2"
_cell_formula_units_Z 44
_cell_length_a 26.541418
_cell_length_b 7.911519
_cell_length_c 10.856816
_cell_angle_alpha 90.000000
_cell_angle_beta 90.000000
_cell_angle_gamma 90.000000
_cell_volume 2279.746064
_symmetry_space_group_name_H-M "I M M 2"
_symmetry_group_IT_number 44
_symmetry_cell_setting 'orthorhombic'
loop_
_space_group_symop_operation_xyz
x,y,z
-x,-y,z
-x,y,z
x,-y,z
1/2+x,1/2+y,1/2+z
1/2-x,1/2-y,1/2+z
1/2-x,1/2+y,1/2+z
1/2+x,1/2-y,1/2+z
loop_
_atom_site_type_symbol
_atom_site_label
_atom_site_fract_x
_atom_site_fract_y
_atom_site_fract_z
Si Si1 0.786348 0.304296 0.200200
Si Si2 0.632890 0.500000 0.397198
Si Si3 0.271595 0.685960 0.432257
Si Si4 0.057082 0.686363 0.503165
Si Si5 0.941863 0.000000 0.673275
Si Si6 0.444114 0.500000 0.614561
Si Si7 0.100850 0.306731 0.244427
O O1 0.783714 0.500000 0.227709
O O2 0.754844 0.219777 0.314740
O O3 0.843737 0.240486 0.206467
O O4 0.763251 0.275965 0.064096
O O5 0.668570 0.332774 0.400426
O O6 0.597135 0.500000 0.281906
O O7 0.597817 0.500000 0.513282
O O8 0.247645 0.500000 0.451195
O O9 0.062174 0.500000 0.565361
O O10 0.096079 0.698427 0.391348
O O11 0.000000 0.712107 0.453835
O O12 0.070767 0.831109 0.598861
O O13 0.000000 0.000000 0.718236
O O14 0.500000 0.500000 0.557355
O O15 0.439005 0.327116 0.692164
O O16 0.090840 0.500000 0.196697
#
# Coordination Sequence:
#
# PCOD8189633 Si02
#       7
#     8   4   8   8   4   4   8
#     4  10  20  37  58  85 116 156 198 254 309 365
#     4  10  21  40  56  80 118 156 197 253 292 365
#     4   9  20  38  58  80 117 152 196 249 302 363
#     4   9  18  33  53  81 115 149 190 243 295 351
#     4  10  20  36  57  81 116 158 196 242 299 359
#     4  12  22  36  61  87 118 164 202 239 307 366
#     4  10  20  36  58  85 121 150 197 254 302 359
#
# _framework density 19.300395999999999
#
# number of rings (size 3 to 8) (size 9 to 14) (size 15 to 20)
#    0.545    1.636    1.818    1.364    0.000    4.000 
#    0.000    1.818    0.000    2.182    0.000    0.000 
#    0.000    0.000    0.000    0.000    0.000    0.000 
#
# Total GULP energy -272557.688839 kJ/mol
# GULP energy per Si atom -12388.985856 kJ/mol
# Density = 1.925647 g / cm^3
# Si number density = 19.300396 Si / 1000 Ang^3
#
#
#
# Elastic Constant Matrix: (Units=GPa)
#
#
# Indices 1 2 3 4 5 6 
#
# 1 67.6923 26.7227 38.5118 0.0000 0.0000 0.0000
# 2 26.7227 84.3715 30.2055 0.0000 0.0000 0.0000
# 3 38.5118 30.2055 114.8027 0.0000 0.0000 0.0000
# 4 0.0000 0.0000 0.0000 24.3325 0.0000 0.0000
# 5 0.0000 0.0000 0.0000 0.0000 42.7978 0.0000
# 6 0.0000 0.0000 0.0000 0.0000 0.0000 25.6285
#
#
#
# Elastic Compliance Matrix: (Units=1/GPa)
#
#
# Indices 1 2 3 4 5 6 
#
# 1 0.019542 -0.004242 -0.005439 0.000000 0.000000 0.000000
# 2 -0.004242 0.014006 -0.002262 0.000000 0.000000 0.000000
# 3 -0.005439 -0.002262 0.011130 0.000000 0.000000 0.000000
# 4 0.000000 0.000000 0.000000 0.041097 0.000000 0.000000
# 5 0.000000 0.000000 0.000000 0.000000 0.023366 0.000000
# 6 0.000000 0.000000 0.000000 0.000000 0.000000 0.039019
#
#
# Mechanical properties :
#
#
# Convention : Reuss Voigt Hill
#
# Bulk Modulus (GPa) = 48.09737 50.86072 49.47904
# Shear Modulus (GPa) = 27.93645 29.98019 28.95832
#
# Velocity S-wave (km/s) = 3.80867 3.94553 3.87770
# Velocity P-wave (km/s) = 6.65701 6.86772 6.76319
#
# Compressibility (1/GPa) = 0.02079116
#
# Stress axis : x y z
#
# Youngs Moduli (GPa) = 51.17183 71.39942 89.84360
#
# Poissons Ratio (x) = 0.30288 0.48870
# Poissons Ratio (y) = 0.21708 0.20322
# Poissons Ratio (z) = 0.27835 0.16150
#
# Static dielectric constant tensor:
#      x y z
#    x 3.588390 0.000000 0.000000 
#    y 0.000000 3.576660 0.000000 
#    z 0.000000 0.000000 3.496310 
# 
# 
# High freq. dielectric constant tensor:
#      x y z
#    x 1.746350 0.000000 0.000000 
#    y 0.000000 1.741060 0.000000 
#    z 0.000000 0.000000 1.743340 
# 
# From -- ./inp_files/9946.got.cif
#   From: 2010.03.12/outbox.cif.g09.slc.cpg/sg44_5_cif.got.tgz:9946.got - 2010.04.14 02:36:11.
