data_PCOD8189642
_publ_section_title
;
Structure prediction by ZEFSAII (Michael W. Deem and Ramdas Pophale) SiO2 
 PCOD8189642
Probable space group: I M M 2
;
_chemical_formula_sum "Si O2"
_cell_formula_units_Z 48
_cell_length_a 9.279102
_cell_length_b 7.809468
_cell_length_c 34.073519
_cell_angle_alpha 90.000000
_cell_angle_beta 90.000000
_cell_angle_gamma 90.000000
_cell_volume 2469.132448
_symmetry_space_group_name_H-M "I M M 2"
_symmetry_group_IT_number 44
_symmetry_cell_setting 'orthorhombic'
loop_
_space_group_symop_operation_xyz
x,y,z
-x,-y,z
-x,y,z
x,-y,z
1/2+x,1/2+y,1/2+z
1/2-x,1/2-y,1/2+z
1/2-x,1/2+y,1/2+z
1/2+x,1/2-y,1/2+z
loop_
_atom_site_type_symbol
_atom_site_label
_atom_site_fract_x
_atom_site_fract_y
_atom_site_fract_z
Si Si1 0.339859 0.804612 0.414370
Si Si2 0.667416 0.692969 0.330125
Si Si3 0.671879 0.500000 0.788644
Si Si4 0.336454 0.702870 0.563284
Si Si5 0.336227 0.202247 0.988515
Si Si6 0.828872 0.310466 0.147469
Si Si7 0.171355 0.000000 0.198978
O O1 0.500000 0.750594 0.428820
O O2 0.294768 0.695029 0.376418
O O3 0.229017 0.779859 0.449292
O O4 0.337814 0.000000 0.400388
O O5 0.500000 0.742766 0.323854
O O6 0.698718 0.500000 0.314743
O O7 0.767256 0.826943 0.307552
O O8 0.500000 0.500000 0.793170
O O9 0.723146 0.500000 0.743613
O O10 0.500000 0.764419 0.556781
O O11 0.327252 0.500000 0.566545
O O12 0.245149 0.774332 0.526755
O O13 0.270691 0.779687 0.603385
O O14 0.500000 0.263189 0.991393
O O15 0.320885 0.000000 0.986466
O O16 0.781771 0.500000 0.161741
O O17 0.765642 0.169333 0.177429
O O18 0.000000 0.292003 0.146174
O O19 0.000000 0.000000 0.196642
#
# Coordination Sequence:
#
# PCOD8189642 Si02
#       7
#     8   8   4   8   8   8   4
#     4  10  20  36  58  80 104 140 191 242 283 329
#     4  10  21  40  65  87 113 153 199 246 293 345
#     4  11  23  37  59  91 127 157 189 239 299 367
#     4   9  16  29  50  73 101 139 185 234 278 322
#     4  10  21  34  49  75 112 150 184 223 279 343
#     4   9  16  28  50  77 105 141 185 231 277 327
#     4   9  18  33  51  79 117 149 179 227 289 341
#
# _framework density 19.440028000000002
#
# number of rings (size 3 to 8) (size 9 to 14) (size 15 to 20)
#    0.000    2.333    1.667    1.250    0.000    4.333 
#    0.000    3.333    0.000    2.000    0.000    0.000 
#    0.000    0.000    0.000    0.000    0.000    0.000 
#
# Total GULP energy -297578.522566 kJ/mol
# GULP energy per Si atom -12399.105107 kJ/mol
# Density = 1.939578 g / cm^3
# Si number density = 19.440028 Si / 1000 Ang^3
#
#
#
# Elastic Constant Matrix: (Units=GPa)
#
#
# Indices 1 2 3 4 5 6 
#
# 1 72.1451 42.5155 53.1979 0.0000 0.0000 0.0000
# 2 42.5155 105.2135 64.8289 0.0000 0.0000 0.0000
# 3 53.1979 64.8289 137.2554 0.0000 0.0000 0.0000
# 4 0.0000 0.0000 0.0000 23.5364 0.0000 0.0000
# 5 0.0000 0.0000 0.0000 0.0000 21.9405 0.0000
# 6 0.0000 0.0000 0.0000 0.0000 0.0000 20.2609
#
#
#
# Elastic Compliance Matrix: (Units=1/GPa)
#
#
# Indices 1 2 3 4 5 6 
#
# 1 0.021065 -0.004911 -0.005845 0.000000 0.000000 0.000000
# 2 -0.004911 0.014551 -0.004969 0.000000 0.000000 0.000000
# 3 -0.005845 -0.004969 0.011898 0.000000 0.000000 0.000000
# 4 0.000000 0.000000 0.000000 0.042487 0.000000 0.000000
# 5 0.000000 0.000000 0.000000 0.000000 0.045578 0.000000
# 6 0.000000 0.000000 0.000000 0.000000 0.000000 0.049356
#
#
# Mechanical properties :
#
#
# Convention : Reuss Voigt Hill
#
# Bulk Modulus (GPa) = 62.25145 70.63318 66.44232
# Shear Modulus (GPa) = 22.54898 23.41900 22.98399
#
# Velocity S-wave (km/s) = 3.40946 3.47461 3.44219
# Velocity P-wave (km/s) = 6.89863 7.24638 7.07464
#
# Compressibility (1/GPa) = 0.01606388
#
# Stress axis : x y z
#
# Youngs Moduli (GPa) = 47.47283 68.72500 84.04585
#
# Poissons Ratio (x) = 0.33748 0.49125
# Poissons Ratio (y) = 0.23312 0.41766
# Poissons Ratio (z) = 0.27748 0.34152
#
# Static dielectric constant tensor:
#      x y z
#    x 3.281780 0.000000 0.000000 
#    y 0.000000 3.627450 0.000000 
#    z 0.000000 0.000000 3.585980 
# 
# 
# High freq. dielectric constant tensor:
#      x y z
#    x 1.719380 0.000000 0.000000 
#    y 0.000000 1.764730 0.000000 
#    z 0.000000 0.000000 1.757380 
# 
# From -- ./inp_files/26902.got.cif
#   From: 2010.03.12/outbox.cif.g09.slc.cpg/sg44_14_cif.got.tgz:26902.got - 2010.04.14 02:36:11.
