data_PCOD8189325
_publ_section_title
;
Structure prediction by ZEFSAII (Michael W. Deem and Ramdas Pophale) SiO2 
 PCOD8189325
Probable space group: I M M 2
;
_chemical_formula_sum "Si O2"
_cell_formula_units_Z 48
_cell_length_a 7.854446
_cell_length_b 9.437608
_cell_length_c 33.681870
_cell_angle_alpha 90.000000
_cell_angle_beta 90.000000
_cell_angle_gamma 90.000000
_cell_volume 2496.742121
_symmetry_space_group_name_H-M "I M M 2"
_symmetry_group_IT_number 44
_symmetry_cell_setting 'orthorhombic'
loop_
_space_group_symop_operation_xyz
x,y,z
-x,-y,z
-x,y,z
x,-y,z
1/2+x,1/2+y,1/2+z
1/2-x,1/2-y,1/2+z
1/2-x,1/2+y,1/2+z
1/2+x,1/2-y,1/2+z
loop_
_atom_site_type_symbol
_atom_site_label
_atom_site_fract_x
_atom_site_fract_y
_atom_site_fract_z
Si Si1 0.190000 0.836808 0.529960
Si Si2 0.310727 0.336766 0.834901
Si Si3 0.805814 0.160811 0.101618
Si Si4 0.000000 0.331826 0.976419
Si Si5 0.700965 0.339755 0.173563
Si Si6 0.500000 0.831433 0.387753
Si Si7 0.804135 0.835748 0.763271
O O1 0.194171 0.748039 0.570408
O O2 0.329345 0.778626 0.498767
O O3 0.000000 0.821433 0.511576
O O4 0.229374 0.000000 0.540713
O O5 0.500000 0.318553 0.853505
O O6 0.270575 0.500000 0.825802
O O7 0.169684 0.276025 0.865398
O O8 0.307780 0.254979 0.793339
O O9 0.793677 0.229983 0.144932
O O10 0.000000 0.164893 0.087248
O O11 0.737801 0.000000 0.103737
O O12 0.000000 0.266846 0.932143
O O13 0.000000 0.500000 0.974035
O O14 0.500000 0.324845 0.168819
O O15 0.757412 0.500000 0.163008
O O16 0.756223 0.303039 0.218482
O O17 0.500000 0.000000 0.390140
O O18 0.000000 0.792144 0.768668
O O19 0.777467 0.000000 0.773086
#
# Coordination Sequence:
#
# PCOD8189325 Si02
#       7
#     8   8   8   4   8   4   8
#     4  10  20  35  58  84 108 140 181 224 272 325
#     4  10  20  33  53  81 111 146 184 221 268 327
#     4  11  23  36  51  75 109 147 184 222 270 326
#     4   9  18  34  57  85 113 141 179 227 275 325
#     4   9  19  35  54  77 104 138 183 231 275 321
#     4   9  18  34  55  81 115 147 177 223 279 325
#     4   9  18  34  55  77 105 143 185 228 274 322
#
# _framework density 19.225055000000001
#
# number of rings (size 3 to 8) (size 9 to 14) (size 15 to 20)
#    0.000    2.333    1.667    2.000    0.000    6.000 
#    0.000    8.333    0.000    2.000    0.000    2.333 
#    0.000    0.000    0.000    0.000    0.000    0.000 
#
# Total GULP energy -297602.930151 kJ/mol
# GULP energy per Si atom -12400.122090 kJ/mol
# Density = 1.918130 g / cm^3
# Si number density = 19.225055 Si / 1000 Ang^3
#
#
#
# Elastic Constant Matrix: (Units=GPa)
#
#
# Indices 1 2 3 4 5 6 
#
# 1 112.8050 33.2051 56.0414 0.0000 0.0000 0.0000
# 2 33.2051 68.5153 48.7214 0.0000 0.0000 0.0000
# 3 56.0414 48.7214 129.0754 0.0000 0.0000 0.0000
# 4 0.0000 0.0000 0.0000 20.7627 0.0000 0.0000
# 5 0.0000 0.0000 0.0000 0.0000 25.0421 0.0000
# 6 0.0000 0.0000 0.0000 0.0000 0.0000 21.3131
#
#
#
# Elastic Compliance Matrix: (Units=1/GPa)
#
#
# Indices 1 2 3 4 5 6 
#
# 1 0.011686 -0.002810 -0.004013 0.000000 0.000000 0.000000
# 2 -0.002810 0.020626 -0.006566 0.000000 0.000000 0.000000
# 3 -0.004013 -0.006566 0.011968 0.000000 0.000000 0.000000
# 4 0.000000 0.000000 0.000000 0.048163 0.000000 0.000000
# 5 0.000000 0.000000 0.000000 0.000000 0.039933 0.000000
# 6 0.000000 0.000000 0.000000 0.000000 0.000000 0.046920
#
#
# Mechanical properties :
#
#
# Convention : Reuss Voigt Hill
#
# Bulk Modulus (GPa) = 57.13358 65.14794 61.14076
# Shear Modulus (GPa) = 23.59539 24.91877 24.25708
#
# Velocity S-wave (km/s) = 3.50712 3.60413 3.55596
# Velocity P-wave (km/s) = 6.79578 7.16102 6.98079
#
# Compressibility (1/GPa) = 0.01750284
#
# Stress axis : x y z
#
# Youngs Moduli (GPa) = 85.57570 48.48307 83.55553
#
# Poissons Ratio (x) = 0.13622 0.33531
# Poissons Ratio (y) = 0.24043 0.54860
# Poissons Ratio (z) = 0.34342 0.31832
#
# Static dielectric constant tensor:
#      x y z
#    x 3.543420 0.000000 0.000000 
#    y 0.000000 3.281480 0.000000 
#    z 0.000000 0.000000 3.523000 
# 
# 
# High freq. dielectric constant tensor:
#      x y z
#    x 1.755320 0.000000 0.000000 
#    y 0.000000 1.720070 0.000000 
#    z 0.000000 0.000000 1.739080 
# 
# From -- ./inp_files/26880.got.cif
#   From: 2010.03.12/outbox.cif.g09.slc.cpg/sg44_14_cif.got.tgz:26880.got - 2010.04.14 02:36:11.
