data_PCOD8189771
_publ_section_title
;
Structure prediction by ZEFSAII (Michael W. Deem and Ramdas Pophale) SiO2 
 PCOD8189771
Probable space group: I M M 2
;
_chemical_formula_sum "Si O2"
_cell_formula_units_Z 26
_cell_length_a 7.738021
_cell_length_b 7.643158
_cell_length_c 21.779059
_cell_angle_alpha 90.000000
_cell_angle_beta 90.000000
_cell_angle_gamma 90.000000
_cell_volume 1288.077081
_symmetry_space_group_name_H-M "I M M 2"
_symmetry_group_IT_number 44
_symmetry_cell_setting 'orthorhombic'
loop_
_space_group_symop_operation_xyz
x,y,z
-x,-y,z
-x,y,z
x,-y,z
1/2+x,1/2+y,1/2+z
1/2-x,1/2-y,1/2+z
1/2-x,1/2+y,1/2+z
1/2+x,1/2-y,1/2+z
loop_
_atom_site_type_symbol
_atom_site_label
_atom_site_fract_x
_atom_site_fract_y
_atom_site_fract_z
Si Si1 0.800749 0.196069 0.664810
Si Si2 0.500000 0.000000 0.988443
Si Si3 0.805026 0.704696 0.798814
Si Si4 0.687668 0.500000 0.581325
Si Si5 0.000000 0.794163 0.389287
O O1 0.745561 0.202785 0.736103
O O2 0.693528 0.328429 0.623674
O O3 0.000000 0.251514 0.659302
O O4 0.767862 0.000000 0.640351
O O5 0.330356 0.000000 0.029404
O O6 0.500000 0.821167 0.950181
O O7 0.796821 0.500000 0.786118
O O8 0.671845 0.758363 0.851851
O O9 0.000000 0.762193 0.818023
O O10 0.500000 0.500000 0.549054
O O11 0.000000 0.000000 0.406621
#
# Coordination Sequence:
#
# PCOD8189771 Si02
#       5
#     8   2   8   4   4
#     4  10  20  37  65  99 135 168 208 271 337 391
#     4  12  28  48  64  88 132 184 232 262 312 400
#     4   9  18  35  62  96 133 162 201 266 332 387
#     4  12  26  44  66  92 130 182 222 273 324 388
#     4  10  24  42  64  92 126 178 214 265 322 388
#
# _framework density 20.185126
#
# number of rings (size 3 to 8) (size 9 to 14) (size 15 to 20)
#    0.000    1.846    3.077    0.000    4.308    3.077 
#    0.000    0.000    0.000    0.000    0.000    0.000 
#    0.000    0.000    0.000    0.000    0.000    0.000 
#
# Total GULP energy -161214.537461 kJ/mol
# GULP energy per Si atom -12401.118266 kJ/mol
# Density = 2.013918 g / cm^3
# Si number density = 20.185126 Si / 1000 Ang^3
#
#
#
# Elastic Constant Matrix: (Units=GPa)
#
#
# Indices 1 2 3 4 5 6 
#
# 1 148.2404 42.6551 78.1622 0.0000 0.0000 0.0000
# 2 42.6551 100.9006 56.4346 0.0000 0.0000 0.0000
# 3 78.1622 56.4346 110.9021 0.0000 0.0000 0.0000
# 4 0.0000 0.0000 0.0000 -12.0549 0.0000 0.0000
# 5 0.0000 0.0000 0.0000 0.0000 -23.0377 0.0000
# 6 0.0000 0.0000 0.0000 0.0000 0.0000 2.7441
#
#
#
# Elastic Compliance Matrix: (Units=1/GPa)
#
#
# Indices 1 2 3 4 5 6 
#
# 1 0.010748 -0.000429 -0.007357 0.000000 0.000000 0.000000
# 2 -0.000429 0.013871 -0.006756 0.000000 0.000000 0.000000
# 3 -0.007357 -0.006756 0.017640 0.000000 0.000000 0.000000
# 4 0.000000 0.000000 0.000000 -0.082954 0.000000 0.000000
# 5 0.000000 0.000000 0.000000 0.000000 -0.043407 0.000000
# 6 0.000000 0.000000 0.000000 0.000000 0.000000 0.364423
#
#
# Mechanical properties :
#
#
# Convention : Reuss Voigt Hill
#
# Bulk Modulus (GPa) = 75.90083 79.39411 77.64747
# Shear Modulus (GPa) = 15.93388 5.71638 10.82513
#
# Velocity S-wave (km/s) = 2.81265 1.68467 2.31831
# Velocity P-wave (km/s) = 6.94493 6.57286 6.76145
#
# Compressibility (1/GPa) = 0.01317509
#
# Stress axis : x y z
#
# Youngs Moduli (GPa) = 93.03793 72.09377 56.68938
#
# Poissons Ratio (x) = 0.03093 0.41706
# Poissons Ratio (y) = 0.03991 0.38300
# Poissons Ratio (z) = 0.68448 0.48707
#
# Static dielectric constant tensor:
#      x y z
#    x 3.951850 0.000000 0.000000 
#    y 0.000000 3.750620 0.000000 
#    z 0.000000 0.000000 3.401840 
# 
# 
# High freq. dielectric constant tensor:
#      x y z
#    x 1.795030 0.000000 0.000000 
#    y 0.000000 1.797510 0.000000 
#    z 0.000000 0.000000 1.760580 
# 
# From -- ./inp_files/19853.got.cif
#   From: 2010.03.12/outbox.cif.g09.slc.cpg/sg44_10_cif.got.tgz:19853.got - 2010.04.14 02:36:11.
