data_PCOD8189942
_publ_section_title
;
Structure prediction by ZEFSAII (Michael W. Deem and Ramdas Pophale) SiO2 
 PCOD8189942
Probable space group: I M M 2
;
_chemical_formula_sum "Si O2"
_cell_formula_units_Z 56
_cell_length_a 8.671403
_cell_length_b 23.797714
_cell_length_c 13.850998
_cell_angle_alpha 90.000000
_cell_angle_beta 90.000000
_cell_angle_gamma 90.000000
_cell_volume 2858.285972
_symmetry_space_group_name_H-M "I M M 2"
_symmetry_group_IT_number 44
_symmetry_cell_setting 'orthorhombic'
loop_
_space_group_symop_operation_xyz
x,y,z
-x,-y,z
-x,y,z
x,-y,z
1/2+x,1/2+y,1/2+z
1/2-x,1/2-y,1/2+z
1/2-x,1/2+y,1/2+z
1/2+x,1/2-y,1/2+z
loop_
_atom_site_type_symbol
_atom_site_label
_atom_site_fract_x
_atom_site_fract_y
_atom_site_fract_z
Si Si1 0.183047 0.563022 0.416650
Si Si2 0.318793 0.673298 0.946973
Si Si3 0.316678 0.937564 0.130131
Si Si4 0.319850 0.437728 0.051397
Si Si5 0.182216 0.268372 0.125218
Si Si6 0.181936 0.669954 0.741203
Si Si7 0.682151 0.119751 0.728053
O O1 0.236414 0.500000 0.390482
O O2 0.246261 0.578991 0.523190
O O3 0.248689 0.605333 0.334734
O O4 0.000000 0.566348 0.417467
O O5 0.500000 0.683242 0.958838
O O6 0.269844 0.686472 0.838334
O O7 0.269700 0.609183 0.973032
O O8 0.230221 0.716757 0.016106
O O9 0.500000 0.937931 0.126107
O O10 0.259693 0.891714 0.207346
O O11 0.256660 0.000000 0.159493
O O12 0.500000 0.433574 0.070635
O O13 0.272992 0.500000 0.013514
O O14 0.238444 0.427038 0.153101
O O15 0.272967 0.213138 0.157288
O O16 0.238031 0.318564 0.196035
O O17 0.000000 0.258233 0.130622
O O18 0.000000 0.670996 0.759076
O O19 0.500000 0.117271 0.728128
#
# Coordination Sequence:
#
# PCOD8189942 Si02
#       7
#     8   8   8   8   8   8   8
#     4   8  13  24  45  73 102 130 164 208 256 305
#     4  10  21  38  57  77 106 142 181 225 271 320
#     4   8  16  31  50  75 107 140 176 218 261 312
#     4   9  18  32  50  74 106 143 179 218 270 325
#     4  10  21  37  55  78 109 140 177 224 270 321
#     4  11  22  36  57  82 107 139 178 220 273 328
#     4   9  17  29  49  77 105 136 175 218 263 315
#
# _framework density 19.592161999999998
#
# number of rings (size 3 to 8) (size 9 to 14) (size 15 to 20)
#    0.000    2.714    0.000    2.571    0.000    3.714 
#    0.000    2.857    0.000    3.000    0.000    4.000 
#    0.000    0.000    0.000    0.000    0.000    0.000 
#
# Total GULP energy -347103.805138 kJ/mol
# GULP energy per Si atom -12396.564469 kJ/mol
# Density = 1.954757 g / cm^3
# Si number density = 19.592162 Si / 1000 Ang^3
#
#
#
# Elastic Constant Matrix: (Units=GPa)
#
#
# Indices 1 2 3 4 5 6 
#
# 1 24.4703 14.1958 9.7644 0.0001 0.0001 0.0000
# 2 14.1958 100.8152 44.7603 0.0003 0.0000 0.0000
# 3 9.7644 44.7603 105.5331 0.0011 0.0000 -0.0001
# 4 0.0001 0.0003 0.0011 27.1810 0.0000 -0.0001
# 5 0.0001 0.0000 0.0000 0.0000 23.6228 0.0001
# 6 0.0000 0.0000 -0.0001 -0.0001 0.0001 22.5023
#
#
#
# Elastic Compliance Matrix: (Units=1/GPa)
#
#
# Indices 1 2 3 4 5 6 
#
# 1 0.044780 -0.005502 -0.001810 0.000000 0.000000 0.000000
# 2 -0.005502 0.012896 -0.004961 0.000000 0.000000 0.000000
# 3 -0.001810 -0.004961 0.011747 0.000000 0.000000 0.000000
# 4 0.000000 0.000000 0.000000 0.036790 0.000000 0.000000
# 5 0.000000 0.000000 0.000000 0.000000 0.042332 0.000000
# 6 0.000000 0.000000 0.000000 0.000000 0.000000 0.044440
#
#
# Mechanical properties :
#
#
# Convention : Reuss Voigt Hill
#
# Bulk Modulus (GPa) = 22.28236 40.91774 31.60005
# Shear Modulus (GPa) = 21.50631 25.46776 23.48703
#
# Velocity S-wave (km/s) = 3.31675 3.60932 3.46612
# Velocity P-wave (km/s) = 5.10544 6.18867 5.67297
#
# Compressibility (1/GPa) = 0.04487855
#
# Stress axis : x y z
#
# Youngs Moduli (GPa) = 22.33150 77.54129 85.12697
#
# Poissons Ratio (x) = 0.42663 0.15405
# Poissons Ratio (y) = 0.12287 0.42229
# Poissons Ratio (z) = 0.04041 0.38466
#
# Static dielectric constant tensor:
#      x y z
#    x 3.217430 0.000000 0.000000 
#    y 0.000000 3.817590 0.000000 
#    z 0.000000 0.000000 3.762510 
# 
# 
# High freq. dielectric constant tensor:
#      x y z
#    x 1.732880 0.000000 0.000000 
#    y 0.000000 1.764550 0.000000 
#    z 0.000000 0.000000 1.762340 
# 
# From -- ./inp_files/16422.got.cif
#   From: 2010.03.12/outbox.cif.g09.slc.cpg/sg44_9_cif.got.tgz:16422.got - 2010.04.14 02:36:11.
