data_PCOD8189545
_publ_section_title
;
Structure prediction by ZEFSAII (Michael W. Deem and Ramdas Pophale) SiO2 
 PCOD8189545
Probable space group: I M M 2
;
_chemical_formula_sum "Si O2"
_cell_formula_units_Z 48
_cell_length_a 8.852522
_cell_length_b 20.220216
_cell_length_c 14.520032
_cell_angle_alpha 90.000000
_cell_angle_beta 90.000000
_cell_angle_gamma 90.000000
_cell_volume 2599.084377
_symmetry_space_group_name_H-M "I M M 2"
_symmetry_group_IT_number 44
_symmetry_cell_setting 'orthorhombic'
loop_
_space_group_symop_operation_xyz
x,y,z
-x,-y,z
-x,y,z
x,-y,z
1/2+x,1/2+y,1/2+z
1/2-x,1/2-y,1/2+z
1/2-x,1/2+y,1/2+z
1/2+x,1/2-y,1/2+z
loop_
_atom_site_type_symbol
_atom_site_label
_atom_site_fract_x
_atom_site_fract_y
_atom_site_fract_z
Si Si1 0.321137 0.317790 0.309910
Si Si2 0.177534 0.275708 0.127369
Si Si3 0.673972 0.074439 0.301164
Si Si4 0.825594 0.576743 0.435524
Si Si5 0.676577 0.622677 0.621527
Si Si6 0.678699 0.806466 0.425571
O O1 0.500000 0.317277 0.308614
O O2 0.261206 0.316736 0.206030
O O3 0.265622 0.384265 0.357976
O O4 0.256271 0.254390 0.365592
O O5 0.219597 0.198866 0.136184
O O6 0.000000 0.287489 0.137533
O O7 0.240426 0.302374 0.029624
O O8 0.500000 0.089732 0.274914
O O9 0.776269 0.082280 0.211452
O O10 0.730472 0.124309 0.380656
O O11 0.692249 0.000000 0.339151
O O12 0.800752 0.500000 0.414853
O O13 0.766360 0.593408 0.536387
O O14 0.000000 0.596884 0.430203
O O15 0.500000 0.613672 0.602081
O O16 0.500000 0.799744 0.428912
#
# Coordination Sequence:
#
# PCOD8189545 Si02
#       6
#     8   8   8   8   8   8
#     4  11  21  37  60  85 113 149 190 236 283 333
#     4  10  20  36  56  83 115 147 187 235 284 336
#     4  10  20  35  56  82 113 151 191 232 283 340
#     4  11  24  40  58  83 116 153 191 234 288 349
#     4  11  21  34  56  86 118 151 186 232 287 341
#     4   9  18  35  56  79 111 148 190 232 272 329
#
# _framework density 18.468042000000001
#
# number of rings (size 3 to 8) (size 9 to 14) (size 15 to 20)
#    0.000    1.667    3.333    2.000    0.000    4.333 
#    0.000    1.667    0.000    3.000    0.000    0.000 
#    0.000    0.000    0.000    0.000    0.000    0.000 
#
# Total GULP energy -297690.307767 kJ/mol
# GULP energy per Si atom -12403.762824 kJ/mol
# Density = 1.842601 g / cm^3
# Si number density = 18.468042 Si / 1000 Ang^3
#
#
#
# Elastic Constant Matrix: (Units=GPa)
#
#
# Indices 1 2 3 4 5 6 
#
# 1 45.6421 34.3858 34.7086 0.0000 0.0000 0.0000
# 2 34.3858 103.7699 57.4235 0.0000 0.0000 0.0000
# 3 34.7086 57.4235 146.5022 0.0000 0.0000 0.0000
# 4 0.0000 0.0000 0.0000 21.6935 0.0000 0.0000
# 5 0.0000 0.0000 0.0000 0.0000 19.0159 0.0000
# 6 0.0000 0.0000 0.0000 0.0000 0.0000 25.7262
#
#
#
# Elastic Compliance Matrix: (Units=1/GPa)
#
#
# Indices 1 2 3 4 5 6 
#
# 1 0.031148 -0.007966 -0.004257 0.000000 0.000000 0.000000
# 2 -0.007966 0.014343 -0.003735 0.000000 0.000000 0.000000
# 3 -0.004257 -0.003735 0.009298 0.000000 0.000000 0.000000
# 4 0.000000 0.000000 0.000000 0.046097 0.000000 0.000000
# 5 0.000000 0.000000 0.000000 0.000000 0.052588 0.000000
# 6 0.000000 0.000000 0.000000 0.000000 0.000000 0.038871
#
#
# Mechanical properties :
#
#
# Convention : Reuss Voigt Hill
#
# Bulk Modulus (GPa) = 43.71727 60.99442 52.35585
# Shear Modulus (GPa) = 21.56245 24.58019 23.07132
#
# Velocity S-wave (km/s) = 3.42066 3.65219 3.53832
# Velocity P-wave (km/s) = 6.27092 7.13326 6.71594
#
# Compressibility (1/GPa) = 0.02287426
#
# Stress axis : x y z
#
# Youngs Moduli (GPa) = 32.10467 69.72081 107.54623
#
# Poissons Ratio (x) = 0.55537 0.45785
# Poissons Ratio (y) = 0.25573 0.40166
# Poissons Ratio (z) = 0.13668 0.26039
#
# Static dielectric constant tensor:
#      x y z
#    x 3.266010 0.000000 0.000000 
#    y 0.000000 3.459280 0.000000 
#    z 0.000000 0.000000 3.523090 
# 
# 
# High freq. dielectric constant tensor:
#      x y z
#    x 1.705370 0.000000 0.000000 
#    y 0.000000 1.715850 0.000000 
#    z 0.000000 0.000000 1.719470 
# 
# From -- ./inp_files/14595.got.cif
#   From: 2010.03.12/outbox.cif.g09.slc.cpg/sg44_8_cif.got.tgz:14595.got - 2010.04.14 02:36:11.
