data_PCOD8189358
_publ_section_title
;
Structure prediction by ZEFSAII (Michael W. Deem and Ramdas Pophale) SiO2 
 PCOD8189358
Probable space group: I M M 2
;
_chemical_formula_sum "Si O2"
_cell_formula_units_Z 64
_cell_length_a 29.257179
_cell_length_b 8.798177
_cell_length_c 12.850821
_cell_angle_alpha 90.000000
_cell_angle_beta 90.000000
_cell_angle_gamma 90.000000
_cell_volume 3307.927769
_symmetry_space_group_name_H-M "I M M 2"
_symmetry_group_IT_number 44
_symmetry_cell_setting 'orthorhombic'
loop_
_space_group_symop_operation_xyz
x,y,z
-x,-y,z
-x,y,z
x,-y,z
1/2+x,1/2+y,1/2+z
1/2-x,1/2-y,1/2+z
1/2-x,1/2+y,1/2+z
1/2+x,1/2-y,1/2+z
loop_
_atom_site_type_symbol
_atom_site_label
_atom_site_fract_x
_atom_site_fract_y
_atom_site_fract_z
Si Si1 0.290735 0.676796 0.390710
Si Si2 0.945989 0.672062 0.797114
Si Si3 0.714852 0.668819 0.994970
Si Si4 0.119964 0.179933 0.397940
Si Si5 0.553187 0.177639 0.062842
Si Si6 0.138064 0.319485 0.178743
Si Si7 0.259581 0.829833 0.699123
Si Si8 0.613781 0.679871 0.467510
O O1 0.297530 0.500000 0.370518
O O2 0.256236 0.712324 0.483200
O O3 0.264301 0.758722 0.294597
O O4 0.340074 0.747318 0.414935
O O5 0.929013 0.500000 0.815251
O O6 0.931414 0.726040 0.680344
O O7 0.926588 0.777650 0.888622
O O8 0.000000 0.680809 0.805421
O O9 0.724467 0.500000 0.948496
O O10 0.717338 0.661459 0.119088
O O11 0.667343 0.732964 0.951825
O O12 0.079786 0.228533 0.475357
O O13 0.115549 0.259992 0.285996
O O14 0.118092 0.000000 0.382784
O O15 0.500000 0.214361 0.047366
O O16 0.562911 0.000000 0.046882
O O17 0.133999 0.500000 0.174535
O O18 0.190859 0.258341 0.168740
O O19 0.108802 0.253305 0.082042
O O20 0.272963 0.000000 0.735026
O O21 0.615281 0.500000 0.482638
#
# Coordination Sequence:
#
# PCOD8189358 Si02
#       8
#     8   8   8   8   8   8   8   8
#     4  10  20  34  52  76 110 149 191 234 277 330
#     4   9  20  41  66  89 115 148 188 233 282 345
#     4  10  20  34  52  76 110 149 191 234 277 330
#     4  11  23  36  57  88 121 151 189 242 295 343
#     4   9  20  41  66  89 115 148 188 233 282 345
#     4  11  21  37  60  78 111 162 204 238 279 339
#     4   9  18  33  51  72 105 150 193 232 275 325
#     4  11  23  36  57  88 121 151 189 242 295 343
#
# _framework density 19.347460000000002
#
# number of rings (size 3 to 8) (size 9 to 14) (size 15 to 20)
#    0.000    2.000    2.500    1.875    1.750    2.000 
#    0.000    2.500    0.000    3.750    0.000    0.000 
#    0.000    0.000    0.000    0.000    0.000    0.000 
#
# Total GULP energy -396480.457279 kJ/mol
# GULP energy per Si atom -12390.014290 kJ/mol
# Density = 1.930342 g / cm^3
# Si number density = 19.347460 Si / 1000 Ang^3
#
#
#
# Elastic Constant Matrix: (Units=GPa)
#
#
# Indices 1 2 3 4 5 6 
#
# 1 65.2609 27.1522 49.4154 0.0000 0.0000 0.0000
# 2 27.1522 60.0913 46.3763 0.0000 0.0000 0.0000
# 3 49.4154 46.3763 134.6561 0.0000 0.0000 0.0000
# 4 0.0000 0.0000 0.0000 27.2651 0.0000 0.0000
# 5 0.0000 0.0000 0.0000 0.0000 36.5548 0.0000
# 6 0.0000 0.0000 0.0000 0.0000 0.0000 25.4241
#
#
#
# Elastic Compliance Matrix: (Units=1/GPa)
#
#
# Indices 1 2 3 4 5 6 
#
# 1 0.022322 -0.005127 -0.006426 0.000000 0.000000 0.000000
# 2 -0.005127 0.023843 -0.006330 0.000000 0.000000 0.000000
# 3 -0.006426 -0.006330 0.011965 0.000000 0.000000 0.000000
# 4 0.000000 0.000000 0.000000 0.036677 0.000000 0.000000
# 5 0.000000 0.000000 0.000000 0.000000 0.027356 0.000000
# 6 0.000000 0.000000 0.000000 0.000000 0.000000 0.039333
#
#
# Mechanical properties :
#
#
# Convention : Reuss Voigt Hill
#
# Bulk Modulus (GPa) = 44.71519 56.21069 50.46294
# Shear Modulus (GPa) = 24.42400 26.98641 25.70521
#
# Velocity S-wave (km/s) = 3.55686 3.73879 3.64896
# Velocity P-wave (km/s) = 6.32694 6.91046 6.62513
#
# Compressibility (1/GPa) = 0.02236376
#
# Stress axis : x y z
#
# Youngs Moduli (GPa) = 44.79926 41.94022 83.57947
#
# Poissons Ratio (x) = 0.21502 0.53707
# Poissons Ratio (y) = 0.22968 0.52909
# Poissons Ratio (z) = 0.28787 0.26550
#
# Static dielectric constant tensor:
#      x y z
#    x 3.441550 0.000000 0.000000 
#    y 0.000000 3.420650 0.000000 
#    z 0.000000 0.000000 3.651750 
# 
# 
# High freq. dielectric constant tensor:
#      x y z
#    x 1.736470 0.000000 0.000000 
#    y 0.000000 1.737440 0.000000 
#    z 0.000000 0.000000 1.765820 
# 
# From -- ./inp_files/15117.got.cif
#   From: 2010.03.12/outbox.cif.g09.slc.cpg/sg44_8_cif.got.tgz:15117.got - 2010.04.14 02:36:11.
