data_PCOD8189779
_publ_section_title
;
Structure prediction by ZEFSAII (Michael W. Deem and Ramdas Pophale) SiO2 
 PCOD8189779
Probable space group: I M M 2
;
_chemical_formula_sum "Si O2"
_cell_formula_units_Z 40
_cell_length_a 25.431270
_cell_length_b 8.870641
_cell_length_c 9.326887
_cell_angle_alpha 90.000000
_cell_angle_beta 90.000000
_cell_angle_gamma 90.000000
_cell_volume 2104.067980
_symmetry_space_group_name_H-M "I M M 2"
_symmetry_group_IT_number 44
_symmetry_cell_setting 'orthorhombic'
loop_
_space_group_symop_operation_xyz
x,y,z
-x,-y,z
-x,y,z
x,-y,z
1/2+x,1/2+y,1/2+z
1/2-x,1/2-y,1/2+z
1/2-x,1/2+y,1/2+z
1/2+x,1/2-y,1/2+z
loop_
_atom_site_type_symbol
_atom_site_label
_atom_site_fract_x
_atom_site_fract_y
_atom_site_fract_z
Si Si1 0.406505 0.175717 0.254420
Si Si2 0.293771 0.326925 0.588153
Si Si3 0.598923 0.825013 0.583669
Si Si4 0.701408 0.326737 0.254339
Si Si5 0.000000 0.822453 0.583208
Si Si6 0.500000 0.824360 0.777298
O O1 0.417065 0.214120 0.420712
O O2 0.348527 0.227847 0.207646
O O3 0.448244 0.262329 0.159537
O O4 0.412416 0.000000 0.222352
O O5 0.286569 0.500000 0.634104
O O6 0.351693 0.273421 0.634619
O O7 0.285529 0.302425 0.420155
O O8 0.251561 0.224297 0.666019
O O9 0.550785 0.781356 0.684673
O O10 0.614287 0.000000 0.595929
O O11 0.688648 0.500000 0.220448
O O12 0.000000 0.773982 0.418802
O O13 0.000000 0.000000 0.592864
O O14 0.500000 0.000000 0.818065
#
# Coordination Sequence:
#
# PCOD8189779 Si02
#       6
#     8   8   8   8   4   4
#     4  10  20  38  62  84 108 143 185 227 275 329
#     4  10  21  36  56  83 113 147 185 225 273 327
#     4   9  19  37  61  84 107 141 185 230 276 328
#     4  10  21  37  57  83 113 145 184 228 273 324
#     4  12  25  38  54  82 116 148 183 224 272 324
#     4  10  21  38  58  82 112 144 181 228 280 328
#
# _framework density 19.010794000000001
#
# number of rings (size 3 to 8) (size 9 to 14) (size 15 to 20)
#    0.000    2.000    0.000    3.300    0.000    7.200 
#    0.000    3.000    0.000    0.000    0.000    0.000 
#    0.000    0.000    0.000    0.000    0.000    0.000 
#
# Total GULP energy -248105.268489 kJ/mol
# GULP energy per Si atom -12405.263424 kJ/mol
# Density = 1.896752 g / cm^3
# Si number density = 19.010794 Si / 1000 Ang^3
#
#
#
# Elastic Constant Matrix: (Units=GPa)
#
#
# Indices 1 2 3 4 5 6 
#
# 1 132.4042 62.1876 73.7465 0.0000 0.0000 0.0000
# 2 62.1876 102.6158 56.2378 0.0000 0.0000 0.0000
# 3 73.7465 56.2378 86.8408 0.0000 0.0000 0.0000
# 4 0.0000 0.0000 0.0000 27.7906 0.0000 0.0000
# 5 0.0000 0.0000 0.0000 0.0000 30.6212 0.0000
# 6 0.0000 0.0000 0.0000 0.0000 0.0000 59.5430
#
#
#
# Elastic Compliance Matrix: (Units=1/GPa)
#
#
# Indices 1 2 3 4 5 6 
#
# 1 0.015008 -0.003271 -0.010626 0.000000 0.000000 0.000000
# 2 -0.003271 0.015820 -0.007467 0.000000 0.000000 0.000000
# 3 -0.010626 -0.007467 0.025375 0.000000 0.000000 0.000000
# 4 0.000000 0.000000 0.000000 0.035983 0.000000 0.000000
# 5 0.000000 0.000000 0.000000 0.000000 0.032657 0.000000
# 6 0.000000 0.000000 0.000000 0.000000 0.000000 0.016795
#
#
# Mechanical properties :
#
#
# Convention : Reuss Voigt Hill
#
# Bulk Modulus (GPa) = 74.21981 78.46719 76.34350
# Shear Modulus (GPa) = 26.47507 32.23690 29.35599
#
# Velocity S-wave (km/s) = 3.73585 4.12237 3.93386
# Velocity P-wave (km/s) = 7.59832 8.00146 7.80249
#
# Compressibility (1/GPa) = 0.01347349
#
# Stress axis : x y z
#
# Youngs Moduli (GPa) = 66.63216 63.21247 39.40942
#
# Poissons Ratio (x) = 0.20679 0.41877
# Poissons Ratio (y) = 0.21798 0.29425
# Poissons Ratio (z) = 0.70805 0.47198
#
# Static dielectric constant tensor:
#      x y z
#    x 3.567020 0.000000 0.000000 
#    y 0.000000 3.557040 0.000000 
#    z 0.000000 0.000000 3.438530 
# 
# 
# High freq. dielectric constant tensor:
#      x y z
#    x 1.751460 0.000000 0.000000 
#    y 0.000000 1.747470 0.000000 
#    z 0.000000 0.000000 1.734350 
# 
# From -- ./inp_files/9630.got.cif
#   From: 2010.03.12/outbox.cif.g09.slc.cpg/sg44_5_cif.got.tgz:9630.got - 2010.04.14 02:36:11.
