data_PCOD8189629
_publ_section_title
;
Structure prediction by ZEFSAII (Michael W. Deem and Ramdas Pophale) SiO2 
 PCOD8189629
Probable space group: I M M 2
;
_chemical_formula_sum "Si O2"
_cell_formula_units_Z 40
_cell_length_a 9.126236
_cell_length_b 25.248355
_cell_length_c 9.451318
_cell_angle_alpha 90.000000
_cell_angle_beta 90.000000
_cell_angle_gamma 90.000000
_cell_volume 2177.795815
_symmetry_space_group_name_H-M "I M M 2"
_symmetry_group_IT_number 44
_symmetry_cell_setting 'orthorhombic'
loop_
_space_group_symop_operation_xyz
x,y,z
-x,-y,z
-x,y,z
x,-y,z
1/2+x,1/2+y,1/2+z
1/2-x,1/2-y,1/2+z
1/2-x,1/2+y,1/2+z
1/2+x,1/2-y,1/2+z
loop_
_atom_site_type_symbol
_atom_site_label
_atom_site_fract_x
_atom_site_fract_y
_atom_site_fract_z
Si Si1 0.829414 0.091645 0.855880
Si Si2 0.328867 0.000000 0.347782
Si Si3 0.173082 0.404174 0.647055
Si Si4 0.665442 0.711544 0.341024
Si Si5 0.667988 0.297107 0.668745
Si Si6 0.328229 0.500000 0.145692
O O1 0.798271 0.150909 0.800825
O O2 0.779766 0.051838 0.733095
O O3 0.000000 0.084813 0.895458
O O4 0.738540 0.078903 0.996360
O O5 0.281927 0.948291 0.260520
O O6 0.249436 0.000000 0.496581
O O7 0.500000 0.000000 0.378167
O O8 0.237526 0.348944 0.703248
O O9 0.000000 0.398874 0.630235
O O10 0.500000 0.726005 0.294706
O O11 0.686523 0.720069 0.507242
O O12 0.780126 0.748527 0.263236
O O13 0.500000 0.310134 0.704525
O O14 0.500000 0.500000 0.118095
#
# Coordination Sequence:
#
# PCOD8189629 Si02
#       6
#     8   4   8   8   8   4
#     4   9  19  36  56  80 108 138 177 220 260 311
#     4  10  23  38  52  78 112 140 173 218 264 314
#     4  10  20  36  57  79 105 140 179 217 261 314
#     4   9  19  35  53  77 109 140 174 217 261 310
#     4  10  21  36  55  80 107 138 178 220 263 312
#     4  10  21  36  56  82 110 140 175 218 266 312
#
# _framework density 18.367194999999999
#
# number of rings (size 3 to 8) (size 9 to 14) (size 15 to 20)
#    0.000    2.400    0.000    3.000    0.000    8.000 
#    0.000    4.000    0.000    0.000    0.000    0.000 
#    0.000    0.000    0.000    0.000    0.000    0.000 
#
# Total GULP energy -248060.107544 kJ/mol
# GULP energy per Si atom -12403.005377 kJ/mol
# Density = 1.832539 g / cm^3
# Si number density = 18.367195 Si / 1000 Ang^3
#
#
#
# Elastic Constant Matrix: (Units=GPa)
#
#
# Indices 1 2 3 4 5 6 
#
# 1 87.0242 65.5802 64.5051 0.0000 0.0000 0.0000
# 2 65.5802 138.0754 91.0898 0.0003 0.0000 0.0000
# 3 64.5051 91.0898 114.4821 0.0031 0.0006 -0.0001
# 4 0.0000 0.0003 0.0031 31.8779 0.0002 0.0000
# 5 0.0000 0.0000 0.0006 0.0002 37.7985 0.0001
# 6 0.0000 0.0000 -0.0001 0.0000 0.0001 29.1960
#
#
#
# Elastic Compliance Matrix: (Units=1/GPa)
#
#
# Indices 1 2 3 4 5 6 
#
# 1 0.021017 -0.004567 -0.008208 0.000001 0.000000 0.000000
# 2 -0.004567 0.016237 -0.010346 0.000001 0.000000 0.000000
# 3 -0.008208 -0.010346 0.021592 -0.000002 0.000000 0.000000
# 4 0.000001 0.000001 -0.000002 0.031370 0.000000 0.000000
# 5 0.000000 0.000000 0.000000 0.000000 0.026456 0.000000
# 6 0.000000 0.000000 0.000000 0.000000 0.000000 0.034251
#
#
# Mechanical properties :
#
#
# Convention : Reuss Voigt Hill
#
# Bulk Modulus (GPa) = 79.34383 86.88131 83.11257
# Shear Modulus (GPa) = 24.83049 27.66826 26.24937
#
# Velocity S-wave (km/s) = 3.68080 3.88544 3.78450
# Velocity P-wave (km/s) = 7.83306 8.21791 8.02779
#
# Compressibility (1/GPa) = 0.01260337
#
# Stress axis : x y z
#
# Youngs Moduli (GPa) = 47.58078 61.58819 46.31446
#
# Poissons Ratio (x) = 0.28129 0.38015
# Poissons Ratio (y) = 0.21732 0.47916
# Poissons Ratio (z) = 0.39054 0.63717
#
# Static dielectric constant tensor:
#      x y z
#    x 3.378760 0.000000 0.000000 
#    y 0.000000 3.547840 0.000000 
#    z 0.000000 0.000000 3.256630 
# 
# 
# High freq. dielectric constant tensor:
#      x y z
#    x 1.715760 0.000000 0.000000 
#    y 0.000000 1.724730 0.000000 
#    z 0.000000 0.000000 1.705350 
# 
# From -- ./inp_files/4628.got.cif
#   From: 2010.03.12/outbox.cif.g09.slc.cpg/sg44_3_cif.got.tgz:4628.got - 2010.04.14 02:36:11.
