data_PCOD8189026
_publ_section_title
;
Structure prediction by ZEFSAII (Michael W. Deem and Ramdas Pophale) SiO2 
 PCOD8189026
Probable space group: I M M 2
;
_chemical_formula_sum "Si O2"
_cell_formula_units_Z 64
_cell_length_a 8.888383
_cell_length_b 24.619862
_cell_length_c 15.107278
_cell_angle_alpha 90.000000
_cell_angle_beta 90.000000
_cell_angle_gamma 90.000000
_cell_volume 3305.937170
_symmetry_space_group_name_H-M "I M M 2"
_symmetry_group_IT_number 44
_symmetry_cell_setting 'orthorhombic'
loop_
_space_group_symop_operation_xyz
x,y,z
-x,-y,z
-x,y,z
x,-y,z
1/2+x,1/2+y,1/2+z
1/2-x,1/2-y,1/2+z
1/2-x,1/2+y,1/2+z
1/2+x,1/2-y,1/2+z
loop_
_atom_site_type_symbol
_atom_site_label
_atom_site_fract_x
_atom_site_fract_y
_atom_site_fract_z
Si Si1 0.677844 0.144732 0.405400
Si Si2 0.671365 0.243043 0.946714
Si Si3 0.326322 0.645357 0.531709
Si Si4 0.173469 0.562953 0.401753
Si Si5 0.679560 0.898086 0.709018
Si Si6 0.324598 0.663038 0.727068
Si Si7 0.829801 0.718683 0.247543
Si Si8 0.171902 0.937528 0.535521
O O1 0.500000 0.147771 0.403231
O O2 0.739790 0.200595 0.445743
O O3 0.738442 0.132951 0.306328
O O4 0.728320 0.095597 0.466807
O O5 0.500000 0.255485 0.973244
O O6 0.681237 0.212345 0.853165
O O7 0.743256 0.202387 0.017131
O O8 0.500000 0.654213 0.509070
O O9 0.265691 0.596038 0.474216
O O10 0.303094 0.630612 0.635594
O O11 0.201291 0.500000 0.421419
O O12 0.227705 0.576285 0.302730
O O13 0.000000 0.579447 0.412514
O O14 0.500000 0.901625 0.696314
O O15 0.741308 0.835647 0.704888
O O16 0.762352 0.931695 0.633806
O O17 0.500000 0.667448 0.754874
O O18 0.255351 0.724400 0.717306
O O19 0.000000 0.719947 0.214637
O O20 0.000000 0.916968 0.533393
O O21 0.182113 0.000000 0.507358
#
# Coordination Sequence:
#
# PCOD8189026 Si02
#       8
#     8   8   8   8   8   8   8   8
#     4  11  23  40  63  90 117 149 198 250 299 354
#     4  10  19  36  59  85 121 159 193 234 290 351
#     4  11  22  35  57  89 123 158 199 245 292 349
#     4  10  21  38  59  83 117 161 204 245 294 351
#     4  10  19  35  60  88 117 154 198 243 294 351
#     4   9  20  38  58  84 122 160 193 237 298 356
#     4   8  15  31  55  81 113 153 189 226 281 346
#     4  11  25  43  61  85 118 156 199 246 301 360
#
# _framework density 19.359110000000001
#
# number of rings (size 3 to 8) (size 9 to 14) (size 15 to 20)
#    0.000    2.000    1.250    3.375    1.750    3.250 
#    0.000    1.250    0.000    0.750    0.000    0.000 
#    0.000    0.000    0.000    0.000    0.000    0.000 
#
# Total GULP energy -396785.448453 kJ/mol
# GULP energy per Si atom -12399.545264 kJ/mol
# Density = 1.931505 g / cm^3
# Si number density = 19.359110 Si / 1000 Ang^3
#
#
#
# Elastic Constant Matrix: (Units=GPa)
#
#
# Indices 1 2 3 4 5 6 
#
# 1 115.6919 46.5618 59.9558 0.0000 0.0000 0.0000
# 2 46.5618 79.9837 49.9193 0.0000 0.0000 0.0000
# 3 59.9558 49.9193 114.7789 0.0005 0.0000 0.0000
# 4 0.0000 0.0000 0.0005 29.8804 0.0000 -0.0001
# 5 0.0000 0.0000 0.0000 0.0000 31.3771 0.0001
# 6 0.0000 0.0000 0.0000 -0.0001 0.0001 26.2040
#
#
#
# Elastic Compliance Matrix: (Units=1/GPa)
#
#
# Indices 1 2 3 4 5 6 
#
# 1 0.012958 -0.004555 -0.004788 0.000000 0.000000 0.000000
# 2 -0.004555 0.018762 -0.005780 0.000000 0.000000 0.000000
# 3 -0.004788 -0.005780 0.013727 0.000000 0.000000 0.000000
# 4 0.000000 0.000000 0.000000 0.033467 0.000000 0.000000
# 5 0.000000 0.000000 0.000000 0.000000 0.031870 0.000000
# 6 0.000000 0.000000 0.000000 0.000000 0.000000 0.038162
#
#
# Mechanical properties :
#
#
# Convention : Reuss Voigt Hill
#
# Bulk Modulus (GPa) = 65.78653 69.25869 67.52261
# Shear Modulus (GPa) = 27.13551 27.76014 27.44783
#
# Velocity S-wave (km/s) = 3.74798 3.79087 3.76949
# Velocity P-wave (km/s) = 7.26538 7.41717 7.34167
#
# Compressibility (1/GPa) = 0.01520068
#
# Stress axis : x y z
#
# Youngs Moduli (GPa) = 77.17155 53.29890 72.84805
#
# Poissons Ratio (x) = 0.24280 0.34876
# Poissons Ratio (y) = 0.35155 0.42109
# Poissons Ratio (z) = 0.36946 0.30809
#
# Static dielectric constant tensor:
#      x y z
#    x 3.434320 0.000000 0.000000 
#    y 0.000000 3.493580 0.000000 
#    z 0.000000 0.000000 3.488330 
# 
# 
# High freq. dielectric constant tensor:
#      x y z
#    x 1.742130 0.000000 0.000000 
#    y 0.000000 1.749380 0.000000 
#    z 0.000000 0.000000 1.753510 
# 
# From -- ./inp_files/16816.got.cif
#   From: 2010.03.12/outbox.cif.g09.slc.cpg/sg44_9_cif.got.tgz:16816.got - 2010.04.14 02:36:11.
