data_PCOD8189056
_publ_section_title
;
Structure prediction by ZEFSAII (Michael W. Deem and Ramdas Pophale) SiO2 
 PCOD8189056
Probable space group: I M M 2
;
_chemical_formula_sum "Si O2"
_cell_formula_units_Z 48
_cell_length_a 10.308897
_cell_length_b 8.907300
_cell_length_c 28.265618
_cell_angle_alpha 90.000000
_cell_angle_beta 90.000000
_cell_angle_gamma 90.000000
_cell_volume 2595.474495
_symmetry_space_group_name_H-M "I M M 2"
_symmetry_group_IT_number 44
_symmetry_cell_setting 'orthorhombic'
loop_
_space_group_symop_operation_xyz
x,y,z
-x,-y,z
-x,y,z
x,-y,z
1/2+x,1/2+y,1/2+z
1/2-x,1/2-y,1/2+z
1/2-x,1/2+y,1/2+z
1/2+x,1/2-y,1/2+z
loop_
_atom_site_type_symbol
_atom_site_label
_atom_site_fract_x
_atom_site_fract_y
_atom_site_fract_z
Si Si1 0.235523 0.175642 0.390300
Si Si2 0.500000 0.322965 0.541188
Si Si3 0.346347 0.672848 0.687528
Si Si4 0.000000 0.674387 0.941076
Si Si5 0.733775 0.825424 0.595889
Si Si6 0.500000 0.176971 0.944446
Si Si7 0.643366 0.322423 0.791214
Si Si8 0.500000 0.326740 0.044614
O O1 0.376080 0.215950 0.409822
O O2 0.128643 0.262480 0.419863
O O3 0.234168 0.226287 0.335040
O O4 0.203758 0.000000 0.394916
O O5 0.500000 0.500000 0.545796
O O6 0.500000 0.276618 0.486859
O O7 0.371286 0.263014 0.565641
O O8 0.500000 0.692412 0.680403
O O9 0.306426 0.500000 0.679937
O O10 0.269422 0.774054 0.650277
O O11 0.304766 0.732372 0.739955
O O12 0.000000 0.500000 0.956224
O O13 0.875115 0.788417 0.575902
O O14 0.700465 0.000000 0.592430
O O15 0.500000 0.000000 0.940738
O O16 0.500000 0.223442 0.998868
O O17 0.500000 0.255678 0.800996
O O18 0.632294 0.500000 0.787556
O O19 0.500000 0.500000 0.028342
#
# Coordination Sequence:
#
# PCOD8189056 Si02
#       8
#     8   4   8   4   8   4   8   4
#     4  10  19  36  59  81 110 147 183 221 267 318
#     4  12  24  38  57  80 109 146 184 224 273 324
#     4   9  17  31  54  84 114 141 175 220 270 321
#     4  10  22  36  55  84 112 142 184 226 266 320
#     4  11  22  38  59  82 108 141 184 227 269 321
#     4  12  24  36  55  84 109 138 186 232 271 320
#     4   8  14  28  54  82 107 141 180 218 263 316
#     4  10  24  42  57  76 108 148 184 222 270 326
#
# _framework density 18.493728999999998
#
# number of rings (size 3 to 8) (size 9 to 14) (size 15 to 20)
#    0.000    2.000    1.667    4.000    0.000    6.000 
#    0.000    1.667    0.000    2.000    0.000    0.000 
#    0.000    0.000    0.000    0.000    0.000    0.000 
#
# Total GULP energy -297585.803405 kJ/mol
# GULP energy per Si atom -12399.408475 kJ/mol
# Density = 1.845164 g / cm^3
# Si number density = 18.493729 Si / 1000 Ang^3
#
#
#
# Elastic Constant Matrix: (Units=GPa)
#
#
# Indices 1 2 3 4 5 6 
#
# 1 134.6827 61.3552 81.9239 0.0000 0.0000 0.0000
# 2 61.3552 86.3263 64.9020 0.0000 0.0000 0.0000
# 3 81.9239 64.9020 182.1487 0.0000 0.0000 0.0000
# 4 0.0000 0.0000 0.0000 28.9716 0.0000 0.0000
# 5 0.0000 0.0000 0.0000 0.0000 11.2218 0.0000
# 6 0.0000 0.0000 0.0000 0.0000 0.0000 10.6174
#
#
#
# Elastic Compliance Matrix: (Units=1/GPa)
#
#
# Indices 1 2 3 4 5 6 
#
# 1 0.012275 -0.006247 -0.003295 0.000000 0.000000 0.000000
# 2 -0.006247 0.019002 -0.003961 0.000000 0.000000 0.000000
# 3 -0.003295 -0.003961 0.008383 0.000000 0.000000 0.000000
# 4 0.000000 0.000000 0.000000 0.034517 0.000000 0.000000
# 5 0.000000 0.000000 0.000000 0.000000 0.089112 0.000000
# 6 0.000000 0.000000 0.000000 0.000000 0.000000 0.094185
#
#
# Mechanical properties :
#
#
# Convention : Reuss Voigt Hill
#
# Bulk Modulus (GPa) = 79.02442 91.05777 85.04110
# Shear Modulus (GPa) = 17.31912 23.16059 20.23986
#
# Velocity S-wave (km/s) = 3.06353 3.54269 3.31179
# Velocity P-wave (km/s) = 7.43887 8.12885 7.79150
#
# Compressibility (1/GPa) = 0.01265432
#
# Stress axis : x y z
#
# Youngs Moduli (GPa) = 81.46678 52.62637 119.28509
#
# Poissons Ratio (x) = 0.32876 0.39303
# Poissons Ratio (y) = 0.50893 0.47248
# Poissons Ratio (z) = 0.26843 0.20845
#
# Static dielectric constant tensor:
#      x y z
#    x 3.283140 0.000000 0.000000 
#    y 0.000000 3.226600 0.000000 
#    z 0.000000 0.000000 3.848640 
# 
# 
# High freq. dielectric constant tensor:
#      x y z
#    x 1.703610 0.000000 0.000000 
#    y 0.000000 1.696630 0.000000 
#    z 0.000000 0.000000 1.738970 
# 
# From -- ./inp_files/27078.got.cif
#   From: 2010.03.12/outbox.cif.g09.slc.cpg/sg44_14_cif.got.tgz:27078.got - 2010.04.14 02:36:11.
