data_PCOD8189566
_publ_section_title
;
Structure prediction by ZEFSAII (Michael W. Deem and Ramdas Pophale) SiO2 
 PCOD8189566
Probable space group: I M M 2
;
_chemical_formula_sum "Si O2"
_cell_formula_units_Z 64
_cell_length_a 18.257010
_cell_length_b 8.867353
_cell_length_c 20.724036
_cell_angle_alpha 90.000000
_cell_angle_beta 90.000000
_cell_angle_gamma 90.000000
_cell_volume 3355.042215
_symmetry_space_group_name_H-M "I M M 2"
_symmetry_group_IT_number 44
_symmetry_cell_setting 'orthorhombic'
loop_
_space_group_symop_operation_xyz
x,y,z
-x,-y,z
-x,y,z
x,-y,z
1/2+x,1/2+y,1/2+z
1/2-x,1/2-y,1/2+z
1/2-x,1/2+y,1/2+z
1/2+x,1/2-y,1/2+z
loop_
_atom_site_type_symbol
_atom_site_label
_atom_site_fract_x
_atom_site_fract_y
_atom_site_fract_z
Si Si1 0.584536 0.677676 0.024360
Si Si2 0.083361 0.323012 0.767375
Si Si3 0.586929 0.169860 0.893185
Si Si4 0.913297 0.173919 0.263109
Si Si5 0.912920 0.170437 0.895687
Si Si6 0.170168 0.678206 0.641423
Si Si7 0.326784 0.177859 0.649128
Si Si8 0.917136 0.323161 0.023943
O O1 0.500000 0.722093 0.037208
O O2 0.594076 0.500000 0.017763
O O3 0.633755 0.737637 0.081903
O O4 0.614677 0.752328 0.958741
O O5 0.087902 0.500000 0.777430
O O6 0.118327 0.248337 0.831233
O O7 0.128787 0.269017 0.705830
O O8 0.000000 0.269249 0.756643
O O9 0.500000 0.167293 0.893140
O O10 0.614740 0.267241 0.832476
O O11 0.618415 0.000000 0.888938
O O12 0.875808 0.277135 0.209715
O O13 0.000000 0.193654 0.256120
O O14 0.889780 0.000000 0.255296
O O15 0.000000 0.186139 0.895538
O O16 0.885533 0.000000 0.895853
O O17 0.881920 0.248934 0.960081
O O18 0.163800 0.500000 0.630686
O O19 0.253282 0.726762 0.649434
O O20 0.369743 0.225727 0.584935
O O21 0.310390 0.000000 0.651195
O O22 0.916189 0.500000 0.012991
O O23 0.000000 0.265247 0.035599
#
# Coordination Sequence:
#
# PCOD8189566 Si02
#       8
#     8   8   8   8   8   8   8   8
#     4  10  20  35  57  84 112 142 178 222 272 325
#     4   9  18  34  56  79 104 137 175 214 259 314
#     4   9  17  31  54  83 112 141 176 220 268 319
#     4  10  20  35  57  84 112 142 178 222 272 325
#     4   9  17  29  50  81 110 133 164 212 264 311
#     4  11  23  38  55  77 108 145 185 226 270 321
#     4  11  23  38  55  77 108 145 185 226 270 321
#     4   9  18  34  56  79 104 137 175 214 259 314
#
# _framework density 19.075766999999999
#
# number of rings (size 3 to 8) (size 9 to 14) (size 15 to 20)
#    0.000    2.250    0.000    3.000    0.000    7.500 
#    0.000    3.750    0.000    4.500    0.000    0.000 
#    0.000    0.000    0.000    0.000    0.000    0.000 
#
# Total GULP energy -396867.113110 kJ/mol
# GULP energy per Si atom -12402.097285 kJ/mol
# Density = 1.903235 g / cm^3
# Si number density = 19.075767 Si / 1000 Ang^3
#
#
#
# Elastic Constant Matrix: (Units=GPa)
#
#
# Indices 1 2 3 4 5 6 
#
# 1 52.9369 19.8491 41.8965 0.0000 0.0000 0.0000
# 2 19.8491 57.5102 40.7026 0.0000 0.0000 0.0000
# 3 41.8965 40.7026 165.1464 0.0000 0.0000 0.0000
# 4 0.0000 0.0000 0.0000 35.4250 0.0000 0.0000
# 5 0.0000 0.0000 0.0000 0.0000 -5.3165 0.0000
# 6 0.0000 0.0000 0.0000 0.0000 0.0000 24.8328
#
#
#
# Elastic Compliance Matrix: (Units=1/GPa)
#
#
# Indices 1 2 3 4 5 6 
#
# 1 0.024754 -0.004965 -0.005056 0.000000 0.000000 0.000000
# 2 -0.004965 0.022058 -0.004177 0.000000 0.000000 0.000000
# 3 -0.005056 -0.004177 0.008367 0.000000 0.000000 0.000000
# 4 0.000000 0.000000 0.000000 0.028229 0.000000 0.000000
# 5 0.000000 0.000000 0.000000 0.000000 -0.188093 0.000000
# 6 0.000000 0.000000 0.000000 0.000000 0.000000 0.040269
#
#
# Mechanical properties :
#
#
# Convention : Reuss Voigt Hill
#
# Bulk Modulus (GPa) = 37.33714 53.38775 45.36245
# Shear Modulus (GPa) = -184.55665 22.53128 -81.01268
#
# Velocity S-wave (km/s) = -9.84679 3.44051 -6.52389
# Velocity P-wave (km/s) = 10.47203 6.62048 5.73728
#
# Compressibility (1/GPa) = 0.02678298
#
# Stress axis : x y z
#
# Youngs Moduli (GPa) = 40.39798 45.33496 119.51143
#
# Poissons Ratio (x) = 0.22509 0.60427
# Poissons Ratio (y) = 0.20058 0.49919
# Poissons Ratio (z) = 0.20426 0.18936
#
# Static dielectric constant tensor:
#      x y z
#    x 3.201540 0.000000 0.000000 
#    y 0.000000 3.545060 0.000000 
#    z 0.000000 0.000000 3.738700 
# 
# 
# High freq. dielectric constant tensor:
#      x y z
#    x 1.705880 0.000000 0.000000 
#    y 0.000000 1.750510 0.000000 
#    z 0.000000 0.000000 1.761450 
# 
# From -- ./inp_files/24376.got.cif
#   From: 2010.03.12/outbox.cif.g09.slc.cpg/sg44_13_cif.got.tgz:24376.got - 2010.04.14 02:36:11.
