data_PCOD8189812
_publ_section_title
;
Structure prediction by ZEFSAII (Michael W. Deem and Ramdas Pophale) SiO2 
 PCOD8189812
Probable space group: I M M 2
;
_chemical_formula_sum "Si O2"
_cell_formula_units_Z 64
_cell_length_a 25.992927
_cell_length_b 13.237502
_cell_length_c 9.221124
_cell_angle_alpha 90.000000
_cell_angle_beta 90.000000
_cell_angle_gamma 90.000000
_cell_volume 3172.817469
_symmetry_space_group_name_H-M "I M M 2"
_symmetry_group_IT_number 44
_symmetry_cell_setting 'orthorhombic'
loop_
_space_group_symop_operation_xyz
x,y,z
-x,-y,z
-x,y,z
x,-y,z
1/2+x,1/2+y,1/2+z
1/2-x,1/2-y,1/2+z
1/2-x,1/2+y,1/2+z
1/2+x,1/2-y,1/2+z
loop_
_atom_site_type_symbol
_atom_site_label
_atom_site_fract_x
_atom_site_fract_y
_atom_site_fract_z
Si Si1 0.442685 0.787773 0.203030
Si Si2 0.783693 0.747664 0.364252
Si Si3 0.306552 0.381693 0.255246
Si Si4 0.697005 0.883473 0.419659
Si Si5 0.381387 0.270388 0.467058
Si Si6 0.658228 0.885054 0.098256
Si Si7 0.396721 0.612536 0.053008
Si Si8 0.366039 0.384484 0.735005
O O1 0.500000 0.834142 0.194739
O O2 0.430117 0.760766 0.370144
O O3 0.402004 0.864267 0.131094
O O4 0.441291 0.683102 0.114422
O O5 0.748350 0.673753 0.266372
O O6 0.749348 0.825117 0.461213
O O7 0.821008 0.683913 0.468478
O O8 0.814817 0.817628 0.251886
O O9 0.295475 0.500000 0.264079
O O10 0.342237 0.346807 0.387976
O O11 0.339468 0.352588 0.109512
O O12 0.649087 0.833741 0.504990
O O13 0.689367 0.865539 0.246547
O O14 0.701585 0.000000 0.463955
O O15 0.400004 0.330010 0.610217
O O16 0.663977 0.000000 0.047638
O O17 0.407337 0.500000 0.111073
O O18 0.399316 0.617328 0.880439
O O19 0.351382 0.500000 0.694306
#
# Coordination Sequence:
#
# PCOD8189812 Si02
#       8
#     8   8   8   8   8   8   8   8
#     4  10  20  40  67  89 110 145 199 259 311 361
#     4  11  21  31  55  83 119 162 199 239 286 349
#     4   9  18  32  53  81 116 160 205 243 283 342
#     4   9  20  36  56  81 118 161 201 243 288 347
#     4   9  20  36  57  82 116 151 196 249 300 359
#     4  10  21  39  60  90 125 156 199 255 301 353
#     4   9  19  37  56  80 117 156 196 243 296 356
#     4  11  22  35  55  80 119 162 193 236 297 357
#
# _framework density 20.171346
#
# number of rings (size 3 to 8) (size 9 to 14) (size 15 to 20)
#    0.000    2.250    1.250    1.875    3.500    1.000 
#    0.000    3.125    0.000    0.750    0.000    0.000 
#    0.000    0.000    0.000    0.000    0.000    0.000 
#
# Total GULP energy -396684.596196 kJ/mol
# GULP energy per Si atom -12396.393631 kJ/mol
# Density = 2.012543 g / cm^3
# Si number density = 20.171346 Si / 1000 Ang^3
#
#
#
# Elastic Constant Matrix: (Units=GPa)
#
#
# Indices 1 2 3 4 5 6 
#
# 1 95.3534 31.4277 20.2083 0.0000 0.0000 0.0000
# 2 31.4277 115.0592 35.1420 0.0000 0.0000 0.0000
# 3 20.2083 35.1420 75.7432 0.0000 0.0000 0.0000
# 4 0.0000 0.0000 0.0000 30.5462 0.0000 0.0000
# 5 0.0000 0.0000 0.0000 0.0000 14.0950 0.0000
# 6 0.0000 0.0000 0.0000 0.0000 0.0000 18.2926
#
#
#
# Elastic Compliance Matrix: (Units=1/GPa)
#
#
# Indices 1 2 3 4 5 6 
#
# 1 0.011759 -0.002626 -0.001919 0.000000 0.000000 0.000000
# 2 -0.002626 0.010712 -0.004270 0.000000 0.000000 0.000000
# 3 -0.001919 -0.004270 0.015695 0.000000 0.000000 0.000000
# 4 0.000000 0.000000 0.000000 0.032737 0.000000 0.000000
# 5 0.000000 0.000000 0.000000 0.000000 0.070947 0.000000
# 6 0.000000 0.000000 0.000000 0.000000 0.000000 0.054667
#
#
# Mechanical properties :
#
#
# Convention : Reuss Voigt Hill
#
# Bulk Modulus (GPa) = 48.68975 51.07911 49.88443
# Shear Modulus (GPa) = 22.62500 25.87859 24.25179
#
# Velocity S-wave (km/s) = 3.35272 3.58570 3.47117
# Velocity P-wave (km/s) = 6.25925 6.52078 6.39135
#
# Compressibility (1/GPa) = 0.02053821
#
# Stress axis : x y z
#
# Youngs Moduli (GPa) = 85.03768 93.34916 63.71268
#
# Poissons Ratio (x) = 0.24512 0.12227
# Poissons Ratio (y) = 0.22330 0.27203
# Poissons Ratio (z) = 0.16320 0.39856
#
# Static dielectric constant tensor:
#      x y z
#    x 3.197150 0.000000 0.000000 
#    y 0.000000 3.938570 0.000000 
#    z 0.000000 0.000000 3.533220 
# 
# 
# High freq. dielectric constant tensor:
#      x y z
#    x 1.743590 0.000000 0.000000 
#    y 0.000000 1.805680 0.000000 
#    z 0.000000 0.000000 1.778310 
# 
# From -- ./inp_files/9454.got.cif
#   From: 2010.03.12/outbox.cif.g09.slc.cpg/sg44_5_cif.got.tgz:9454.got - 2010.04.14 02:36:11.
