data_PCOD8189054
_publ_section_title
;
Structure prediction by ZEFSAII (Michael W. Deem and Ramdas Pophale) SiO2 
 PCOD8189054
Probable space group: I M M 2
;
_chemical_formula_sum "Si O2"
_cell_formula_units_Z 48
_cell_length_a 15.309542
_cell_length_b 8.365585
_cell_length_c 18.675338
_cell_angle_alpha 90.000000
_cell_angle_beta 90.000000
_cell_angle_gamma 90.000000
_cell_volume 2391.811698
_symmetry_space_group_name_H-M "I M M 2"
_symmetry_group_IT_number 44
_symmetry_cell_setting 'orthorhombic'
loop_
_space_group_symop_operation_xyz
x,y,z
-x,-y,z
-x,y,z
x,-y,z
1/2+x,1/2+y,1/2+z
1/2-x,1/2-y,1/2+z
1/2-x,1/2+y,1/2+z
1/2+x,1/2-y,1/2+z
loop_
_atom_site_type_symbol
_atom_site_label
_atom_site_fract_x
_atom_site_fract_y
_atom_site_fract_z
Si Si1 0.845610 0.185712 0.689790
Si Si2 0.160048 0.188473 0.181123
Si Si3 0.500000 0.317947 0.440314
Si Si4 0.350325 0.814176 0.344844
Si Si5 0.500000 0.813299 0.098078
Si Si6 0.500000 0.815304 0.593967
Si Si7 0.845551 0.811524 0.340872
Si Si8 0.500000 0.308553 0.940415
O O1 0.750201 0.227035 0.658541
O O2 0.867876 0.285032 0.761095
O O3 0.914247 0.230657 0.629221
O O4 0.852054 0.000000 0.708504
O O5 0.133094 0.249807 0.260538
O O6 0.085908 0.232604 0.125028
O O7 0.176142 0.000000 0.180812
O O8 0.500000 0.500000 0.466878
O O9 0.585523 0.288891 0.393038
O O10 0.500000 0.203250 0.508711
O O11 0.251805 0.758990 0.364060
O O12 0.366121 0.000000 0.361202
O O13 0.500000 0.000000 0.115687
O O14 0.500000 0.784305 0.014005
O O15 0.500000 0.000000 0.614749
O O16 0.915546 0.745353 0.396983
O O17 0.852256 0.000000 0.339545
O O18 0.500000 0.500000 0.951444
#
# Coordination Sequence:
#
# PCOD8189054 Si02
#       8
#     8   8   4   8   4   4   8   4
#     4  11  22  39  62  89 116 150 195 244 293 349
#     4  10  20  39  64  90 117 152 194 241 292 347
#     4  12  25  40  57  82 115 156 199 244 293 348
#     4  10  20  38  61  87 116 150 190 238 291 348
#     4  12  25  40  55  80 117 158 197 240 293 348
#     4  12  25  40  58  86 121 160 198 240 293 352
#     4   8  17  34  61  88 113 146 186 228 281 341
#     4  10  19  36  58  84 115 150 188 230 279 342
#
# _framework density 20.068469
#
# number of rings (size 3 to 8) (size 9 to 14) (size 15 to 20)
#    0.000    1.667    0.000    6.750    0.000    2.667 
#    0.000   10.833    0.000    0.000    0.000    0.000 
#    0.000    0.000    0.000    0.000    0.000    0.000 
#
# Total GULP energy -297685.973745 kJ/mol
# GULP energy per Si atom -12403.582239 kJ/mol
# Density = 2.002279 g / cm^3
# Si number density = 20.068469 Si / 1000 Ang^3
#
#
#
# Elastic Constant Matrix: (Units=GPa)
#
#
# Indices 1 2 3 4 5 6 
#
# 1 149.2714 20.2529 76.3348 0.0000 0.0000 0.0000
# 2 20.2529 72.1509 6.7192 0.0000 0.0000 0.0000
# 3 76.3348 6.7192 101.0309 0.0000 0.0000 0.0000
# 4 0.0000 0.0000 0.0000 31.0419 0.0000 0.0000
# 5 0.0000 0.0000 0.0000 0.0000 137.3894 0.0000
# 6 0.0000 0.0000 0.0000 0.0000 0.0000 22.1017
#
#
#
# Elastic Compliance Matrix: (Units=1/GPa)
#
#
# Indices 1 2 3 4 5 6 
#
# 1 0.011314 -0.002395 -0.008389 0.000000 0.000000 0.000000
# 2 -0.002395 0.014453 0.000848 0.000000 0.000000 0.000000
# 3 -0.008389 0.000848 0.016180 0.000000 0.000000 0.000000
# 4 0.000000 0.000000 0.000000 0.032214 0.000000 0.000000
# 5 0.000000 0.000000 0.000000 0.000000 0.007279 0.000000
# 6 0.000000 0.000000 0.000000 0.000000 0.000000 0.045245
#
#
# Mechanical properties :
#
#
# Convention : Reuss Voigt Hill
#
# Bulk Modulus (GPa) = 45.29869 58.78523 52.04196
# Shear Modulus (GPa) = 32.48519 52.71637 42.60078
#
# Velocity S-wave (km/s) = 4.02769 5.13082 4.61235
# Velocity P-wave (km/s) = 6.65213 8.02847 7.37249
#
# Compressibility (1/GPa) = 0.02207569
#
# Stress axis : x y z
#
# Youngs Moduli (GPa) = 88.38395 69.18955 61.80394
#
# Poissons Ratio (x) = 0.16569 0.51849
# Poissons Ratio (y) = 0.21165 -0.05242
# Poissons Ratio (z) = 0.74148 -0.05868
#
# Static dielectric constant tensor:
#      x y z
#    x 3.863610 0.000000 0.000000 
#    y 0.000000 3.504230 0.000000 
#    z 0.000000 0.000000 3.585250 
# 
# 
# High freq. dielectric constant tensor:
#      x y z
#    x 1.798400 0.000000 0.000000 
#    y 0.000000 1.777710 0.000000 
#    z 0.000000 0.000000 1.776780 
# 
# From -- ./inp_files/20386.got.cif
#   From: 2010.03.12/outbox.cif.g09.slc.cpg/sg44_11_cif.got.tgz:20386.got - 2010.04.14 02:36:11.
