data_PCOD8189626
_publ_section_title
;
Structure prediction by ZEFSAII (Michael W. Deem and Ramdas Pophale) SiO2 
 PCOD8189626
Probable space group: I M M 2
;
_chemical_formula_sum "Si O2"
_cell_formula_units_Z 48
_cell_length_a 8.773670
_cell_length_b 16.472574
_cell_length_c 18.326971
_cell_angle_alpha 90.000000
_cell_angle_beta 90.000000
_cell_angle_gamma 90.000000
_cell_volume 2648.704170
_symmetry_space_group_name_H-M "I M M 2"
_symmetry_group_IT_number 44
_symmetry_cell_setting 'orthorhombic'
loop_
_space_group_symop_operation_xyz
x,y,z
-x,-y,z
-x,y,z
x,-y,z
1/2+x,1/2+y,1/2+z
1/2-x,1/2-y,1/2+z
1/2-x,1/2+y,1/2+z
1/2+x,1/2-y,1/2+z
loop_
_atom_site_type_symbol
_atom_site_label
_atom_site_fract_x
_atom_site_fract_y
_atom_site_fract_z
Si Si1 0.820412 0.661947 0.687660
Si Si2 0.678118 0.335331 0.419647
Si Si3 0.680329 0.000000 0.944419
Si Si4 0.676644 0.241197 0.565142
Si Si5 0.177216 0.592542 0.969389
Si Si6 0.820769 0.812286 0.342490
Si Si7 0.819830 0.500000 0.607694
O O1 0.777704 0.737870 0.635697
O O2 0.728218 0.663748 0.761965
O O3 0.762975 0.579801 0.649184
O O4 0.000000 0.662651 0.703236
O O5 0.500000 0.345384 0.407730
O O6 0.759097 0.420511 0.403482
O O7 0.717329 0.304211 0.500817
O O8 0.739697 0.272013 0.360980
O O9 0.500000 0.000000 0.942869
O O10 0.748515 0.000000 0.026357
O O11 0.500000 0.246756 0.586904
O O12 0.719410 0.150405 0.537741
O O13 0.214636 0.500000 0.991260
O O14 0.271943 0.616548 0.897896
O O15 0.000000 0.604866 0.949490
O O16 0.000000 0.800296 0.347047
O O17 0.000000 0.500000 0.602392
#
# Coordination Sequence:
#
# PCOD8189626 Si02
#       7
#     8   8   4   8   8   8   4
#     4  11  21  36  55  78 110 149 183 219 270 331
#     4  10  20  36  56  81 110 147 186 225 271 326
#     4  11  19  33  57  87 115 142 181 228 271 319
#     4   9  18  33  54  80 107 139 182 226 270 319
#     4   9  19  37  59  81 108 144 182 222 271 330
#     4  11  23  37  54  80 112 145 182 229 276 326
#     4   9  20  33  51  81 113 144 177 212 265 327
#
# _framework density 18.122069
#
# number of rings (size 3 to 8) (size 9 to 14) (size 15 to 20)
#    0.000    2.000    1.667    3.750    1.167    3.000 
#    0.000    1.250    1.833    0.000    0.000    0.000 
#    0.000    0.000    0.000    0.000    0.000    0.000 
#
# Total GULP energy -297668.334715 kJ/mol
# GULP energy per Si atom -12402.847280 kJ/mol
# Density = 1.808082 g / cm^3
# Si number density = 18.122069 Si / 1000 Ang^3
#
#
#
# Elastic Constant Matrix: (Units=GPa)
#
#
# Indices 1 2 3 4 5 6 
#
# 1 68.0572 28.9560 13.8135 0.0000 0.0000 0.0000
# 2 28.9560 133.2757 27.3430 0.0000 0.0000 0.0000
# 3 13.8135 27.3430 61.4027 0.0000 0.0000 0.0000
# 4 0.0000 0.0000 0.0000 17.0267 0.0000 0.0000
# 5 0.0000 0.0000 0.0000 0.0000 30.8198 0.0000
# 6 0.0000 0.0000 0.0000 0.0000 0.0000 29.2770
#
#
#
# Elastic Compliance Matrix: (Units=1/GPa)
#
#
# Indices 1 2 3 4 5 6 
#
# 1 0.016487 -0.003105 -0.002326 0.000000 0.000000 0.000000
# 2 -0.003105 0.008842 -0.003239 0.000000 0.000000 0.000000
# 3 -0.002326 -0.003239 0.018252 0.000000 0.000000 0.000000
# 4 0.000000 0.000000 0.000000 0.058731 0.000000 0.000000
# 5 0.000000 0.000000 0.000000 0.000000 0.032447 0.000000
# 6 0.000000 0.000000 0.000000 0.000000 0.000000 0.034157
#
#
# Mechanical properties :
#
#
# Convention : Reuss Voigt Hill
#
# Bulk Modulus (GPa) = 38.10930 44.77340 41.44135
# Shear Modulus (GPa) = 25.64073 28.26623 26.95348
#
# Velocity S-wave (km/s) = 3.76558 3.95367 3.86077
# Velocity P-wave (km/s) = 6.32305 6.75294 6.54153
#
# Compressibility (1/GPa) = 0.02624032
#
# Stress axis : x y z
#
# Youngs Moduli (GPa) = 60.65517 113.09257 54.78947
#
# Poissons Ratio (x) = 0.35111 0.12746
# Poissons Ratio (y) = 0.18831 0.17747
# Poissons Ratio (z) = 0.14111 0.36632
#
# Static dielectric constant tensor:
#      x y z
#    x 3.259150 0.000000 0.000000 
#    y 0.000000 3.496680 0.000000 
#    z 0.000000 0.000000 3.179380 
# 
# 
# High freq. dielectric constant tensor:
#      x y z
#    x 1.702490 0.000000 0.000000 
#    y 0.000000 1.707390 0.000000 
#    z 0.000000 0.000000 1.682420 
# 
# From -- ./inp_files/20333.got.cif
#   From: 2010.03.12/outbox.cif.g09.slc.cpg/sg44_11_cif.got.tgz:20333.got - 2010.04.14 02:36:11.
