data_PCOD8189698
_publ_section_title
;
Structure prediction by ZEFSAII (Michael W. Deem and Ramdas Pophale) SiO2 
 PCOD8189698
Probable space group: I M M 2
;
_chemical_formula_sum "Si O2"
_cell_formula_units_Z 40
_cell_length_a 17.913014
_cell_length_b 12.297579
_cell_length_c 8.288474
_cell_angle_alpha 90.000000
_cell_angle_beta 90.000000
_cell_angle_gamma 90.000000
_cell_volume 1825.840625
_symmetry_space_group_name_H-M "I M M 2"
_symmetry_group_IT_number 44
_symmetry_cell_setting 'orthorhombic'
loop_
_space_group_symop_operation_xyz
x,y,z
-x,-y,z
-x,y,z
x,-y,z
1/2+x,1/2+y,1/2+z
1/2-x,1/2-y,1/2+z
1/2-x,1/2+y,1/2+z
1/2+x,1/2-y,1/2+z
loop_
_atom_site_type_symbol
_atom_site_label
_atom_site_fract_x
_atom_site_fract_y
_atom_site_fract_z
Si Si1 0.284623 0.379914 0.479860
Si Si2 0.320197 0.810780 0.701656
Si Si3 0.411747 0.221782 0.993218
Si Si4 0.917733 0.877932 0.766394
Si Si5 0.088065 0.500000 0.645352
Si Si6 0.409621 0.000000 0.523339
O O1 0.270238 0.500000 0.558988
O O2 0.272665 0.279217 0.601388
O O3 0.238302 0.373734 0.313902
O O4 0.371180 0.369348 0.429838
O O5 0.369144 0.893226 0.593578
O O6 0.377981 0.748854 0.819714
O O7 0.500000 0.219502 0.978887
O O8 0.382733 0.309091 0.121006
O O9 0.378409 0.105461 0.054615
O O10 0.000000 0.832535 0.809259
O O11 0.921234 0.000000 0.700892
O O12 0.000000 0.500000 0.621655
O O13 0.107378 0.500000 0.833519
O O14 0.500000 0.000000 0.559490
#
# Coordination Sequence:
#
# PCOD8189698 Si02
#       6
#     8   8   8   8   4   4
#     4  11  25  44  63  93 134 178 232 276 342 411
#     4  12  24  43  64  95 135 184 222 287 341 409
#     4  10  20  36  61  92 126 163 213 271 332 394
#     4   9  19  38  63  87 119 163 214 270 323 390
#     4   9  19  35  59  93 129 165 206 267 338 399
#     4  11  23  41  71 107 138 175 230 289 351 409
#
# _framework density 21.907715
#
# number of rings (size 3 to 8) (size 9 to 14) (size 15 to 20)
#    0.000    1.600    1.000    3.600    0.000    4.800 
#    1.800    0.000    0.000    0.000    0.000    0.000 
#    0.000    0.000    0.000    0.000    0.000    0.000 
#
# Total GULP energy -247927.676455 kJ/mol
# GULP energy per Si atom -12396.383823 kJ/mol
# Density = 2.185785 g / cm^3
# Si number density = 21.907715 Si / 1000 Ang^3
#
#
#
# Elastic Constant Matrix: (Units=GPa)
#
#
# Indices 1 2 3 4 5 6 
#
# 1 49.2265 23.9882 13.8069 0.0000 0.0000 0.0000
# 2 23.9882 108.4712 29.2176 0.0000 0.0000 0.0000
# 3 13.8069 29.2176 81.8794 0.0000 0.0000 0.0000
# 4 0.0000 0.0000 0.0000 35.4964 0.0000 0.0000
# 5 0.0000 0.0000 0.0000 0.0000 30.8344 0.0000
# 6 0.0000 0.0000 0.0000 0.0000 0.0000 28.9107
#
#
#
# Elastic Compliance Matrix: (Units=1/GPa)
#
#
# Indices 1 2 3 4 5 6 
#
# 1 0.023152 -0.004501 -0.002298 0.000000 0.000000 0.000000
# 2 -0.004501 0.011074 -0.003193 0.000000 0.000000 0.000000
# 3 -0.002298 -0.003193 0.013740 0.000000 0.000000 0.000000
# 4 0.000000 0.000000 0.000000 0.028172 0.000000 0.000000
# 5 0.000000 0.000000 0.000000 0.000000 0.032431 0.000000
# 6 0.000000 0.000000 0.000000 0.000000 0.000000 0.034589
#
#
# Mechanical properties :
#
#
# Convention : Reuss Voigt Hill
#
# Bulk Modulus (GPa) = 35.73600 41.51137 38.62369
# Shear Modulus (GPa) = 28.99053 30.55259 29.77156
#
# Velocity S-wave (km/s) = 3.64167 3.73849 3.69040
# Velocity P-wave (km/s) = 5.83351 6.13388 5.98558
#
# Compressibility (1/GPa) = 0.02798298
#
# Stress axis : x y z
#
# Youngs Moduli (GPa) = 43.19252 90.29792 72.78097
#
# Poissons Ratio (x) = 0.40644 0.16724
# Poissons Ratio (y) = 0.19441 0.23237
# Poissons Ratio (z) = 0.09925 0.28830
#
# Static dielectric constant tensor:
#      x y z
#    x 4.171670 0.000000 0.000000 
#    y 0.000000 4.083490 0.000000 
#    z 0.000000 0.000000 3.807150 
# 
# 
# High freq. dielectric constant tensor:
#      x y z
#    x 1.881710 0.000000 0.000000 
#    y 0.000000 1.864500 0.000000 
#    z 0.000000 0.000000 1.847510 
# 
# From -- ./inp_files/8785.got.cif
#   From: 2010.03.12/outbox.cif.g09.slc.cpg/sg44_5_cif.got.tgz:8785.got - 2010.04.14 02:36:11.
