data_PCOD8189705
_publ_section_title
;
Structure prediction by ZEFSAII (Michael W. Deem and Ramdas Pophale) SiO2 
 PCOD8189705
Probable space group: I M M 2
;
_chemical_formula_sum "Si O2"
_cell_formula_units_Z 64
_cell_length_a 17.964905
_cell_length_b 18.884571
_cell_length_c 9.651680
_cell_angle_alpha 90.000000
_cell_angle_beta 90.000000
_cell_angle_gamma 90.000000
_cell_volume 3274.424362
_symmetry_space_group_name_H-M "I M M 2"
_symmetry_group_IT_number 44
_symmetry_cell_setting 'orthorhombic'
loop_
_space_group_symop_operation_xyz
x,y,z
-x,-y,z
-x,y,z
x,-y,z
1/2+x,1/2+y,1/2+z
1/2-x,1/2-y,1/2+z
1/2-x,1/2+y,1/2+z
1/2+x,1/2-y,1/2+z
loop_
_atom_site_type_symbol
_atom_site_label
_atom_site_fract_x
_atom_site_fract_y
_atom_site_fract_z
Si Si1 0.146067 0.915356 0.658240
Si Si2 0.671782 0.818263 0.037165
Si Si3 0.192547 0.636460 0.235393
Si Si4 0.170793 0.792353 0.152293
Si Si5 0.583852 0.318688 0.380342
Si Si6 0.410401 0.320262 0.924178
Si Si7 0.916987 0.420751 0.040974
Si Si8 0.585276 0.836051 0.284645
O O1 0.227880 0.882178 0.672071
O O2 0.097582 0.887781 0.787331
O O3 0.107013 0.889016 0.517264
O O4 0.148736 0.000000 0.659424
O O5 0.741253 0.803819 0.138895
O O6 0.618997 0.863797 0.139321
O O7 0.695520 0.863405 0.902612
O O8 0.627759 0.747902 0.993292
O O9 0.159243 0.709467 0.176864
O O10 0.132627 0.580120 0.180099
O O11 0.130069 0.834290 0.276946
O O12 0.136507 0.820420 0.011308
O O13 0.500000 0.318869 0.435502
O O14 0.599308 0.248387 0.290066
O O15 0.500000 0.309696 0.908659
O O16 0.920049 0.500000 0.983726
O O17 0.000000 0.393093 0.077964
O O18 0.878985 0.373169 0.919983
O O19 0.500000 0.858038 0.284597
#
# Coordination Sequence:
#
# PCOD8189705 Si02
#       8
#     8   8   8   8   8   8   8   8
#     4  12  25  42  63  90 125 171 216 258 312 373
#     4  11  22  37  63  92 127 156 199 257 317 365
#     4  11  22  38  63  92 124 162 204 252 312 378
#     4  11  22  38  65  93 123 154 199 261 316 367
#     4  11  21  39  64  92 123 159 205 259 311 369
#     4  11  24  40  62  95 129 161 207 264 319 379
#     4  10  22  39  60  90 126 163 204 253 314 383
#     4  10  20  36  62  92 123 157 203 254 307 373
#
# _framework density 19.54542
#
# number of rings (size 3 to 8) (size 9 to 14) (size 15 to 20)
#    0.000    1.125    5.000    1.500    3.500    3.500 
#    0.000    1.875    0.000    3.000    0.000    0.000 
#    0.000    0.000    0.000    0.000    0.000    0.000 
#
# Total GULP energy -396717.038537 kJ/mol
# GULP energy per Si atom -12397.407454 kJ/mol
# Density = 1.950093 g / cm^3
# Si number density = 19.545420 Si / 1000 Ang^3
#
#
#
# Elastic Constant Matrix: (Units=GPa)
#
#
# Indices 1 2 3 4 5 6 
#
# 1 102.3558 22.1143 57.1668 0.0000 0.0000 0.0000
# 2 22.1143 70.8008 26.1519 0.0000 0.0000 0.0000
# 3 57.1668 26.1519 112.9734 0.0000 0.0000 0.0000
# 4 0.0000 0.0000 0.0000 22.4288 0.0000 0.0000
# 5 0.0000 0.0000 0.0000 0.0000 39.0538 0.0000
# 6 0.0000 0.0000 0.0000 0.0000 0.0000 19.6677
#
#
#
# Elastic Compliance Matrix: (Units=1/GPa)
#
#
# Indices 1 2 3 4 5 6 
#
# 1 0.013848 -0.001899 -0.006568 0.000000 0.000000 0.000000
# 2 -0.001899 0.015705 -0.002674 0.000000 0.000000 0.000000
# 3 -0.006568 -0.002674 0.012794 0.000000 0.000000 0.000000
# 4 0.000000 0.000000 0.000000 0.044585 0.000000 0.000000
# 5 0.000000 0.000000 0.000000 0.000000 0.025606 0.000000
# 6 0.000000 0.000000 0.000000 0.000000 0.000000 0.050845
#
#
# Mechanical properties :
#
#
# Convention : Reuss Voigt Hill
#
# Bulk Modulus (GPa) = 49.83951 55.22178 52.53065
# Shear Modulus (GPa) = 25.99352 28.27654 27.13503
#
# Velocity S-wave (km/s) = 3.65074 3.80769 3.73004
# Velocity P-wave (km/s) = 6.58219 6.90259 6.74429
#
# Compressibility (1/GPa) = 0.02006440
#
# Stress axis : x y z
#
# Youngs Moduli (GPa) = 72.21013 63.67291 78.16034
#
# Poissons Ratio (x) = 0.12095 0.51335
# Poissons Ratio (y) = 0.13716 0.20903
# Poissons Ratio (z) = 0.47427 0.17029
#
# Static dielectric constant tensor:
#      x y z
#    x 3.724070 0.000000 0.000000 
#    y 0.000000 3.278660 0.000000 
#    z 0.000000 0.000000 3.802400 
# 
# 
# High freq. dielectric constant tensor:
#      x y z
#    x 1.776850 0.000000 0.000000 
#    y 0.000000 1.724230 0.000000 
#    z 0.000000 0.000000 1.771030 
# 
# From -- ./inp_files/8460.got.cif
#   From: 2010.03.12/outbox.cif.g09.slc.cpg/sg44_5_cif.got.tgz:8460.got - 2010.04.14 02:36:11.
