data_PCOD8189954
_publ_section_title
;
Structure prediction by ZEFSAII (Michael W. Deem and Ramdas Pophale) SiO2 
 PCOD8189954
Probable space group: I M M 2
;
_chemical_formula_sum "Si O2"
_cell_formula_units_Z 64
_cell_length_a 8.991271
_cell_length_b 31.011988
_cell_length_c 11.957375
_cell_angle_alpha 90.000000
_cell_angle_beta 90.000000
_cell_angle_gamma 90.000000
_cell_volume 3334.160825
_symmetry_space_group_name_H-M "I M M 2"
_symmetry_group_IT_number 44
_symmetry_cell_setting 'orthorhombic'
loop_
_space_group_symop_operation_xyz
x,y,z
-x,-y,z
-x,y,z
x,-y,z
1/2+x,1/2+y,1/2+z
1/2-x,1/2-y,1/2+z
1/2-x,1/2+y,1/2+z
1/2+x,1/2-y,1/2+z
loop_
_atom_site_type_symbol
_atom_site_label
_atom_site_fract_x
_atom_site_fract_y
_atom_site_fract_z
Si Si1 0.173781 0.706214 0.657180
Si Si2 0.676852 0.127014 0.303188
Si Si3 0.673748 0.835889 0.930187
Si Si4 0.827130 0.875709 0.541156
Si Si5 0.323577 0.547973 0.198580
Si Si6 0.326400 0.699226 0.213503
Si Si7 0.829710 0.452468 0.656143
Si Si8 0.323575 0.574662 0.441850
O O1 0.241196 0.668528 0.736053
O O2 0.209187 0.698400 0.527250
O O3 0.237023 0.753290 0.686627
O O4 0.000000 0.706594 0.678611
O O5 0.500000 0.127799 0.308841
O O6 0.738579 0.127542 0.427224
O O7 0.732871 0.083497 0.241346
O O8 0.500000 0.847133 0.924134
O O9 0.727703 0.817367 0.814028
O O10 0.764766 0.877757 0.963259
O O11 0.762589 0.916199 0.612383
O O12 0.800454 0.831478 0.607632
O O13 0.000000 0.882704 0.514526
O O14 0.500000 0.551403 0.202253
O O15 0.272140 0.500000 0.160982
O O16 0.262325 0.557293 0.323069
O O17 0.500000 0.699027 0.247575
O O18 0.816386 0.500000 0.712135
O O19 0.736720 0.454617 0.541802
O O20 0.000000 0.441368 0.625818
O O21 0.500000 0.574230 0.443476
#
# Coordination Sequence:
#
# PCOD8189954 Si02
#       8
#     8   8   8   8   8   8   8   8
#     4   9  20  38  59  80 112 151 183 228 284 338
#     4  10  21  39  57  78 111 151 189 228 282 339
#     4  11  21  37  61  87 115 150 189 233 286 343
#     4  10  21  37  56  80 111 146 185 233 283 331
#     4   9  18  34  55  79 109 144 179 221 279 333
#     4  10  21  39  59  83 114 148 187 234 288 337
#     4  10  21  38  59  83 115 152 189 235 289 341
#     4  11  20  35  59  87 117 149 186 234 284 340
#
# _framework density 19.195235
#
# number of rings (size 3 to 8) (size 9 to 14) (size 15 to 20)
#    0.000    2.000    2.500    1.125    1.750    2.250 
#    0.000    1.250    0.000    1.500    0.000    0.000 
#    0.000    0.000    0.000    0.000    0.000    0.000 
#
# Total GULP energy -396784.693422 kJ/mol
# GULP energy per Si atom -12399.521669 kJ/mol
# Density = 1.915155 g / cm^3
# Si number density = 19.195235 Si / 1000 Ang^3
#
#
#
# Elastic Constant Matrix: (Units=GPa)
#
#
# Indices 1 2 3 4 5 6 
#
# 1 32.3180 20.5168 27.9409 -0.0001 0.0000 0.0001
# 2 20.5168 140.3181 41.4011 0.0013 -0.0001 -0.0001
# 3 27.9409 41.4011 114.1214 0.0029 -0.0002 0.0000
# 4 -0.0001 0.0013 0.0029 14.5450 0.0001 0.0003
# 5 0.0000 -0.0001 -0.0002 0.0001 31.0106 -0.0001
# 6 0.0001 -0.0001 0.0000 0.0003 -0.0001 14.2983
#
#
#
# Elastic Compliance Matrix: (Units=1/GPa)
#
#
# Indices 1 2 3 4 5 6 
#
# 1 0.040622 -0.003365 -0.008725 0.000002 0.000000 0.000000
# 2 -0.003365 0.008260 -0.002173 0.000000 0.000000 0.000000
# 3 -0.008725 -0.002173 0.011687 -0.000002 0.000000 0.000000
# 4 0.000002 0.000000 -0.000002 0.068752 0.000000 -0.000002
# 5 0.000000 0.000000 0.000000 0.000000 0.032247 0.000000
# 6 0.000000 0.000000 0.000000 -0.000002 0.000000 0.069939
#
#
# Mechanical properties :
#
#
# Convention : Reuss Voigt Hill
#
# Bulk Modulus (GPa) = 31.20772 51.83056 41.51914
# Shear Modulus (GPa) = 18.46974 25.09734 21.78354
#
# Velocity S-wave (km/s) = 3.10531 3.61983 3.37239
# Velocity P-wave (km/s) = 5.39913 6.67318 6.06967
#
# Compressibility (1/GPa) = 0.03204335
#
# Stress axis : x y z
#
# Youngs Moduli (GPa) = 24.61716 121.06920 85.56603
#
# Poissons Ratio (x) = 0.40744 0.74655
# Poissons Ratio (y) = 0.08285 0.18589
# Poissons Ratio (z) = 0.21478 0.26303
#
# Static dielectric constant tensor:
#      x y z
#    x 3.218860 0.000000 0.000000 
#    y 0.000000 4.321610 0.000000 
#    z 0.000000 0.000000 3.525350 
# 
# 
# High freq. dielectric constant tensor:
#      x y z
#    x 1.715890 0.000000 0.000000 
#    y 0.000000 1.765030 0.000000 
#    z 0.000000 0.000000 1.748400 
# 
# From -- ./inp_files/11474.got.cif
#   From: 2010.03.12/outbox.cif.g09.slc.cpg/sg44_6_cif.got.tgz:11474.got - 2010.04.14 02:36:11.
