data_PCOD8189719
_publ_section_title
;
Structure prediction by ZEFSAII (Michael W. Deem and Ramdas Pophale) SiO2 
 PCOD8189719
Probable space group: I M M 2
;
_chemical_formula_sum "Si O2"
_cell_formula_units_Z 64
_cell_length_a 26.979999
_cell_length_b 9.235356
_cell_length_c 12.982570
_cell_angle_alpha 90.000000
_cell_angle_beta 90.000000
_cell_angle_gamma 90.000000
_cell_volume 3234.865612
_symmetry_space_group_name_H-M "I M M 2"
_symmetry_group_IT_number 44
_symmetry_cell_setting 'orthorhombic'
loop_
_space_group_symop_operation_xyz
x,y,z
-x,-y,z
-x,y,z
x,-y,z
1/2+x,1/2+y,1/2+z
1/2-x,1/2-y,1/2+z
1/2-x,1/2+y,1/2+z
1/2+x,1/2-y,1/2+z
loop_
_atom_site_type_symbol
_atom_site_label
_atom_site_fract_x
_atom_site_fract_y
_atom_site_fract_z
Si Si1 0.704555 0.837092 0.730180
Si Si2 0.443431 0.328839 0.918835
Si Si3 0.217782 0.159936 0.885969
Si Si4 0.619131 0.833641 0.087093
Si Si5 0.057578 0.829761 0.992256
Si Si6 0.895414 0.828574 0.207153
Si Si7 0.123662 0.669904 0.825028
Si Si8 0.731062 0.162884 0.091557
O O1 0.725153 0.827195 0.846193
O O2 0.659866 0.730907 0.707880
O O3 0.754182 0.785218 0.672254
O O4 0.689204 0.000000 0.698975
O O5 0.500000 0.279630 0.927130
O O6 0.437524 0.500000 0.923906
O O7 0.423198 0.270226 0.809061
O O8 0.415074 0.263554 0.015624
O O9 0.179953 0.280534 0.846006
O O10 0.196316 0.000000 0.858729
O O11 0.225668 0.175333 0.007165
O O12 0.609797 0.794036 0.206981
O O13 0.675652 0.801486 0.054185
O O14 0.605232 0.000000 0.066810
O O15 0.085910 0.749881 0.900675
O O16 0.000000 0.790387 0.983769
O O17 0.067021 0.000000 0.980044
O O18 0.076705 0.775588 0.103964
O O19 0.892740 0.000000 0.208622
O O20 0.120748 0.500000 0.846804
O O21 0.730873 0.000000 0.139430
#
# Coordination Sequence:
#
# PCOD8189719 Si02
#       8
#     8   8   8   8   8   8   8   8
#     4  11  22  35  55  86 118 150 189 233 283 340
#     4  10  22  40  63  90 117 150 198 253 301 350
#     4  10  21  36  56  81 114 154 194 235 282 343
#     4  10  22  40  60  84 120 161 197 239 295 357
#     4  10  22  41  64  87 115 156 201 246 300 358
#     4  10  21  39  62  88 120 156 195 242 300 362
#     4  11  23  39  60  86 120 158 198 246 294 348
#     4  10  20  37  57  79 113 156 195 233 283 345
#
# _framework density 19.784438000000002
#
# number of rings (size 3 to 8) (size 9 to 14) (size 15 to 20)
#    0.000    1.750    1.250    2.625    0.000   10.000 
#    0.000    2.500    0.000    2.250    0.000    0.000 
#    0.000    0.000    0.000    0.000    0.000    0.000 
#
# Total GULP energy -396735.924318 kJ/mol
# GULP energy per Si atom -12397.997635 kJ/mol
# Density = 1.973941 g / cm^3
# Si number density = 19.784438 Si / 1000 Ang^3
#
#
#
# Elastic Constant Matrix: (Units=GPa)
#
#
# Indices 1 2 3 4 5 6 
#
# 1 121.7683 34.1253 58.1605 0.0000 0.0000 0.0000
# 2 34.1253 38.7803 40.6313 0.0000 0.0000 0.0000
# 3 58.1605 40.6313 117.7817 0.0000 0.0000 0.0000
# 4 0.0000 0.0000 0.0000 26.9384 0.0000 0.0000
# 5 0.0000 0.0000 0.0000 0.0000 35.0567 0.0000
# 6 0.0000 0.0000 0.0000 0.0000 0.0000 31.8185
#
#
#
# Elastic Compliance Matrix: (Units=1/GPa)
#
#
# Indices 1 2 3 4 5 6 
#
# 1 0.011756 -0.006675 -0.003502 0.000000 0.000000 0.000000
# 2 -0.006675 0.044172 -0.011942 0.000000 0.000000 0.000000
# 3 -0.003502 -0.011942 0.014339 0.000000 0.000000 0.000000
# 4 0.000000 0.000000 0.000000 0.037122 0.000000 0.000000
# 5 0.000000 0.000000 0.000000 0.000000 0.028525 0.000000
# 6 0.000000 0.000000 0.000000 0.000000 0.000000 0.031428
#
#
# Mechanical properties :
#
#
# Convention : Reuss Voigt Hill
#
# Bulk Modulus (GPa) = 38.41948 60.46272 49.44110
# Shear Modulus (GPa) = 22.70070 28.45693 25.57882
#
# Velocity S-wave (km/s) = 3.39101 3.79667 3.59956
# Velocity P-wave (km/s) = 5.89857 7.06022 6.50538
#
# Compressibility (1/GPa) = 0.02602847
#
# Stress axis : x y z
#
# Youngs Moduli (GPa) = 85.06409 22.63869 69.73856
#
# Poissons Ratio (x) = 0.15112 0.24424
# Poissons Ratio (y) = 0.56783 0.83281
# Poissons Ratio (z) = 0.29791 0.27035
#
# Static dielectric constant tensor:
#      x y z
#    x 3.547300 0.000000 0.000000 
#    y 0.000000 3.498000 0.000000 
#    z 0.000000 0.000000 3.826620 
# 
# 
# High freq. dielectric constant tensor:
#      x y z
#    x 1.773750 0.000000 0.000000 
#    y 0.000000 1.763410 0.000000 
#    z 0.000000 0.000000 1.784050 
# 
# From -- ./inp_files/15030.got.cif
#   From: 2010.03.12/outbox.cif.g09.slc.cpg/sg44_8_cif.got.tgz:15030.got - 2010.04.14 02:36:11.
