data_PCOD8189491
_publ_section_title
;
Structure prediction by ZEFSAII (Michael W. Deem and Ramdas Pophale) SiO2 
 PCOD8189491
Probable space group: I M M 2
;
_chemical_formula_sum "Si O2"
_cell_formula_units_Z 64
_cell_length_a 19.831637
_cell_length_b 8.761278
_cell_length_c 20.184474
_cell_angle_alpha 90.000000
_cell_angle_beta 90.000000
_cell_angle_gamma 90.000000
_cell_volume 3507.062146
_symmetry_space_group_name_H-M "I M M 2"
_symmetry_group_IT_number 44
_symmetry_cell_setting 'orthorhombic'
loop_
_space_group_symop_operation_xyz
x,y,z
-x,-y,z
-x,y,z
x,-y,z
1/2+x,1/2+y,1/2+z
1/2-x,1/2-y,1/2+z
1/2-x,1/2+y,1/2+z
1/2+x,1/2-y,1/2+z
loop_
_atom_site_type_symbol
_atom_site_label
_atom_site_fract_x
_atom_site_fract_y
_atom_site_fract_z
Si Si1 0.176235 0.320842 0.723890
Si Si2 0.175186 0.679241 0.368404
Si Si3 0.578808 0.676185 0.973092
Si Si4 0.422506 0.820739 0.111909
Si Si5 0.827826 0.822184 0.229278
Si Si6 0.317681 0.818119 0.371496
Si Si7 0.425543 0.818654 0.475210
Si Si8 0.921248 0.325253 0.124249
O O1 0.165214 0.500000 0.723843
O O2 0.123754 0.251546 0.670951
O O3 0.252832 0.277485 0.704286
O O4 0.161577 0.259337 0.798148
O O5 0.185307 0.500000 0.369300
O O6 0.116855 0.725098 0.418717
O O7 0.152983 0.730730 0.295242
O O8 0.244521 0.757173 0.391413
O O9 0.500000 0.702354 0.961018
O O10 0.599230 0.500000 0.966267
O O11 0.599457 0.733636 0.045757
O O12 0.500000 0.787091 0.130566
O O13 0.410202 0.000000 0.100661
O O14 0.880464 0.784550 0.172282
O O15 0.831009 0.000000 0.247108
O O16 0.371910 0.751029 0.423308
O O17 0.314787 0.000000 0.373770
O O18 0.500000 0.754209 0.457867
O O19 0.405083 0.770790 0.549559
O O20 0.427599 0.000000 0.471026
O O21 0.898533 0.500000 0.135057
O O22 0.000000 0.307187 0.139624
#
# Coordination Sequence:
#
# PCOD8189491 Si02
#       8
#     8   8   8   8   8   8   8   8
#     4   8  16  30  48  73 103 132 164 206 249 288
#     4  11  22  36  54  75 101 132 167 207 254 306
#     4  10  21  37  55  75 100 130 166 208 253 302
#     4   9  17  31  51  75 104 136 169 205 246 293
#     4  10  20  35  53  73 100 132 168 209 251 297
#     4   9  17  32  53  77 106 137 172 212 251 293
#     4   8  15  29  51  78 106 137 173 211 249 293
#     4   9  18  33  51  73 102 133 167 207 249 296
#
# _framework density 18.248892999999999
#
# number of rings (size 3 to 8) (size 9 to 14) (size 15 to 20)
#    0.000    2.750    0.000    3.375    0.000    3.000 
#    0.000    8.750    0.000    1.125    0.000    0.000 
#    0.000    0.000    0.000    0.000    0.000    0.000 
#
# Total GULP energy -396771.741297 kJ/mol
# GULP energy per Si atom -12399.116916 kJ/mol
# Density = 1.820736 g / cm^3
# Si number density = 18.248893 Si / 1000 Ang^3
#
#
#
# Elastic Constant Matrix: (Units=GPa)
#
#
# Indices 1 2 3 4 5 6 
#
# 1 91.2678 23.9982 77.9155 0.0000 0.0000 0.0000
# 2 23.9982 42.6774 25.9491 0.0000 0.0000 0.0000
# 3 77.9155 25.9491 118.8524 0.0000 0.0000 0.0000
# 4 0.0000 0.0000 0.0000 24.0717 0.0000 0.0000
# 5 0.0000 0.0000 0.0000 0.0000 41.1317 0.0000
# 6 0.0000 0.0000 0.0000 0.0000 0.0000 20.8771
#
#
#
# Elastic Compliance Matrix: (Units=1/GPa)
#
#
# Indices 1 2 3 4 5 6 
#
# 1 0.025727 -0.004857 -0.015805 0.000000 0.000000 0.000000
# 2 -0.004857 0.027935 -0.002915 0.000000 0.000000 0.000000
# 3 -0.015805 -0.002915 0.019412 0.000000 0.000000 0.000000
# 4 0.000000 0.000000 0.000000 0.041542 0.000000 0.000000
# 5 0.000000 0.000000 0.000000 0.000000 0.024312 0.000000
# 6 0.000000 0.000000 0.000000 0.000000 0.000000 0.047899
#
#
# Mechanical properties :
#
#
# Convention : Reuss Voigt Hill
#
# Bulk Modulus (GPa) = 38.58123 56.50259 47.54191
# Shear Modulus (GPa) = 20.60825 25.54509 23.07667
#
# Velocity S-wave (km/s) = 3.36413 3.74547 3.55991
# Velocity P-wave (km/s) = 6.02308 7.05224 6.55788
#
# Compressibility (1/GPa) = 0.02591934
#
# Stress axis : x y z
#
# Youngs Moduli (GPa) = 38.87014 35.79730 51.51546
#
# Poissons Ratio (x) = 0.17385 0.81421
# Poissons Ratio (y) = 0.18877 0.15018
# Poissons Ratio (z) = 0.61435 0.10436
#
# Static dielectric constant tensor:
#      x y z
#    x 3.471450 0.000000 0.000000 
#    y 0.000000 3.099510 0.000000 
#    z 0.000000 0.000000 3.547390 
# 
# 
# High freq. dielectric constant tensor:
#      x y z
#    x 1.708590 0.000000 0.000000 
#    y 0.000000 1.682740 0.000000 
#    z 0.000000 0.000000 1.713330 
# 
# From -- ./inp_files/23260.got.cif
#   From: 2010.03.12/outbox.cif.g09.slc.cpg/sg44_12_cif.got.tgz:23260.got - 2010.04.14 02:36:11.
