data_PCOD8189746
_publ_section_title
;
Structure prediction by ZEFSAII (Michael W. Deem and Ramdas Pophale) SiO2 
 PCOD8189746
Probable space group: I M M 2
;
_chemical_formula_sum "Si O2"
_cell_formula_units_Z 48
_cell_length_a 8.477410
_cell_length_b 18.411840
_cell_length_c 15.192918
_cell_angle_alpha 90.000000
_cell_angle_beta 90.000000
_cell_angle_gamma 90.000000
_cell_volume 2371.382299
_symmetry_space_group_name_H-M "I M M 2"
_symmetry_group_IT_number 44
_symmetry_cell_setting 'orthorhombic'
loop_
_space_group_symop_operation_xyz
x,y,z
-x,-y,z
-x,y,z
x,-y,z
1/2+x,1/2+y,1/2+z
1/2-x,1/2-y,1/2+z
1/2-x,1/2+y,1/2+z
1/2+x,1/2-y,1/2+z
loop_
_atom_site_type_symbol
_atom_site_label
_atom_site_fract_x
_atom_site_fract_y
_atom_site_fract_z
Si Si1 0.685989 0.343940 0.573300
Si Si2 0.816702 0.500000 0.829360
Si Si3 0.183140 0.421061 0.125592
Si Si4 0.682466 0.618406 0.948361
Si Si5 0.314902 0.774302 0.711467
Si Si6 0.818341 0.765026 0.903725
Si Si7 0.314571 0.500000 0.641983
O O1 0.500000 0.332805 0.575398
O O2 0.758204 0.289665 0.648895
O O3 0.746259 0.323826 0.474861
O O4 0.731916 0.427764 0.588044
O O5 0.729284 0.571163 0.864269
O O6 0.797382 0.500000 0.725575
O O7 0.000000 0.500000 0.856297
O O8 0.206451 0.500000 0.173193
O O9 0.248408 0.354312 0.183984
O O10 0.000000 0.409114 0.102185
O O11 0.283733 0.426105 0.036523
O O12 0.500000 0.640391 0.940595
O O13 0.793355 0.688563 0.951593
O O14 0.500000 0.771432 0.701262
O O15 0.275984 0.764098 0.813210
O O16 0.000000 0.778390 0.881254
O O17 0.500000 0.500000 0.667277
#
# Coordination Sequence:
#
# PCOD8189746 Si02
#       7
#     8   4   8   8   8   8   4
#     4   9  19  37  61  84 116 157 198 246 302 358
#     4  12  24  38  58  89 124 157 190 245 312 370
#     4  10  20  37  61  85 118 161 197 238 299 362
#     4  12  23  36  58  89 120 154 197 249 301 358
#     4  10  20  38  60  86 118 157 203 250 302 362
#     4  11  22  39  60  87 118 161 206 248 300 359
#     4  10  20  38  62  87 116 157 204 245 292 356
#
# _framework density 20.241358999999999
#
# number of rings (size 3 to 8) (size 9 to 14) (size 15 to 20)
#    0.000    1.500    2.500    3.750    0.000    2.000 
#    1.500    1.667    0.000    0.000    0.000    0.000 
#    0.000    0.000    0.000    0.000    0.000    0.000 
#
# Total GULP energy -297540.349329 kJ/mol
# GULP energy per Si atom -12397.514555 kJ/mol
# Density = 2.019529 g / cm^3
# Si number density = 20.241359 Si / 1000 Ang^3
#
#
#
# Elastic Constant Matrix: (Units=GPa)
#
#
# Indices 1 2 3 4 5 6 
#
# 1 29.8749 13.6533 7.3247 0.0000 0.0000 0.0000
# 2 13.6533 164.4739 54.8494 0.0000 0.0000 0.0000
# 3 7.3247 54.8494 99.7670 0.0001 0.0000 0.0000
# 4 0.0000 0.0000 0.0001 26.0472 0.0000 0.0000
# 5 0.0000 0.0000 0.0000 0.0000 28.4034 0.0000
# 6 0.0000 0.0000 0.0000 0.0000 0.0000 12.3630
#
#
#
# Elastic Compliance Matrix: (Units=1/GPa)
#
#
# Indices 1 2 3 4 5 6 
#
# 1 0.034907 -0.002502 -0.001187 0.000000 0.000000 0.000000
# 2 -0.002502 0.007624 -0.004008 0.000000 0.000000 0.000000
# 3 -0.001187 -0.004008 0.012314 0.000000 0.000000 0.000000
# 4 0.000000 0.000000 0.000000 0.038392 0.000000 0.000000
# 5 0.000000 0.000000 0.000000 0.000000 0.035207 0.000000
# 6 0.000000 0.000000 0.000000 0.000000 0.000000 0.080887
#
#
# Mechanical properties :
#
#
# Convention : Reuss Voigt Hill
#
# Bulk Modulus (GPa) = 25.34762 49.53004 37.43883
# Shear Modulus (GPa) = 21.01936 27.91529 24.46732
#
# Velocity S-wave (km/s) = 3.22597 3.71768 3.48052
# Velocity P-wave (km/s) = 5.14060 6.55370 5.88969
#
# Compressibility (1/GPa) = 0.03945144
#
# Stress axis : x y z
#
# Youngs Moduli (GPa) = 28.64720 131.16045 81.20835
#
# Poissons Ratio (x) = 0.32813 0.09643
# Poissons Ratio (y) = 0.07167 0.32548
# Poissons Ratio (z) = 0.03402 0.52568
#
# Static dielectric constant tensor:
#      x y z
#    x 3.319500 0.000000 0.000000 
#    y 0.000000 4.030280 0.000000 
#    z 0.000000 0.000000 3.605580 
# 
# 
# High freq. dielectric constant tensor:
#      x y z
#    x 1.764570 0.000000 0.000000 
#    y 0.000000 1.804140 0.000000 
#    z 0.000000 0.000000 1.782410 
# 
# From -- ./inp_files/16141.got.cif
#   From: 2010.03.12/outbox.cif.g09.slc.cpg/sg44_9_cif.got.tgz:16141.got - 2010.04.14 02:36:11.
