data_PCOD8189334
_publ_section_title
;
Structure prediction by ZEFSAII (Michael W. Deem and Ramdas Pophale) SiO2 
 PCOD8189334
Probable space group: I M M 2
;
_chemical_formula_sum "Si O2"
_cell_formula_units_Z 48
_cell_length_a 17.035868
_cell_length_b 8.863170
_cell_length_c 16.994611
_cell_angle_alpha 90.000000
_cell_angle_beta 90.000000
_cell_angle_gamma 90.000000
_cell_volume 2566.046806
_symmetry_space_group_name_H-M "I M M 2"
_symmetry_group_IT_number 44
_symmetry_cell_setting 'orthorhombic'
loop_
_space_group_symop_operation_xyz
x,y,z
-x,-y,z
-x,y,z
x,-y,z
1/2+x,1/2+y,1/2+z
1/2-x,1/2-y,1/2+z
1/2-x,1/2+y,1/2+z
1/2+x,1/2-y,1/2+z
loop_
_atom_site_type_symbol
_atom_site_label
_atom_site_fract_x
_atom_site_fract_y
_atom_site_fract_z
Si Si1 0.000000 0.821231 0.626511
Si Si2 0.815630 0.178736 0.193284
Si Si3 0.652401 0.679073 0.219156
Si Si4 0.588376 0.320194 0.542139
Si Si5 0.319761 0.677580 0.393316
Si Si6 0.500000 0.822368 0.956717
Si Si7 0.852201 0.322249 0.354166
O O1 0.923288 0.761879 0.672233
O O2 0.000000 0.759850 0.539195
O O3 0.000000 0.000000 0.624323
O O4 0.728927 0.245415 0.181607
O O5 0.867045 0.235037 0.119882
O O6 0.858739 0.238532 0.271080
O O7 0.809580 0.000000 0.197241
O O8 0.662623 0.500000 0.213639
O O9 0.643512 0.730511 0.310151
O O10 0.500000 0.256463 0.543450
O O11 0.587701 0.500000 0.538382
O O12 0.632556 0.249962 0.465828
O O13 0.326935 0.500000 0.400467
O O14 0.228355 0.725529 0.397647
O O15 0.423629 0.770050 0.908732
O O16 0.500000 0.000000 0.971521
O O17 0.854145 0.500000 0.337141
#
# Coordination Sequence:
#
# PCOD8189334 Si02
#       7
#     4   8   8   8   8   4   8
#     4  10  22  36  54  83 112 142 178 225 280 326
#     4  10  20  33  54  80 107 140 177 222 272 316
#     4   9  19  36  56  78 107 142 179 217 265 326
#     4   9  18  29  47  78 107 132 169 217 263 307
#     4   8  15  30  52  72  97 133 173 212 251 308
#     4  10  22  36  56  81 106 142 184 227 274 330
#     4   9  19  36  55  76 103 139 179 218 267 326
#
# _framework density 18.705817
#
# number of rings (size 3 to 8) (size 9 to 14) (size 15 to 20)
#    0.000    2.833    0.000    1.500    4.667    1.333 
#    0.000    0.000    0.000    1.000    0.000    0.000 
#    0.000    0.000    0.000    0.000    0.000    0.000 
#
# Total GULP energy -297574.091054 kJ/mol
# GULP energy per Si atom -12398.920461 kJ/mol
# Density = 1.866324 g / cm^3
# Si number density = 18.705817 Si / 1000 Ang^3
#
#
#
# Elastic Constant Matrix: (Units=GPa)
#
#
# Indices 1 2 3 4 5 6 
#
# 1 177.5885 26.3861 123.3878 0.0000 0.0000 0.0000
# 2 26.3861 24.0929 24.2600 0.0000 0.0000 0.0000
# 3 123.3878 24.2600 161.6378 0.0000 0.0000 0.0000
# 4 0.0000 0.0000 0.0000 25.9698 0.0000 0.0000
# 5 0.0000 0.0000 0.0000 0.0000 37.7054 0.0000
# 6 0.0000 0.0000 0.0000 0.0000 0.0000 21.0719
#
#
#
# Elastic Compliance Matrix: (Units=1/GPa)
#
#
# Indices 1 2 3 4 5 6 
#
# 1 0.012442 -0.004786 -0.008779 0.000000 0.000000 0.000000
# 2 -0.004786 0.050736 -0.003962 0.000000 0.000000 0.000000
# 3 -0.008779 -0.003962 0.013483 0.000000 0.000000 0.000000
# 4 0.000000 0.000000 0.000000 0.038506 0.000000 0.000000
# 5 0.000000 0.000000 0.000000 0.000000 0.026521 0.000000
# 6 0.000000 0.000000 0.000000 0.000000 0.000000 0.047456
#
#
# Mechanical properties :
#
#
# Convention : Reuss Voigt Hill
#
# Bulk Modulus (GPa) = 24.03400 79.04300 51.53850
# Shear Modulus (GPa) = 21.00235 29.56846 25.28541
#
# Velocity S-wave (km/s) = 3.35441 3.98013 3.68059
# Velocity P-wave (km/s) = 5.28006 7.96677 6.75827
#
# Compressibility (1/GPa) = 0.04160771
#
# Stress axis : x y z
#
# Youngs Moduli (GPa) = 80.37308 19.70970 74.16702
#
# Poissons Ratio (x) = 0.09433 0.65114
# Poissons Ratio (y) = 0.38466 0.29381
# Poissons Ratio (z) = 0.70563 0.07808
#
# Static dielectric constant tensor:
#      x y z
#    x 3.745240 0.000000 0.000000 
#    y 0.000000 3.027250 0.000000 
#    z 0.000000 0.000000 3.625120 
# 
# 
# High freq. dielectric constant tensor:
#      x y z
#    x 1.738280 0.000000 0.000000 
#    y 0.000000 1.684960 0.000000 
#    z 0.000000 0.000000 1.736250 
# 
# From -- ./inp_files/16169.got.cif
#   From: 2010.03.12/outbox.cif.g09.slc.cpg/sg44_9_cif.got.tgz:16169.got - 2010.04.14 02:36:11.
