data_PCOD8189595
_publ_section_title
;
Structure prediction by ZEFSAII (Michael W. Deem and Ramdas Pophale) SiO2 
 PCOD8189595
Probable space group: I M M 2
;
_chemical_formula_sum "Si O2"
_cell_formula_units_Z 64
_cell_length_a 15.328351
_cell_length_b 24.346448
_cell_length_c 8.557356
_cell_angle_alpha 90.000000
_cell_angle_beta 90.000000
_cell_angle_gamma 90.000000
_cell_volume 3193.527392
_symmetry_space_group_name_H-M "I M M 2"
_symmetry_group_IT_number 44
_symmetry_cell_setting 'orthorhombic'
loop_
_space_group_symop_operation_xyz
x,y,z
-x,-y,z
-x,y,z
x,-y,z
1/2+x,1/2+y,1/2+z
1/2-x,1/2-y,1/2+z
1/2-x,1/2+y,1/2+z
1/2+x,1/2-y,1/2+z
loop_
_atom_site_type_symbol
_atom_site_label
_atom_site_fract_x
_atom_site_fract_y
_atom_site_fract_z
Si Si1 0.360748 0.174587 0.415050
Si Si2 0.686294 0.675815 0.052830
Si Si3 0.097875 0.126920 0.290575
Si Si4 0.248384 0.655552 0.379559
Si Si5 0.901119 0.560945 0.837588
Si Si6 0.404563 0.285602 0.538272
Si Si7 0.241771 0.062165 0.111561
Si Si8 0.599948 0.209903 0.072148
O O1 0.256836 0.185095 0.414133
O O2 0.385050 0.111074 0.461176
O O3 0.402565 0.218713 0.536451
O O4 0.395293 0.179526 0.237940
O O5 0.744219 0.650070 0.192871
O O6 0.637158 0.730016 0.106261
O O7 0.616064 0.634365 0.976040
O O8 0.109235 0.187552 0.209552
O O9 0.163979 0.082708 0.221955
O O10 0.000000 0.104472 0.267677
O O11 0.329770 0.693713 0.424447
O O12 0.258826 0.595287 0.450446
O O13 0.157159 0.681252 0.436969
O O14 0.884478 0.500000 0.913631
O O15 0.835066 0.569473 0.693744
O O16 0.000000 0.563627 0.773068
O O17 0.500000 0.303947 0.474709
O O18 0.222289 0.000000 0.066526
O O19 0.500000 0.212020 0.013495
#
# Coordination Sequence:
#
# PCOD8189595 Si02
#       8
#     8   8   8   8   8   8   8   8
#     4  12  21  36  60  89 125 161 204 253 303 362
#     4  12  23  38  57  89 128 166 199 252 311 369
#     4  10  22  40  62  89 124 163 206 252 308 375
#     4  11  23  38  60  89 128 161 206 253 305 370
#     4  10  20  36  62  90 117 156 207 254 296 352
#     4  10  20  35  58  88 121 160 201 247 303 359
#     4  10  21  41  65  90 118 158 210 262 311 363
#     4  12  23  38  60  87 127 171 207 248 305 373
#
# _framework density 20.040535999999999
#
# number of rings (size 3 to 8) (size 9 to 14) (size 15 to 20)
#    0.000    1.125    5.000    2.250    1.750    0.750 
#    0.000    2.500    0.000    0.000    0.000    1.750 
#    0.000    0.000    0.000    0.000    0.000    0.000 
#
# Total GULP energy -396573.726451 kJ/mol
# GULP energy per Si atom -12392.928952 kJ/mol
# Density = 1.999492 g / cm^3
# Si number density = 20.040536 Si / 1000 Ang^3
#
#
#
# Elastic Constant Matrix: (Units=GPa)
#
#
# Indices 1 2 3 4 5 6 
#
# 1 149.8054 52.9194 39.4348 0.0000 0.0002 0.0000
# 2 52.9194 148.2835 38.0735 0.0004 0.0000 0.0001
# 3 39.4348 38.0735 73.7604 0.0045 -0.0002 0.0004
# 4 0.0000 0.0004 0.0045 16.3045 0.0000 0.0001
# 5 0.0002 0.0000 -0.0002 0.0000 16.0062 0.0001
# 6 0.0000 0.0001 0.0004 0.0001 0.0001 22.6640
#
#
#
# Elastic Compliance Matrix: (Units=1/GPa)
#
#
# Indices 1 2 3 4 5 6 
#
# 1 0.008300 -0.002101 -0.003353 0.000001 0.000000 0.000000
# 2 -0.002101 0.008306 -0.003164 0.000001 0.000000 0.000000
# 3 -0.003353 -0.003164 0.016983 -0.000005 0.000000 0.000000
# 4 0.000001 0.000001 -0.000005 0.061333 0.000000 0.000000
# 5 0.000000 0.000000 0.000000 0.000000 0.062476 0.000000
# 6 0.000000 0.000000 0.000000 0.000000 0.000000 0.044123
#
#
# Mechanical properties :
#
#
# Convention : Reuss Voigt Hill
#
# Bulk Modulus (GPa) = 61.15060 70.30051 65.72556
# Shear Modulus (GPa) = 22.30066 27.08971 24.69518
#
# Velocity S-wave (km/s) = 3.33945 3.68060 3.51417
# Velocity P-wave (km/s) = 6.74158 7.29505 7.02377
#
# Compressibility (1/GPa) = 0.01635307
#
# Stress axis : x y z
#
# Youngs Moduli (GPa) = 120.47831 120.39276 58.88167
#
# Poissons Ratio (x) = 0.25298 0.19743
# Poissons Ratio (y) = 0.25316 0.18630
# Poissons Ratio (z) = 0.40396 0.38093
#
# Static dielectric constant tensor:
#      x y z
#    x 3.877130 0.000000 0.000000 
#    y 0.000000 3.778600 0.000000 
#    z 0.000000 0.000000 3.366430 
# 
# 
# High freq. dielectric constant tensor:
#      x y z
#    x 1.804560 0.000000 0.000000 
#    y 0.000000 1.771430 0.000000 
#    z 0.000000 0.000000 1.746510 
# 
# From -- ./inp_files/7540.got.cif
#   From: 2010.03.12/outbox.cif.g09.slc.cpg/sg44_4_cif.got.tgz:7540.got - 2010.04.14 02:36:11.
