data_PCOD8189363
_publ_section_title
;
Structure prediction by ZEFSAII (Michael W. Deem and Ramdas Pophale) SiO2 
 PCOD8189363
Probable space group: I M M 2
;
_chemical_formula_sum "Si O2"
_cell_formula_units_Z 64
_cell_length_a 9.065303
_cell_length_b 14.994831
_cell_length_c 24.562720
_cell_angle_alpha 90.000000
_cell_angle_beta 90.000000
_cell_angle_gamma 90.000000
_cell_volume 3338.876516
_symmetry_space_group_name_H-M "I M M 2"
_symmetry_group_IT_number 44
_symmetry_cell_setting 'orthorhombic'
loop_
_space_group_symop_operation_xyz
x,y,z
-x,-y,z
-x,y,z
x,-y,z
1/2+x,1/2+y,1/2+z
1/2-x,1/2-y,1/2+z
1/2-x,1/2+y,1/2+z
1/2+x,1/2-y,1/2+z
loop_
_atom_site_type_symbol
_atom_site_label
_atom_site_fract_x
_atom_site_fract_y
_atom_site_fract_z
Si Si1 0.662637 0.394363 0.449980
Si Si2 0.325273 0.745448 0.768190
Si Si3 0.327410 0.604587 0.071664
Si Si4 0.323922 0.756488 0.645631
Si Si5 0.173375 0.102625 0.354493
Si Si6 0.675556 0.400841 0.568795
Si Si7 0.674200 0.100240 0.844560
Si Si8 0.833635 0.394274 0.962960
O O1 0.500000 0.352561 0.441285
O O2 0.651320 0.500000 0.449108
O O3 0.728374 0.366854 0.509025
O O4 0.767343 0.360525 0.401728
O O5 0.500000 0.745142 0.766394
O O6 0.264458 0.742674 0.706931
O O7 0.271516 0.659598 0.802580
O O8 0.267814 0.836314 0.796406
O O9 0.500000 0.625940 0.069844
O O10 0.297189 0.500000 0.080245
O O11 0.251129 0.655201 0.121720
O O12 0.255413 0.639911 0.015535
O O13 0.500000 0.768019 0.642803
O O14 0.268051 0.669268 0.613282
O O15 0.255511 0.139973 0.408033
O O16 0.000000 0.114475 0.364935
O O17 0.213955 0.000000 0.342476
O O18 0.500000 0.405759 0.568247
O O19 0.738506 0.500000 0.582297
O O20 0.500000 0.101641 0.848398
O O21 0.732672 0.000000 0.833113
O O22 0.833106 0.500000 0.962484
O O23 0.000000 0.356426 0.965765
#
# Coordination Sequence:
#
# PCOD8189363 Si02
#       8
#     8   8   8   8   8   8   8   8
#     4   8  14  27  47  70  95 121 151 190 238 291
#     4   9  19  33  48  71 100 130 169 209 243 287
#     4  10  21  37  55  75 103 137 169 209 266 323
#     4  10  20  34  53  76 101 133 177 220 252 295
#     4   9  17  31  51  74 103 137 168 203 251 303
#     4   8  15  29  50  76 104 130 158 200 252 299
#     4   9  17  30  47  66  91 123 156 193 238 284
#     4   9  17  31  53  80 105 129 164 209 256 310
#
# _framework density 19.168123999999999
#
# number of rings (size 3 to 8) (size 9 to 14) (size 15 to 20)
#    0.000    3.000    0.000    1.500    0.000    4.250 
#    0.000    8.750    0.000    2.625    0.000    0.000 
#    0.000    0.000    0.000    0.000    0.000    0.000 
#
# Total GULP energy -396676.182483 kJ/mol
# GULP energy per Si atom -12396.130703 kJ/mol
# Density = 1.912450 g / cm^3
# Si number density = 19.168124 Si / 1000 Ang^3
#
#
#
# Elastic Constant Matrix: (Units=GPa)
#
#
# Indices 1 2 3 4 5 6 
#
# 1 50.0321 24.8688 38.2108 0.0000 0.0000 0.0000
# 2 24.8688 85.6467 64.3218 0.0000 0.0000 0.0000
# 3 38.2108 64.3218 177.8815 0.0000 0.0000 0.0000
# 4 0.0000 0.0000 0.0000 34.8891 0.0000 0.0000
# 5 0.0000 0.0000 0.0000 0.0000 26.6013 0.0000
# 6 0.0000 0.0000 0.0000 0.0000 0.0000 13.7851
#
#
#
# Elastic Compliance Matrix: (Units=1/GPa)
#
#
# Indices 1 2 3 4 5 6 
#
# 1 0.025084 -0.004444 -0.003782 0.000000 0.000000 0.000000
# 2 -0.004444 0.016816 -0.005126 0.000000 0.000000 0.000000
# 3 -0.003782 -0.005126 0.008288 0.000000 0.000000 0.000000
# 4 0.000000 0.000000 0.000000 0.028662 0.000000 0.000000
# 5 0.000000 0.000000 0.000000 0.000000 0.037592 0.000000
# 6 0.000000 0.000000 0.000000 0.000000 0.000000 0.072542
#
#
# Mechanical properties :
#
#
# Convention : Reuss Voigt Hill
#
# Bulk Modulus (GPa) = 42.58010 63.15144 52.86577
# Shear Modulus (GPa) = 22.36992 27.46569 24.91781
#
# Velocity S-wave (km/s) = 3.41990 3.78945 3.60941
# Velocity P-wave (km/s) = 6.15277 7.22248 6.70898
#
# Compressibility (1/GPa) = 0.02348515
#
# Stress axis : x y z
#
# Youngs Moduli (GPa) = 39.86624 59.46762 120.66198
#
# Poissons Ratio (x) = 0.26425 0.45628
# Poissons Ratio (y) = 0.17715 0.61852
# Poissons Ratio (z) = 0.15075 0.30484
#
# Static dielectric constant tensor:
#      x y z
#    x 3.273080 0.000000 0.000000 
#    y 0.000000 3.575720 0.000000 
#    z 0.000000 0.000000 3.831190 
# 
# 
# High freq. dielectric constant tensor:
#      x y z
#    x 1.710040 0.000000 0.000000 
#    y 0.000000 1.744070 0.000000 
#    z 0.000000 0.000000 1.747420 
# 
# From -- ./inp_files/25168.got.cif
#   From: 2010.03.12/outbox.cif.g09.slc.cpg/sg44_13_cif.got.tgz:25168.got - 2010.04.14 02:36:11.
