data_PCOD8189022
_publ_section_title
;
Structure prediction by ZEFSAII (Michael W. Deem and Ramdas Pophale) SiO2 
 PCOD8189022
Probable space group: I M M 2
;
_chemical_formula_sum "Si O2"
_cell_formula_units_Z 56
_cell_length_a 8.860984
_cell_length_b 18.564366
_cell_length_c 17.122057
_cell_angle_alpha 90.000000
_cell_angle_beta 90.000000
_cell_angle_gamma 90.000000
_cell_volume 2816.553551
_symmetry_space_group_name_H-M "I M M 2"
_symmetry_group_IT_number 44
_symmetry_cell_setting 'orthorhombic'
loop_
_space_group_symop_operation_xyz
x,y,z
-x,-y,z
-x,y,z
x,-y,z
1/2+x,1/2+y,1/2+z
1/2-x,1/2-y,1/2+z
1/2-x,1/2+y,1/2+z
1/2+x,1/2-y,1/2+z
loop_
_atom_site_type_symbol
_atom_site_label
_atom_site_fract_x
_atom_site_fract_y
_atom_site_fract_z
Si Si1 0.321650 0.579707 0.159470
Si Si2 0.676991 0.916869 0.252840
Si Si3 0.322709 0.339544 0.606575
Si Si4 0.174833 0.147491 0.819960
Si Si5 0.670563 0.915665 0.966358
Si Si6 0.326707 0.196871 0.380442
Si Si7 0.322512 0.700465 0.046719
O O1 0.500000 0.572716 0.163111
O O2 0.248059 0.500000 0.156082
O O3 0.266062 0.622990 0.235476
O O4 0.273089 0.623413 0.082158
O O5 0.500000 0.908910 0.236447
O O6 0.761939 0.884979 0.178882
O O7 0.723231 0.872851 0.330563
O O8 0.723748 0.000000 0.265257
O O9 0.500000 0.331975 0.614872
O O10 0.284145 0.379723 0.526647
O O11 0.251660 0.260451 0.602094
O O12 0.276438 0.103873 0.880204
O O13 0.199535 0.233085 0.826959
O O14 0.000000 0.127205 0.833608
O O15 0.500000 0.886996 0.979753
O O16 0.676843 0.000000 0.979116
O O17 0.500000 0.190610 0.407000
O O18 0.226855 0.204209 0.457291
O O19 0.500000 0.712220 0.051326
#
# Coordination Sequence:
#
# PCOD8189022 Si02
#       7
#     8   8   8   8   8   8   8
#     4   9  19  36  59  88 119 154 197 242 292 349
#     4  10  22  41  64  89 121 161 202 248 304 363
#     4  12  24  39  60  87 119 156 201 251 300 357
#     4  10  19  35  60  85 114 153 197 243 288 346
#     4  11  23  37  56  85 121 156 191 239 300 362
#     4  10  21  38  60  89 121 156 199 245 295 355
#     4  11  22  38  62  89 119 160 202 246 298 353
#
# _framework density 19.882455
#
# number of rings (size 3 to 8) (size 9 to 14) (size 15 to 20)
#    0.000    1.571    1.429    3.857    0.000    7.143 
#    0.000    2.857    0.000    3.000    0.000    0.000 
#    0.000    0.000    0.000    0.000    0.000    0.000 
#
# Total GULP energy -347281.576639 kJ/mol
# GULP energy per Si atom -12402.913451 kJ/mol
# Density = 1.983720 g / cm^3
# Si number density = 19.882455 Si / 1000 Ang^3
#
#
#
# Elastic Constant Matrix: (Units=GPa)
#
#
# Indices 1 2 3 4 5 6 
#
# 1 61.5636 36.8577 18.2347 0.0000 0.0000 0.0000
# 2 36.8577 141.4283 44.9530 0.0000 0.0000 0.0000
# 3 18.2347 44.9530 62.4465 0.0000 0.0000 0.0000
# 4 0.0000 0.0000 0.0000 3.8887 0.0000 0.0000
# 5 0.0000 0.0000 0.0000 0.0000 30.6213 0.0000
# 6 0.0000 0.0000 0.0000 0.0000 0.0000 21.5724
#
#
#
# Elastic Compliance Matrix: (Units=1/GPa)
#
#
# Indices 1 2 3 4 5 6 
#
# 1 0.019579 -0.004260 -0.002651 0.000000 0.000000 0.000000
# 2 -0.004260 0.010095 -0.006023 0.000000 0.000000 0.000000
# 3 -0.002651 -0.006023 0.021124 0.000000 0.000000 0.000000
# 4 0.000000 0.000000 0.000000 0.257153 0.000000 0.000000
# 5 0.000000 0.000000 0.000000 0.000000 0.032657 0.000000
# 6 0.000000 0.000000 0.000000 0.000000 0.000000 0.046356
#
#
# Mechanical properties :
#
#
# Convention : Reuss Voigt Hill
#
# Bulk Modulus (GPa) = 40.11201 51.72547 45.91874
# Shear Modulus (GPa) = 11.87249 22.24269 17.05759
#
# Velocity S-wave (km/s) = 2.44628 3.34834 2.93221
# Velocity P-wave (km/s) = 5.31013 6.40473 5.88294
#
# Compressibility (1/GPa) = 0.02493019
#
# Stress axis : x y z
#
# Youngs Moduli (GPa) = 51.07547 99.05441 47.34012
#
# Poissons Ratio (x) = 0.42197 0.12548
# Poissons Ratio (y) = 0.21758 0.28515
# Poissons Ratio (z) = 0.13538 0.59665
#
# Static dielectric constant tensor:
#      x y z
#    x 3.479990 0.000000 0.000000 
#    y 0.000000 3.997370 0.000000 
#    z 0.000000 0.000000 3.628590 
# 
# 
# High freq. dielectric constant tensor:
#      x y z
#    x 1.758810 0.000000 0.000000 
#    y 0.000000 1.790760 0.000000 
#    z 0.000000 0.000000 1.779710 
# 
# From -- ./inp_files/16468.got.cif
#   From: 2010.03.12/outbox.cif.g09.slc.cpg/sg44_9_cif.got.tgz:16468.got - 2010.04.14 02:36:11.
