data_PCOD8189748
_publ_section_title
;
Structure prediction by ZEFSAII (Michael W. Deem and Ramdas Pophale) SiO2 
 PCOD8189748
Probable space group: I M M 2
;
_chemical_formula_sum "Si O2"
_cell_formula_units_Z 40
_cell_length_a 11.566824
_cell_length_b 8.854400
_cell_length_c 20.056171
_cell_angle_alpha 90.000000
_cell_angle_beta 90.000000
_cell_angle_gamma 90.000000
_cell_volume 2054.098610
_symmetry_space_group_name_H-M "I M M 2"
_symmetry_group_IT_number 44
_symmetry_cell_setting 'orthorhombic'
loop_
_space_group_symop_operation_xyz
x,y,z
-x,-y,z
-x,y,z
x,-y,z
1/2+x,1/2+y,1/2+z
1/2-x,1/2-y,1/2+z
1/2-x,1/2+y,1/2+z
1/2+x,1/2-y,1/2+z
loop_
_atom_site_type_symbol
_atom_site_label
_atom_site_fract_x
_atom_site_fract_y
_atom_site_fract_z
Si Si1 0.132268 0.678234 0.361900
Si Si2 0.867006 0.176535 0.098939
Si Si3 0.271522 0.678955 0.987146
Si Si4 0.500000 0.679320 0.059733
Si Si5 0.000000 0.822069 0.707223
Si Si6 0.748079 0.821993 0.726260
O O1 0.145682 0.500000 0.370644
O O2 0.221448 0.759621 0.411761
O O3 0.167805 0.728280 0.287431
O O4 0.000000 0.730972 0.373840
O O5 0.791004 0.242486 0.158677
O O6 0.000000 0.213210 0.114058
O O7 0.843360 0.000000 0.093172
O O8 0.835451 0.252474 0.028067
O O9 0.259632 0.500000 0.985834
O O10 0.387378 0.739340 0.022311
O O11 0.500000 0.500000 0.060449
O O12 0.500000 0.749247 0.133367
O O13 0.119002 0.772932 0.743754
O O14 0.000000 0.000000 0.699505
O O15 0.739535 0.000000 0.713049
#
# Coordination Sequence:
#
# PCOD8189748 Si02
#       6
#     8   8   8   4   4   8
#     4  10  21  36  55  84 120 155 194 240 286 335
#     4  11  24  40  58  84 117 150 190 241 294 344
#     4  11  21  37  61  85 113 149 193 239 286 346
#     4   9  16  30  56  88 110 135 182 235 280 332
#     4   9  16  32  58  86 112 143 186 233 280 336
#     4  10  20  37  61  86 116 155 195 233 282 343
#
# _framework density 19.473261999999998
#
# number of rings (size 3 to 8) (size 9 to 14) (size 15 to 20)
#    0.000    1.800    3.000    1.800    0.000    3.200 
#    1.800    1.500    0.000    0.000    0.000    0.000 
#    0.000    0.000    0.000    0.000    0.000    0.000 
#
# Total GULP energy -247983.303277 kJ/mol
# GULP energy per Si atom -12399.165164 kJ/mol
# Density = 1.942894 g / cm^3
# Si number density = 19.473262 Si / 1000 Ang^3
#
#
#
# Elastic Constant Matrix: (Units=GPa)
#
#
# Indices 1 2 3 4 5 6 
#
# 1 97.3781 38.9676 40.1213 0.0000 0.0000 0.0000
# 2 38.9676 60.9148 40.8993 0.0000 0.0000 0.0000
# 3 40.1213 40.8993 111.6464 0.0000 0.0000 0.0000
# 4 0.0000 0.0000 0.0000 32.6082 0.0000 0.0000
# 5 0.0000 0.0000 0.0000 0.0000 37.3881 0.0000
# 6 0.0000 0.0000 0.0000 0.0000 0.0000 20.4397
#
#
#
# Elastic Compliance Matrix: (Units=1/GPa)
#
#
# Indices 1 2 3 4 5 6 
#
# 1 0.014258 -0.007534 -0.002364 0.000000 0.000000 0.000000
# 2 -0.007534 0.025752 -0.006726 0.000000 0.000000 0.000000
# 3 -0.002364 -0.006726 0.012270 0.000000 0.000000 0.000000
# 4 0.000000 0.000000 0.000000 0.030667 0.000000 0.000000
# 5 0.000000 0.000000 0.000000 0.000000 0.026746 0.000000
# 6 0.000000 0.000000 0.000000 0.000000 0.000000 0.048924
#
#
# Mechanical properties :
#
#
# Convention : Reuss Voigt Hill
#
# Bulk Modulus (GPa) = 52.54224 56.65729 54.59976
# Shear Modulus (GPa) = 25.22571 28.08394 26.65483
#
# Velocity S-wave (km/s) = 3.60307 3.80172 3.70373
# Velocity P-wave (km/s) = 6.65957 6.95909 6.81097
#
# Compressibility (1/GPa) = 0.01903231
#
# Stress axis : x y z
#
# Youngs Moduli (GPa) = 70.13606 38.83198 81.49683
#
# Poissons Ratio (x) = 0.29255 0.19265
# Poissons Ratio (y) = 0.52839 0.54818
# Poissons Ratio (z) = 0.16580 0.26120
#
# Static dielectric constant tensor:
#      x y z
#    x 3.761150 0.000000 0.000000 
#    y 0.000000 3.277470 0.000000 
#    z 0.000000 0.000000 3.551290 
# 
# 
# High freq. dielectric constant tensor:
#      x y z
#    x 1.762640 0.000000 0.000000 
#    y 0.000000 1.736320 0.000000 
#    z 0.000000 0.000000 1.758530 
# 
# From -- ./inp_files/22806.got.cif
#   From: 2010.03.12/outbox.cif.g09.slc.cpg/sg44_12_cif.got.tgz:22806.got - 2010.04.14 02:36:11.
