data_PCOD8189016
_publ_section_title
;
Structure prediction by ZEFSAII (Michael W. Deem and Ramdas Pophale) SiO2 
 PCOD8189016
Probable space group: I M M 2
;
_chemical_formula_sum "Si O2"
_cell_formula_units_Z 48
_cell_length_a 20.141208
_cell_length_b 9.052200
_cell_length_c 14.409721
_cell_angle_alpha 90.000000
_cell_angle_beta 90.000000
_cell_angle_gamma 90.000000
_cell_volume 2627.212655
_symmetry_space_group_name_H-M "I M M 2"
_symmetry_group_IT_number 44
_symmetry_cell_setting 'orthorhombic'
loop_
_space_group_symop_operation_xyz
x,y,z
-x,-y,z
-x,y,z
x,-y,z
1/2+x,1/2+y,1/2+z
1/2-x,1/2-y,1/2+z
1/2-x,1/2+y,1/2+z
1/2+x,1/2-y,1/2+z
loop_
_atom_site_type_symbol
_atom_site_label
_atom_site_fract_x
_atom_site_fract_y
_atom_site_fract_z
Si Si1 0.424511 0.669573 0.187700
Si Si2 0.122162 0.828617 0.486883
Si Si3 0.076994 0.329386 0.304417
Si Si4 0.310337 0.825922 0.293261
Si Si5 0.223751 0.672334 0.998860
Si Si6 0.182768 0.175587 0.180328
O O1 0.500000 0.698298 0.217965
O O2 0.403603 0.500000 0.200427
O O3 0.378786 0.765594 0.253862
O O4 0.416406 0.713927 0.080386
O O5 0.091583 0.729557 0.406857
O O6 0.198775 0.790058 0.502170
O O7 0.113013 0.000000 0.459484
O O8 0.098033 0.500000 0.299980
O O9 0.117265 0.238494 0.228129
O O10 0.000000 0.307844 0.280974
O O11 0.304444 0.776575 0.399757
O O12 0.247314 0.764903 0.235816
O O13 0.311198 0.000000 0.284692
O O14 0.210972 0.500000 0.017618
O O15 0.185311 0.766928 0.075383
O O16 0.178817 0.000000 0.181390
#
# Coordination Sequence:
#
# PCOD8189016 Si02
#       6
#     8   8   8   8   8   8
#     4  10  21  36  56  84 116 151 190 230 280 339
#     4  10  19  35  59  86 118 152 186 234 289 341
#     4  11  24  39  57  85 119 155 194 237 289 346
#     4  10  21  37  57  83 115 149 189 231 278 339
#     4  10  20  37  59  86 116 148 188 234 285 338
#     4  11  22  38  60  87 115 149 193 237 284 343
#
# _framework density 18.270313999999999
#
# number of rings (size 3 to 8) (size 9 to 14) (size 15 to 20)
#    0.000    1.667    3.333    1.500    0.000    5.000 
#    0.000    0.833    0.000    1.000    0.000    0.000 
#    0.000    0.000    0.000    0.000    0.000    0.000 
#
# Total GULP energy -297717.314137 kJ/mol
# GULP energy per Si atom -12404.888089 kJ/mol
# Density = 1.822873 g / cm^3
# Si number density = 18.270314 Si / 1000 Ang^3
#
#
#
# Elastic Constant Matrix: (Units=GPa)
#
#
# Indices 1 2 3 4 5 6 
#
# 1 70.6413 21.8875 43.8399 0.0000 0.0000 0.0000
# 2 21.8875 47.6212 41.7980 0.0000 0.0000 0.0000
# 3 43.8399 41.7980 120.4745 0.0000 0.0000 0.0000
# 4 0.0000 0.0000 0.0000 36.5373 0.0000 0.0000
# 5 0.0000 0.0000 0.0000 0.0000 70.0505 0.0000
# 6 0.0000 0.0000 0.0000 0.0000 0.0000 31.5275
#
#
#
# Elastic Compliance Matrix: (Units=1/GPa)
#
#
# Indices 1 2 3 4 5 6 
#
# 1 0.018747 -0.003780 -0.005511 0.000000 0.000000 0.000000
# 2 -0.003780 0.030956 -0.009365 0.000000 0.000000 0.000000
# 3 -0.005511 -0.009365 0.013555 0.000000 0.000000 0.000000
# 4 0.000000 0.000000 0.000000 0.027369 0.000000 0.000000
# 5 0.000000 0.000000 0.000000 0.000000 0.014275 0.000000
# 6 0.000000 0.000000 0.000000 0.000000 0.000000 0.031718
#
#
# Mechanical properties :
#
#
# Convention : Reuss Voigt Hill
#
# Bulk Modulus (GPa) = 38.53882 50.42086 44.47984
# Shear Modulus (GPa) = 27.38536 36.37050 31.87793
#
# Velocity S-wave (km/s) = 3.87576 4.46655 4.18160
# Velocity P-wave (km/s) = 6.41624 7.36595 6.90744
#
# Compressibility (1/GPa) = 0.02594787
#
# Stress axis : x y z
#
# Youngs Moduli (GPa) = 53.34195 32.30421 73.77491
#
# Poissons Ratio (x) = 0.12210 0.40654
# Poissons Ratio (y) = 0.20162 0.69087
# Poissons Ratio (z) = 0.29394 0.30251
#
# Static dielectric constant tensor:
#      x y z
#    x 3.316510 0.000000 0.000000 
#    y 0.000000 3.307500 0.000000 
#    z 0.000000 0.000000 3.447850 
# 
# 
# High freq. dielectric constant tensor:
#      x y z
#    x 1.707360 0.000000 0.000000 
#    y 0.000000 1.705850 0.000000 
#    z 0.000000 0.000000 1.712300 
# 
# From -- ./inp_files/16067.got.cif
#   From: 2010.03.12/outbox.cif.g09.slc.cpg/sg44_9_cif.got.tgz:16067.got - 2010.04.14 02:36:11.
