data_PCOD8189110
_publ_section_title
;
Structure prediction by ZEFSAII (Michael W. Deem and Ramdas Pophale) SiO2 
 PCOD8189110
Probable space group: I M M 2
;
_chemical_formula_sum "Si O2"
_cell_formula_units_Z 64
_cell_length_a 9.305006
_cell_length_b 21.520544
_cell_length_c 21.795714
_cell_angle_alpha 90.000000
_cell_angle_beta 90.000000
_cell_angle_gamma 90.000000
_cell_volume 4364.565378
_symmetry_space_group_name_H-M "I M M 2"
_symmetry_group_IT_number 44
_symmetry_cell_setting 'orthorhombic'
loop_
_space_group_symop_operation_xyz
x,y,z
-x,-y,z
-x,y,z
x,-y,z
1/2+x,1/2+y,1/2+z
1/2-x,1/2-y,1/2+z
1/2-x,1/2+y,1/2+z
1/2+x,1/2-y,1/2+z
loop_
_atom_site_type_symbol
_atom_site_label
_atom_site_fract_x
_atom_site_fract_y
_atom_site_fract_z
Si Si1 0.841667 0.663143 0.352220
Si Si2 0.829065 0.665995 0.546656
Si Si3 0.339439 0.732457 0.955655
Si Si4 0.828247 0.655275 0.685407
Si Si5 0.832687 0.073503 0.280786
Si Si6 0.157051 0.241416 0.774020
Si Si7 0.661243 0.151974 0.374100
Si Si8 0.827988 0.430689 0.448914
O O1 0.847676 0.718819 0.400482
O O2 0.753077 0.682286 0.291868
O O3 0.774310 0.602920 0.386372
O O4 0.000000 0.647256 0.328109
O O5 0.777766 0.731135 0.515720
O O6 0.772845 0.658056 0.615693
O O7 0.770321 0.607232 0.507895
O O8 0.000000 0.666101 0.545187
O O9 0.500000 0.706387 0.968312
O O10 0.236264 0.674900 0.937427
O O11 0.745262 0.600319 0.720289
O O12 0.784486 0.721802 0.714635
O O13 0.000000 0.643800 0.691557
O O14 0.756535 0.098331 0.342594
O O15 0.000000 0.093697 0.281275
O O16 0.815842 0.000000 0.278999
O O17 0.150974 0.289878 0.829292
O O18 0.000000 0.214414 0.760065
O O19 0.500000 0.127095 0.388344
O O20 0.764156 0.500000 0.451441
O O21 0.000000 0.430866 0.449376
#
# Coordination Sequence:
#
# PCOD8189110 Si02
#       8
#     8   8   8   8   8   8   8   8
#     4   8  13  21  35  53  70  91 120 152 187 227
#     4   8  14  24  38  57  80 106 134 161 191 229
#     4   8  13  23  39  57  77  99 123 154 194 238
#     4   9  17  28  41  58  79 104 136 168 195 227
#     4  10  20  31  41  55  78 108 139 169 202 239
#     4   8  14  23  35  52  73  95 120 155 195 228
#     4   9  16  26  41  59  76  96 126 163 202 241
#     4   8  13  21  34  54  77  98 124 158 188 215
#
# _framework density 14.663544999999999
#
# number of rings (size 3 to 8) (size 9 to 14) (size 15 to 20)
#    0.000    3.500    0.000    3.000    0.000    4.500 
#    0.000    1.875    0.000    1.125    0.000    0.000 
#    0.000    1.000    0.000    9.250    0.000    2.625 
#
# Total GULP energy -396484.373743 kJ/mol
# GULP energy per Si atom -12390.136679 kJ/mol
# Density = 1.463017 g / cm^3
# Si number density = 14.663545 Si / 1000 Ang^3
#
#
#
# Elastic Constant Matrix: (Units=GPa)
#
#
# Indices 1 2 3 4 5 6 
#
# 1 63.3610 38.1238 37.1894 0.0000 0.0000 0.0000
# 2 38.1238 71.4524 67.6669 0.0000 0.0000 0.0000
# 3 37.1894 67.6669 67.7379 0.0000 0.0000 0.0000
# 4 0.0000 0.0000 0.0000 15.8805 0.0000 0.0000
# 5 0.0000 0.0000 0.0000 0.0000 16.6502 0.0000
# 6 0.0000 0.0000 0.0000 0.0000 0.0000 14.2614
#
#
#
# Elastic Compliance Matrix: (Units=1/GPa)
#
#
# Indices 1 2 3 4 5 6 
#
# 1 0.023421 -0.005912 -0.006953 0.000000 0.000000 0.000000
# 2 -0.005912 0.260790 -0.257271 0.000000 0.000000 0.000000
# 3 -0.006953 -0.257271 0.275581 0.000000 0.000000 0.000000
# 4 0.000000 0.000000 0.000000 0.062970 0.000000 0.000000
# 5 0.000000 0.000000 0.000000 0.000000 0.060059 0.000000
# 6 0.000000 0.000000 0.000000 0.000000 0.000000 0.070119
#
#
# Mechanical properties :
#
#
# Convention : Reuss Voigt Hill
#
# Bulk Modulus (GPa) = 51.22734 54.27906 52.75320
# Shear Modulus (GPa) = 3.84698 13.32985 8.58842
#
# Velocity S-wave (km/s) = 1.62148 3.01831 2.42275
# Velocity P-wave (km/s) = 6.20617 7.01738 6.62421
#
# Compressibility (1/GPa) = 0.01952082
#
# Stress axis : x y z
#
# Youngs Moduli (GPa) = 42.69760 3.83450 3.62869
#
# Poissons Ratio (x) = 0.02267 0.02523
# Poissons Ratio (y) = 0.25241 0.93356
# Poissons Ratio (z) = 0.29688 0.98651
#
# Static dielectric constant tensor:
#      x y z
#    x 2.900390 0.000000 0.000000 
#    y 0.000000 2.784120 0.000000 
#    z 0.000000 0.000000 2.906510 
# 
# 
# High freq. dielectric constant tensor:
#      x y z
#    x 1.544870 0.000000 0.000000 
#    y 0.000000 1.533930 0.000000 
#    z 0.000000 0.000000 1.536040 
# 
# From -- ./inp_files/25241.got.cif
#   From: 2010.03.12/outbox.cif.g09.slc.cpg/sg44_13_cif.got.tgz:25241.got - 2010.04.14 02:36:11.
