data_PCOD8189319
_publ_section_title
;
Structure prediction by ZEFSAII (Michael W. Deem and Ramdas Pophale) SiO2 
 PCOD8189319
Probable space group: I M M 2
;
_chemical_formula_sum "Si O2"
_cell_formula_units_Z 64
_cell_length_a 10.123449
_cell_length_b 13.531395
_cell_length_c 24.054276
_cell_angle_alpha 90.000000
_cell_angle_beta 90.000000
_cell_angle_gamma 90.000000
_cell_volume 3295.060257
_symmetry_space_group_name_H-M "I M M 2"
_symmetry_group_IT_number 44
_symmetry_cell_setting 'orthorhombic'
loop_
_space_group_symop_operation_xyz
x,y,z
-x,-y,z
-x,y,z
x,-y,z
1/2+x,1/2+y,1/2+z
1/2-x,1/2-y,1/2+z
1/2-x,1/2+y,1/2+z
1/2+x,1/2-y,1/2+z
loop_
_atom_site_type_symbol
_atom_site_label
_atom_site_fract_x
_atom_site_fract_y
_atom_site_fract_z
Si Si1 0.859090 0.112040 0.439320
Si Si2 0.651599 0.389378 0.068134
Si Si3 0.656440 0.609105 0.331562
Si Si4 0.346529 0.214107 0.253491
Si Si5 0.358455 0.885911 0.362833
Si Si6 0.650832 0.275749 0.563515
Si Si7 0.656399 0.388931 0.455925
Si Si8 0.349996 0.386764 0.672800
O O1 0.820407 0.109802 0.503000
O O2 0.747736 0.166968 0.402861
O O3 0.000000 0.166188 0.430163
O O4 0.871707 0.000000 0.417317
O O5 0.500000 0.358479 0.081850
O O6 0.677832 0.500000 0.092143
O O7 0.757365 0.310560 0.090620
O O8 0.500000 0.603461 0.331405
O O9 0.714528 0.500000 0.318073
O O10 0.702422 0.685109 0.283780
O O11 0.701534 0.643948 0.393617
O O12 0.500000 0.221350 0.233595
O O13 0.325712 0.126643 0.298110
O O14 0.250911 0.188470 0.202691
O O15 0.500000 0.833158 0.374935
O O16 0.369918 0.000000 0.377626
O O17 0.500000 0.236371 0.557042
O O18 0.709696 0.314514 0.504176
O O19 0.655299 0.365764 0.607020
O O20 0.500000 0.390553 0.461408
O O21 0.710421 0.500000 0.466896
O O22 0.500000 0.369492 0.694787
O O23 0.306573 0.500000 0.682632
#
# Coordination Sequence:
#
# PCOD8189319 Si02
#       8
#     8   8   8   8   8   8   8   8
#     4   8  15  28  44  63  93 134 172 202 242 304
#     4   9  19  35  51  71 106 147 181 215 260 317
#     4   8  15  29  50  78 110 138 169 217 273 325
#     4  10  20  33  53  79 106 138 181 226 267 313
#     4   9  17  27  41  67 101 131 165 215 266 306
#     4  10  20  33  56  84 106 136 182 229 271 317
#     4   8  14  27  50  80 110 137 168 215 276 331
#     4  10  22  40  58  79 110 143 177 220 270 327
#
# _framework density 19.423013999999998
#
# number of rings (size 3 to 8) (size 9 to 14) (size 15 to 20)
#    0.000    3.000    0.000    2.250    1.750    4.000 
#    0.000    3.125    0.000    3.750    0.000    1.750 
#    0.000    0.000    0.000    0.000    0.000    0.000 
#
# Total GULP energy -396422.329081 kJ/mol
# GULP energy per Si atom -12388.197784 kJ/mol
# Density = 1.937881 g / cm^3
# Si number density = 19.423014 Si / 1000 Ang^3
#
#
#
# Elastic Constant Matrix: (Units=GPa)
#
#
# Indices 1 2 3 4 5 6 
#
# 1 66.6566 35.0098 29.8002 0.0000 0.0000 0.0000
# 2 35.0098 98.4497 27.2035 0.0000 0.0000 0.0000
# 3 29.8002 27.2035 71.0269 0.0000 0.0000 0.0000
# 4 0.0000 0.0000 0.0000 27.8919 0.0000 0.0000
# 5 0.0000 0.0000 0.0000 0.0000 27.3416 0.0000
# 6 0.0000 0.0000 0.0000 0.0000 0.0000 20.3516
#
#
#
# Elastic Compliance Matrix: (Units=1/GPa)
#
#
# Indices 1 2 3 4 5 6 
#
# 1 0.020908 -0.005604 -0.006626 0.000000 0.000000 0.000000
# 2 -0.005604 0.012862 -0.002575 0.000000 0.000000 0.000000
# 3 -0.006626 -0.002575 0.017845 0.000000 0.000000 0.000000
# 4 0.000000 0.000000 0.000000 0.035853 0.000000 0.000000
# 5 0.000000 0.000000 0.000000 0.000000 0.036574 0.000000
# 6 0.000000 0.000000 0.000000 0.000000 0.000000 0.049136
#
#
# Mechanical properties :
#
#
# Convention : Reuss Voigt Hill
#
# Bulk Modulus (GPa) = 45.44329 46.68447 46.06388
# Shear Modulus (GPa) = 23.79559 24.72500 24.26029
#
# Velocity S-wave (km/s) = 3.50397 3.57175 3.53802
# Velocity P-wave (km/s) = 6.31014 6.41075 6.36064
#
# Compressibility (1/GPa) = 0.02200545
#
# Stress axis : x y z
#
# Youngs Moduli (GPa) = 47.82872 77.74919 56.03734
#
# Poissons Ratio (x) = 0.43573 0.37129
# Poissons Ratio (y) = 0.26804 0.14428
# Poissons Ratio (z) = 0.31690 0.20019
#
# Static dielectric constant tensor:
#      x y z
#    x 3.802300 0.000000 0.000000 
#    y 0.000000 3.741440 0.000000 
#    z 0.000000 0.000000 3.341970 
# 
# 
# High freq. dielectric constant tensor:
#      x y z
#    x 1.726480 0.000000 0.000000 
#    y 0.000000 1.753740 0.000000 
#    z 0.000000 0.000000 1.737290 
# 
# From -- ./inp_files/25150.got.cif
#   From: 2010.03.12/outbox.cif.g09.slc.cpg/sg44_13_cif.got.tgz:25150.got - 2010.04.14 02:36:11.
