data_PCOD8189427
_publ_section_title
;
Structure prediction by ZEFSAII (Michael W. Deem and Ramdas Pophale) SiO2 
 PCOD8189427
Probable space group: I M M 2
;
_chemical_formula_sum "Si O2"
_cell_formula_units_Z 56
_cell_length_a 8.731529
_cell_length_b 21.286901
_cell_length_c 14.274229
_cell_angle_alpha 90.000000
_cell_angle_beta 90.000000
_cell_angle_gamma 90.000000
_cell_volume 2653.110882
_symmetry_space_group_name_H-M "I M M 2"
_symmetry_group_IT_number 44
_symmetry_cell_setting 'orthorhombic'
loop_
_space_group_symop_operation_xyz
x,y,z
-x,-y,z
-x,y,z
x,-y,z
1/2+x,1/2+y,1/2+z
1/2-x,1/2-y,1/2+z
1/2-x,1/2+y,1/2+z
1/2+x,1/2-y,1/2+z
loop_
_atom_site_type_symbol
_atom_site_label
_atom_site_fract_x
_atom_site_fract_y
_atom_site_fract_z
Si Si1 0.165253 0.500000 0.055071
Si Si2 0.678316 0.500000 0.869087
Si Si3 0.672493 0.428867 0.542711
Si Si4 0.317547 0.137649 0.339841
Si Si5 0.329467 0.873851 0.664533
Si Si6 0.676837 0.821560 0.139601
Si Si7 0.322075 0.707532 0.019666
Si Si8 0.675807 0.571200 0.329282
O O1 0.174532 0.557936 0.122461
O O2 0.000000 0.500000 0.001198
O O3 0.302563 0.500000 0.981090
O O4 0.500000 0.500000 0.842171
O O5 0.750661 0.566285 0.833176
O O6 0.500000 0.402571 0.555282
O O7 0.678802 0.500000 0.578086
O O8 0.792118 0.391511 0.604914
O O9 0.726243 0.423277 0.436204
O O10 0.500000 0.130795 0.343896
O O11 0.264109 0.178356 0.248168
O O12 0.266116 0.178103 0.430655
O O13 0.500000 0.843724 0.658103
O O14 0.200862 0.836020 0.609582
O O15 0.280090 0.879639 0.772663
O O16 0.500000 0.805276 0.141882
O O17 0.748012 0.773250 0.061984
O O18 0.500000 0.712170 0.992107
O O19 0.500000 0.590494 0.316373
O O20 0.701089 0.500000 0.294372
#
# Coordination Sequence:
#
# PCOD8189427 Si02
#       8
#     4   4   8   8   8   8   8   8
#     4  10  20  34  54  85 126 161 202 257 316 378
#     4  12  24  38  64  99 130 167 212 269 328 378
#     4   9  20  39  62  90 121 156 203 259 313 374
#     4  11  24  44  67  94 130 171 214 263 326 388
#     4  11  21  34  56  87 122 162 206 254 313 373
#     4  10  25  45  65  90 123 164 208 259 317 382
#     4  11  24  43  63  89 124 162 213 264 311 377
#     4   9  18  33  54  82 119 158 196 241 297 357
#
# _framework density 21.107296999999999
#
# number of rings (size 3 to 8) (size 9 to 14) (size 15 to 20)
#    0.000    1.714    2.143    2.786    1.000    4.857 
#    0.000    5.714    0.000    0.000    0.000    0.000 
#    0.000    0.000    0.000    0.000    0.000    0.000 
#
# Total GULP energy -346889.614035 kJ/mol
# GULP energy per Si atom -12388.914787 kJ/mol
# Density = 2.105926 g / cm^3
# Si number density = 21.107297 Si / 1000 Ang^3
#
#
#
# Elastic Constant Matrix: (Units=GPa)
#
#
# Indices 1 2 3 4 5 6 
#
# 1 62.4522 30.2791 31.5145 0.0000 0.0000 0.0000
# 2 30.2791 100.0814 56.2749 -0.0001 0.0000 0.0000
# 3 31.5145 56.2749 97.3303 -0.0002 0.0000 0.0000
# 4 0.0000 -0.0001 -0.0002 25.5006 0.0000 0.0000
# 5 0.0000 0.0000 0.0000 0.0000 31.8594 0.0000
# 6 0.0000 0.0000 0.0000 0.0000 0.0000 28.0660
#
#
#
# Elastic Compliance Matrix: (Units=1/GPa)
#
#
# Indices 1 2 3 4 5 6 
#
# 1 0.019962 -0.003564 -0.004403 0.000000 0.000000 0.000000
# 2 -0.003564 0.015441 -0.007774 0.000000 0.000000 0.000000
# 3 -0.004403 -0.007774 0.016195 0.000000 0.000000 0.000000
# 4 0.000000 0.000000 0.000000 0.039215 0.000000 0.000000
# 5 0.000000 0.000000 0.000000 0.000000 0.031388 0.000000
# 6 0.000000 0.000000 0.000000 0.000000 0.000000 0.035630
#
#
# Mechanical properties :
#
#
# Convention : Reuss Voigt Hill
#
# Bulk Modulus (GPa) = 49.71020 55.11121 52.41070
# Shear Modulus (GPa) = 25.50789 26.53823 26.02306
#
# Velocity S-wave (km/s) = 3.48010 3.54969 3.51507
# Velocity P-wave (km/s) = 6.30480 6.55493 6.43108
#
# Compressibility (1/GPa) = 0.02011660
#
# Stress axis : x y z
#
# Youngs Moduli (GPa) = 50.09559 64.76135 61.74820
#
# Poissons Ratio (x) = 0.23078 0.27188
# Poissons Ratio (y) = 0.17852 0.48004
# Poissons Ratio (z) = 0.22057 0.50346
#
# Static dielectric constant tensor:
#      x y z
#    x 3.787330 0.000000 0.000000 
#    y 0.000000 3.830300 0.000000 
#    z 0.000000 0.000000 3.953030 
# 
# 
# High freq. dielectric constant tensor:
#      x y z
#    x 1.816540 0.000000 0.000000 
#    y 0.000000 1.821670 0.000000 
#    z 0.000000 0.000000 1.836220 
# 
# From -- ./inp_files/16591.got.cif
#   From: 2010.03.12/outbox.cif.g09.slc.cpg/sg44_9_cif.got.tgz:16591.got - 2010.04.14 02:36:11.
