data_PCOD8189929
_publ_section_title
;
Structure prediction by ZEFSAII (Michael W. Deem and Ramdas Pophale) SiO2 
 PCOD8189929
Probable space group: I M M 2
;
_chemical_formula_sum "Si O2"
_cell_formula_units_Z 64
_cell_length_a 29.388174
_cell_length_b 8.960387
_cell_length_c 12.622347
_cell_angle_alpha 90.000000
_cell_angle_beta 90.000000
_cell_angle_gamma 90.000000
_cell_volume 3323.835217
_symmetry_space_group_name_H-M "I M M 2"
_symmetry_group_IT_number 44
_symmetry_cell_setting 'orthorhombic'
loop_
_space_group_symop_operation_xyz
x,y,z
-x,-y,z
-x,y,z
x,-y,z
1/2+x,1/2+y,1/2+z
1/2-x,1/2-y,1/2+z
1/2-x,1/2+y,1/2+z
1/2+x,1/2-y,1/2+z
loop_
_atom_site_type_symbol
_atom_site_label
_atom_site_fract_x
_atom_site_fract_y
_atom_site_fract_z
Si Si1 0.647619 0.826668 0.493220
Si Si2 0.783083 0.164868 0.290262
Si Si3 0.800631 0.336056 0.654245
Si Si4 0.446734 0.827443 0.125142
Si Si5 0.873755 0.326714 0.226479
Si Si6 0.376997 0.675806 0.277829
Si Si7 0.449681 0.176951 0.887799
Si Si8 0.758856 0.826320 0.975349
O O1 0.617861 0.803087 0.600547
O O2 0.623020 0.745082 0.395374
O O3 0.697669 0.764226 0.518330
O O4 0.651865 0.000000 0.463419
O O5 0.752559 0.151242 0.185872
O O6 0.831328 0.233924 0.266056
O O7 0.750777 0.270778 0.358244
O O8 0.790161 0.000000 0.340717
O O9 0.824145 0.500000 0.665413
O O10 0.830877 0.216794 0.715251
O O11 0.790220 0.292124 0.532626
O O12 0.500000 0.800344 0.142875
O O13 0.420209 0.731126 0.211719
O O14 0.432698 0.775431 0.005832
O O15 0.434058 0.000000 0.141939
O O16 0.864481 0.500000 0.251065
O O17 0.916645 0.266373 0.294330
O O18 0.379471 0.500000 0.290214
O O19 0.500000 0.244247 0.866463
O O20 0.453025 0.000000 0.886452
O O21 0.771627 0.000000 0.974117
#
# Coordination Sequence:
#
# PCOD8189929 Si02
#       8
#     8   8   8   8   8   8   8   8
#     4  11  22  37  56  80 116 155 195 239 284 338
#     4  11  22  36  54  80 115 152 190 234 284 340
#     4  10  22  38  55  77 111 153 195 238 284 338
#     4   9  19  39  66  90 115 148 185 231 291 352
#     4  10  21  36  58  87 115 149 193 240 285 339
#     4  12  25  38  58  85 116 154 197 241 287 343
#     4   8  16  35  63  91 115 142 180 229 287 345
#     4  11  22  37  55  76 107 150 196 240 286 335
#
# _framework density 19.254866
#
# number of rings (size 3 to 8) (size 9 to 14) (size 15 to 20)
#    0.000    1.750    2.500    3.000    1.750    2.250 
#    0.000    0.625    0.000    3.375    0.000    0.000 
#    0.000    0.000    0.000    0.000    0.000    0.000 
#
# Total GULP energy -396606.860031 kJ/mol
# GULP energy per Si atom -12393.964376 kJ/mol
# Density = 1.921104 g / cm^3
# Si number density = 19.254866 Si / 1000 Ang^3
#
#
#
# Elastic Constant Matrix: (Units=GPa)
#
#
# Indices 1 2 3 4 5 6 
#
# 1 95.4249 44.2469 52.1882 0.0000 0.0000 0.0000
# 2 44.2469 111.0288 55.6091 0.0000 0.0000 0.0000
# 3 52.1882 55.6091 99.0231 0.0000 0.0000 0.0000
# 4 0.0000 0.0000 0.0000 19.7507 0.0000 0.0000
# 5 0.0000 0.0000 0.0000 0.0000 36.3542 0.0000
# 6 0.0000 0.0000 0.0000 0.0000 0.0000 27.2041
#
#
#
# Elastic Compliance Matrix: (Units=1/GPa)
#
#
# Indices 1 2 3 4 5 6 
#
# 1 0.015355 -0.002875 -0.006478 0.000000 0.000000 0.000000
# 2 -0.002875 0.013069 -0.005825 0.000000 0.000000 0.000000
# 3 -0.006478 -0.005825 0.016784 0.000000 0.000000 0.000000
# 4 0.000000 0.000000 0.000000 0.050631 0.000000 0.000000
# 5 0.000000 0.000000 0.000000 0.000000 0.027507 0.000000
# 6 0.000000 0.000000 0.000000 0.000000 0.000000 0.036759
#
#
# Mechanical properties :
#
#
# Convention : Reuss Voigt Hill
#
# Bulk Modulus (GPa) = 67.32357 67.72945 67.52651
# Shear Modulus (GPa) = 25.58688 26.89065 26.23877
#
# Velocity S-wave (km/s) = 3.64930 3.74112 3.69549
# Velocity P-wave (km/s) = 7.26614 7.34254 7.30444
#
# Compressibility (1/GPa) = 0.01485364
#
# Stress axis : x y z
#
# Youngs Moduli (GPa) = 65.12339 76.51408 59.58087
#
# Poissons Ratio (x) = 0.21995 0.38599
# Poissons Ratio (y) = 0.18721 0.34703
# Poissons Ratio (z) = 0.42190 0.44566
#
# Static dielectric constant tensor:
#      x y z
#    x 3.529210 0.000000 0.000000 
#    y 0.000000 3.417660 0.000000 
#    z 0.000000 0.000000 3.722210 
# 
# 
# High freq. dielectric constant tensor:
#      x y z
#    x 1.733920 0.000000 0.000000 
#    y 0.000000 1.737530 0.000000 
#    z 0.000000 0.000000 1.761990 
# 
# From -- ./inp_files/15082.got.cif
#   From: 2010.03.12/outbox.cif.g09.slc.cpg/sg44_8_cif.got.tgz:15082.got - 2010.04.14 02:36:11.
