data_PCOD8189311
_publ_section_title
;
Structure prediction by ZEFSAII (Michael W. Deem and Ramdas Pophale) SiO2 
 PCOD8189311
Probable space group: I M M 2
;
_chemical_formula_sum "Si O2"
_cell_formula_units_Z 48
_cell_length_a 8.320226
_cell_length_b 30.863002
_cell_length_c 9.183314
_cell_angle_alpha 90.000000
_cell_angle_beta 90.000000
_cell_angle_gamma 90.000000
_cell_volume 2358.157045
_symmetry_space_group_name_H-M "I M M 2"
_symmetry_group_IT_number 44
_symmetry_cell_setting 'orthorhombic'
loop_
_space_group_symop_operation_xyz
x,y,z
-x,-y,z
-x,y,z
x,-y,z
1/2+x,1/2+y,1/2+z
1/2-x,1/2-y,1/2+z
1/2-x,1/2+y,1/2+z
1/2+x,1/2-y,1/2+z
loop_
_atom_site_type_symbol
_atom_site_label
_atom_site_fract_x
_atom_site_fract_y
_atom_site_fract_z
Si Si1 0.813065 0.212557 0.337470
Si Si2 0.685436 0.707043 0.170127
Si Si3 0.690559 0.952507 0.339560
Si Si4 0.691329 0.048099 0.665436
Si Si5 0.687111 0.127766 0.844864
Si Si6 0.808429 0.631006 0.670884
O O1 0.709702 0.247923 0.252498
O O2 0.755172 0.212110 0.504551
O O3 0.780724 0.166111 0.268332
O O4 0.000000 0.224832 0.326373
O O5 0.500000 0.693662 0.175714
O O6 0.786811 0.669552 0.245942
O O7 0.500000 0.952643 0.345151
O O8 0.756275 0.943050 0.502199
O O9 0.749744 0.915803 0.228670
O O10 0.751793 0.000000 0.286878
O O11 0.500000 0.051163 0.665244
O O12 0.765476 0.084889 0.771291
O O13 0.745291 0.000000 0.717803
O O14 0.500000 0.119266 0.862875
O O15 0.757464 0.135332 0.006178
O O16 0.000000 0.637496 0.682977
#
# Coordination Sequence:
#
# PCOD8189311 Si02
#       6
#     8   8   8   8   8   8
#     4  11  24  40  58  80 105 135 173 215 261 314
#     4  11  24  40  58  80 105 135 173 215 261 314
#     4   8  14  26  46  73 105 141 179 217 258 304
#     4   8  14  26  46  73 105 141 179 217 258 304
#     4  10  20  33  52  80 111 142 177 216 260 310
#     4  10  20  33  52  80 111 142 177 216 260 310
#
# _framework density 20.354877999999999
#
# number of rings (size 3 to 8) (size 9 to 14) (size 15 to 20)
#    0.000    2.333    0.000    4.000    0.000    9.333 
#    0.000    3.333    0.000    1.000    0.000    7.000 
#    0.000    0.000    0.000    0.000    0.000    0.000 
#
# Total GULP energy -297576.065902 kJ/mol
# GULP energy per Si atom -12399.002746 kJ/mol
# Density = 2.030855 g / cm^3
# Si number density = 20.354878 Si / 1000 Ang^3
#
#
#
# Elastic Constant Matrix: (Units=GPa)
#
#
# Indices 1 2 3 4 5 6 
#
# 1 14.8972 1.0847 13.1623 -0.0014 0.0002 0.0003
# 2 1.0847 143.1787 78.4193 -0.0058 0.0007 0.0006
# 3 13.1623 78.4193 166.8081 -0.0101 0.0011 0.0016
# 4 -0.0014 -0.0058 -0.0101 44.3028 0.0009 0.0012
# 5 0.0002 0.0007 0.0011 0.0009 17.7098 -0.0020
# 6 0.0003 0.0006 0.0016 0.0012 -0.0020 17.9621
#
#
#
# Elastic Compliance Matrix: (Units=1/GPa)
#
#
# Indices 1 2 3 4 5 6 
#
# 1 0.073456 0.003526 -0.007454 0.000001 -0.000001 -0.000001
# 2 0.003526 0.009575 -0.004780 0.000000 0.000000 0.000000
# 3 -0.007454 -0.004780 0.008830 0.000001 0.000000 0.000000
# 4 0.000001 0.000000 0.000001 0.022572 -0.000001 -0.000001
# 5 -0.000001 0.000000 0.000000 -0.000001 0.056466 0.000006
# 6 -0.000001 0.000000 0.000000 -0.000001 0.000006 0.055673
#
#
# Mechanical properties :
#
#
# Convention : Reuss Voigt Hill
#
# Bulk Modulus (GPa) = 13.43253 56.69074 35.06164
# Shear Modulus (GPa) = 18.60101 31.47612 25.03857
#
# Velocity S-wave (km/s) = 3.02625 3.93665 3.51109
# Velocity P-wave (km/s) = 4.33871 6.96955 5.80513
#
# Compressibility (1/GPa) = 0.07444611
#
# Stress axis : x y z
#
# Youngs Moduli (GPa) = 13.61363 104.43340 113.24846
#
# Poissons Ratio (x) = -0.36823 0.84413
# Poissons Ratio (y) = -0.04800 0.54131
# Poissons Ratio (z) = 0.10147 0.49917
#
# Static dielectric constant tensor:
#      x y z
#    x 3.182260 0.000000 0.000000 
#    y 0.000000 3.941040 0.000000 
#    z 0.000000 0.000000 3.978820 
# 
# 
# High freq. dielectric constant tensor:
#      x y z
#    x 1.749130 0.000000 0.000000 
#    y 0.000000 1.811400 0.000000 
#    z 0.000000 0.000000 1.803180 
# 
# From -- ./inp_files/4910.got.cif
#   From: 2010.03.12/outbox.cif.g09.slc.cpg/sg44_3_cif.got.tgz:4910.got - 2010.04.14 02:36:11.
