data_PCOD8189204
_publ_section_title
;
Structure prediction by ZEFSAII (Michael W. Deem and Ramdas Pophale) SiO2 
 PCOD8189204
Probable space group: I M M 2
;
_chemical_formula_sum "Si O2"
_cell_formula_units_Z 52
_cell_length_a 11.749966
_cell_length_b 9.140747
_cell_length_c 24.550150
_cell_angle_alpha 90.000000
_cell_angle_beta 90.000000
_cell_angle_gamma 90.000000
_cell_volume 2636.771212
_symmetry_space_group_name_H-M "I M M 2"
_symmetry_group_IT_number 44
_symmetry_cell_setting 'orthorhombic'
loop_
_space_group_symop_operation_xyz
x,y,z
-x,-y,z
-x,y,z
x,-y,z
1/2+x,1/2+y,1/2+z
1/2-x,1/2-y,1/2+z
1/2-x,1/2+y,1/2+z
1/2+x,1/2-y,1/2+z
loop_
_atom_site_type_symbol
_atom_site_label
_atom_site_fract_x
_atom_site_fract_y
_atom_site_fract_z
Si Si1 0.752679 0.661653 0.699000
Si Si2 0.500000 0.663652 0.085018
Si Si3 0.867310 0.330593 0.293125
Si Si4 0.131573 0.667432 0.988560
Si Si5 0.500000 0.746055 0.205337
Si Si6 0.211922 0.670852 0.870119
Si Si7 0.271130 0.828402 0.076292
Si Si8 0.000000 0.161928 0.822500
O O1 0.703531 0.500000 0.711642
O O2 0.695432 0.778752 0.738455
O O3 0.888552 0.652494 0.706595
O O4 0.725826 0.707641 0.636855
O O5 0.500000 0.500000 0.060685
O O6 0.500000 0.650761 0.150404
O O7 0.388998 0.747004 0.062988
O O8 0.837331 0.500000 0.302283
O O9 0.827534 0.239964 0.346225
O O10 0.000000 0.303930 0.285323
O O11 0.146542 0.500000 0.007591
O O12 0.205343 0.698199 0.934533
O O13 0.000000 0.701572 0.975203
O O14 0.173702 0.774231 0.035602
O O15 0.500000 0.640515 0.257444
O O16 0.206540 0.500000 0.856015
O O17 0.109636 0.748788 0.839604
O O18 0.292287 0.000000 0.068767
O O19 0.000000 0.000000 0.849022
#
# Coordination Sequence:
#
# PCOD8189204 Si02
#       8
#     8   4   8   8   4   8   8   4
#     4  10  21  37  60  88 122 158 197 243 297 356
#     4  10  20  37  60  87 122 162 200 241 289 353
#     4  11  25  42  59  85 122 160 201 246 296 353
#     4  10  22  42  64  88 118 154 197 244 294 355
#     4  10  20  32  58  94 123 152 193 242 293 348
#     4  11  23  41  64  89 119 155 198 244 294 354
#     4  10  22  39  60  90 122 156 198 248 300 349
#     4  12  22  33  58  95 127 154 189 237 298 351
#
# _framework density 19.721088000000002
#
# number of rings (size 3 to 8) (size 9 to 14) (size 15 to 20)
#    0.000    1.538    2.308    2.308    0.000    8.923 
#    1.385    3.077    0.000    0.000    0.000    0.000 
#    0.000    0.000    0.000    0.000    0.000    0.000 
#
# Total GULP energy -322459.702858 kJ/mol
# GULP energy per Si atom -12402.296264 kJ/mol
# Density = 1.967620 g / cm^3
# Si number density = 19.721088 Si / 1000 Ang^3
#
#
#
# Elastic Constant Matrix: (Units=GPa)
#
#
# Indices 1 2 3 4 5 6 
#
# 1 89.9538 52.5449 46.6568 0.0000 0.0000 0.0000
# 2 52.5449 129.7752 56.3547 0.0000 0.0000 0.0000
# 3 46.6568 56.3547 109.5217 0.0000 0.0000 0.0000
# 4 0.0000 0.0000 0.0000 28.5670 0.0000 0.0000
# 5 0.0000 0.0000 0.0000 0.0000 29.7405 0.0000
# 6 0.0000 0.0000 0.0000 0.0000 0.0000 24.3225
#
#
#
# Elastic Compliance Matrix: (Units=1/GPa)
#
#
# Indices 1 2 3 4 5 6 
#
# 1 0.016130 -0.004568 -0.004521 0.000000 0.000000 0.000000
# 2 -0.004568 0.011216 -0.003826 0.000000 0.000000 0.000000
# 3 -0.004521 -0.003826 0.013025 0.000000 0.000000 0.000000
# 4 0.000000 0.000000 0.000000 0.035005 0.000000 0.000000
# 5 0.000000 0.000000 0.000000 0.000000 0.033624 0.000000
# 6 0.000000 0.000000 0.000000 0.000000 0.000000 0.041114
#
#
# Mechanical properties :
#
#
# Convention : Reuss Voigt Hill
#
# Bulk Modulus (GPa) = 68.76305 71.15149 69.95727
# Shear Modulus (GPa) = 27.65623 28.10562 27.88092
#
# Velocity S-wave (km/s) = 3.74888 3.77922 3.76408
# Velocity P-wave (km/s) = 7.32682 7.42971 7.37844
#
# Compressibility (1/GPa) = 0.01454269
#
# Stress axis : x y z
#
# Youngs Moduli (GPa) = 61.99679 89.15649 76.77487
#
# Poissons Ratio (x) = 0.40723 0.34711
# Poissons Ratio (y) = 0.28317 0.29371
# Poissons Ratio (z) = 0.28030 0.34107
#
# Static dielectric constant tensor:
#      x y z
#    x 3.762710 0.000000 0.000000 
#    y 0.000000 3.566580 0.000000 
#    z 0.000000 0.000000 3.595830 
# 
# 
# High freq. dielectric constant tensor:
#      x y z
#    x 1.761700 0.000000 0.000000 
#    y 0.000000 1.776630 0.000000 
#    z 0.000000 0.000000 1.766690 
# 
# From -- ./inp_files/26396.got.cif
#   From: 2010.03.12/outbox.cif.g09.slc.cpg/sg44_14_cif.got.tgz:26396.got - 2010.04.14 02:36:11.
