data_PCOD8189919
_publ_section_title
;
Structure prediction by ZEFSAII (Michael W. Deem and Ramdas Pophale) SiO2 
 PCOD8189919
Probable space group: I M M 2
;
_chemical_formula_sum "Si O2"
_cell_formula_units_Z 34
_cell_length_a 7.869528
_cell_length_b 7.661966
_cell_length_c 27.170689
_cell_angle_alpha 90.000000
_cell_angle_beta 90.000000
_cell_angle_gamma 90.000000
_cell_volume 1638.285385
_symmetry_space_group_name_H-M "I M M 2"
_symmetry_group_IT_number 44
_symmetry_cell_setting 'orthorhombic'
loop_
_space_group_symop_operation_xyz
x,y,z
-x,-y,z
-x,y,z
x,-y,z
1/2+x,1/2+y,1/2+z
1/2-x,1/2-y,1/2+z
1/2-x,1/2+y,1/2+z
1/2+x,1/2-y,1/2+z
loop_
_atom_site_type_symbol
_atom_site_label
_atom_site_fract_x
_atom_site_fract_y
_atom_site_fract_z
Si Si1 0.181831 0.300864 0.243860
Si Si2 0.701330 0.192963 0.453429
Si Si3 0.000000 0.211024 0.682738
Si Si4 0.000000 0.500000 0.602587
Si Si5 0.297251 0.500000 0.525667
Si Si6 0.310344 0.205559 0.345607
O O1 0.174756 0.500000 0.228078
O O2 0.337871 0.218990 0.213755
O O3 0.200210 0.289968 0.302663
O O4 0.000000 0.212632 0.229499
O O5 0.500000 0.184800 0.448536
O O6 0.756123 0.329979 0.494600
O O7 0.770113 0.249684 0.399356
O O8 0.770817 0.000000 0.467979
O O9 0.000000 0.318423 0.632368
O O10 0.000000 0.000000 0.673707
O O11 0.177076 0.500000 0.572860
O O12 0.500000 0.500000 0.539077
O O13 0.500000 0.283707 0.341591
O O14 0.313958 0.000000 0.337958
#
# Coordination Sequence:
#
# PCOD8189919 Si02
#       6
#     8   8   4   2   4   8
#     4  10  21  36  56  86 120 159 201 245 300 370
#     4   8  16  33  57  87 124 164 199 241 297 367
#     4  10  24  46  64  84 122 160 202 260 318 359
#     4  12  28  44  68  96 112 156 224 268 308 358
#     4  10  22  42  64  90 120 156 208 258 310 359
#     4   9  17  30  53  85 122 163 201 234 292 364
#
# _framework density 20.753405999999998
#
# number of rings (size 3 to 8) (size 9 to 14) (size 15 to 20)
#    0.000    2.588    1.176    1.412    3.294    2.353 
#    2.118    0.000    0.000    0.000    0.000    0.000 
#    0.000    0.000    0.000    0.000    0.000    0.000 
#
# Total GULP energy -210636.769449 kJ/mol
# GULP energy per Si atom -12390.398203 kJ/mol
# Density = 2.070617 g / cm^3
# Si number density = 20.753406 Si / 1000 Ang^3
#
#
#
# Elastic Constant Matrix: (Units=GPa)
#
#
# Indices 1 2 3 4 5 6 
#
# 1 133.1022 31.4874 67.3990 0.0000 0.0000 0.0000
# 2 31.4874 79.2494 53.7729 -0.0001 0.0000 0.0000
# 3 67.3990 53.7729 138.3456 -0.0001 0.0000 0.0000
# 4 0.0000 -0.0001 -0.0001 38.0665 0.0000 0.0000
# 5 0.0000 0.0000 0.0000 0.0000 10.4411 0.0000
# 6 0.0000 0.0000 0.0000 0.0000 0.0000 6.8472
#
#
#
# Elastic Compliance Matrix: (Units=1/GPa)
#
#
# Indices 1 2 3 4 5 6 
#
# 1 0.010021 -0.000909 -0.004529 0.000000 0.000000 0.000000
# 2 -0.000909 0.017221 -0.006251 0.000000 0.000000 0.000000
# 3 -0.004529 -0.006251 0.011864 0.000000 0.000000 0.000000
# 4 0.000000 0.000000 0.000000 0.026270 0.000000 0.000000
# 5 0.000000 0.000000 0.000000 0.000000 0.095775 0.000000
# 6 0.000000 0.000000 0.000000 0.000000 0.000000 0.146045
#
#
# Mechanical properties :
#
#
# Convention : Reuss Voigt Hill
#
# Bulk Modulus (GPa) = 63.57467 72.89065 68.23266
# Shear Modulus (GPa) = 14.88907 24.27347 19.58127
#
# Velocity S-wave (km/s) = 2.68139 3.42367 3.07501
# Velocity P-wave (km/s) = 6.34715 7.12932 6.74958
#
# Compressibility (1/GPa) = 0.01572953
#
# Stress axis : x y z
#
# Youngs Moduli (GPa) = 99.78711 58.06953 84.28645
#
# Poissons Ratio (x) = 0.05276 0.38173
# Poissons Ratio (y) = 0.09067 0.52686
# Poissons Ratio (z) = 0.45194 0.36298
#
# Static dielectric constant tensor:
#      x y z
#    x 3.902940 0.000000 0.000000 
#    y 0.000000 3.877480 0.000000 
#    z 0.000000 0.000000 3.637440 
# 
# 
# High freq. dielectric constant tensor:
#      x y z
#    x 1.802270 0.000000 0.000000 
#    y 0.000000 1.807710 0.000000 
#    z 0.000000 0.000000 1.792490 
# 
# From -- ./inp_files/22573.got.cif
#   From: 2010.03.12/outbox.cif.g09.slc.cpg/sg44_12_cif.got.tgz:22573.got - 2010.04.14 02:36:11.
