data_PCOD8189454
_publ_section_title
;
Structure prediction by ZEFSAII (Michael W. Deem and Ramdas Pophale) SiO2 
 PCOD8189454
Probable space group: I M M 2
;
_chemical_formula_sum "Si O2"
_cell_formula_units_Z 48
_cell_length_a 10.383640
_cell_length_b 24.588227
_cell_length_c 9.690173
_cell_angle_alpha 90.000000
_cell_angle_beta 90.000000
_cell_angle_gamma 90.000000
_cell_volume 2474.049401
_symmetry_space_group_name_H-M "I M M 2"
_symmetry_group_IT_number 44
_symmetry_cell_setting 'orthorhombic'
loop_
_space_group_symop_operation_xyz
x,y,z
-x,-y,z
-x,y,z
x,-y,z
1/2+x,1/2+y,1/2+z
1/2-x,1/2-y,1/2+z
1/2-x,1/2+y,1/2+z
1/2+x,1/2-y,1/2+z
loop_
_atom_site_type_symbol
_atom_site_label
_atom_site_fract_x
_atom_site_fract_y
_atom_site_fract_z
Si Si1 0.228083 0.634169 0.441510
Si Si2 0.642906 0.564655 0.899387
Si Si3 0.644932 0.726630 0.582125
Si Si4 0.855531 0.437109 0.686917
Si Si5 0.141843 0.747220 0.389914
Si Si6 0.349874 0.561431 0.208771
O O1 0.342963 0.664600 0.526224
O O2 0.151755 0.594720 0.543614
O O3 0.134878 0.681266 0.381548
O O4 0.278739 0.600221 0.313945
O O5 0.500000 0.586058 0.855228
O O6 0.641022 0.500000 0.899166
O O7 0.752164 0.587035 0.795976
O O8 0.675556 0.584073 0.054423
O O9 0.500000 0.748157 0.556956
O O10 0.748265 0.764998 0.500432
O O11 0.680662 0.727717 0.743030
O O12 0.824130 0.500000 0.656433
O O13 0.000000 0.430403 0.747482
O O14 0.000000 0.768590 0.435094
O O15 0.500000 0.561988 0.242998
O O16 0.296357 0.500000 0.224409
#
# Coordination Sequence:
#
# PCOD8189454 Si02
#       6
#     8   8   8   8   8   8
#     4  10  20  34  56  79 114 145 183 229 272 328
#     4   8  16  32  52  74 104 142 182 223 267 314
#     4   9  20  38  60  83 107 140 185 230 275 333
#     4  10  20  35  55  81 114 150 187 224 269 328
#     4   9  20  39  59  80 110 142 179 230 282 330
#     4   9  17  32  55  84 116 147 183 227 272 321
#
# _framework density 19.401389999999999
#
# number of rings (size 3 to 8) (size 9 to 14) (size 15 to 20)
#    1.000    1.833    0.000    2.500    0.000    2.000 
#    3.000    3.333    0.000    4.000    0.000    0.000 
#    0.000    0.000    0.000    0.000    0.000    0.000 
#
# Total GULP energy -297360.959021 kJ/mol
# GULP energy per Si atom -12390.039959 kJ/mol
# Density = 1.935723 g / cm^3
# Si number density = 19.401390 Si / 1000 Ang^3
#
#
#
# Elastic Constant Matrix: (Units=GPa)
#
#
# Indices 1 2 3 4 5 6 
#
# 1 109.1277 6.1428 49.6729 -0.0008 0.0001 0.0000
# 2 6.1428 35.1562 13.8117 0.0001 -0.0002 0.0002
# 3 49.6729 13.8117 68.1131 0.0001 0.0001 0.0008
# 4 -0.0008 0.0001 0.0001 20.3565 -0.0002 0.0001
# 5 0.0001 -0.0002 0.0001 -0.0002 35.0609 0.0001
# 6 0.0000 0.0002 0.0008 0.0001 0.0001 6.7078
#
#
#
# Elastic Compliance Matrix: (Units=1/GPa)
#
#
# Indices 1 2 3 4 5 6 
#
# 1 0.013807 0.001677 -0.010409 0.000001 0.000000 0.000001
# 2 0.001677 0.031110 -0.007531 0.000000 0.000000 0.000000
# 3 -0.010409 -0.007531 0.023800 -0.000001 0.000000 -0.000003
# 4 0.000001 0.000000 -0.000001 0.049124 0.000000 -0.000001
# 5 0.000000 0.000000 0.000000 0.000000 0.028522 -0.000001
# 6 0.000001 0.000000 -0.000003 -0.000001 -0.000001 0.149080
#
#
# Mechanical properties :
#
#
# Convention : Reuss Voigt Hill
#
# Bulk Modulus (GPa) = 27.63196 39.07242 33.35219
# Shear Modulus (GPa) = 14.70440 21.94302 18.32371
#
# Velocity S-wave (km/s) = 2.75599 3.36669 3.07653
# Velocity P-wave (km/s) = 4.93969 5.94100 5.46333
#
# Compressibility (1/GPa) = 0.03618997
#
# Stress axis : x y z
#
# Youngs Moduli (GPa) = 72.42542 32.14369 42.01700
#
# Poissons Ratio (x) = -0.05390 0.43737
# Poissons Ratio (y) = -0.12146 0.31645
# Poissons Ratio (z) = 0.75390 0.24209
#
# Static dielectric constant tensor:
#      x y z
#    x 3.499650 0.000000 0.000000 
#    y 0.000000 3.271930 0.000000 
#    z 0.000000 0.000000 3.506540 
# 
# 
# High freq. dielectric constant tensor:
#      x y z
#    x 1.749810 0.000000 0.000000 
#    y 0.000000 1.732140 0.000000 
#    z 0.000000 0.000000 1.753830 
# 
# From -- ./inp_files/6258.got.cif
#   From: 2010.03.12/outbox.cif.g09.slc.cpg/sg44_4_cif.got.tgz:6258.got - 2010.04.14 02:36:11.
