data_PCOD8189604
_publ_section_title
;
Structure prediction by ZEFSAII (Michael W. Deem and Ramdas Pophale) SiO2 
 PCOD8189604
Probable space group: I M M 2
;
_chemical_formula_sum "Si O2"
_cell_formula_units_Z 48
_cell_length_a 7.786767
_cell_length_b 17.984814
_cell_length_c 17.106131
_cell_angle_alpha 90.000000
_cell_angle_beta 90.000000
_cell_angle_gamma 90.000000
_cell_volume 2395.603417
_symmetry_space_group_name_H-M "I M M 2"
_symmetry_group_IT_number 44
_symmetry_cell_setting 'orthorhombic'
loop_
_space_group_symop_operation_xyz
x,y,z
-x,-y,z
-x,y,z
x,-y,z
1/2+x,1/2+y,1/2+z
1/2-x,1/2-y,1/2+z
1/2-x,1/2+y,1/2+z
1/2+x,1/2-y,1/2+z
loop_
_atom_site_type_symbol
_atom_site_label
_atom_site_fract_x
_atom_site_fract_y
_atom_site_fract_z
Si Si1 0.800327 0.417178 0.828420
Si Si2 0.200834 0.158383 0.001012
Si Si3 0.500000 0.912435 0.905054
Si Si4 0.190921 0.085526 0.626164
Si Si5 0.201275 0.083006 0.159594
Si Si6 0.299312 0.830414 0.477670
Si Si7 0.500000 0.088427 0.730998
O O1 0.716248 0.500000 0.835254
O O2 0.765996 0.383697 0.742146
O O3 0.727612 0.361626 0.894789
O O4 0.000000 0.424454 0.842664
O O5 0.323009 0.111411 0.945273
O O6 0.240152 0.243650 0.983591
O O7 0.000000 0.138469 0.985379
O O8 0.255132 0.138462 0.089993
O O9 0.500000 0.878215 0.817870
O O10 0.500000 0.000000 0.902027
O O11 0.195962 0.128913 0.545195
O O12 0.329809 0.118250 0.686910
O O13 0.000000 0.094289 0.662462
O O14 0.233860 0.000000 0.607779
O O15 0.000000 0.076373 0.163411
O O16 0.280070 0.000000 0.145618
O O17 0.500000 0.846863 0.488844
O O18 0.500000 0.000000 0.734045
#
# Coordination Sequence:
#
# PCOD8189604 Si02
#       7
#     8   8   4   8   8   8   4
#     4   9  18  32  55  85 115 153 197 241 287 345
#     4  10  23  41  59  89 123 154 197 250 305 360
#     4  11  24  42  68  89 110 158 206 250 306 356
#     4  10  20  35  60  89 118 158 202 245 295 355
#     4   9  18  35  57  81 112 149 193 245 294 346
#     4  10  20  37  57  84 125 163 195 242 299 359
#     4   9  20  40  60  87 117 146 202 256 295 352
#
# _framework density 20.036705000000001
#
# number of rings (size 3 to 8) (size 9 to 14) (size 15 to 20)
#    0.000    2.333    0.833    1.000    2.333    3.000 
#    3.000    3.333    0.000    0.000    0.000    0.000 
#    0.000    0.000    0.000    0.000    0.000    0.000 
#
# Total GULP energy -297544.944716 kJ/mol
# GULP energy per Si atom -12397.706030 kJ/mol
# Density = 1.999110 g / cm^3
# Si number density = 20.036705 Si / 1000 Ang^3
#
#
#
# Elastic Constant Matrix: (Units=GPa)
#
#
# Indices 1 2 3 4 5 6 
#
# 1 84.8473 32.7895 56.4634 0.0000 0.0000 0.0000
# 2 32.7895 85.7315 69.0597 0.0000 0.0000 0.0000
# 3 56.4634 69.0597 185.0526 0.0000 0.0000 0.0000
# 4 0.0000 0.0000 0.0000 12.8348 0.0000 0.0000
# 5 0.0000 0.0000 0.0000 0.0000 22.9488 0.0000
# 6 0.0000 0.0000 0.0000 0.0000 0.0000 22.4988
#
#
#
# Elastic Compliance Matrix: (Units=1/GPa)
#
#
# Indices 1 2 3 4 5 6 
#
# 1 0.015307 -0.002991 -0.003554 0.000000 0.000000 0.000000
# 2 -0.002991 0.017263 -0.005529 0.000000 0.000000 0.000000
# 3 -0.003554 -0.005529 0.008552 0.000000 0.000000 0.000000
# 4 0.000000 0.000000 0.000000 0.077913 0.000000 0.000000
# 5 0.000000 0.000000 0.000000 0.000000 0.043575 0.000000
# 6 0.000000 0.000000 0.000000 0.000000 0.000000 0.044447
#
#
# Mechanical properties :
#
#
# Convention : Reuss Voigt Hill
#
# Bulk Modulus (GPa) = 58.92255 74.69518 66.80887
# Shear Modulus (GPa) = 21.10915 24.81106 22.96010
#
# Velocity S-wave (km/s) = 3.24932 3.52274 3.38879
# Velocity P-wave (km/s) = 6.59914 7.34209 6.98051
#
# Compressibility (1/GPa) = 0.01697143
#
# Stress axis : x y z
#
# Youngs Moduli (GPa) = 65.32905 57.92850 116.93377
#
# Poissons Ratio (x) = 0.17329 0.41560
# Poissons Ratio (y) = 0.19543 0.64658
# Poissons Ratio (z) = 0.23219 0.32031
#
# Static dielectric constant tensor:
#      x y z
#    x 3.603990 0.000000 0.000000 
#    y 0.000000 3.810740 0.000000 
#    z 0.000000 0.000000 3.918800 
# 
# 
# High freq. dielectric constant tensor:
#      x y z
#    x 1.782160 0.000000 0.000000 
#    y 0.000000 1.762060 0.000000 
#    z 0.000000 0.000000 1.785440 
# 
# From -- ./inp_files/16146.got.cif
#   From: 2010.03.12/outbox.cif.g09.slc.cpg/sg44_9_cif.got.tgz:16146.got - 2010.04.14 02:36:11.
