data_PCOD8189658
_publ_section_title
;
Structure prediction by ZEFSAII (Michael W. Deem and Ramdas Pophale) SiO2 
 PCOD8189658
Probable space group: I M M 2
;
_chemical_formula_sum "Si O2"
_cell_formula_units_Z 40
_cell_length_a 21.140226
_cell_length_b 10.245799
_cell_length_c 9.653891
_cell_angle_alpha 90.000000
_cell_angle_beta 90.000000
_cell_angle_gamma 90.000000
_cell_volume 2091.018372
_symmetry_space_group_name_H-M "I M M 2"
_symmetry_group_IT_number 44
_symmetry_cell_setting 'orthorhombic'
loop_
_space_group_symop_operation_xyz
x,y,z
-x,-y,z
-x,y,z
x,-y,z
1/2+x,1/2+y,1/2+z
1/2-x,1/2-y,1/2+z
1/2-x,1/2+y,1/2+z
1/2+x,1/2-y,1/2+z
loop_
_atom_site_type_symbol
_atom_site_label
_atom_site_fract_x
_atom_site_fract_y
_atom_site_fract_z
Si Si1 0.804690 0.646308 0.940360
Si Si2 0.686990 0.500000 0.266568
Si Si3 0.429839 0.784199 0.537060
Si Si4 0.929358 0.000000 0.974064
Si Si5 0.928335 0.500000 0.260802
Si Si6 0.687317 0.000000 0.962269
Si Si7 0.280338 0.765630 0.149052
O O1 0.790534 0.500000 0.986312
O O2 0.765775 0.677263 0.801238
O O3 0.879562 0.672851 0.918362
O O4 0.784813 0.739049 0.067710
O O5 0.624071 0.500000 0.357487
O O6 0.750441 0.500000 0.363356
O O7 0.683422 0.372281 0.168413
O O8 0.500000 0.816274 0.479968
O O9 0.422425 0.629517 0.569196
O O10 0.416193 0.868585 0.673320
O O11 0.000000 0.000000 0.905449
O O12 0.877696 0.500000 0.380774
O O13 0.000000 0.500000 0.319798
O O14 0.682335 0.127804 0.059336
#
# Coordination Sequence:
#
# PCOD8189658 Si02
#       7
#     8   4   8   4   4   4   8
#     4  12  23  38  60  93 123 156 205 256 304 364
#     4  12  22  39  59  89 124 160 203 245 314 364
#     4  10  20  36  63  90 119 160 205 248 301 364
#     4  10  20  36  58  92 124 156 203 257 297 357
#     4  10  22  41  63  91 125 167 204 252 313 368
#     4  12  24  40  62  88 125 159 206 260 300 369
#     4  12  24  38  61  90 122 162 200 249 312 361
#
# _framework density 19.129435000000001
#
# number of rings (size 3 to 8) (size 9 to 14) (size 15 to 20)
#    0.000    0.800    7.000    1.200    0.000    0.000 
#    0.000    3.000    0.000    0.000    0.000    0.000 
#    0.000    0.000    0.000    0.000    0.000    0.000 
#
# Total GULP energy -247828.569547 kJ/mol
# GULP energy per Si atom -12391.428477 kJ/mol
# Density = 1.908590 g / cm^3
# Si number density = 19.129435 Si / 1000 Ang^3
#
#
#
# Elastic Constant Matrix: (Units=GPa)
#
#
# Indices 1 2 3 4 5 6 
#
# 1 119.9052 52.9142 71.0415 0.0000 0.0000 0.0000
# 2 52.9142 168.9177 56.3785 0.0000 0.0000 0.0000
# 3 71.0415 56.3785 101.5624 0.0000 0.0000 0.0000
# 4 0.0000 0.0000 0.0000 40.4535 0.0000 0.0000
# 5 0.0000 0.0000 0.0000 0.0000 28.6514 0.0000
# 6 0.0000 0.0000 0.0000 0.0000 0.0000 22.5042
#
#
#
# Elastic Compliance Matrix: (Units=1/GPa)
#
#
# Indices 1 2 3 4 5 6 
#
# 1 0.014515 -0.001422 -0.009364 0.000000 0.000000 0.000000
# 2 -0.001422 0.007406 -0.003117 0.000000 0.000000 0.000000
# 3 -0.009364 -0.003117 0.018126 0.000000 0.000000 0.000000
# 4 0.000000 0.000000 0.000000 0.024720 0.000000 0.000000
# 5 0.000000 0.000000 0.000000 0.000000 0.034902 0.000000
# 6 0.000000 0.000000 0.000000 0.000000 0.000000 0.044436
#
#
# Mechanical properties :
#
#
# Convention : Reuss Voigt Hill
#
# Bulk Modulus (GPa) = 81.68167 83.45040 82.56604
# Shear Modulus (GPa) = 28.41060 32.32524 30.36792
#
# Velocity S-wave (km/s) = 3.85798 4.11520 3.98866
# Velocity P-wave (km/s) = 7.91439 8.14239 8.02920
#
# Compressibility (1/GPa) = 0.01224265
#
# Stress axis : x y z
#
# Youngs Moduli (GPa) = 68.89265 135.03404 55.16856
#
# Poissons Ratio (x) = 0.19196 0.51661
# Poissons Ratio (y) = 0.09794 0.17193
# Poissons Ratio (z) = 0.64512 0.42084
#
# Static dielectric constant tensor:
#      x y z
#    x 3.597940 0.000000 0.000000 
#    y 0.000000 4.078870 0.000000 
#    z 0.000000 0.000000 3.318000 
# 
# 
# High freq. dielectric constant tensor:
#      x y z
#    x 1.737930 0.000000 0.000000 
#    y 0.000000 1.778620 0.000000 
#    z 0.000000 0.000000 1.708830 
# 
# From -- ./inp_files/8802.got.cif
#   From: 2010.03.12/outbox.cif.g09.slc.cpg/sg44_5_cif.got.tgz:8802.got - 2010.04.14 02:36:11.
