data_PCOD8189238
_publ_section_title
;
Structure prediction by ZEFSAII (Michael W. Deem and Ramdas Pophale) SiO2 
 PCOD8189238
Probable space group: I M M 2
;
_chemical_formula_sum "Si O2"
_cell_formula_units_Z 64
_cell_length_a 8.782508
_cell_length_b 14.311879
_cell_length_c 28.524993
_cell_angle_alpha 90.000000
_cell_angle_beta 90.000000
_cell_angle_gamma 90.000000
_cell_volume 3585.425942
_symmetry_space_group_name_H-M "I M M 2"
_symmetry_group_IT_number 44
_symmetry_cell_setting 'orthorhombic'
loop_
_space_group_symop_operation_xyz
x,y,z
-x,-y,z
-x,y,z
x,-y,z
1/2+x,1/2+y,1/2+z
1/2-x,1/2-y,1/2+z
1/2-x,1/2+y,1/2+z
1/2+x,1/2-y,1/2+z
loop_
_atom_site_type_symbol
_atom_site_label
_atom_site_fract_x
_atom_site_fract_y
_atom_site_fract_z
Si Si1 0.819566 0.603514 0.533520
Si Si2 0.320892 0.742652 0.355725
Si Si3 0.319073 0.744093 0.212017
Si Si4 0.681537 0.748887 0.106720
Si Si5 0.320222 0.103575 0.284272
Si Si6 0.678640 0.751123 0.956110
Si Si7 0.820552 0.607638 0.284041
Si Si8 0.319544 0.603489 0.032283
O O1 0.746512 0.500000 0.532695
O O2 0.758715 0.659205 0.579185
O O3 0.775198 0.657590 0.486010
O O4 0.000000 0.597398 0.536671
O O5 0.500000 0.728307 0.350035
O O6 0.268289 0.838553 0.330167
O O7 0.276608 0.748688 0.409505
O O8 0.239984 0.654639 0.331618
O O9 0.500000 0.733662 0.212598
O O10 0.252975 0.747785 0.159302
O O11 0.267786 0.839386 0.238110
O O12 0.250937 0.654461 0.237977
O O13 0.500000 0.750066 0.107659
O O14 0.740088 0.657490 0.078577
O O15 0.500000 0.092707 0.283928
O O16 0.244737 0.000000 0.284581
O O17 0.500000 0.751064 0.943983
O O18 0.726027 0.659249 0.985395
O O19 0.770926 0.500000 0.284650
O O20 0.000000 0.619740 0.282045
O O21 0.500000 0.597464 0.034982
O O22 0.246476 0.500000 0.030783
#
# Coordination Sequence:
#
# PCOD8189238 Si02
#       8
#     8   8   8   8   8   8   8   8
#     4   8  14  25  42  66  95 123 152 188 226 267
#     4  10  20  33  50  71  94 121 155 196 240 282
#     4   9  17  29  48  74  99 123 155 196 238 275
#     4   8  14  24  40  66  95 121 153 190 227 269
#     4   8  15  28  44  64  92 122 150 185 232 282
#     4   9  17  29  45  66  92 121 156 194 231 276
#     4  10  21  36  52  69  92 124 158 191 232 283
#     4   8  14  25  41  63  93 126 157 191 230 271
#
# _framework density 17.850041000000001
#
# number of rings (size 3 to 8) (size 9 to 14) (size 15 to 20)
#    0.000    3.250    0.000    3.000    0.000    3.000 
#    0.000    5.000    0.000   12.000    0.000    0.000 
#    0.000    0.000    0.000    0.000    0.000    0.000 
#
# Total GULP energy -396634.443602 kJ/mol
# GULP energy per Si atom -12394.826363 kJ/mol
# Density = 1.780941 g / cm^3
# Si number density = 17.850041 Si / 1000 Ang^3
#
#
#
# Elastic Constant Matrix: (Units=GPa)
#
#
# Indices 1 2 3 4 5 6 
#
# 1 21.1683 23.2100 17.7006 0.0000 0.0000 0.0000
# 2 23.2100 184.8666 85.2910 0.0000 0.0000 0.0000
# 3 17.7006 85.2910 161.2132 0.0000 0.0000 0.0000
# 4 0.0000 0.0000 0.0000 14.2733 0.0000 0.0000
# 5 0.0000 0.0000 0.0000 0.0000 23.1947 0.0000
# 6 0.0000 0.0000 0.0000 0.0000 0.0000 11.8547
#
#
#
# Elastic Compliance Matrix: (Units=1/GPa)
#
#
# Indices 1 2 3 4 5 6 
#
# 1 0.056013 -0.005550 -0.003214 0.000000 0.000000 0.000000
# 2 -0.005550 0.007706 -0.003468 0.000000 0.000000 0.000000
# 3 -0.003214 -0.003468 0.008390 0.000000 0.000000 0.000000
# 4 0.000000 0.000000 0.000000 0.070061 0.000000 0.000000
# 5 0.000000 0.000000 0.000000 0.000000 0.043113 0.000000
# 6 0.000000 0.000000 0.000000 0.000000 0.000000 0.084354
#
#
# Mechanical properties :
#
#
# Convention : Reuss Voigt Hill
#
# Bulk Modulus (GPa) = 20.98773 68.85016 44.91895
# Shear Modulus (GPa) = 16.12996 25.93430 21.03213
#
# Velocity S-wave (km/s) = 3.00932 3.81583 3.43631
# Velocity P-wave (km/s) = 4.88446 7.62032 6.40028
#
# Compressibility (1/GPa) = 0.04764688
#
# Stress axis : x y z
#
# Youngs Moduli (GPa) = 17.85307 129.77160 119.18451
#
# Poissons Ratio (x) = 0.72018 0.38305
# Poissons Ratio (y) = 0.09908 0.41327
# Poissons Ratio (z) = 0.05738 0.44998
#
# Static dielectric constant tensor:
#      x y z
#    x 2.792900 0.000000 0.000000 
#    y 0.000000 3.866400 0.000000 
#    z 0.000000 0.000000 3.422320 
# 
# 
# High freq. dielectric constant tensor:
#      x y z
#    x 1.640120 0.000000 0.000000 
#    y 0.000000 1.698540 0.000000 
#    z 0.000000 0.000000 1.695850 
# 
# From -- ./inp_files/27273.got.cif
#   From: 2010.03.12/outbox.cif.g09.slc.cpg/sg44_14_cif.got.tgz:27273.got - 2010.04.14 02:36:11.
