data_PCOD8189123
_publ_section_title
;
Structure prediction by ZEFSAII (Michael W. Deem and Ramdas Pophale) SiO2 
 PCOD8189123
Probable space group: I M M 2
;
_chemical_formula_sum "Si O2"
_cell_formula_units_Z 40
_cell_length_a 8.888455
_cell_length_b 10.349992
_cell_length_c 23.172498
_cell_angle_alpha 90.000000
_cell_angle_beta 90.000000
_cell_angle_gamma 90.000000
_cell_volume 2131.764106
_symmetry_space_group_name_H-M "I M M 2"
_symmetry_group_IT_number 44
_symmetry_cell_setting 'orthorhombic'
loop_
_space_group_symop_operation_xyz
x,y,z
-x,-y,z
-x,y,z
x,-y,z
1/2+x,1/2+y,1/2+z
1/2-x,1/2-y,1/2+z
1/2-x,1/2+y,1/2+z
1/2+x,1/2-y,1/2+z
loop_
_atom_site_type_symbol
_atom_site_label
_atom_site_fract_x
_atom_site_fract_y
_atom_site_fract_z
Si Si1 0.321765 0.500000 0.010180
Si Si2 0.323128 0.748795 0.457488
Si Si3 0.821120 0.854928 0.835776
Si Si4 0.320871 0.500000 0.140539
Si Si5 0.821248 0.500000 0.656188
Si Si6 0.179253 0.240405 0.713805
Si Si7 0.324805 0.500000 0.532730
O O1 0.500000 0.500000 0.009726
O O2 0.264690 0.626690 0.978413
O O3 0.258875 0.500000 0.075475
O O4 0.500000 0.776937 0.459613
O O5 0.267302 0.721057 0.392445
O O6 0.280424 0.626189 0.496467
O O7 0.762028 0.779914 0.779093
O O8 0.000000 0.863905 0.835416
O O9 0.754656 0.000000 0.835975
O O10 0.500000 0.500000 0.141339
O O11 0.258333 0.373786 0.173159
O O12 0.756974 0.624976 0.689456
O O13 0.769808 0.500000 0.590644
O O14 0.000000 0.500000 0.656627
O O15 0.000000 0.239841 0.712905
O O16 0.500000 0.500000 0.548028
#
# Coordination Sequence:
#
# PCOD8189123 Si02
#       7
#     4   8   8   4   4   8   4
#     4  11  23  36  51  78 113 145 174 209 262 320
#     4  10  20  35  56  81 106 136 177 222 263 308
#     4   9  15  28  52  77 100 129 170 220 269 310
#     4   9  16  28  46  68  98 135 168 203 252 308
#     4  10  20  31  46  76 110 136 169 212 258 310
#     4   9  16  27  47  74 102 129 163 213 265 305
#     4  10  20  35  55  78 107 144 181 214 254 310
#
# _framework density 18.763801000000001
#
# number of rings (size 3 to 8) (size 9 to 14) (size 15 to 20)
#    0.000    2.400    2.000    1.500    0.000    3.200 
#    0.000    3.000    0.000    2.400    0.000    0.000 
#    0.000    0.000    0.000    0.000    0.000    0.000 
#
# Total GULP energy -247991.632884 kJ/mol
# GULP energy per Si atom -12399.581644 kJ/mol
# Density = 1.872109 g / cm^3
# Si number density = 18.763801 Si / 1000 Ang^3
#
#
#
# Elastic Constant Matrix: (Units=GPa)
#
#
# Indices 1 2 3 4 5 6 
#
# 1 19.1933 28.6536 25.3326 0.0000 0.0000 0.0000
# 2 28.6536 185.1708 101.9068 0.0000 0.0000 0.0000
# 3 25.3326 101.9068 196.4228 0.0000 0.0000 0.0000
# 4 0.0000 0.0000 0.0000 12.3856 0.0000 0.0000
# 5 0.0000 0.0000 0.0000 0.0000 23.9901 0.0000
# 6 0.0000 0.0000 0.0000 0.0000 0.0000 -33.2298
#
#
#
# Elastic Compliance Matrix: (Units=1/GPa)
#
#
# Indices 1 2 3 4 5 6 
#
# 1 0.070883 -0.008310 -0.004830 0.000000 0.000000 0.000000
# 2 -0.008310 0.008533 -0.003355 0.000000 0.000000 0.000000
# 3 -0.004830 -0.003355 0.007455 0.000000 0.000000 0.000000
# 4 0.000000 0.000000 0.000000 0.080739 0.000000 0.000000
# 5 0.000000 0.000000 0.000000 0.000000 0.041684 0.000000
# 6 0.000000 0.000000 0.000000 0.000000 0.000000 -0.030093
#
#
# Mechanical properties :
#
#
# Convention : Reuss Voigt Hill
#
# Bulk Modulus (GPa) = 18.55996 79.17477 48.86737
# Shear Modulus (GPa) = 21.72476 16.95542 19.34009
#
# Velocity S-wave (km/s) = 3.40634 3.00929 3.21395
# Velocity P-wave (km/s) = 5.03822 7.37303 6.31448
#
# Compressibility (1/GPa) = 0.05387941
#
# Stress axis : x y z
#
# Youngs Moduli (GPa) = 14.10767 117.19401 134.14292
#
# Poissons Ratio (x) = 0.97392 0.64795
# Poissons Ratio (y) = 0.11724 0.45007
# Poissons Ratio (z) = 0.06814 0.39321
#
# Static dielectric constant tensor:
#      x y z
#    x 2.846090 0.000000 0.000000 
#    y 0.000000 3.667360 0.000000 
#    z 0.000000 0.000000 3.739200 
# 
# 
# High freq. dielectric constant tensor:
#      x y z
#    x 1.666560 0.000000 0.000000 
#    y 0.000000 1.741710 0.000000 
#    z 0.000000 0.000000 1.748190 
# 
# From -- ./inp_files/22837.got.cif
#   From: 2010.03.12/outbox.cif.g09.slc.cpg/sg44_12_cif.got.tgz:22837.got - 2010.04.14 02:36:11.
