data_PCOD8189755
_publ_section_title
;
Structure prediction by ZEFSAII (Michael W. Deem and Ramdas Pophale) SiO2 
 PCOD8189755
Probable space group: I M M 2
;
_chemical_formula_sum "Si O2"
_cell_formula_units_Z 48
_cell_length_a 8.464038
_cell_length_b 14.501462
_cell_length_c 20.304257
_cell_angle_alpha 90.000000
_cell_angle_beta 90.000000
_cell_angle_gamma 90.000000
_cell_volume 2492.163294
_symmetry_space_group_name_H-M "I M M 2"
_symmetry_group_IT_number 44
_symmetry_cell_setting 'orthorhombic'
loop_
_space_group_symop_operation_xyz
x,y,z
-x,-y,z
-x,y,z
x,-y,z
1/2+x,1/2+y,1/2+z
1/2-x,1/2-y,1/2+z
1/2-x,1/2+y,1/2+z
1/2+x,1/2-y,1/2+z
loop_
_atom_site_type_symbol
_atom_site_label
_atom_site_fract_x
_atom_site_fract_y
_atom_site_fract_z
Si Si1 0.814750 0.692076 0.937070
Si Si2 0.684756 0.198694 0.676484
Si Si3 0.682633 0.320863 0.799256
Si Si4 0.313422 0.000000 0.641221
Si Si5 0.685181 0.500000 0.597015
Si Si6 0.687782 0.000000 0.494437
Si Si7 0.681476 0.000000 0.240146
Si Si8 0.816046 0.307328 0.554684
O O1 0.725746 0.720382 0.870317
O O2 0.750803 0.591056 0.957613
O O3 0.000000 0.690316 0.923637
O O4 0.778672 0.765463 0.993583
O O5 0.500000 0.207256 0.658343
O O6 0.723995 0.241494 0.747011
O O7 0.741401 0.092132 0.679315
O O8 0.781543 0.251782 0.621050
O O9 0.500000 0.348528 0.795439
O O10 0.785789 0.411078 0.784727
O O11 0.240227 0.000000 0.567924
O O12 0.500000 0.000000 0.635273
O O13 0.500000 0.500000 0.583274
O O14 0.710353 0.500000 0.675519
O O15 0.763448 0.412103 0.563355
O O16 0.500000 0.000000 0.497890
O O17 0.500000 0.000000 0.217454
O O18 0.000000 0.302727 0.538689
#
# Coordination Sequence:
#
# PCOD8189755 Si02
#       8
#     8   8   8   4   4   4   4   8
#     4  11  22  39  61  87 123 165 205 249 306 365
#     4  10  20  37  62  86 117 158 202 249 303 360
#     4  11  23  38  58  88 124 163 206 252 305 364
#     4   9  16  33  60  89 113 146 198 245 288 349
#     4  12  24  41  64  91 120 156 204 254 308 365
#     4   9  17  31  58  88 113 149 198 244 292 356
#     4  12  23  37  60  92 126 161 200 249 312 374
#     4  12  24  39  61  90 123 157 201 252 305 367
#
# _framework density 19.260376000000001
#
# number of rings (size 3 to 8) (size 9 to 14) (size 15 to 20)
#    0.000    1.167    3.333    4.500    0.000    1.333 
#    0.000    3.333    0.000    2.000    0.000    0.000 
#    0.000    0.000    0.000    0.000    0.000    0.000 
#
# Total GULP energy -297715.796722 kJ/mol
# GULP energy per Si atom -12404.824863 kJ/mol
# Density = 1.921654 g / cm^3
# Si number density = 19.260376 Si / 1000 Ang^3
#
#
#
# Elastic Constant Matrix: (Units=GPa)
#
#
# Indices 1 2 3 4 5 6 
#
# 1 59.0762 24.4993 17.0156 0.0000 0.0000 0.0000
# 2 24.4993 147.6794 59.6749 0.0000 0.0000 0.0000
# 3 17.0156 59.6749 131.9176 0.0000 0.0000 0.0000
# 4 0.0000 0.0000 0.0000 29.6359 0.0000 0.0000
# 5 0.0000 0.0000 0.0000 0.0000 30.2176 0.0000
# 6 0.0000 0.0000 0.0000 0.0000 0.0000 19.3974
#
#
#
# Elastic Compliance Matrix: (Units=1/GPa)
#
#
# Indices 1 2 3 4 5 6 
#
# 1 0.018334 -0.002553 -0.001210 0.000000 0.000000 0.000000
# 2 -0.002553 0.008641 -0.003580 0.000000 0.000000 0.000000
# 3 -0.001210 -0.003580 0.009356 0.000000 0.000000 0.000000
# 4 0.000000 0.000000 0.000000 0.033743 0.000000 0.000000
# 5 0.000000 0.000000 0.000000 0.000000 0.033093 0.000000
# 6 0.000000 0.000000 0.000000 0.000000 0.000000 0.051553
#
#
# Mechanical properties :
#
#
# Convention : Reuss Voigt Hill
#
# Bulk Modulus (GPa) = 46.19658 60.11699 53.15678
# Shear Modulus (GPa) = 28.30905 31.68242 29.99573
#
# Velocity S-wave (km/s) = 3.83797 4.06020 3.95065
# Velocity P-wave (km/s) = 6.60888 7.29800 6.96198
#
# Compressibility (1/GPa) = 0.02164662
#
# Stress axis : x y z
#
# Youngs Moduli (GPa) = 54.54223 115.72140 106.88345
#
# Poissons Ratio (x) = 0.29539 0.12935
# Poissons Ratio (y) = 0.13922 0.38263
# Poissons Ratio (z) = 0.06601 0.41426
#
# Static dielectric constant tensor:
#      x y z
#    x 3.400880 0.000000 0.000000 
#    y 0.000000 3.736090 0.000000 
#    z 0.000000 0.000000 3.484090 
# 
# 
# High freq. dielectric constant tensor:
#      x y z
#    x 1.742400 0.000000 0.000000 
#    y 0.000000 1.753860 0.000000 
#    z 0.000000 0.000000 1.747840 
# 
# From -- ./inp_files/20376.got.cif
#   From: 2010.03.12/outbox.cif.g09.slc.cpg/sg44_11_cif.got.tgz:20376.got - 2010.04.14 02:36:11.
