data_PCOD8189630
_publ_section_title
;
Structure prediction by ZEFSAII (Michael W. Deem and Ramdas Pophale) SiO2 
 PCOD8189630
Probable space group: I M M 2
;
_chemical_formula_sum "Si O2"
_cell_formula_units_Z 40
_cell_length_a 8.747234
_cell_length_b 7.968211
_cell_length_c 29.245572
_cell_angle_alpha 90.000000
_cell_angle_beta 90.000000
_cell_angle_gamma 90.000000
_cell_volume 2038.410700
_symmetry_space_group_name_H-M "I M M 2"
_symmetry_group_IT_number 44
_symmetry_cell_setting 'orthorhombic'
loop_
_space_group_symop_operation_xyz
x,y,z
-x,-y,z
-x,y,z
x,-y,z
1/2+x,1/2+y,1/2+z
1/2-x,1/2-y,1/2+z
1/2-x,1/2+y,1/2+z
1/2+x,1/2-y,1/2+z
loop_
_atom_site_type_symbol
_atom_site_label
_atom_site_fract_x
_atom_site_fract_y
_atom_site_fract_z
Si Si1 0.817705 0.500000 0.800630
Si Si2 0.180614 0.500000 0.904315
Si Si3 0.818161 0.815634 0.743867
Si Si4 0.679805 0.188051 0.956804
Si Si5 0.681532 0.188296 0.148427
Si Si6 0.681050 0.686893 0.052723
O O1 0.758524 0.500000 0.852440
O O2 0.751911 0.667676 0.775986
O O3 0.000000 0.500000 0.798269
O O4 0.237370 0.670930 0.927335
O O5 0.000000 0.500000 0.906253
O O6 0.759188 0.795510 0.691631
O O7 0.000000 0.803170 0.744306
O O8 0.764684 0.000000 0.761524
O O9 0.500000 0.222000 0.952950
O O10 0.721859 0.000000 0.939415
O O11 0.732601 0.199778 0.009843
O O12 0.500000 0.199946 0.145175
O O13 0.754263 0.251206 0.100556
O O14 0.736107 0.000000 0.157131
O O15 0.500000 0.692212 0.057621
O O16 0.739732 0.500000 0.042590
#
# Coordination Sequence:
#
# PCOD8189630 Si02
#       6
#     4   4   8   8   8   8
#     4   9  18  31  43  61  91 133 173 209 256 309
#     4  11  23  37  55  77 107 145 187 229 270 317
#     4   9  15  24  38  56  85 126 165 200 246 308
#     4  10  20  36  57  79 107 142 179 224 276 324
#     4   9  14  20  33  58  92 126 160 198 245 309
#     4   9  15  24  41  67  98 131 166 205 255 314
#
# _framework density 19.623128999999999
#
# number of rings (size 3 to 8) (size 9 to 14) (size 15 to 20)
#    0.000    2.600    2.000    1.500    0.000    6.000 
#    0.000    2.000    0.000    0.000    0.000    0.000 
#    0.000    3.200    1.200    0.000    0.800    0.800 
#
# Total GULP energy -247848.892647 kJ/mol
# GULP energy per Si atom -12392.444632 kJ/mol
# Density = 1.957847 g / cm^3
# Si number density = 19.623129 Si / 1000 Ang^3
#
#
#
# Elastic Constant Matrix: (Units=GPa)
#
#
# Indices 1 2 3 4 5 6 
#
# 1 17.1668 19.7827 21.2455 0.0000 0.0000 0.0000
# 2 19.7827 171.7036 87.1451 0.0000 0.0000 0.0000
# 3 21.2455 87.1451 156.2556 0.0000 0.0000 0.0000
# 4 0.0000 0.0000 0.0000 31.9562 0.0000 0.0000
# 5 0.0000 0.0000 0.0000 0.0000 13.9888 0.0000
# 6 0.0000 0.0000 0.0000 0.0000 0.0000 12.0547
#
#
#
# Elastic Compliance Matrix: (Units=1/GPa)
#
#
# Indices 1 2 3 4 5 6 
#
# 1 0.072639 -0.004682 -0.007265 0.000000 0.000000 0.000000
# 2 -0.004682 0.008425 -0.004062 0.000000 0.000000 0.000000
# 3 -0.007265 -0.004062 0.009653 0.000000 0.000000 0.000000
# 4 0.000000 0.000000 0.000000 0.031293 0.000000 0.000000
# 5 0.000000 0.000000 0.000000 0.000000 0.071486 0.000000
# 6 0.000000 0.000000 0.000000 0.000000 0.000000 0.082955
#
#
# Mechanical properties :
#
#
# Convention : Reuss Voigt Hill
#
# Bulk Modulus (GPa) = 17.03621 66.83027 41.93324
# Shear Modulus (GPa) = 15.24225 26.06346 20.65285
#
# Velocity S-wave (km/s) = 2.79005 3.64840 3.24771
# Velocity P-wave (km/s) = 4.36803 7.20268 5.95644
#
# Compressibility (1/GPa) = 0.05869850
#
# Stress axis : x y z
#
# Youngs Moduli (GPa) = 13.76677 118.69347 103.59312
#
# Poissons Ratio (x) = 0.55567 0.75265
# Poissons Ratio (y) = 0.06445 0.42082
# Poissons Ratio (z) = 0.10002 0.48216
#
# Static dielectric constant tensor:
#      x y z
#    x 2.754820 0.000000 0.000000 
#    y 0.000000 3.824010 0.000000 
#    z 0.000000 0.000000 3.809020 
# 
# 
# High freq. dielectric constant tensor:
#      x y z
#    x 1.673290 0.000000 0.000000 
#    y 0.000000 1.783530 0.000000 
#    z 0.000000 0.000000 1.772250 
# 
# From -- ./inp_files/25954.got.cif
#   From: 2010.03.12/outbox.cif.g09.slc.cpg/sg44_13_cif.got.tgz:25954.got - 2010.04.14 02:36:11.
