data_PCOD8189554
_publ_section_title
;
Structure prediction by ZEFSAII (Michael W. Deem and Ramdas Pophale) SiO2 
 PCOD8189554
Probable space group: I M M 2
;
_chemical_formula_sum "Si O2"
_cell_formula_units_Z 48
_cell_length_a 9.216576
_cell_length_b 8.994912
_cell_length_c 30.903758
_cell_angle_alpha 90.000000
_cell_angle_beta 90.000000
_cell_angle_gamma 90.000000
_cell_volume 2561.992310
_symmetry_space_group_name_H-M "I M M 2"
_symmetry_group_IT_number 44
_symmetry_cell_setting 'orthorhombic'
loop_
_space_group_symop_operation_xyz
x,y,z
-x,-y,z
-x,y,z
x,-y,z
1/2+x,1/2+y,1/2+z
1/2-x,1/2-y,1/2+z
1/2-x,1/2+y,1/2+z
1/2+x,1/2-y,1/2+z
loop_
_atom_site_type_symbol
_atom_site_label
_atom_site_fract_x
_atom_site_fract_y
_atom_site_fract_z
Si Si1 0.331295 0.170064 0.186600
Si Si2 0.329475 0.672802 0.521412
Si Si3 0.669070 0.327526 0.771556
Si Si4 0.332200 0.324937 0.943179
Si Si5 0.827499 0.667374 0.356706
Si Si6 0.330778 0.327038 0.098770
O O1 0.500000 0.182883 0.196991
O O2 0.247197 0.230872 0.228450
O O3 0.286948 0.273084 0.146500
O O4 0.287139 0.000000 0.176062
O O5 0.500000 0.701635 0.522250
O O6 0.291279 0.500000 0.516692
O O7 0.262068 0.760277 0.481606
O O8 0.262754 0.732927 0.565559
O O9 0.500000 0.295532 0.765668
O O10 0.701775 0.500000 0.779334
O O11 0.733709 0.240906 0.812896
O O12 0.500000 0.281755 0.950889
O O13 0.311350 0.500000 0.941384
O O14 0.272284 0.257819 0.898337
O O15 0.768399 0.500000 0.360042
O O16 0.000000 0.672668 0.355359
O O17 0.500000 0.296695 0.089655
O O18 0.293033 0.500000 0.094007
#
# Coordination Sequence:
#
# PCOD8189554 Si02
#       6
#     8   8   8   8   8   8
#     4   9  18  33  52  74 102 136 172 211 258 310
#     4  11  24  39  55  78 108 139 172 213 262 314
#     4   9  17  30  49  73 101 133 171 215 259 304
#     4  10  20  35  57  82 106 136 176 218 260 309
#     4   9  17  30  50  76 104 135 173 215 257 303
#     4  10  21  37  57  80 105 136 176 218 260 310
#
# _framework density 18.735419
#
# number of rings (size 3 to 8) (size 9 to 14) (size 15 to 20)
#    0.000    2.333    0.000    2.500    0.000    8.667 
#    0.000    2.500    0.000    3.000    0.000    0.000 
#    0.000    0.000    0.000    0.000    0.000    0.000 
#
# Total GULP energy -297667.331112 kJ/mol
# GULP energy per Si atom -12402.805463 kJ/mol
# Density = 1.869278 g / cm^3
# Si number density = 18.735419 Si / 1000 Ang^3
#
#
#
# Elastic Constant Matrix: (Units=GPa)
#
#
# Indices 1 2 3 4 5 6 
#
# 1 46.8954 35.0911 48.7320 0.0000 0.0000 0.0000
# 2 35.0911 81.3268 51.1288 0.0000 0.0000 0.0000
# 3 48.7320 51.1288 145.2862 0.0000 0.0000 0.0000
# 4 0.0000 0.0000 0.0000 41.8086 0.0000 0.0000
# 5 0.0000 0.0000 0.0000 0.0000 31.2935 0.0000
# 6 0.0000 0.0000 0.0000 0.0000 0.0000 21.0033
#
#
#
# Elastic Compliance Matrix: (Units=1/GPa)
#
#
# Indices 1 2 3 4 5 6 
#
# 1 0.039266 -0.011124 -0.009256 0.000000 0.000000 0.000000
# 2 -0.011124 0.018941 -0.002934 0.000000 0.000000 0.000000
# 3 -0.009256 -0.002934 0.011020 0.000000 0.000000 0.000000
# 4 0.000000 0.000000 0.000000 0.023919 0.000000 0.000000
# 5 0.000000 0.000000 0.000000 0.000000 0.031956 0.000000
# 6 0.000000 0.000000 0.000000 0.000000 0.000000 0.047612
#
#
# Mechanical properties :
#
#
# Convention : Reuss Voigt Hill
#
# Bulk Modulus (GPa) = 44.24994 60.37912 52.31453
# Shear Modulus (GPa) = 22.03865 28.05818 25.04842
#
# Velocity S-wave (km/s) = 3.43346 3.87408 3.66041
# Velocity P-wave (km/s) = 6.27597 7.23247 6.77113
#
# Compressibility (1/GPa) = 0.02259890
#
# Stress axis : x y z
#
# Youngs Moduli (GPa) = 25.46710 52.79680 90.74123
#
# Poissons Ratio (x) = 0.58729 0.83991
# Poissons Ratio (y) = 0.28329 0.26627
# Poissons Ratio (z) = 0.23573 0.15493
#
# Static dielectric constant tensor:
#      x y z
#    x 3.233030 0.000000 0.000000 
#    y 0.000000 3.544550 0.000000 
#    z 0.000000 0.000000 3.667310 
# 
# 
# High freq. dielectric constant tensor:
#      x y z
#    x 1.700430 0.000000 0.000000 
#    y 0.000000 1.734750 0.000000 
#    z 0.000000 0.000000 1.744600 
# 
# From -- ./inp_files/26858.got.cif
#   From: 2010.03.12/outbox.cif.g09.slc.cpg/sg44_14_cif.got.tgz:26858.got - 2010.04.14 02:36:11.
