data_PCOD8189089
_publ_section_title
;
Structure prediction by ZEFSAII (Michael W. Deem and Ramdas Pophale) SiO2 
 PCOD8189089
Probable space group: I M M 2
;
_chemical_formula_sum "Si O2"
_cell_formula_units_Z 48
_cell_length_a 18.327335
_cell_length_b 8.974548
_cell_length_c 15.347733
_cell_angle_alpha 90.000000
_cell_angle_beta 90.000000
_cell_angle_gamma 90.000000
_cell_volume 2524.388182
_symmetry_space_group_name_H-M "I M M 2"
_symmetry_group_IT_number 44
_symmetry_cell_setting 'orthorhombic'
loop_
_space_group_symop_operation_xyz
x,y,z
-x,-y,z
-x,y,z
x,-y,z
1/2+x,1/2+y,1/2+z
1/2-x,1/2-y,1/2+z
1/2-x,1/2+y,1/2+z
1/2+x,1/2-y,1/2+z
loop_
_atom_site_type_symbol
_atom_site_label
_atom_site_fract_x
_atom_site_fract_y
_atom_site_fract_z
Si Si1 0.270257 0.323438 0.585070
Si Si2 0.342282 0.678484 0.220881
Si Si3 0.500000 0.324081 0.968071
Si Si4 0.895531 0.331226 0.344582
Si Si5 0.579386 0.330767 0.671043
Si Si6 0.500000 0.323541 0.162815
Si Si7 0.267279 0.330629 0.390895
O O1 0.254856 0.500000 0.587719
O O2 0.211050 0.246344 0.647443
O O3 0.353271 0.282446 0.610878
O O4 0.264732 0.255517 0.486671
O O5 0.334194 0.500000 0.214597
O O6 0.425633 0.733389 0.208235
O O7 0.322179 0.737632 0.318412
O O8 0.500000 0.500000 0.965684
O O9 0.572959 0.265842 0.922878
O O10 0.500000 0.260855 0.065345
O O11 0.921252 0.500000 0.358275
O O12 0.926055 0.274734 0.253809
O O13 0.809483 0.315645 0.343496
O O14 0.500000 0.317194 0.622485
O O15 0.591783 0.500000 0.703140
O O16 0.500000 0.500000 0.163006
O O17 0.290513 0.500000 0.407972
#
# Coordination Sequence:
#
# PCOD8189089 Si02
#       7
#     8   8   4   8   8   4   8
#     4  10  20  36  56  80 108 142 180 224 275 325
#     4  10  19  37  58  79 108 144 182 226 269 319
#     4  11  21  33  49  78 111 138 172 223 273 322
#     4  11  20  32  52  78 105 139 177 216 267 322
#     4  10  20  34  52  76 108 140 173 219 269 320
#     4   9  20  35  55  80 107 140 182 223 267 320
#     4   9  19  34  54  79 108 138 179 225 267 318
#
# _framework density 19.014507999999999
#
# number of rings (size 3 to 8) (size 9 to 14) (size 15 to 20)
#    0.000    2.000    2.500    1.750    0.000    0.000 
#    1.500    2.917    0.000    0.000    0.000    0.000 
#    0.000    0.000    0.000    0.000    0.000    0.000 
#
# Total GULP energy -297428.838543 kJ/mol
# GULP energy per Si atom -12392.868273 kJ/mol
# Density = 1.897123 g / cm^3
# Si number density = 19.014508 Si / 1000 Ang^3
#
#
#
# Elastic Constant Matrix: (Units=GPa)
#
#
# Indices 1 2 3 4 5 6 
#
# 1 143.4436 26.1678 65.5881 0.0000 0.0000 0.0000
# 2 26.1678 43.7719 23.7931 0.0000 0.0000 0.0000
# 3 65.5881 23.7931 133.8892 0.0000 0.0000 0.0000
# 4 0.0000 0.0000 0.0000 18.5649 0.0000 0.0000
# 5 0.0000 0.0000 0.0000 0.0000 2.4678 0.0000
# 6 0.0000 0.0000 0.0000 0.0000 0.0000 12.9734
#
#
#
# Elastic Compliance Matrix: (Units=1/GPa)
#
#
# Indices 1 2 3 4 5 6 
#
# 1 0.009435 -0.003463 -0.004007 0.000000 0.000000 0.000000
# 2 -0.003463 0.026559 -0.003024 0.000000 0.000000 0.000000
# 3 -0.004007 -0.003024 0.009969 0.000000 0.000000 0.000000
# 4 0.000000 0.000000 0.000000 0.053865 0.000000 0.000000
# 5 0.000000 0.000000 0.000000 0.000000 0.405220 0.000000
# 6 0.000000 0.000000 0.000000 0.000000 0.000000 0.077081
#
#
# Mechanical properties :
#
#
# Convention : Reuss Voigt Hill
#
# Bulk Modulus (GPa) = 40.03582 61.35586 50.69584
# Shear Modulus (GPa) = 8.17741 20.50494 14.34118
#
# Velocity S-wave (km/s) = 2.07604 3.28744 2.74929
# Velocity P-wave (km/s) = 5.18148 6.83722 6.06611
#
# Compressibility (1/GPa) = 0.02497764
#
# Stress axis : x y z
#
# Youngs Moduli (GPa) = 105.98816 37.65168 100.31227
#
# Poissons Ratio (x) = 0.13037 0.40191
# Poissons Ratio (y) = 0.36699 0.30330
# Poissons Ratio (z) = 0.42465 0.11384
#
# Static dielectric constant tensor:
#      x y z
#    x 3.795810 0.000000 0.000000 
#    y 0.000000 3.261820 0.000000 
#    z 0.000000 0.000000 3.613760 
# 
# 
# High freq. dielectric constant tensor:
#      x y z
#    x 1.754650 0.000000 0.000000 
#    y 0.000000 1.708660 0.000000 
#    z 0.000000 0.000000 1.736210 
# 
# From -- ./inp_files/16174.got.cif
#   From: 2010.03.12/outbox.cif.g09.slc.cpg/sg44_9_cif.got.tgz:16174.got - 2010.04.14 02:36:11.
