data_PCOD8189601
_publ_section_title
;
Structure prediction by ZEFSAII (Michael W. Deem and Ramdas Pophale) SiO2 
 PCOD8189601
Probable space group: I M M 2
;
_chemical_formula_sum "Si O2"
_cell_formula_units_Z 64
_cell_length_a 13.476910
_cell_length_b 20.312686
_cell_length_c 12.092811
_cell_angle_alpha 90.000000
_cell_angle_beta 90.000000
_cell_angle_gamma 90.000000
_cell_volume 3310.434112
_symmetry_space_group_name_H-M "I M M 2"
_symmetry_group_IT_number 44
_symmetry_cell_setting 'orthorhombic'
loop_
_space_group_symop_operation_xyz
x,y,z
-x,-y,z
-x,y,z
x,-y,z
1/2+x,1/2+y,1/2+z
1/2-x,1/2-y,1/2+z
1/2-x,1/2+y,1/2+z
1/2+x,1/2-y,1/2+z
loop_
_atom_site_type_symbol
_atom_site_label
_atom_site_fract_x
_atom_site_fract_y
_atom_site_fract_z
Si Si1 0.392187 0.331597 0.006910
Si Si2 0.111956 0.073938 0.705562
Si Si3 0.775942 0.359891 0.328402
Si Si4 0.382708 0.076496 0.030240
Si Si5 0.205202 0.271229 0.922421
Si Si6 0.616067 0.225666 0.647032
Si Si7 0.260104 0.845244 0.204440
Si Si8 0.606955 0.572000 0.803706
O O1 0.500000 0.297935 0.023829
O O2 0.361246 0.373273 0.112536
O O3 0.312495 0.275725 0.983043
O O4 0.394540 0.379155 0.904430
O O5 0.195742 0.084528 0.797015
O O6 0.000000 0.085756 0.751220
O O7 0.120453 0.000000 0.658290
O O8 0.849460 0.396399 0.411460
O O9 0.705279 0.303598 0.381169
O O10 0.841746 0.332195 0.225842
O O11 0.500000 0.079763 0.037284
O O12 0.342549 0.129444 0.119823
O O13 0.348134 0.000000 0.047993
O O14 0.189288 0.320827 0.819176
O O15 0.123332 0.290289 0.015272
O O16 0.500000 0.238513 0.676720
O O17 0.684516 0.289590 0.662376
O O18 0.193199 0.909860 0.219573
O O19 0.500000 0.574620 0.742571
O O20 0.628092 0.500000 0.851951
#
# Coordination Sequence:
#
# PCOD8189601 Si02
#       8
#     8   8   8   8   8   8   8   8
#     4   9  17  32  55  84 117 146 183 233 290 349
#     4  10  20  35  59  89 120 153 190 237 294 352
#     4  11  22  40  60  86 120 159 199 243 294 355
#     4  11  24  42  63  85 115 159 206 248 291 354
#     4  10  21  37  58  87 116 153 193 239 302 349
#     4  11  22  39  61  87 118 153 195 249 304 355
#     4  10  21  38  58  84 116 153 195 241 294 350
#     4   9  16  28  51  83 115 147 183 225 279 344
#
# _framework density 19.332813000000002
#
# number of rings (size 3 to 8) (size 9 to 14) (size 15 to 20)
#    0.000    1.875    2.500    1.875    0.000    6.000 
#    0.000    1.875    0.000    2.250    0.000    0.000 
#    0.000    0.000    0.000    0.000    0.000    0.000 
#
# Total GULP energy -396511.694177 kJ/mol
# GULP energy per Si atom -12390.990443 kJ/mol
# Density = 1.928881 g / cm^3
# Si number density = 19.332813 Si / 1000 Ang^3
#
#
#
# Elastic Constant Matrix: (Units=GPa)
#
#
# Indices 1 2 3 4 5 6 
#
# 1 87.2650 30.5017 42.5034 -0.0001 0.0000 0.0000
# 2 30.5017 63.9251 23.2318 0.0000 0.0000 0.0000
# 3 42.5034 23.2318 99.0890 0.0004 0.0001 0.0000
# 4 -0.0001 0.0000 0.0004 39.4156 0.0000 0.0000
# 5 0.0000 0.0000 0.0001 0.0000 27.2729 0.0000
# 6 0.0000 0.0000 0.0000 0.0000 0.0000 31.4829
#
#
#
# Elastic Compliance Matrix: (Units=1/GPa)
#
#
# Indices 1 2 3 4 5 6 
#
# 1 0.016176 -0.005681 -0.005607 0.000000 0.000000 0.000000
# 2 -0.005681 0.019095 -0.002040 0.000000 0.000000 0.000000
# 3 -0.005607 -0.002040 0.012975 0.000000 0.000000 0.000000
# 4 0.000000 0.000000 0.000000 0.025371 0.000000 0.000000
# 5 0.000000 0.000000 0.000000 0.000000 0.036666 0.000000
# 6 0.000000 0.000000 0.000000 0.000000 0.000000 0.031763
#
#
# Mechanical properties :
#
#
# Convention : Reuss Voigt Hill
#
# Bulk Modulus (GPa) = 46.31531 49.19477 47.75504
# Shear Modulus (GPa) = 28.42550 29.90378 29.16464
#
# Velocity S-wave (km/s) = 3.83864 3.93719 3.88823
# Velocity P-wave (km/s) = 6.60725 6.79486 6.70171
#
# Compressibility (1/GPa) = 0.02159113
#
# Stress axis : x y z
#
# Youngs Moduli (GPa) = 61.82143 52.36893 77.07018
#
# Poissons Ratio (x) = 0.29749 0.43210
# Poissons Ratio (y) = 0.35118 0.15725
# Poissons Ratio (z) = 0.34661 0.10685
#
# Static dielectric constant tensor:
#      x y z
#    x 4.167110 0.000000 0.000000 
#    y 0.000000 3.560830 0.000000 
#    z 0.000000 0.000000 3.725400 
# 
# 
# High freq. dielectric constant tensor:
#      x y z
#    x 1.748480 0.000000 0.000000 
#    y 0.000000 1.752150 0.000000 
#    z 0.000000 0.000000 1.749340 
# 
# From -- ./inp_files/12663.got.cif
#   From: 2010.03.12/outbox.cif.g09.slc.cpg/sg44_7_cif.got.tgz:12663.got - 2010.04.14 02:36:11.
