data_PCOD8189961
_publ_section_title
;
Structure prediction by ZEFSAII (Michael W. Deem and Ramdas Pophale) SiO2 
 PCOD8189961
Probable space group: I M M 2
;
_chemical_formula_sum "Si O2"
_cell_formula_units_Z 64
_cell_length_a 22.167291
_cell_length_b 9.364792
_cell_length_c 15.418621
_cell_angle_alpha 90.000000
_cell_angle_beta 90.000000
_cell_angle_gamma 90.000000
_cell_volume 3200.783441
_symmetry_space_group_name_H-M "I M M 2"
_symmetry_group_IT_number 44
_symmetry_cell_setting 'orthorhombic'
loop_
_space_group_symop_operation_xyz
x,y,z
-x,-y,z
-x,y,z
x,-y,z
1/2+x,1/2+y,1/2+z
1/2-x,1/2-y,1/2+z
1/2-x,1/2+y,1/2+z
1/2+x,1/2-y,1/2+z
loop_
_atom_site_type_symbol
_atom_site_label
_atom_site_fract_x
_atom_site_fract_y
_atom_site_fract_z
Si Si1 0.934465 0.335464 0.823650
Si Si2 0.930496 0.832339 0.495704
Si Si3 0.104634 0.164852 0.980048
Si Si4 0.806808 0.665395 0.754827
Si Si5 0.571482 0.659950 0.668031
Si Si6 0.326156 0.832789 0.063579
Si Si7 0.571054 0.158882 0.825501
Si Si8 0.236455 0.164330 0.911899
O O1 0.927080 0.500000 0.847942
O O2 0.936446 0.249753 0.913227
O O3 0.877318 0.286960 0.765805
O O4 0.000000 0.308399 0.777228
O O5 0.887530 0.760316 0.567374
O O6 0.912035 0.756792 0.406342
O O7 0.000000 0.802503 0.520541
O O8 0.917928 0.000000 0.487433
O O9 0.174310 0.191243 0.960802
O O10 0.086003 0.000000 0.973663
O O11 0.091423 0.223366 0.075925
O O12 0.798155 0.500000 0.777212
O O13 0.790450 0.697033 0.654078
O O14 0.762788 0.750037 0.820729
O O15 0.500000 0.654278 0.675656
O O16 0.597909 0.500000 0.681382
O O17 0.598855 0.764658 0.740911
O O18 0.343099 0.000000 0.058819
O O19 0.287175 0.784191 0.980161
O O20 0.500000 0.144927 0.815724
O O21 0.599494 0.000000 0.836357
O O22 0.245992 0.000000 0.887682
#
# Coordination Sequence:
#
# PCOD8189961 Si02
#       8
#     8   8   8   8   8   8   8   8
#     4   9  17  29  47  73 105 139 177 223 274 328
#     4  10  21  37  57  82 111 141 177 224 277 333
#     4   9  17  30  48  70 101 142 183 225 274 326
#     4   9  19  36  57  81 111 147 186 228 276 331
#     4   9  16  26  42  67 101 140 183 228 273 324
#     4  10  21  38  60  84 112 147 187 229 277 333
#     4   9  17  30  48  70 101 140 177 216 266 322
#     4   9  19  37  57  78 109 145 183 232 279 322
#
# _framework density 19.995104999999999
#
# number of rings (size 3 to 8) (size 9 to 14) (size 15 to 20)
#    0.000    2.750    0.000    1.125    0.000    5.000 
#    2.250    2.500    0.000    0.000    0.000    0.000 
#    0.000    0.000    0.000    0.000    0.000    0.000 
#
# Total GULP energy -396650.808693 kJ/mol
# GULP energy per Si atom -12395.337772 kJ/mol
# Density = 1.994960 g / cm^3
# Si number density = 19.995105 Si / 1000 Ang^3
#
#
#
# Elastic Constant Matrix: (Units=GPa)
#
#
# Indices 1 2 3 4 5 6 
#
# 1 59.7190 28.8656 32.1241 0.0000 0.0000 0.0000
# 2 28.8656 80.1429 53.1294 0.0000 0.0000 0.0000
# 3 32.1241 53.1294 118.6583 0.0000 0.0000 0.0000
# 4 0.0000 0.0000 0.0000 33.8799 0.0000 0.0000
# 5 0.0000 0.0000 0.0000 0.0000 25.6234 0.0000
# 6 0.0000 0.0000 0.0000 0.0000 0.0000 20.8342
#
#
#
# Elastic Compliance Matrix: (Units=1/GPa)
#
#
# Indices 1 2 3 4 5 6 
#
# 1 0.021141 -0.005433 -0.003291 0.000000 0.000000 0.000000
# 2 -0.005433 0.019141 -0.007100 0.000000 0.000000 0.000000
# 3 -0.003291 -0.007100 0.012497 0.000000 0.000000 0.000000
# 4 0.000000 0.000000 0.000000 0.029516 0.000000 0.000000
# 5 0.000000 0.000000 0.000000 0.000000 0.039027 0.000000
# 6 0.000000 0.000000 0.000000 0.000000 0.000000 0.047998
#
#
# Mechanical properties :
#
#
# Convention : Reuss Voigt Hill
#
# Bulk Modulus (GPa) = 47.31967 54.08426 50.70196
# Shear Modulus (GPa) = 24.03706 25.69424 24.86565
#
# Velocity S-wave (km/s) = 3.47096 3.58862 3.53028
# Velocity P-wave (km/s) = 6.30717 6.65420 6.48301
#
# Compressibility (1/GPa) = 0.02113286
#
# Stress axis : x y z
#
# Youngs Moduli (GPa) = 47.30044 52.24363 80.01692
#
# Poissons Ratio (x) = 0.28384 0.26333
# Poissons Ratio (y) = 0.25698 0.56809
# Poissons Ratio (z) = 0.15566 0.37091
#
# Static dielectric constant tensor:
#      x y z
#    x 3.543390 0.000000 0.000000 
#    y 0.000000 3.666840 0.000000 
#    z 0.000000 0.000000 3.681710 
# 
# 
# High freq. dielectric constant tensor:
#      x y z
#    x 1.764570 0.000000 0.000000 
#    y 0.000000 1.772350 0.000000 
#    z 0.000000 0.000000 1.777160 
# 
# From -- ./inp_files/19462.got.cif
#   From: 2010.03.12/outbox.cif.g09.slc.cpg/sg44_10_cif.got.tgz:19462.got - 2010.04.14 02:36:11.
