data_PCOD8189976
_publ_section_title
;
Structure prediction by ZEFSAII (Michael W. Deem and Ramdas Pophale) SiO2 
 PCOD8189976
Probable space group: I M M 2
;
_chemical_formula_sum "Si O2"
_cell_formula_units_Z 40
_cell_length_a 9.294442
_cell_length_b 8.709079
_cell_length_c 25.353918
_cell_angle_alpha 90.000000
_cell_angle_beta 90.000000
_cell_angle_gamma 90.000000
_cell_volume 2052.298998
_symmetry_space_group_name_H-M "I M M 2"
_symmetry_group_IT_number 44
_symmetry_cell_setting 'orthorhombic'
loop_
_space_group_symop_operation_xyz
x,y,z
-x,-y,z
-x,y,z
x,-y,z
1/2+x,1/2+y,1/2+z
1/2-x,1/2-y,1/2+z
1/2-x,1/2+y,1/2+z
1/2+x,1/2-y,1/2+z
loop_
_atom_site_type_symbol
_atom_site_label
_atom_site_fract_x
_atom_site_fract_y
_atom_site_fract_z
Si Si1 0.830530 0.325249 0.210330
Si Si2 0.332669 0.322011 0.007826
Si Si3 0.664686 0.321430 0.818974
Si Si4 0.164775 0.676706 0.616835
Si Si5 0.332386 0.677784 0.413631
O O1 0.780711 0.500000 0.202032
O O2 0.780584 0.271616 0.268130
O O3 0.759154 0.218297 0.166989
O O4 0.000000 0.305715 0.204676
O O5 0.500000 0.283860 0.998285
O O6 0.299552 0.500000 0.997641
O O7 0.287454 0.279551 0.067241
O O8 0.238736 0.219348 0.969089
O O9 0.500000 0.278767 0.832886
O O10 0.680364 0.500000 0.806156
O O11 0.763177 0.279634 0.868087
O O12 0.189657 0.500000 0.601788
O O13 0.000000 0.709887 0.631631
O O14 0.500000 0.716764 0.416948
O O15 0.304491 0.500000 0.401151
#
# Coordination Sequence:
#
# PCOD8189976 Si02
#       5
#     8   8   8   8   8
#     4  10  21  37  58  84 113 147 186 227 274 327
#     4  10  21  38  60  84 110 144 186 229 275 329
#     4  10  21  38  60  84 110 144 186 229 275 329
#     4  10  21  37  58  84 113 147 186 227 274 327
#     4  11  24  39  56  82 114 147 184 227 276 328
#
# _framework density 19.490338000000001
#
# number of rings (size 3 to 8) (size 9 to 14) (size 15 to 20)
#    0.000    1.800    0.000    3.600    0.000   10.400 
#    0.000    0.000    0.000    0.000    0.000    0.000 
#    0.000    0.000    0.000    0.000    0.000    0.000 
#
# Total GULP energy -248129.211816 kJ/mol
# GULP energy per Si atom -12406.460591 kJ/mol
# Density = 1.944598 g / cm^3
# Si number density = 19.490338 Si / 1000 Ang^3
#
#
#
# Elastic Constant Matrix: (Units=GPa)
#
#
# Indices 1 2 3 4 5 6 
#
# 1 66.8986 30.2375 49.0132 0.0000 0.0000 0.0000
# 2 30.2375 62.1711 21.4055 0.0000 0.0000 0.0000
# 3 49.0132 21.4055 106.5769 0.0000 0.0000 0.0000
# 4 0.0000 0.0000 0.0000 42.5524 0.0000 0.0000
# 5 0.0000 0.0000 0.0000 0.0000 37.2444 0.0000
# 6 0.0000 0.0000 0.0000 0.0000 0.0000 29.9743
#
#
#
# Elastic Compliance Matrix: (Units=1/GPa)
#
#
# Indices 1 2 3 4 5 6 
#
# 1 0.026902 -0.009480 -0.010468 0.000000 0.000000 0.000000
# 2 -0.009480 0.020620 0.000218 0.000000 0.000000 0.000000
# 3 -0.010468 0.000218 0.014153 0.000000 0.000000 0.000000
# 4 0.000000 0.000000 0.000000 0.023500 0.000000 0.000000
# 5 0.000000 0.000000 0.000000 0.000000 0.026850 0.000000
# 6 0.000000 0.000000 0.000000 0.000000 0.000000 0.033362
#
#
# Mechanical properties :
#
#
# Convention : Reuss Voigt Hill
#
# Bulk Modulus (GPa) = 45.01234 48.55099 46.78167
# Shear Modulus (GPa) = 26.00750 30.95358 28.48054
#
# Velocity S-wave (km/s) = 3.65688 3.98948 3.82680
# Velocity P-wave (km/s) = 6.40119 6.79600 6.60155
#
# Compressibility (1/GPa) = 0.02221613
#
# Stress axis : x y z
#
# Youngs Moduli (GPa) = 37.17173 48.49615 70.65584
#
# Poissons Ratio (x) = 0.45974 0.73962
# Poissons Ratio (y) = 0.35239 -0.01542
# Poissons Ratio (z) = 0.38911 -0.01058
#
# Static dielectric constant tensor:
#      x y z
#    x 3.487730 0.000000 0.000000 
#    y 0.000000 3.653190 0.000000 
#    z 0.000000 0.000000 3.528430 
# 
# 
# High freq. dielectric constant tensor:
#      x y z
#    x 1.750380 0.000000 0.000000 
#    y 0.000000 1.773960 0.000000 
#    z 0.000000 0.000000 1.769500 
# 
# From -- ./inp_files/4654.got.cif
#   From: 2010.03.12/outbox.cif.g09.slc.cpg/sg44_3_cif.got.tgz:4654.got - 2010.04.14 02:36:11.
