data_PCOD8189457
_publ_section_title
;
Structure prediction by ZEFSAII (Michael W. Deem and Ramdas Pophale) SiO2 
 PCOD8189457
Probable space group: I M M 2
;
_chemical_formula_sum "Si O2"
_cell_formula_units_Z 40
_cell_length_a 7.696469
_cell_length_b 9.417569
_cell_length_c 29.106539
_cell_angle_alpha 90.000000
_cell_angle_beta 90.000000
_cell_angle_gamma 90.000000
_cell_volume 2109.700971
_symmetry_space_group_name_H-M "I M M 2"
_symmetry_group_IT_number 44
_symmetry_cell_setting 'orthorhombic'
loop_
_space_group_symop_operation_xyz
x,y,z
-x,-y,z
-x,y,z
x,-y,z
1/2+x,1/2+y,1/2+z
1/2-x,1/2-y,1/2+z
1/2-x,1/2+y,1/2+z
1/2+x,1/2-y,1/2+z
loop_
_atom_site_type_symbol
_atom_site_label
_atom_site_fract_x
_atom_site_fract_y
_atom_site_fract_z
Si Si1 0.204332 0.158418 0.183620
Si Si2 0.307717 0.668759 0.581383
Si Si3 0.200876 0.335934 0.853144
Si Si4 0.000000 0.669379 0.517230
Si Si5 0.199579 0.844051 0.768036
Si Si6 0.500000 0.664197 0.923672
O O1 0.250263 0.215745 0.132611
O O2 0.284001 0.266764 0.219562
O O3 0.000000 0.152374 0.190267
O O4 0.282262 0.000000 0.191259
O O5 0.500000 0.729419 0.569341
O O6 0.315004 0.500000 0.581066
O O7 0.169895 0.725184 0.544352
O O8 0.218624 0.500000 0.839342
O O9 0.276557 0.248593 0.809770
O O10 0.324597 0.299194 0.895846
O O11 0.000000 0.299077 0.865728
O O12 0.000000 0.500000 0.512945
O O13 0.000000 0.736104 0.467452
O O14 0.000000 0.864465 0.779244
O O15 0.289812 0.000000 0.766140
O O16 0.500000 0.500000 0.938638
#
# Coordination Sequence:
#
# PCOD8189457 Si02
#       6
#     8   8   8   4   8   4
#     4   9  18  32  52  77 104 139 182 221 259 307
#     4   8  16  32  52  77 107 136 175 223 259 304
#     4   9  19  37  57  75 101 139 180 221 263 314
#     4  10  20  34  56  82 104 136 178 218 271 320
#     4  10  21  34  49  76 111 142 173 215 269 322
#     4  10  22  38  56  80 106 134 176 226 271 320
#
# _framework density 18.960032000000002
#
# number of rings (size 3 to 8) (size 9 to 14) (size 15 to 20)
#    0.000    2.800    0.000    1.800    2.800    3.200 
#    0.000    1.000    0.000    1.200    0.000    0.000 
#    0.000    0.000    0.000    0.000    0.000    0.000 
#
# Total GULP energy -247911.947329 kJ/mol
# GULP energy per Si atom -12395.597366 kJ/mol
# Density = 1.891688 g / cm^3
# Si number density = 18.960032 Si / 1000 Ang^3
#
#
#
# Elastic Constant Matrix: (Units=GPa)
#
#
# Indices 1 2 3 4 5 6 
#
# 1 89.3550 35.9728 65.8873 0.0000 0.0000 0.0000
# 2 35.9728 81.5461 66.6233 0.0000 0.0000 0.0000
# 3 65.8873 66.6233 152.4642 0.0000 0.0000 0.0000
# 4 0.0000 0.0000 0.0000 32.7212 0.0000 0.0000
# 5 0.0000 0.0000 0.0000 0.0000 28.5441 0.0000
# 6 0.0000 0.0000 0.0000 0.0000 0.0000 13.5553
#
#
#
# Elastic Compliance Matrix: (Units=1/GPa)
#
#
# Indices 1 2 3 4 5 6 
#
# 1 0.016695 -0.002287 -0.006216 0.000000 0.000000 0.000000
# 2 -0.002287 0.019385 -0.007483 0.000000 0.000000 0.000000
# 3 -0.006216 -0.007483 0.012515 0.000000 0.000000 0.000000
# 4 0.000000 0.000000 0.000000 0.030561 0.000000 0.000000
# 5 0.000000 0.000000 0.000000 0.000000 0.035034 0.000000
# 6 0.000000 0.000000 0.000000 0.000000 0.000000 0.073772
#
#
# Mechanical properties :
#
#
# Convention : Reuss Voigt Hill
#
# Bulk Modulus (GPa) = 60.14996 73.37025 66.76011
# Shear Modulus (GPa) = 22.17563 25.28956 23.73260
#
# Velocity S-wave (km/s) = 3.42365 3.65613 3.54180
# Velocity P-wave (km/s) = 6.88636 7.52359 7.21202
#
# Compressibility (1/GPa) = 0.01662511
#
# Stress axis : x y z
#
# Youngs Moduli (GPa) = 59.89817 51.58608 79.90601
#
# Poissons Ratio (x) = 0.11796 0.49666
# Poissons Ratio (y) = 0.13697 0.59791
# Poissons Ratio (z) = 0.37230 0.38600
#
# Static dielectric constant tensor:
#      x y z
#    x 3.815240 0.000000 0.000000 
#    y 0.000000 3.611030 0.000000 
#    z 0.000000 0.000000 3.466110 
# 
# 
# High freq. dielectric constant tensor:
#      x y z
#    x 1.741000 0.000000 0.000000 
#    y 0.000000 1.709950 0.000000 
#    z 0.000000 0.000000 1.732710 
# 
# From -- ./inp_files/25931.got.cif
#   From: 2010.03.12/outbox.cif.g09.slc.cpg/sg44_13_cif.got.tgz:25931.got - 2010.04.14 02:36:11.
