data_PCOD8189611
_publ_section_title
;
Structure prediction by ZEFSAII (Michael W. Deem and Ramdas Pophale) SiO2 
 PCOD8189611
Probable space group: I M M 2
;
_chemical_formula_sum "Si O2"
_cell_formula_units_Z 64
_cell_length_a 8.780960
_cell_length_b 30.028495
_cell_length_c 14.403292
_cell_angle_alpha 90.000000
_cell_angle_beta 90.000000
_cell_angle_gamma 90.000000
_cell_volume 3797.845825
_symmetry_space_group_name_H-M "I M M 2"
_symmetry_group_IT_number 44
_symmetry_cell_setting 'orthorhombic'
loop_
_space_group_symop_operation_xyz
x,y,z
-x,-y,z
-x,y,z
x,-y,z
1/2+x,1/2+y,1/2+z
1/2-x,1/2-y,1/2+z
1/2-x,1/2+y,1/2+z
1/2+x,1/2-y,1/2+z
loop_
_atom_site_type_symbol
_atom_site_label
_atom_site_fract_x
_atom_site_fract_y
_atom_site_fract_z
Si Si1 0.827627 0.277396 0.358780
Si Si2 0.818511 0.715370 0.567470
Si Si3 0.679763 0.696658 0.175499
Si Si4 0.179472 0.635258 0.035217
Si Si5 0.177698 0.050566 0.458631
Si Si6 0.828030 0.825962 0.359239
Si Si7 0.822399 0.633984 0.687171
Si Si8 0.822028 0.049236 0.244398
O O1 0.759199 0.285064 0.461711
O O2 0.721120 0.301801 0.284329
O O3 0.826366 0.225574 0.335825
O O4 0.000000 0.296002 0.352199
O O5 0.759540 0.758763 0.623157
O O6 0.754516 0.670285 0.615405
O O7 0.000000 0.716494 0.569827
O O8 0.500000 0.690797 0.163723
O O9 0.766419 0.653525 0.134907
O O10 0.000000 0.640605 0.023217
O O11 0.225498 0.583550 0.023495
O O12 0.269371 0.666131 0.962657
O O13 0.214432 0.061657 0.351304
O O14 0.000000 0.057547 0.478835
O O15 0.225980 0.000000 0.482013
O O16 0.714248 0.850798 0.290924
O O17 0.000000 0.845150 0.349223
O O18 0.751445 0.584878 0.673688
O O19 0.000000 0.629806 0.672682
O O20 0.000000 0.049136 0.227227
O O21 0.756028 0.000000 0.222308
#
# Coordination Sequence:
#
# PCOD8189611 Si02
#       8
#     8   8   8   8   8   8   8   8
#     4  10  20  36  52  70  98 136 174 212 251 293
#     4   9  19  34  50  70 101 135 168 206 255 301
#     4  11  21  36  53  73 102 136 171 210 253 300
#     4  12  23  33  49  76 104 136 176 211 248 300
#     4   9  18  33  52  73 100 135 169 204 255 310
#     4  11  20  31  49  71 101 139 173 209 253 297
#     4  11  20  31  49  75 102 134 172 211 252 299
#     4   9  18  32  49  70 100 136 168 203 252 307
#
# _framework density 16.851659000000001
#
# number of rings (size 3 to 8) (size 9 to 14) (size 15 to 20)
#    0.000    1.750    3.750    3.000    0.000    1.000 
#    0.000    2.500    0.000    0.000    0.000    0.875 
#    0.000    5.000    0.000    0.000    0.000    0.000 
#
# Total GULP energy -396778.104728 kJ/mol
# GULP energy per Si atom -12399.315773 kJ/mol
# Density = 1.681330 g / cm^3
# Si number density = 16.851659 Si / 1000 Ang^3
#
#
#
# Elastic Constant Matrix: (Units=GPa)
#
#
# Indices 1 2 3 4 5 6 
#
# 1 51.4444 33.0280 18.0389 -0.0001 0.0000 0.0000
# 2 33.0280 105.2797 36.9629 0.0000 0.0001 0.0001
# 3 18.0389 36.9629 73.5940 -0.0003 0.0001 0.0002
# 4 -0.0001 0.0000 -0.0003 26.1973 0.0000 0.0000
# 5 0.0000 0.0001 0.0001 0.0000 23.9557 0.0000
# 6 0.0000 0.0001 0.0002 0.0000 0.0000 26.2563
#
#
#
# Elastic Compliance Matrix: (Units=1/GPa)
#
#
# Indices 1 2 3 4 5 6 
#
# 1 0.024754 -0.006842 -0.002631 0.000000 0.000000 0.000000
# 2 -0.006842 0.013423 -0.005065 0.000000 0.000000 0.000000
# 3 -0.002631 -0.005065 0.016777 0.000000 0.000000 0.000000
# 4 0.000000 0.000000 0.000000 0.038172 0.000000 0.000000
# 5 0.000000 0.000000 0.000000 0.000000 0.041744 0.000000
# 6 0.000000 0.000000 0.000000 0.000000 0.000000 0.038086
#
#
# Mechanical properties :
#
#
# Convention : Reuss Voigt Hill
#
# Bulk Modulus (GPa) = 38.64281 45.15308 41.89795
# Shear Modulus (GPa) = 23.73528 24.76773 24.25151
#
# Velocity S-wave (km/s) = 3.75705 3.83789 3.79769
# Velocity P-wave (km/s) = 6.46541 6.81849 6.64430
#
# Compressibility (1/GPa) = 0.02587803
#
# Stress axis : x y z
#
# Youngs Moduli (GPa) = 40.39813 74.49835 59.60611
#
# Poissons Ratio (x) = 0.50971 0.15683
# Poissons Ratio (y) = 0.27640 0.30189
# Poissons Ratio (z) = 0.10629 0.37732
#
# Static dielectric constant tensor:
#      x y z
#    x 3.011930 0.000000 0.000000 
#    y 0.000000 3.331560 0.000000 
#    z 0.000000 0.000000 3.015510 
# 
# 
# High freq. dielectric constant tensor:
#      x y z
#    x 1.642290 0.000000 0.000000 
#    y 0.000000 1.647500 0.000000 
#    z 0.000000 0.000000 1.619540 
# 
# From -- ./inp_files/17126.got.cif
#   From: 2010.03.12/outbox.cif.g09.slc.cpg/sg44_9_cif.got.tgz:17126.got - 2010.04.14 02:36:11.
