data_PCOD8189145
_publ_section_title
;
Structure prediction by ZEFSAII (Michael W. Deem and Ramdas Pophale) SiO2 
 PCOD8189145
Probable space group: I M M 2
;
_chemical_formula_sum "Si O2"
_cell_formula_units_Z 64
_cell_length_a 8.889092
_cell_length_b 29.898054
_cell_length_c 14.378091
_cell_angle_alpha 90.000000
_cell_angle_beta 90.000000
_cell_angle_gamma 90.000000
_cell_volume 3821.215678
_symmetry_space_group_name_H-M "I M M 2"
_symmetry_group_IT_number 44
_symmetry_cell_setting 'orthorhombic'
loop_
_space_group_symop_operation_xyz
x,y,z
-x,-y,z
-x,y,z
x,-y,z
1/2+x,1/2+y,1/2+z
1/2-x,1/2-y,1/2+z
1/2-x,1/2+y,1/2+z
1/2+x,1/2-y,1/2+z
loop_
_atom_site_type_symbol
_atom_site_label
_atom_site_fract_x
_atom_site_fract_y
_atom_site_fract_z
Si Si1 0.827721 0.549932 0.824670
Si Si2 0.679096 0.782704 0.961071
Si Si3 0.329371 0.325682 0.751212
Si Si4 0.324007 0.138213 0.426541
Si Si5 0.323475 0.549996 0.630622
Si Si6 0.177976 0.805034 0.571254
Si Si7 0.176711 0.365685 0.579222
Si Si8 0.829268 0.722759 0.251516
O O1 0.796048 0.500000 0.864080
O O2 0.792440 0.585751 0.905755
O O3 0.723693 0.560272 0.736540
O O4 0.000000 0.554482 0.790986
O O5 0.500000 0.781212 0.962581
O O6 0.738219 0.783032 0.855231
O O7 0.737665 0.739412 0.017568
O O8 0.740393 0.828164 0.008926
O O9 0.500000 0.344120 0.745288
O O10 0.266062 0.330715 0.854613
O O11 0.220724 0.353016 0.683928
O O12 0.325217 0.274277 0.722623
O O13 0.500000 0.149313 0.421728
O O14 0.257678 0.151306 0.527026
O O15 0.500000 0.555207 0.622815
O O16 0.271143 0.500000 0.602321
O O17 0.248141 0.585468 0.559459
O O18 0.225857 0.803961 0.679139
O O19 0.000000 0.810078 0.564139
O O20 0.000000 0.369526 0.570182
O O21 0.000000 0.704417 0.246972
#
# Coordination Sequence:
#
# PCOD8189145 Si02
#       8
#     8   8   8   8   8   8   8   8
#     4   9  18  32  49  70  98 130 165 205 246 294
#     4   9  19  34  50  69  97 131 168 205 246 290
#     4  11  20  30  48  72 102 136 168 207 248 290
#     4  11  21  32  49  74 100 134 173 205 245 298
#     4  10  20  32  47  70 101 133 164 203 251 300
#     4  11  21  35  51  72 101 133 168 207 247 293
#     4  11  20  32  50  72  99 135 172 207 246 296
#     4  10  20  36  51  69  98 134 170 209 249 288
#
# _framework density 16.748597
#
# number of rings (size 3 to 8) (size 9 to 14) (size 15 to 20)
#    0.000    1.750    3.750    1.875    0.000    1.750 
#    0.000    1.250    0.000    0.000    0.000    0.875 
#    0.000    3.000    0.000    0.000    0.000    0.000 
#
# Total GULP energy -396782.134292 kJ/mol
# GULP energy per Si atom -12399.441697 kJ/mol
# Density = 1.671048 g / cm^3
# Si number density = 16.748597 Si / 1000 Ang^3
#
#
#
# Elastic Constant Matrix: (Units=GPa)
#
#
# Indices 1 2 3 4 5 6 
#
# 1 54.9896 33.6074 18.6591 0.0002 0.0000 0.0000
# 2 33.6074 98.5503 30.4344 0.0000 0.0001 0.0000
# 3 18.6591 30.4344 69.0005 0.0007 0.0002 0.0001
# 4 0.0002 0.0000 0.0007 26.0060 0.0001 0.0000
# 5 0.0000 0.0001 0.0002 0.0001 23.4295 0.0001
# 6 0.0000 0.0000 0.0001 0.0000 0.0001 24.4613
#
#
#
# Elastic Compliance Matrix: (Units=1/GPa)
#
#
# Indices 1 2 3 4 5 6 
#
# 1 0.023597 -0.007035 -0.003278 0.000000 0.000000 0.000000
# 2 -0.007035 0.013844 -0.004204 0.000000 0.000000 0.000000
# 3 -0.003278 -0.004204 0.017234 0.000000 0.000000 0.000000
# 4 0.000000 0.000000 0.000000 0.038453 0.000000 0.000000
# 5 0.000000 0.000000 0.000000 0.000000 0.042681 0.000000
# 6 0.000000 0.000000 0.000000 0.000000 0.000000 0.040881
#
#
# Mechanical properties :
#
#
# Convention : Reuss Voigt Hill
#
# Bulk Modulus (GPa) = 39.00038 43.10471 41.05254
# Shear Modulus (GPa) = 23.33500 24.10199 23.71850
#
# Velocity S-wave (km/s) = 3.73668 3.79759 3.76726
# Velocity P-wave (km/s) = 6.47714 6.70978 6.59448
#
# Compressibility (1/GPa) = 0.02564078
#
# Stress axis : x y z
#
# Youngs Moduli (GPa) = 42.37851 72.23183 58.02647
#
# Poissons Ratio (x) = 0.50812 0.19023
# Poissons Ratio (y) = 0.29811 0.24395
# Poissons Ratio (z) = 0.13893 0.30367
#
# Static dielectric constant tensor:
#      x y z
#    x 3.089860 0.000000 0.000000 
#    y 0.000000 3.345410 0.000000 
#    z 0.000000 0.000000 2.962190 
# 
# 
# High freq. dielectric constant tensor:
#      x y z
#    x 1.646080 0.000000 0.000000 
#    y 0.000000 1.641830 0.000000 
#    z 0.000000 0.000000 1.612580 
# 
# From -- ./inp_files/17087.got.cif
#   From: 2010.03.12/outbox.cif.g09.slc.cpg/sg44_9_cif.got.tgz:17087.got - 2010.04.14 02:36:11.
