data_PCOD8189777
_publ_section_title
;
Structure prediction by ZEFSAII (Michael W. Deem and Ramdas Pophale) SiO2 
 PCOD8189777
Probable space group: I M M 2
;
_chemical_formula_sum "Si O2"
_cell_formula_units_Z 48
_cell_length_a 9.355526
_cell_length_b 27.216818
_cell_length_c 9.918999
_cell_angle_alpha 90.000000
_cell_angle_beta 90.000000
_cell_angle_gamma 90.000000
_cell_volume 2525.651390
_symmetry_space_group_name_H-M "I M M 2"
_symmetry_group_IT_number 44
_symmetry_cell_setting 'orthorhombic'
loop_
_space_group_symop_operation_xyz
x,y,z
-x,-y,z
-x,y,z
x,-y,z
1/2+x,1/2+y,1/2+z
1/2-x,1/2-y,1/2+z
1/2-x,1/2+y,1/2+z
1/2+x,1/2-y,1/2+z
loop_
_atom_site_type_symbol
_atom_site_label
_atom_site_fract_x
_atom_site_fract_y
_atom_site_fract_z
Si Si1 0.168986 0.444774 0.980880
Si Si2 0.332129 0.793266 0.843657
Si Si3 0.335199 0.110559 0.217554
Si Si4 0.167512 0.403601 0.264279
Si Si5 0.835840 0.720879 0.651819
Si Si6 0.336251 0.555418 0.495718
O O1 0.234324 0.500000 0.981749
O O2 0.225713 0.414330 0.852856
O O3 0.000000 0.448475 0.973790
O O4 0.215502 0.414010 0.111452
O O5 0.500000 0.784905 0.829511
O O6 0.290649 0.848685 0.806223
O O7 0.256570 0.759112 0.735015
O O8 0.281655 0.781985 0.996617
O O9 0.500000 0.096063 0.189974
O O10 0.318672 0.168923 0.226918
O O11 0.240921 0.092328 0.095264
O O12 0.257477 0.441680 0.352676
O O13 0.000000 0.413843 0.286221
O O14 0.000000 0.737929 0.654351
O O15 0.500000 0.571687 0.479379
O O16 0.324326 0.500000 0.550805
#
# Coordination Sequence:
#
# PCOD8189777 Si02
#       6
#     8   8   8   8   8   8
#     4   9  18  32  56  89 114 140 185 233 282 335
#     4  10  22  39  59  86 115 148 194 238 286 347
#     4  10  20  38  61  84 114 150 191 240 283 335
#     4  10  20  38  61  84 114 150 191 240 283 335
#     4  10  22  39  59  86 115 148 194 238 286 347
#     4  11  23  37  56  85 118 152 191 235 288 347
#
# _framework density 19.004996999999999
#
# number of rings (size 3 to 8) (size 9 to 14) (size 15 to 20)
#    0.000    2.000    1.667    1.500    2.333    4.667 
#    0.000    0.833    0.000    3.000    0.000    0.000 
#    0.000    0.000    0.000    0.000    0.000    0.000 
#
# Total GULP energy -297634.877303 kJ/mol
# GULP energy per Si atom -12401.453221 kJ/mol
# Density = 1.896174 g / cm^3
# Si number density = 19.004997 Si / 1000 Ang^3
#
#
#
# Elastic Constant Matrix: (Units=GPa)
#
#
# Indices 1 2 3 4 5 6 
#
# 1 53.8779 35.1684 33.9345 0.0001 -0.0003 0.0000
# 2 35.1684 89.1525 47.4852 0.0007 -0.0003 -0.0002
# 3 33.9345 47.4852 132.0895 0.0035 -0.0008 -0.0013
# 4 0.0001 0.0007 0.0035 42.5194 -0.0003 -0.0004
# 5 -0.0003 -0.0003 -0.0008 -0.0003 22.6447 0.0004
# 6 0.0000 -0.0002 -0.0013 -0.0004 0.0004 23.2252
#
#
#
# Elastic Compliance Matrix: (Units=1/GPa)
#
#
# Indices 1 2 3 4 5 6 
#
# 1 0.026427 -0.008421 -0.003762 0.000000 0.000000 0.000000
# 2 -0.008421 0.016556 -0.003789 0.000000 0.000000 0.000000
# 3 -0.003762 -0.003789 0.009899 -0.000001 0.000000 0.000001
# 4 0.000000 0.000000 -0.000001 0.023519 0.000000 0.000000
# 5 0.000000 0.000000 0.000000 0.000000 0.044160 -0.000001
# 6 0.000000 0.000000 0.000001 0.000000 -0.000001 0.043057
#
#
# Mechanical properties :
#
#
# Convention : Reuss Voigt Hill
#
# Bulk Modulus (GPa) = 47.75691 56.47734 52.11712
# Shear Modulus (GPa) = 24.68644 28.24663 26.46654
#
# Velocity S-wave (km/s) = 3.60800 3.85940 3.73582
# Velocity P-wave (km/s) = 6.52227 7.04568 6.78902
#
# Compressibility (1/GPa) = 0.02093938
#
# Stress axis : x y z
#
# Youngs Moduli (GPa) = 37.84074 60.39942 101.02005
#
# Poissons Ratio (x) = 0.50862 0.38002
# Poissons Ratio (y) = 0.31865 0.38272
# Poissons Ratio (z) = 0.14235 0.22883
#
# Static dielectric constant tensor:
#      x y z
#    x 3.267870 0.000000 0.000000 
#    y 0.000000 3.556740 0.000000 
#    z 0.000000 0.000000 3.714390 
# 
# 
# High freq. dielectric constant tensor:
#      x y z
#    x 1.712510 0.000000 0.000000 
#    y 0.000000 1.746360 0.000000 
#    z 0.000000 0.000000 1.751190 
# 
# From -- ./inp_files/4864.got.cif
#   From: 2010.03.12/outbox.cif.g09.slc.cpg/sg44_3_cif.got.tgz:4864.got - 2010.04.14 02:36:11.
