data_PCOD8189849
_publ_section_title
;
Structure prediction by ZEFSAII (Michael W. Deem and Ramdas Pophale) SiO2 
 PCOD8189849
Probable space group: I M M 2
;
_chemical_formula_sum "Si O2"
_cell_formula_units_Z 64
_cell_length_a 9.193149
_cell_length_b 28.280573
_cell_length_c 12.726742
_cell_angle_alpha 90.000000
_cell_angle_beta 90.000000
_cell_angle_gamma 90.000000
_cell_volume 3308.794108
_symmetry_space_group_name_H-M "I M M 2"
_symmetry_group_IT_number 44
_symmetry_cell_setting 'orthorhombic'
loop_
_space_group_symop_operation_xyz
x,y,z
-x,-y,z
-x,y,z
x,-y,z
1/2+x,1/2+y,1/2+z
1/2-x,1/2-y,1/2+z
1/2-x,1/2+y,1/2+z
1/2+x,1/2-y,1/2+z
loop_
_atom_site_type_symbol
_atom_site_label
_atom_site_fract_x
_atom_site_fract_y
_atom_site_fract_z
Si Si1 0.671480 0.393729 0.015680
Si Si2 0.660407 0.680910 0.737471
Si Si3 0.174331 0.613452 0.413954
Si Si4 0.170736 0.944588 0.732206
Si Si5 0.330772 0.302124 0.504786
Si Si6 0.838678 0.551874 0.604713
Si Si7 0.658060 0.573532 0.796626
Si Si8 0.668783 0.803477 0.439631
O O1 0.500000 0.383086 0.007674
O O2 0.712323 0.422808 0.119224
O O3 0.720639 0.425843 0.915743
O O4 0.751777 0.343100 0.010531
O O5 0.500000 0.705092 0.746473
O O6 0.726438 0.687866 0.622003
O O7 0.643210 0.626108 0.756024
O O8 0.770474 0.702080 0.822024
O O9 0.237656 0.585151 0.315541
O O10 0.238501 0.666602 0.421231
O O11 0.231242 0.587030 0.519461
O O12 0.000000 0.614422 0.404626
O O13 0.000000 0.938400 0.755383
O O14 0.214223 0.000000 0.734819
O O15 0.500000 0.315467 0.490483
O O16 0.302791 0.246929 0.490957
O O17 0.839837 0.500000 0.552171
O O18 0.759446 0.546313 0.715989
O O19 0.000000 0.570017 0.630156
O O20 0.500000 0.548735 0.796099
O O21 0.500000 0.816899 0.434057
#
# Coordination Sequence:
#
# PCOD8189849 Si02
#       8
#     8   8   8   8   8   8   8   8
#     4   9  20  39  60  83 115 152 194 243 293 346
#     4   9  18  35  56  76 109 149 184 232 287 341
#     4  11  23  38  58  84 116 153 195 246 299 352
#     4  10  22  41  64  87 117 161 207 251 299 356
#     4  10  21  38  58  82 114 153 199 245 292 353
#     4  10  21  35  51  77 113 145 175 222 283 340
#     4   9  17  32  56  81 104 139 182 227 278 332
#     4  10  21  35  56  87 118 151 193 243 298 356
#
# _framework density 19.342395
#
# number of rings (size 3 to 8) (size 9 to 14) (size 15 to 20)
#    0.000    2.250    1.250    1.875    0.000    7.000 
#    0.000    3.750    0.000    0.000    0.000    0.000 
#    0.000    0.000    0.000    0.000    0.000    0.000 
#
# Total GULP energy -396665.387293 kJ/mol
# GULP energy per Si atom -12395.793353 kJ/mol
# Density = 1.929837 g / cm^3
# Si number density = 19.342395 Si / 1000 Ang^3
#
#
#
# Elastic Constant Matrix: (Units=GPa)
#
#
# Indices 1 2 3 4 5 6 
#
# 1 72.2111 39.5503 47.1526 -0.0006 0.0002 0.0002
# 2 39.5503 66.0528 52.1492 0.0003 0.0002 0.0007
# 3 47.1526 52.1492 124.9601 -0.0013 -0.0005 -0.0007
# 4 -0.0006 0.0003 -0.0013 19.2394 -0.0002 0.0004
# 5 0.0002 0.0002 -0.0005 -0.0002 25.2312 0.0004
# 6 0.0002 0.0007 -0.0007 0.0004 0.0004 36.0867
#
#
#
# Elastic Compliance Matrix: (Units=1/GPa)
#
#
# Indices 1 2 3 4 5 6 
#
# 1 0.021977 -0.009861 -0.004178 0.000001 0.000000 0.000000
# 2 -0.009861 0.027003 -0.007548 -0.000001 0.000000 -0.000001
# 3 -0.004178 -0.007548 0.012729 0.000001 0.000000 0.000000
# 4 0.000001 -0.000001 0.000001 0.051977 0.000000 -0.000001
# 5 0.000000 0.000000 0.000000 0.000000 0.039633 0.000000
# 6 0.000000 -0.000001 0.000000 -0.000001 0.000000 0.027711
#
#
# Mechanical properties :
#
#
# Convention : Reuss Voigt Hill
#
# Bulk Modulus (GPa) = 53.94981 60.10314 57.02648
# Shear Modulus (GPa) = 21.70303 24.40292 23.05297
#
# Velocity S-wave (km/s) = 3.35333 3.55579 3.45604
# Velocity P-wave (km/s) = 6.55329 6.92813 6.74331
#
# Compressibility (1/GPa) = 0.01853575
#
# Stress axis : x y z
#
# Youngs Moduli (GPa) = 45.50199 37.03267 78.56057
#
# Poissons Ratio (x) = 0.36518 0.32820
# Poissons Ratio (y) = 0.44869 0.59299
# Poissons Ratio (z) = 0.19009 0.27953
#
# Static dielectric constant tensor:
#      x y z
#    x 3.632790 0.000000 0.000000 
#    y 0.000000 3.436590 0.000000 
#    z 0.000000 0.000000 3.824940 
# 
# 
# High freq. dielectric constant tensor:
#      x y z
#    x 1.745850 0.000000 0.000000 
#    y 0.000000 1.751700 0.000000 
#    z 0.000000 0.000000 1.755390 
# 
# From -- ./inp_files/11560.got.cif
#   From: 2010.03.12/outbox.cif.g09.slc.cpg/sg44_6_cif.got.tgz:11560.got - 2010.04.14 02:36:11.
