data_PCOD8189121
_publ_section_title
;
Structure prediction by ZEFSAII (Michael W. Deem and Ramdas Pophale) SiO2 
 PCOD8189121
Probable space group: I M M 2
;
_chemical_formula_sum "Si O2"
_cell_formula_units_Z 48
_cell_length_a 7.697955
_cell_length_b 9.425055
_cell_length_c 34.264679
_cell_angle_alpha 90.000000
_cell_angle_beta 90.000000
_cell_angle_gamma 90.000000
_cell_volume 2486.027502
_symmetry_space_group_name_H-M "I M M 2"
_symmetry_group_IT_number 44
_symmetry_cell_setting 'orthorhombic'
loop_
_space_group_symop_operation_xyz
x,y,z
-x,-y,z
-x,y,z
x,-y,z
1/2+x,1/2+y,1/2+z
1/2-x,1/2-y,1/2+z
1/2-x,1/2+y,1/2+z
1/2+x,1/2-y,1/2+z
loop_
_atom_site_type_symbol
_atom_site_label
_atom_site_fract_x
_atom_site_fract_y
_atom_site_fract_z
Si Si1 0.701084 0.834667 0.158310
Si Si2 0.000000 0.669592 0.115196
Si Si3 0.793933 0.843031 0.386310
Si Si4 0.202856 0.657756 0.747772
Si Si5 0.692791 0.330672 0.972510
Si Si6 0.000000 0.668167 0.025612
Si Si7 0.301196 0.154875 0.817629
O O1 0.500000 0.799611 0.148507
O O2 0.825119 0.734413 0.133197
O O3 0.742231 0.799770 0.203290
O O4 0.739539 0.000000 0.149581
O O5 0.000000 0.500000 0.120768
O O6 0.000000 0.716052 0.070168
O O7 0.748113 0.780739 0.429170
O O8 0.711023 0.744533 0.352435
O O9 0.000000 0.853290 0.381985
O O10 0.713041 0.000000 0.381072
O O11 0.276358 0.500000 0.756088
O O12 0.293966 0.768551 0.775996
O O13 0.000000 0.660506 0.755930
O O14 0.500000 0.272036 0.982744
O O15 0.687873 0.500000 0.972513
O O16 0.828191 0.270529 0.004271
O O17 0.000000 0.500000 0.021981
O O18 0.500000 0.134511 0.829015
O O19 0.211083 0.000000 0.814593
#
# Coordination Sequence:
#
# PCOD8189121 Si02
#       7
#     8   4   8   8   8   4   8
#     4   9  20  40  62  81 106 146 193 237 280 329
#     4  11  23  35  55  89 123 149 179 225 289 357
#     4   8  14  27  47  69  94 130 177 220 257 301
#     4   9  19  36  55  74  96 129 179 228 266 308
#     4   8  14  27  48  70  96 135 179 223 267 308
#     4   9  18  31  47  77 113 139 171 219 273 331
#     4  10  20  31  46  73 108 141 170 207 261 324
#
# _framework density 19.307912999999999
#
# number of rings (size 3 to 8) (size 9 to 14) (size 15 to 20)
#    0.000    3.000    0.000    2.750    1.167    3.000 
#    1.500    3.333    0.000    2.000    0.000    2.333 
#    0.000    0.000    0.000    0.000    0.000    0.000 
#
# Total GULP energy -297463.275595 kJ/mol
# GULP energy per Si atom -12394.303150 kJ/mol
# Density = 1.926397 g / cm^3
# Si number density = 19.307913 Si / 1000 Ang^3
#
#
#
# Elastic Constant Matrix: (Units=GPa)
#
#
# Indices 1 2 3 4 5 6 
#
# 1 83.0418 39.4196 62.3671 0.0000 0.0000 0.0000
# 2 39.4196 95.6750 71.8704 0.0000 0.0000 0.0000
# 3 62.3671 71.8704 155.1406 0.0000 0.0000 0.0000
# 4 0.0000 0.0000 0.0000 22.5021 0.0000 0.0000
# 5 0.0000 0.0000 0.0000 0.0000 8.9460 0.0000
# 6 0.0000 0.0000 0.0000 0.0000 0.0000 18.3660
#
#
#
# Elastic Compliance Matrix: (Units=1/GPa)
#
#
# Indices 1 2 3 4 5 6 
#
# 1 0.017796 -0.003003 -0.005763 0.000000 0.000000 0.000000
# 2 -0.003003 0.016538 -0.006454 0.000000 0.000000 0.000000
# 3 -0.005763 -0.006454 0.011752 0.000000 0.000000 0.000000
# 4 0.000000 0.000000 0.000000 0.044440 0.000000 0.000000
# 5 0.000000 0.000000 0.000000 0.000000 0.111781 0.000000
# 6 0.000000 0.000000 0.000000 0.000000 0.000000 0.054448
#
#
# Mechanical properties :
#
#
# Convention : Reuss Voigt Hill
#
# Bulk Modulus (GPa) = 63.91449 75.68572 69.80010
# Shear Modulus (GPa) = 17.09926 20.64286 18.87106
#
# Velocity S-wave (km/s) = 2.97915 3.27332 3.12969
# Velocity P-wave (km/s) = 6.70883 7.31919 7.02065
#
# Compressibility (1/GPa) = 0.01564590
#
# Stress axis : x y z
#
# Youngs Moduli (GPa) = 56.19333 60.46853 85.09061
#
# Poissons Ratio (x) = 0.18160 0.49035
# Poissons Ratio (y) = 0.16876 0.54916
# Poissons Ratio (z) = 0.32382 0.39025
#
# Static dielectric constant tensor:
#      x y z
#    x 3.443160 0.000000 0.000000 
#    y 0.000000 3.494180 0.000000 
#    z 0.000000 0.000000 3.642990 
# 
# 
# High freq. dielectric constant tensor:
#      x y z
#    x 1.743750 0.000000 0.000000 
#    y 0.000000 1.717750 0.000000 
#    z 0.000000 0.000000 1.752600 
# 
# From -- ./inp_files/26973.got.cif
#   From: 2010.03.12/outbox.cif.g09.slc.cpg/sg44_14_cif.got.tgz:26973.got - 2010.04.14 02:36:11.
