data_PCOD8189714
_publ_section_title
;
Structure prediction by ZEFSAII (Michael W. Deem and Ramdas Pophale) SiO2 
 PCOD8189714
Probable space group: I M M 2
;
_chemical_formula_sum "Si O2"
_cell_formula_units_Z 64
_cell_length_a 28.923821
_cell_length_b 9.179146
_cell_length_c 12.679539
_cell_angle_alpha 90.000000
_cell_angle_beta 90.000000
_cell_angle_gamma 90.000000
_cell_volume 3366.366580
_symmetry_space_group_name_H-M "I M M 2"
_symmetry_group_IT_number 44
_symmetry_cell_setting 'orthorhombic'
loop_
_space_group_symop_operation_xyz
x,y,z
-x,-y,z
-x,y,z
x,-y,z
1/2+x,1/2+y,1/2+z
1/2-x,1/2-y,1/2+z
1/2-x,1/2+y,1/2+z
1/2+x,1/2-y,1/2+z
loop_
_atom_site_type_symbol
_atom_site_label
_atom_site_fract_x
_atom_site_fract_y
_atom_site_fract_z
Si Si1 0.144379 0.328568 0.480410
Si Si2 0.750480 0.336505 0.480487
Si Si3 0.948528 0.826943 0.103120
Si Si4 0.628144 0.325838 0.769598
Si Si5 0.294885 0.833444 0.642515
Si Si6 0.554521 0.664843 0.368782
Si Si7 0.381666 0.169514 0.213189
Si Si8 0.794512 0.158911 0.761844
O O1 0.142557 0.500000 0.452866
O O2 0.197311 0.276612 0.495557
O O3 0.119888 0.238235 0.386475
O O4 0.116854 0.292240 0.588477
O O5 0.747602 0.500000 0.527529
O O6 0.707631 0.242328 0.528291
O O7 0.740910 0.333357 0.357663
O O8 0.913456 0.772766 0.193225
O O9 0.000000 0.766186 0.128890
O O10 0.950423 0.000000 0.100109
O O11 0.932361 0.773978 0.986075
O O12 0.631624 0.500000 0.774765
O O13 0.675077 0.259052 0.723863
O O14 0.240187 0.820733 0.665226
O O15 0.312711 0.000000 0.638987
O O16 0.500000 0.672650 0.354229
O O17 0.572581 0.500000 0.357948
O O18 0.576386 0.757217 0.274802
O O19 0.333263 0.218447 0.263921
O O20 0.386084 0.000000 0.231597
O O21 0.818980 0.000000 0.757243
#
# Coordination Sequence:
#
# PCOD8189714 Si02
#       8
#     8   8   8   8   8   8   8   8
#     4  10  21  39  56  76 114 156 190 232 282 328
#     4  10  20  37  54  72 106 151 194 234 273 325
#     4   8  17  37  62  86 111 140 177 226 282 333
#     4  11  22  35  58  87 112 146 191 235 280 338
#     4  11  22  36  53  79 114 150 187 232 280 331
#     4   9  19  39  65  87 111 145 183 226 281 345
#     4  11  23  37  57  84 115 149 187 236 287 336
#     4  10  21  36  54  75 107 151 194 232 272 324
#
# _framework density 19.011596000000001
#
# number of rings (size 3 to 8) (size 9 to 14) (size 15 to 20)
#    0.000    2.000    2.500    1.875    1.750    2.750 
#    0.000    1.250    0.000    5.250    0.000    0.000 
#    0.000    0.000    0.000    0.000    0.000    0.000 
#
# Total GULP energy -396642.628912 kJ/mol
# GULP energy per Si atom -12395.082154 kJ/mol
# Density = 1.896832 g / cm^3
# Si number density = 19.011596 Si / 1000 Ang^3
#
#
#
# Elastic Constant Matrix: (Units=GPa)
#
#
# Indices 1 2 3 4 5 6 
#
# 1 67.9635 41.8244 57.0113 0.0000 0.0000 0.0000
# 2 41.8244 85.0535 57.6484 0.0000 0.0000 0.0000
# 3 57.0113 57.6484 120.6107 0.0000 0.0000 0.0000
# 4 0.0000 0.0000 0.0000 32.4881 0.0000 0.0000
# 5 0.0000 0.0000 0.0000 0.0000 33.1619 0.0000
# 6 0.0000 0.0000 0.0000 0.0000 0.0000 25.9488
#
#
#
# Elastic Compliance Matrix: (Units=1/GPa)
#
#
# Indices 1 2 3 4 5 6 
#
# 1 0.026795 -0.006792 -0.009419 0.000000 0.000000 0.000000
# 2 -0.006792 0.019113 -0.005925 0.000000 0.000000 0.000000
# 3 -0.009419 -0.005925 0.015576 0.000000 0.000000 0.000000
# 4 0.000000 0.000000 0.000000 0.030780 0.000000 0.000000
# 5 0.000000 0.000000 0.000000 0.000000 0.030155 0.000000
# 6 0.000000 0.000000 0.000000 0.000000 0.000000 0.038537
#
#
# Mechanical properties :
#
#
# Convention : Reuss Voigt Hill
#
# Bulk Modulus (GPa) = 58.10229 65.17733 61.63981
# Shear Modulus (GPa) = 23.70050 26.12934 24.91492
#
# Velocity S-wave (km/s) = 3.53460 3.71130 3.62403
# Velocity P-wave (km/s) = 6.87646 7.26101 7.07135
#
# Compressibility (1/GPa) = 0.01721102
#
# Stress axis : x y z
#
# Youngs Moduli (GPa) = 37.32063 52.32003 64.20313
#
# Poissons Ratio (x) = 0.35535 0.60475
# Poissons Ratio (y) = 0.25348 0.38041
# Poissons Ratio (z) = 0.35153 0.31000
#
# Static dielectric constant tensor:
#      x y z
#    x 3.304360 0.000000 0.000000 
#    y 0.000000 3.435710 0.000000 
#    z 0.000000 0.000000 3.624330 
# 
# 
# High freq. dielectric constant tensor:
#      x y z
#    x 1.720450 0.000000 0.000000 
#    y 0.000000 1.727200 0.000000 
#    z 0.000000 0.000000 1.750010 
# 
# From -- ./inp_files/11435.got.cif
#   From: 2010.03.12/outbox.cif.g09.slc.cpg/sg44_6_cif.got.tgz:11435.got - 2010.04.14 02:36:11.
