data_PCOD8189899
_publ_section_title
;
Structure prediction by ZEFSAII (Michael W. Deem and Ramdas Pophale) SiO2 
 PCOD8189899
Probable space group: I M M 2
;
_chemical_formula_sum "Si O2"
_cell_formula_units_Z 48
_cell_length_a 18.609448
_cell_length_b 8.890782
_cell_length_c 15.350036
_cell_angle_alpha 90.000000
_cell_angle_beta 90.000000
_cell_angle_gamma 90.000000
_cell_volume 2539.702527
_symmetry_space_group_name_H-M "I M M 2"
_symmetry_group_IT_number 44
_symmetry_cell_setting 'orthorhombic'
loop_
_space_group_symop_operation_xyz
x,y,z
-x,-y,z
-x,y,z
x,-y,z
1/2+x,1/2+y,1/2+z
1/2-x,1/2-y,1/2+z
1/2-x,1/2+y,1/2+z
1/2+x,1/2-y,1/2+z
loop_
_atom_site_type_symbol
_atom_site_label
_atom_site_fract_x
_atom_site_fract_y
_atom_site_fract_z
Si Si1 0.920612 0.178402 0.229460
Si Si2 0.915410 0.172296 0.035175
Si Si3 0.330296 0.676543 0.891409
Si Si4 0.836108 0.324853 0.881373
Si Si5 0.081944 0.677333 0.544781
Si Si6 0.917622 0.176001 0.724640
O O1 0.895721 0.227524 0.132836
O O2 0.865075 0.237879 0.301567
O O3 0.000000 0.244229 0.250220
O O4 0.924931 0.000000 0.230413
O O5 0.000000 0.186470 0.018503
O O6 0.890916 0.000000 0.019440
O O7 0.873908 0.282771 0.971341
O O8 0.344108 0.500000 0.902675
O O9 0.247063 0.717162 0.889238
O O10 0.366289 0.760567 0.971270
O O11 0.847789 0.500000 0.861954
O O12 0.868699 0.229500 0.803358
O O13 0.089102 0.500000 0.548809
O O14 0.107934 0.742407 0.636953
O O15 0.000000 0.727911 0.525299
O O16 0.000000 0.217138 0.746570
O O17 0.907330 0.000000 0.710964
#
# Coordination Sequence:
#
# PCOD8189899 Si02
#       6
#     8   8   8   8   8   8
#     4   8  15  31  56  79  97 126 173 223 262 303
#     4   9  18  34  56  79 101 133 181 227 269 323
#     4  10  21  36  54  79 111 146 181 216 264 327
#     4  11  23  35  50  79 115 146 179 221 269 321
#     4  10  21  37  58  84 111 140 179 229 279 322
#     4  10  21  38  60  82 105 141 187 229 273 329
#
# _framework density 18.899851000000002
#
# number of rings (size 3 to 8) (size 9 to 14) (size 15 to 20)
#    0.000    2.333    0.000    3.500    0.000    7.667 
#    0.000    2.500    0.000    1.000    0.000    0.000 
#    0.000    0.000    0.000    0.000    0.000    0.000 
#
# Total GULP energy -297644.983357 kJ/mol
# GULP energy per Si atom -12401.874307 kJ/mol
# Density = 1.885683 g / cm^3
# Si number density = 18.899851 Si / 1000 Ang^3
#
#
#
# Elastic Constant Matrix: (Units=GPa)
#
#
# Indices 1 2 3 4 5 6 
#
# 1 94.0346 39.3219 76.4052 0.0000 0.0000 0.0000
# 2 39.3219 48.1519 38.7350 0.0000 0.0000 0.0000
# 3 76.4052 38.7350 153.0778 0.0000 0.0000 0.0000
# 4 0.0000 0.0000 0.0000 29.1529 0.0000 0.0000
# 5 0.0000 0.0000 0.0000 0.0000 -2.6442 0.0000
# 6 0.0000 0.0000 0.0000 0.0000 0.0000 27.8090
#
#
#
# Elastic Compliance Matrix: (Units=1/GPa)
#
#
# Indices 1 2 3 4 5 6 
#
# 1 0.021987 -0.011460 -0.008075 0.000000 0.000000 0.000000
# 2 -0.011460 0.032048 -0.002390 0.000000 0.000000 0.000000
# 3 -0.008075 -0.002390 0.011168 0.000000 0.000000 0.000000
# 4 0.000000 0.000000 0.000000 0.034302 0.000000 0.000000
# 5 0.000000 0.000000 0.000000 0.000000 -0.378180 0.000000
# 6 0.000000 0.000000 0.000000 0.000000 0.000000 0.035960
#
#
# Mechanical properties :
#
#
# Convention : Reuss Voigt Hill
#
# Bulk Modulus (GPa) = 46.82756 67.13206 56.97981
# Shear Modulus (GPa) = -26.07572 20.25035 -2.91268
#
# Velocity S-wave (km/s) = -3.71843 3.27686 -1.24276
# Velocity P-wave (km/s) = 2.52880 7.06499 5.30608
#
# Compressibility (1/GPa) = 0.02135495
#
# Stress axis : x y z
#
# Youngs Moduli (GPa) = 45.48077 31.20294 89.54500
#
# Poissons Ratio (x) = 0.35758 0.72304
# Poissons Ratio (y) = 0.52120 0.21398
# Poissons Ratio (z) = 0.36724 0.07456
#
# Static dielectric constant tensor:
#      x y z
#    x 3.515010 0.000000 0.000000 
#    y 0.000000 3.293040 0.000000 
#    z 0.000000 0.000000 3.706610 
# 
# 
# High freq. dielectric constant tensor:
#      x y z
#    x 1.730240 0.000000 0.000000 
#    y 0.000000 1.720090 0.000000 
#    z 0.000000 0.000000 1.750250 
# 
# From -- ./inp_files/16064.got.cif
#   From: 2010.03.12/outbox.cif.g09.slc.cpg/sg44_9_cif.got.tgz:16064.got - 2010.04.14 02:36:11.
