data_PCOD8189254
_publ_section_title
;
Structure prediction by ZEFSAII (Michael W. Deem and Ramdas Pophale) SiO2 
 PCOD8189254
Probable space group: I M M 2
;
_chemical_formula_sum "Si O2"
_cell_formula_units_Z 64
_cell_length_a 8.830045
_cell_length_b 19.585795
_cell_length_c 20.950451
_cell_angle_alpha 90.000000
_cell_angle_beta 90.000000
_cell_angle_gamma 90.000000
_cell_volume 3623.243300
_symmetry_space_group_name_H-M "I M M 2"
_symmetry_group_IT_number 44
_symmetry_cell_setting 'orthorhombic'
loop_
_space_group_symop_operation_xyz
x,y,z
-x,-y,z
-x,y,z
x,-y,z
1/2+x,1/2+y,1/2+z
1/2-x,1/2-y,1/2+z
1/2-x,1/2+y,1/2+z
1/2+x,1/2-y,1/2+z
loop_
_atom_site_type_symbol
_atom_site_label
_atom_site_fract_x
_atom_site_fract_y
_atom_site_fract_z
Si Si1 0.177064 0.577114 0.667210
Si Si2 0.679701 0.926315 0.777371
Si Si3 0.325046 0.576983 0.532395
Si Si4 0.322297 0.201207 0.974968
Si Si5 0.678273 0.288596 0.096459
Si Si6 0.322783 0.923067 0.631323
Si Si7 0.320506 0.292886 0.713913
Si Si8 0.321200 0.789312 0.834178
O O1 0.217543 0.500000 0.688401
O O2 0.227009 0.590807 0.595144
O O3 0.264780 0.629019 0.713087
O O4 0.000000 0.591807 0.671776
O O5 0.500000 0.928639 0.780890
O O6 0.727791 0.913641 0.704393
O O7 0.746136 0.865157 0.820349
O O8 0.744434 0.000000 0.800680
O O9 0.500000 0.590094 0.549119
O O10 0.299597 0.500000 0.507001
O O11 0.266676 0.629638 0.479589
O O12 0.500000 0.185214 0.977920
O O13 0.277147 0.233304 0.905989
O O14 0.271822 0.252978 0.030281
O O15 0.500000 0.284407 0.106310
O O16 0.730630 0.367235 0.090682
O O17 0.756525 0.250488 0.155186
O O18 0.500000 0.908691 0.622878
O O19 0.283137 0.000000 0.607800
O O20 0.500000 0.290200 0.709365
O O21 0.258602 0.263075 0.781143
O O22 0.500000 0.792796 0.826039
#
# Coordination Sequence:
#
# PCOD8189254 Si02
#       8
#     8   8   8   8   8   8   8   8
#     4  10  20  34  53  78 107 136 170 215 267 319
#     4   8  13  24  45  72  98 124 161 207 248 291
#     4  10  20  33  50  74 105 141 179 215 254 305
#     4  10  21  35  51  74 105 140 176 213 258 311
#     4  11  21  32  50  77 108 138 170 211 259 312
#     4   9  17  31  53  78 101 127 167 216 259 301
#     4  11  20  33  56  80 103 133 176 224 261 305
#     4   9  18  32  50  75 103 135 175 214 255 306
#
# _framework density 17.663732
#
# number of rings (size 3 to 8) (size 9 to 14) (size 15 to 20)
#    0.000    2.250    2.500    2.250    0.000    2.750 
#    0.000    2.500    0.000    0.750    0.000    5.250 
#    0.000    0.000    0.000    0.000    0.000    0.000 
#
# Total GULP energy -396688.491509 kJ/mol
# GULP energy per Si atom -12396.515360 kJ/mol
# Density = 1.762353 g / cm^3
# Si number density = 17.663732 Si / 1000 Ang^3
#
#
#
# Elastic Constant Matrix: (Units=GPa)
#
#
# Indices 1 2 3 4 5 6 
#
# 1 47.3312 38.3439 34.2687 0.0000 0.0000 0.0000
# 2 38.3439 127.8786 71.5845 0.0000 0.0000 0.0000
# 3 34.2687 71.5845 120.6347 0.0000 0.0000 0.0000
# 4 0.0000 0.0000 0.0000 25.6917 0.0000 0.0000
# 5 0.0000 0.0000 0.0000 0.0000 17.7456 0.0000
# 6 0.0000 0.0000 0.0000 0.0000 0.0000 29.5151
#
#
#
# Elastic Compliance Matrix: (Units=1/GPa)
#
#
# Indices 1 2 3 4 5 6 
#
# 1 0.029587 -0.006239 -0.004702 0.000000 0.000000 0.000000
# 2 -0.006239 0.013025 -0.005957 0.000000 0.000000 0.000000
# 3 -0.004702 -0.005957 0.013160 0.000000 0.000000 0.000000
# 4 0.000000 0.000000 0.000000 0.038923 0.000000 0.000000
# 5 0.000000 0.000000 0.000000 0.000000 0.056352 0.000000
# 6 0.000000 0.000000 0.000000 0.000000 0.000000 0.033881
#
#
# Mechanical properties :
#
#
# Convention : Reuss Voigt Hill
#
# Bulk Modulus (GPa) = 45.50550 64.91542 55.21046
# Shear Modulus (GPa) = 22.11900 24.70031 23.40965
#
# Velocity S-wave (km/s) = 3.54252 3.74353 3.64441
# Velocity P-wave (km/s) = 6.52309 7.45089 7.00237
#
# Compressibility (1/GPa) = 0.02197537
#
# Stress axis : x y z
#
# Youngs Moduli (GPa) = 33.79883 76.77408 75.98743
#
# Poissons Ratio (x) = 0.47900 0.35733
# Poissons Ratio (y) = 0.21088 0.45264
# Poissons Ratio (z) = 0.15894 0.45733
#
# Static dielectric constant tensor:
#      x y z
#    x 3.070300 0.000000 0.000000 
#    y 0.000000 3.616310 0.000000 
#    z 0.000000 0.000000 3.191300 
# 
# 
# High freq. dielectric constant tensor:
#      x y z
#    x 1.665010 0.000000 0.000000 
#    y 0.000000 1.691890 0.000000 
#    z 0.000000 0.000000 1.656120 
# 
# From -- ./inp_files/20730.got.cif
#   From: 2010.03.12/outbox.cif.g09.slc.cpg/sg44_11_cif.got.tgz:20730.got - 2010.04.14 02:36:11.
