data_PCOD8189108
_publ_section_title
;
Structure prediction by ZEFSAII (Michael W. Deem and Ramdas Pophale) SiO2 
 PCOD8189108
Probable space group: I M M 2
;
_chemical_formula_sum "Si O2"
_cell_formula_units_Z 48
_cell_length_a 9.082990
_cell_length_b 7.875139
_cell_length_c 34.340238
_cell_angle_alpha 90.000000
_cell_angle_beta 90.000000
_cell_angle_gamma 90.000000
_cell_volume 2456.350658
_symmetry_space_group_name_H-M "I M M 2"
_symmetry_group_IT_number 44
_symmetry_cell_setting 'orthorhombic'
loop_
_space_group_symop_operation_xyz
x,y,z
-x,-y,z
-x,y,z
x,-y,z
1/2+x,1/2+y,1/2+z
1/2-x,1/2-y,1/2+z
1/2-x,1/2+y,1/2+z
1/2+x,1/2-y,1/2+z
loop_
_atom_site_type_symbol
_atom_site_label
_atom_site_fract_x
_atom_site_fract_y
_atom_site_fract_z
Si Si1 0.668955 0.692728 0.260510
Si Si2 0.675244 0.810183 0.425896
Si Si3 0.824892 0.000000 0.979795
Si Si4 0.173011 0.308386 0.106219
Si Si5 0.337334 0.691652 0.688203
Si Si6 0.175841 0.500000 0.562563
Si Si7 0.336698 0.800960 0.341211
O O1 0.500000 0.749704 0.263562
O O2 0.688591 0.500000 0.247799
O O3 0.738714 0.802580 0.226454
O O4 0.745032 0.723344 0.303058
O O5 0.500000 0.813788 0.422079
O O6 0.725317 0.668899 0.456629
O O7 0.740862 0.761463 0.382936
O O8 0.729701 0.000000 0.438507
O O9 0.000000 0.000000 0.987754
O O10 0.733698 0.000000 0.018881
O O11 0.205253 0.500000 0.090937
O O12 0.220637 0.301874 0.151720
O O13 0.000000 0.264104 0.101874
O O14 0.266700 0.172396 0.082302
O O15 0.500000 0.754400 0.700130
O O16 0.339771 0.500000 0.672678
O O17 0.000000 0.500000 0.563666
O O18 0.500000 0.720246 0.342554
O O19 0.344725 0.000000 0.335097
#
# Coordination Sequence:
#
# PCOD8189108 Si02
#       7
#     8   8   4   8   8   4   8
#     4  10  20  30  45  75 113 149 186 228 277 335
#     4   8  15  28  49  79 109 139 181 234 287 331
#     4  10  20  34  58  84 108 142 192 244 284 340
#     4  10  21  41  68  90 112 149 198 248 293 344
#     4  10  20  36  58  80 107 144 188 235 284 336
#     4  12  26  42  60  88 126 158 188 236 298 370
#     4   8  14  26  44  69 104 142 180 227 281 328
#
# _framework density 19.541183
#
# number of rings (size 3 to 8) (size 9 to 14) (size 15 to 20)
#    0.000    2.500    0.833    2.750    1.167    3.667 
#    0.000    1.667    0.000    1.000    0.000    2.333 
#    0.000    0.000    0.000    0.000    0.000    0.000 
#
# Total GULP energy -297399.118415 kJ/mol
# GULP energy per Si atom -12391.629934 kJ/mol
# Density = 1.949671 g / cm^3
# Si number density = 19.541183 Si / 1000 Ang^3
#
#
#
# Elastic Constant Matrix: (Units=GPa)
#
#
# Indices 1 2 3 4 5 6 
#
# 1 53.6784 38.7245 50.0433 0.0000 0.0000 0.0000
# 2 38.7245 113.0699 72.3708 -0.0001 0.0000 0.0000
# 3 50.0433 72.3708 153.9242 -0.0001 0.0000 0.0000
# 4 0.0000 -0.0001 -0.0001 21.3555 0.0000 0.0000
# 5 0.0000 0.0000 0.0000 0.0000 22.5838 0.0000
# 6 0.0000 0.0000 0.0000 0.0000 0.0000 15.5966
#
#
#
# Elastic Compliance Matrix: (Units=1/GPa)
#
#
# Indices 1 2 3 4 5 6 
#
# 1 0.028996 -0.005574 -0.006806 0.000000 0.000000 0.000000
# 2 -0.005574 0.013723 -0.004640 0.000000 0.000000 0.000000
# 3 -0.006806 -0.004640 0.010891 0.000000 0.000000 0.000000
# 4 0.000000 0.000000 0.000000 0.046826 0.000000 0.000000
# 5 0.000000 0.000000 0.000000 0.000000 0.044280 0.000000
# 6 0.000000 0.000000 0.000000 0.000000 0.000000 0.064117
#
#
# Mechanical properties :
#
#
# Convention : Reuss Voigt Hill
#
# Bulk Modulus (GPa) = 51.10031 71.43885 61.26958
# Shear Modulus (GPa) = 20.04838 22.54277 21.29558
#
# Velocity S-wave (km/s) = 3.20653 3.40016 3.30476
# Velocity P-wave (km/s) = 6.31791 7.21472 6.78116
#
# Compressibility (1/GPa) = 0.01956935
#
# Stress axis : x y z
#
# Youngs Moduli (GPa) = 34.48730 72.87063 91.81857
#
# Poissons Ratio (x) = 0.40621 0.62494
# Poissons Ratio (y) = 0.19224 0.42602
# Poissons Ratio (z) = 0.23473 0.33811
#
# Static dielectric constant tensor:
#      x y z
#    x 3.064620 0.000000 0.000000 
#    y 0.000000 3.713470 0.000000 
#    z 0.000000 0.000000 3.686170 
# 
# 
# High freq. dielectric constant tensor:
#      x y z
#    x 1.697000 0.000000 0.000000 
#    y 0.000000 1.772110 0.000000 
#    z 0.000000 0.000000 1.771770 
# 
# From -- ./inp_files/26982.got.cif
#   From: 2010.03.12/outbox.cif.g09.slc.cpg/sg44_14_cif.got.tgz:26982.got - 2010.04.14 02:36:11.
