data_PCOD8189808
_publ_section_title
;
Structure prediction by ZEFSAII (Michael W. Deem and Ramdas Pophale) SiO2 
 PCOD8189808
Probable space group: I M M 2
;
_chemical_formula_sum "Si O2"
_cell_formula_units_Z 64
_cell_length_a 28.470803
_cell_length_b 13.706172
_cell_length_c 7.582643
_cell_angle_alpha 90.000000
_cell_angle_beta 90.000000
_cell_angle_gamma 90.000000
_cell_volume 2958.942346
_symmetry_space_group_name_H-M "I M M 2"
_symmetry_group_IT_number 44
_symmetry_cell_setting 'orthorhombic'
loop_
_space_group_symop_operation_xyz
x,y,z
-x,-y,z
-x,y,z
x,-y,z
1/2+x,1/2+y,1/2+z
1/2-x,1/2-y,1/2+z
1/2-x,1/2+y,1/2+z
1/2+x,1/2-y,1/2+z
loop_
_atom_site_type_symbol
_atom_site_label
_atom_site_fract_x
_atom_site_fract_y
_atom_site_fract_z
Si Si1 0.552135 0.229228 0.686010
Si Si2 0.791266 0.809715 0.860085
Si Si3 0.188158 0.389505 0.365089
Si Si4 0.448187 0.743087 0.078988
Si Si5 0.359355 0.613581 0.064027
Si Si6 0.078963 0.390206 0.873928
Si Si7 0.850888 0.798135 0.196177
Si Si8 0.817051 0.391294 0.771222
O O1 0.500000 0.275332 0.654494
O O2 0.558132 0.133212 0.566677
O O3 0.594219 0.304837 0.634749
O O4 0.558954 0.201807 0.891685
O O5 0.743354 0.867888 0.856682
O O6 0.822014 0.838296 0.693191
O O7 0.781506 0.692336 0.842238
O O8 0.817654 0.836746 0.041060
O O9 0.179477 0.500000 0.296849
O O10 0.159811 0.315347 0.242050
O O11 0.170746 0.377820 0.565416
O O12 0.500000 0.694910 0.086922
O O13 0.445131 0.822006 0.231298
O O14 0.410500 0.657720 0.102088
O O15 0.362181 0.500000 0.101055
O O16 0.342142 0.633753 0.864982
O O17 0.065812 0.500000 0.824156
O O18 0.134931 0.374285 0.877513
O O19 0.796086 0.500000 0.806460
#
# Coordination Sequence:
#
# PCOD8189808 Si02
#       8
#     8   8   8   8   8   8   8   8
#     4  10  21  38  61  92 126 166 214 260 318 384
#     4  12  22  43  66  94 128 166 214 271 324 383
#     4  11  24  41  64  95 131 170 217 267 324 393
#     4  10  21  39  62  92 131 171 211 266 326 384
#     4  11  24  43  65  93 125 163 217 274 330 389
#     4  11  21  37  62  91 127 170 214 261 320 385
#     4  11  23  41  68  92 128 171 212 269 328 388
#     4  10  20  39  64  91 128 170 213 262 319 385
#
# _framework density 21.629349999999999
#
# number of rings (size 3 to 8) (size 9 to 14) (size 15 to 20)
#    0.000    1.250    3.750    2.250    0.000    3.750 
#    0.000    1.875    0.000    0.000    0.000    3.500 
#    0.000    0.000    0.000    0.000    0.000    0.000 
#
# Total GULP energy -396794.811849 kJ/mol
# GULP energy per Si atom -12399.837870 kJ/mol
# Density = 2.158012 g / cm^3
# Si number density = 21.629350 Si / 1000 Ang^3
#
#
#
# Elastic Constant Matrix: (Units=GPa)
#
#
# Indices 1 2 3 4 5 6 
#
# 1 88.8366 19.6361 21.3243 0.0000 0.0000 0.0000
# 2 19.6361 94.6705 20.1415 0.0000 0.0000 0.0000
# 3 21.3243 20.1415 79.4782 0.0000 0.0000 0.0000
# 4 0.0000 0.0000 0.0000 17.9890 0.0000 0.0000
# 5 0.0000 0.0000 0.0000 0.0000 25.2732 0.0000
# 6 0.0000 0.0000 0.0000 0.0000 0.0000 22.6302
#
#
#
# Elastic Compliance Matrix: (Units=1/GPa)
#
#
# Indices 1 2 3 4 5 6 
#
# 1 0.012368 -0.001965 -0.002820 0.000000 0.000000 0.000000
# 2 -0.001965 0.011477 -0.002381 0.000000 0.000000 0.000000
# 3 -0.002820 -0.002381 0.013942 0.000000 0.000000 0.000000
# 4 0.000000 0.000000 0.000000 0.055589 0.000000 0.000000
# 5 0.000000 0.000000 0.000000 0.000000 0.039568 0.000000
# 6 0.000000 0.000000 0.000000 0.000000 0.000000 0.044189
#
#
# Mechanical properties :
#
#
# Convention : Reuss Voigt Hill
#
# Bulk Modulus (GPa) = 42.63726 42.79879 42.71803
# Shear Modulus (GPa) = 25.08970 26.63737 25.86354
#
# Velocity S-wave (km/s) = 3.40955 3.51314 3.46173
# Velocity P-wave (km/s) = 5.93764 6.02383 5.98089
#
# Compressibility (1/GPa) = 0.02345366
#
# Stress axis : x y z
#
# Youngs Moduli (GPa) = 80.85374 87.12917 71.72449
#
# Poissons Ratio (x) = 0.17123 0.20229
# Poissons Ratio (y) = 0.15890 0.17080
# Poissons Ratio (z) = 0.22803 0.20748
#
# Static dielectric constant tensor:
#      x y z
#    x 4.101430 0.000000 0.000000 
#    y 0.000000 3.812820 0.000000 
#    z 0.000000 0.000000 4.065360 
# 
# 
# High freq. dielectric constant tensor:
#      x y z
#    x 1.856850 0.000000 0.000000 
#    y 0.000000 1.819460 0.000000 
#    z 0.000000 0.000000 1.865080 
# 
# From -- ./inp_files/10162.got.cif
#   From: 2010.03.12/outbox.cif.g09.slc.cpg/sg44_6_cif.got.tgz:10162.got - 2010.04.14 02:36:11.
