data_PCOD8189253
_publ_section_title
;
Structure prediction by ZEFSAII (Michael W. Deem and Ramdas Pophale) SiO2 
 PCOD8189253
Probable space group: I M M 2
;
_chemical_formula_sum "Si O2"
_cell_formula_units_Z 64
_cell_length_a 8.869838
_cell_length_b 14.360824
_cell_length_c 28.025940
_cell_angle_alpha 90.000000
_cell_angle_beta 90.000000
_cell_angle_gamma 90.000000
_cell_volume 3569.893298
_symmetry_space_group_name_H-M "I M M 2"
_symmetry_group_IT_number 44
_symmetry_cell_setting 'orthorhombic'
loop_
_space_group_symop_operation_xyz
x,y,z
-x,-y,z
-x,y,z
x,-y,z
1/2+x,1/2+y,1/2+z
1/2-x,1/2-y,1/2+z
1/2-x,1/2+y,1/2+z
1/2+x,1/2-y,1/2+z
loop_
_atom_site_type_symbol
_atom_site_label
_atom_site_fract_x
_atom_site_fract_y
_atom_site_fract_z
Si Si1 0.826867 0.393683 0.870010
Si Si2 0.176471 0.392947 0.497019
Si Si3 0.677332 0.106222 0.647164
Si Si4 0.821704 0.397460 0.604615
Si Si5 0.825291 0.107586 0.547993
Si Si6 0.824083 0.107050 0.271627
Si Si7 0.676564 0.781406 0.463132
Si Si8 0.321342 0.226774 0.190594
O O1 0.801907 0.500000 0.886783
O O2 0.720942 0.368911 0.825631
O O3 0.778399 0.326365 0.912826
O O4 0.000000 0.377307 0.854982
O O5 0.219906 0.500000 0.486647
O O6 0.220910 0.364988 0.551290
O O7 0.272934 0.326746 0.462193
O O8 0.000000 0.377081 0.488009
O O9 0.500000 0.119880 0.647489
O O10 0.739157 0.137433 0.595750
O O11 0.751400 0.169840 0.688304
O O12 0.723653 0.000000 0.658247
O O13 0.752980 0.500000 0.614335
O O14 0.756969 0.327672 0.644204
O O15 0.000000 0.403402 0.609149
O O16 0.767194 0.167017 0.504193
O O17 0.000000 0.129819 0.556528
O O18 0.796038 0.000000 0.535907
O O19 0.730751 0.174646 0.237824
O O20 0.000000 0.125746 0.264714
O O21 0.781783 0.000000 0.259868
O O22 0.500000 0.791402 0.472922
O O23 0.500000 0.233833 0.190815
#
# Coordination Sequence:
#
# PCOD8189253 Si02
#       8
#     8   8   8   8   8   8   8   8
#     4   9  19  36  55  75 101 132 166 206 256 313
#     4   9  18  33  51  71 100 138 177 214 249 291
#     4  10  21  36  52  72 103 140 176 217 260 298
#     4   8  15  28  46  70  99 131 167 203 239 284
#     4  10  20  33  50  74 105 140 177 213 250 301
#     4  10  21  36  54  78 107 135 165 206 256 308
#     4  11  21  32  51  77 104 135 171 213 261 310
#     4  11  20  31  53  79 103 135 173 210 251 304
#
# _framework density 17.927707000000002
#
# number of rings (size 3 to 8) (size 9 to 14) (size 15 to 20)
#    0.000    2.250    0.000    4.125    0.000    5.500 
#    0.000    1.875    0.000    2.250    0.000    3.500 
#    0.000    0.000    0.000    0.000    0.000    0.000 
#
# Total GULP energy -396856.423159 kJ/mol
# GULP energy per Si atom -12401.763224 kJ/mol
# Density = 1.788690 g / cm^3
# Si number density = 17.927707 Si / 1000 Ang^3
#
#
#
# Elastic Constant Matrix: (Units=GPa)
#
#
# Indices 1 2 3 4 5 6 
#
# 1 59.5498 41.5673 33.7140 0.0000 0.0000 0.0000
# 2 41.5673 99.4873 63.9244 0.0000 0.0000 0.0000
# 3 33.7140 63.9244 84.5948 0.0000 0.0000 0.0000
# 4 0.0000 0.0000 0.0000 30.9116 0.0000 0.0000
# 5 0.0000 0.0000 0.0000 0.0000 28.7208 0.0000
# 6 0.0000 0.0000 0.0000 0.0000 0.0000 30.2607
#
#
#
# Elastic Compliance Matrix: (Units=1/GPa)
#
#
# Indices 1 2 3 4 5 6 
#
# 1 0.024358 -0.007658 -0.003921 0.000000 0.000000 0.000000
# 2 -0.007658 0.021945 -0.013531 0.000000 0.000000 0.000000
# 3 -0.003921 -0.013531 0.023609 0.000000 0.000000 0.000000
# 4 0.000000 0.000000 0.000000 0.032350 0.000000 0.000000
# 5 0.000000 0.000000 0.000000 0.000000 0.034818 0.000000
# 6 0.000000 0.000000 0.000000 0.000000 0.000000 0.033046
#
#
# Mechanical properties :
#
#
# Convention : Reuss Voigt Hill
#
# Bulk Modulus (GPa) = 50.78177 58.00482 54.39329
# Shear Modulus (GPa) = 22.03519 24.94038 23.48778
#
# Velocity S-wave (km/s) = 3.50967 3.73388 3.62351
# Velocity P-wave (km/s) = 6.69411 7.14242 6.92190
#
# Compressibility (1/GPa) = 0.01969211
#
# Stress axis : x y z
#
# Youngs Moduli (GPa) = 41.05469 45.56761 42.35751
#
# Poissons Ratio (x) = 0.34895 0.16607
# Poissons Ratio (y) = 0.31439 0.57315
# Poissons Ratio (z) = 0.16097 0.61659
#
# Static dielectric constant tensor:
#      x y z
#    x 3.209770 0.000000 0.000000 
#    y 0.000000 3.531860 0.000000 
#    z 0.000000 0.000000 3.167980 
# 
# 
# High freq. dielectric constant tensor:
#      x y z
#    x 1.690540 0.000000 0.000000 
#    y 0.000000 1.699310 0.000000 
#    z 0.000000 0.000000 1.672690 
# 
# From -- ./inp_files/25088.got.cif
#   From: 2010.03.12/outbox.cif.g09.slc.cpg/sg44_13_cif.got.tgz:25088.got - 2010.04.14 02:36:11.
