data_PCOD8189282
_publ_section_title
;
Structure prediction by ZEFSAII (Michael W. Deem and Ramdas Pophale) SiO2 
 PCOD8189282
Probable space group: I M M 2
;
_chemical_formula_sum "Si O2"
_cell_formula_units_Z 56
_cell_length_a 22.701618
_cell_length_b 14.583301
_cell_length_c 8.901484
_cell_angle_alpha 90.000000
_cell_angle_beta 90.000000
_cell_angle_gamma 90.000000
_cell_volume 2946.965603
_symmetry_space_group_name_H-M "I M M 2"
_symmetry_group_IT_number 44
_symmetry_cell_setting 'orthorhombic'
loop_
_space_group_symop_operation_xyz
x,y,z
-x,-y,z
-x,y,z
x,-y,z
1/2+x,1/2+y,1/2+z
1/2-x,1/2-y,1/2+z
1/2-x,1/2+y,1/2+z
1/2+x,1/2-y,1/2+z
loop_
_atom_site_type_symbol
_atom_site_label
_atom_site_fract_x
_atom_site_fract_y
_atom_site_fract_z
Si Si1 0.067667 0.105016 0.344310
Si Si2 0.134207 0.266982 0.894358
Si Si3 0.206591 0.397333 0.692934
Si Si4 0.888944 0.604148 0.457309
Si Si5 0.663462 0.396092 0.596880
Si Si6 0.065500 0.771249 0.608537
Si Si7 0.069101 0.393873 0.130908
O O1 0.106929 0.124835 0.199193
O O2 0.094479 0.164384 0.480922
O O3 0.000000 0.132937 0.306448
O O4 0.072063 0.000000 0.393874
O O5 0.184146 0.330324 0.822288
O O6 0.096725 0.217874 0.766318
O O7 0.165809 0.181389 0.971362
O O8 0.092582 0.327855 0.000724
O O9 0.189906 0.500000 0.743277
O O10 0.176400 0.378630 0.528506
O O11 0.276414 0.385358 0.688734
O O12 0.910002 0.500000 0.479473
O O13 0.933801 0.666164 0.552325
O O14 0.892818 0.629112 0.280698
O O15 0.659316 0.500000 0.530385
O O16 0.000000 0.806080 0.634314
O O17 0.078107 0.500000 0.083758
O O18 0.000000 0.373726 0.160482
#
# Coordination Sequence:
#
# PCOD8189282 Si02
#       7
#     8   8   8   8   8   8   8
#     4   9  19  37  58  77 101 138 181 221 263 316
#     4  11  22  34  54  81 111 141 176 223 277 325
#     4   9  20  39  57  76 106 143 182 223 269 321
#     4   9  18  33  53  76 105 142 180 216 258 315
#     4  10  22  39  58  80 108 142 181 225 271 324
#     4  10  20  33  51  77 107 138 173 216 266 320
#     4  10  20  34  54  82 114 147 184 226 272 323
#
# _framework density 19.002597999999999
#
# number of rings (size 3 to 8) (size 9 to 14) (size 15 to 20)
#    0.000    2.286    0.000    2.143    0.000    7.714 
#    0.000    0.000    0.000    6.000    0.000    0.000 
#    0.000    0.000    0.000    0.000    0.000    0.000 
#
# Total GULP energy -347114.504041 kJ/mol
# GULP energy per Si atom -12396.946573 kJ/mol
# Density = 1.895935 g / cm^3
# Si number density = 19.002598 Si / 1000 Ang^3
#
#
#
# Elastic Constant Matrix: (Units=GPa)
#
#
# Indices 1 2 3 4 5 6 
#
# 1 88.5265 44.9667 45.8693 0.0000 0.0000 0.0000
# 2 44.9667 103.7014 65.3000 0.0000 0.0000 0.0000
# 3 45.8693 65.3000 103.7759 0.0000 0.0000 0.0000
# 4 0.0000 0.0000 0.0000 37.9119 0.0000 0.0000
# 5 0.0000 0.0000 0.0000 0.0000 20.3556 0.0000
# 6 0.0000 0.0000 0.0000 0.0000 0.0000 20.7830
#
#
#
# Elastic Compliance Matrix: (Units=1/GPa)
#
#
# Indices 1 2 3 4 5 6 
#
# 1 0.015598 -0.004012 -0.004370 0.000000 0.000000 0.000000
# 2 -0.004012 0.017003 -0.008926 0.000000 0.000000 0.000000
# 3 -0.004370 -0.008926 0.017184 0.000000 0.000000 0.000000
# 4 0.000000 0.000000 0.000000 0.026377 0.000000 0.000000
# 5 0.000000 0.000000 0.000000 0.000000 0.049127 0.000000
# 6 0.000000 0.000000 0.000000 0.000000 0.000000 0.048116
#
#
# Mechanical properties :
#
#
# Convention : Reuss Voigt Hill
#
# Bulk Modulus (GPa) = 65.91902 67.58622 66.75262
# Shear Modulus (GPa) = 23.46563 25.13461 24.30012
#
# Velocity S-wave (km/s) = 3.51788 3.64083 3.57988
# Velocity P-wave (km/s) = 7.15999 7.30193 7.23131
#
# Compressibility (1/GPa) = 0.01517013
#
# Stress axis : x y z
#
# Youngs Moduli (GPa) = 64.11010 58.81236 58.19290
#
# Poissons Ratio (x) = 0.23595 0.25430
# Poissons Ratio (y) = 0.25720 0.51942
# Poissons Ratio (z) = 0.28016 0.52495
#
# Static dielectric constant tensor:
#      x y z
#    x 3.391680 0.000000 0.000000 
#    y 0.000000 3.636660 0.000000 
#    z 0.000000 0.000000 3.412260 
# 
# 
# High freq. dielectric constant tensor:
#      x y z
#    x 1.730240 0.000000 0.000000 
#    y 0.000000 1.752540 0.000000 
#    z 0.000000 0.000000 1.728870 
# 
# From -- ./inp_files/7376.got.cif
#   From: 2010.03.12/outbox.cif.g09.slc.cpg/sg44_4_cif.got.tgz:7376.got - 2010.04.14 02:36:11.
