data_PCOD8189376
_publ_section_title
;
Structure prediction by ZEFSAII (Michael W. Deem and Ramdas Pophale) SiO2 
 PCOD8189376
Probable space group: I M M 2
;
_chemical_formula_sum "Si O2"
_cell_formula_units_Z 48
_cell_length_a 8.834641
_cell_length_b 29.748357
_cell_length_c 10.102448
_cell_angle_alpha 90.000000
_cell_angle_beta 90.000000
_cell_angle_gamma 90.000000
_cell_volume 2655.085523
_symmetry_space_group_name_H-M "I M M 2"
_symmetry_group_IT_number 44
_symmetry_cell_setting 'orthorhombic'
loop_
_space_group_symop_operation_xyz
x,y,z
-x,-y,z
-x,y,z
x,-y,z
1/2+x,1/2+y,1/2+z
1/2-x,1/2-y,1/2+z
1/2-x,1/2+y,1/2+z
1/2+x,1/2-y,1/2+z
loop_
_atom_site_type_symbol
_atom_site_label
_atom_site_fract_x
_atom_site_fract_y
_atom_site_fract_z
Si Si1 0.322451 0.051625 0.376390
Si Si2 0.320861 0.882543 0.896270
Si Si3 0.179032 0.212001 0.894875
Si Si4 0.178090 0.717645 0.116431
Si Si5 0.177792 0.616683 0.100847
Si Si6 0.174472 0.052471 0.101326
O O1 0.500000 0.059924 0.352532
O O2 0.252886 0.082268 0.493847
O O3 0.234907 0.066246 0.244913
O O4 0.289678 0.000000 0.413698
O O5 0.500000 0.876435 0.901003
O O6 0.247259 0.835558 0.939337
O O7 0.264755 0.895291 0.748346
O O8 0.270551 0.922018 0.991849
O O9 0.239459 0.229018 0.753746
O O10 0.000000 0.208047 0.887884
O O11 0.231442 0.247725 0.004995
O O12 0.224099 0.667813 0.066537
O O13 0.000000 0.720138 0.144059
O O14 0.000000 0.610304 0.095328
O O15 0.000000 0.066397 0.090558
O O16 0.199536 0.000000 0.075773
#
# Coordination Sequence:
#
# PCOD8189376 Si02
#       6
#     8   8   8   8   8   8
#     4   9  17  31  52  76 101 132 171 212 254 302
#     4  10  20  35  55  77 103 135 172 213 258 309
#     4  10  20  34  53  77 105 136 173 216 260 307
#     4   9  19  35  52  73 103 137 173 213 257 306
#     4   8  16  32  52  74 100 130 168 213 254 297
#     4  10  21  36  52  74 106 138 169 209 255 304
#
# _framework density 18.078513000000001
#
# number of rings (size 3 to 8) (size 9 to 14) (size 15 to 20)
#    0.000    2.667    0.000    2.500    0.000    4.333 
#    0.000    7.500    0.000    2.000    0.000    0.000 
#    0.000    0.000    0.000    0.000    0.000    0.000 
#
# Total GULP energy -297602.676279 kJ/mol
# GULP energy per Si atom -12400.111512 kJ/mol
# Density = 1.803737 g / cm^3
# Si number density = 18.078513 Si / 1000 Ang^3
#
#
#
# Elastic Constant Matrix: (Units=GPa)
#
#
# Indices 1 2 3 4 5 6 
#
# 1 47.8748 31.6069 36.4567 0.0002 -0.0001 0.0000
# 2 31.6069 96.9485 86.8950 -0.0002 0.0000 0.0001
# 3 36.4567 86.8950 126.8078 -0.0009 0.0006 0.0002
# 4 0.0002 -0.0002 -0.0009 43.2650 0.0002 0.0000
# 5 -0.0001 0.0000 0.0006 0.0002 25.4388 0.0000
# 6 0.0000 0.0001 0.0002 0.0000 0.0000 24.0979
#
#
#
# Elastic Compliance Matrix: (Units=1/GPa)
#
#
# Indices 1 2 3 4 5 6 
#
# 1 0.027609 -0.004890 -0.004586 0.000000 0.000000 0.000000
# 2 -0.004890 0.027601 -0.017508 0.000000 0.000000 0.000000
# 3 -0.004586 -0.017508 0.021202 0.000000 -0.000001 0.000000
# 4 0.000000 0.000000 0.000000 0.023113 0.000000 0.000000
# 5 0.000000 0.000000 -0.000001 0.000000 0.039310 0.000000
# 6 0.000000 0.000000 0.000000 0.000000 0.000000 0.041497
#
#
# Mechanical properties :
#
#
# Convention : Reuss Voigt Hill
#
# Bulk Modulus (GPa) = 44.55730 64.61649 54.58689
# Shear Modulus (GPa) = 20.67970 26.33851 23.50911
#
# Velocity S-wave (km/s) = 3.38580 3.82107 3.61000
# Velocity P-wave (km/s) = 6.32336 7.43554 6.90189
#
# Compressibility (1/GPa) = 0.02244301
#
# Stress axis : x y z
#
# Youngs Moduli (GPa) = 36.22027 36.23007 47.16571
#
# Poissons Ratio (x) = 0.17717 0.21632
# Poissons Ratio (y) = 0.17712 0.82577
# Poissons Ratio (z) = 0.16612 0.63431
#
# Static dielectric constant tensor:
#      x y z
#    x 3.210210 0.000000 0.000000 
#    y 0.000000 3.433890 0.000000 
#    z 0.000000 0.000000 3.497940 
# 
# 
# High freq. dielectric constant tensor:
#      x y z
#    x 1.689660 0.000000 0.000000 
#    y 0.000000 1.701900 0.000000 
#    z 0.000000 0.000000 1.706060 
# 
# From -- ./inp_files/4925.got.cif
#   From: 2010.03.12/outbox.cif.g09.slc.cpg/sg44_3_cif.got.tgz:4925.got - 2010.04.14 02:36:11.
