data_PCOD8189671
_publ_section_title
;
Structure prediction by ZEFSAII (Michael W. Deem and Ramdas Pophale) SiO2 
 PCOD8189671
Probable space group: I M M 2
;
_chemical_formula_sum "Si O2"
_cell_formula_units_Z 48
_cell_length_a 9.200831
_cell_length_b 23.077390
_cell_length_c 11.603818
_cell_angle_alpha 90.000000
_cell_angle_beta 90.000000
_cell_angle_gamma 90.000000
_cell_volume 2463.852198
_symmetry_space_group_name_H-M "I M M 2"
_symmetry_group_IT_number 44
_symmetry_cell_setting 'orthorhombic'
loop_
_space_group_symop_operation_xyz
x,y,z
-x,-y,z
-x,y,z
x,-y,z
1/2+x,1/2+y,1/2+z
1/2-x,1/2-y,1/2+z
1/2-x,1/2+y,1/2+z
1/2+x,1/2-y,1/2+z
loop_
_atom_site_type_symbol
_atom_site_label
_atom_site_fract_x
_atom_site_fract_y
_atom_site_fract_z
Si Si1 0.667850 0.858149 0.733030
Si Si2 0.663243 0.063650 0.512722
Si Si3 0.168537 0.932488 0.924265
Si Si4 0.171841 0.771854 0.578522
Si Si5 0.331086 0.354618 0.869748
Si Si6 0.831547 0.159086 0.111774
O O1 0.500000 0.842834 0.763096
O O2 0.681685 0.900915 0.627739
O O3 0.740802 0.891543 0.839025
O O4 0.751791 0.799726 0.692615
O O5 0.500000 0.065666 0.466355
O O6 0.762232 0.085335 0.409279
O O7 0.715152 0.000000 0.545842
O O8 0.000000 0.930553 0.887096
O O9 0.222337 0.000000 0.926553
O O10 0.190193 0.903360 0.050260
O O11 0.212530 0.805139 0.460818
O O12 0.233588 0.708160 0.551931
O O13 0.000000 0.770890 0.600592
O O14 0.500000 0.364938 0.865062
O O15 0.272824 0.341995 0.742367
O O16 0.000000 0.177961 0.105573
#
# Coordination Sequence:
#
# PCOD8189671 Si02
#       6
#     8   8   8   8   8   8
#     4  10  20  36  59  85 115 151 192 239 290 344
#     4   9  18  33  54  81 111 143 181 228 281 332
#     4  10  22  39  58  84 120 160 201 242 288 346
#     4  10  21  37  58  86 115 145 188 241 294 347
#     4   9  20  37  55  79 110 143 185 229 277 340
#     4  10  22  39  58  82 114 154 191 233 289 347
#
# _framework density 19.481687000000001
#
# number of rings (size 3 to 8) (size 9 to 14) (size 15 to 20)
#    0.000    2.333    0.000    1.500    2.333    4.667 
#    0.000    1.667    0.000    0.000    0.000    0.000 
#    0.000    0.000    0.000    0.000    0.000    0.000 
#
# Total GULP energy -297509.606648 kJ/mol
# GULP energy per Si atom -12396.233610 kJ/mol
# Density = 1.943735 g / cm^3
# Si number density = 19.481687 Si / 1000 Ang^3
#
#
#
# Elastic Constant Matrix: (Units=GPa)
#
#
# Indices 1 2 3 4 5 6 
#
# 1 49.3035 28.0333 39.6522 0.0045 -0.0002 -0.0001
# 2 28.0333 90.9964 26.5097 0.0012 -0.0001 -0.0001
# 3 39.6522 26.5097 93.4576 -0.0155 0.0001 -0.0002
# 4 0.0045 0.0012 -0.0155 -107.0875 0.0017 0.0001
# 5 -0.0002 -0.0001 0.0001 0.0017 26.9454 0.0000
# 6 -0.0001 -0.0001 -0.0002 0.0001 0.0000 33.3692
#
#
#
# Elastic Compliance Matrix: (Units=1/GPa)
#
#
# Indices 1 2 3 4 5 6 
#
# 1 0.034359 -0.006909 -0.012618 0.000003 0.000000 0.000000
# 2 -0.006909 0.013369 -0.000861 0.000000 0.000000 0.000000
# 3 -0.012618 -0.000861 0.016298 -0.000003 0.000000 0.000000
# 4 0.000003 0.000000 -0.000003 -0.009338 0.000001 0.000000
# 5 0.000000 0.000000 0.000000 0.000001 0.037112 0.000000
# 6 0.000000 0.000000 0.000000 0.000000 0.000000 0.029968
#
#
# Mechanical properties :
#
#
# Convention : Reuss Voigt Hill
#
# Bulk Modulus (GPa) = 43.01109 46.90532 44.95820
# Shear Modulus (GPa) = 29.36124 -0.05043 14.65540
#
# Velocity S-wave (km/s) = 3.88638 -0.16107 2.74572
# Velocity P-wave (km/s) = 6.50109 4.90859 5.76014
#
# Compressibility (1/GPa) = 0.02324982
#
# Stress axis : x y z
#
# Youngs Moduli (GPa) = 29.10451 74.80178 61.35800
#
# Poissons Ratio (x) = 0.51680 0.77422
# Poissons Ratio (y) = 0.20108 0.05281
# Poissons Ratio (z) = 0.36724 0.06438
#
# Static dielectric constant tensor:
#      x y z
#    x 3.576630 0.000000 0.000000 
#    y 0.000000 5.908770 -0.000030 
#    z 0.000000 -0.000030 3.699780 
# 
# 
# High freq. dielectric constant tensor:
#      x y z
#    x 1.755670 0.000000 0.000000 
#    y 0.000000 1.762420 0.000000 
#    z 0.000000 0.000000 1.755800 
# 
# From -- ./inp_files/11153.got.cif
#   From: 2010.03.12/outbox.cif.g09.slc.cpg/sg44_6_cif.got.tgz:11153.got - 2010.04.14 02:36:11.
