data_PCOD8189473
_publ_section_title
;
Structure prediction by ZEFSAII (Michael W. Deem and Ramdas Pophale) SiO2 
 PCOD8189473
Probable space group: I M M 2
;
_chemical_formula_sum "Si O2"
_cell_formula_units_Z 48
_cell_length_a 9.998978
_cell_length_b 8.940686
_cell_length_c 27.765913
_cell_angle_alpha 90.000000
_cell_angle_beta 90.000000
_cell_angle_gamma 90.000000
_cell_volume 2482.209389
_symmetry_space_group_name_H-M "I M M 2"
_symmetry_group_IT_number 44
_symmetry_cell_setting 'orthorhombic'
loop_
_space_group_symop_operation_xyz
x,y,z
-x,-y,z
-x,y,z
x,-y,z
1/2+x,1/2+y,1/2+z
1/2-x,1/2-y,1/2+z
1/2-x,1/2+y,1/2+z
1/2+x,1/2-y,1/2+z
loop_
_atom_site_type_symbol
_atom_site_label
_atom_site_fract_x
_atom_site_fract_y
_atom_site_fract_z
Si Si1 0.746052 0.671220 0.506940
Si Si2 0.752945 0.177728 0.727810
Si Si3 0.500000 0.678007 0.679536
Si Si4 0.500000 0.678069 0.569279
Si Si5 0.500000 0.165441 0.071973
Si Si6 0.153224 0.824356 0.412808
Si Si7 0.000000 0.174277 0.668191
Si Si8 0.155864 0.674290 0.824457
O O1 0.716922 0.500000 0.492954
O O2 0.626743 0.738319 0.539358
O O3 0.767631 0.761311 0.458354
O O4 0.874705 0.689888 0.538940
O O5 0.623870 0.262400 0.709500
O O6 0.868885 0.240161 0.693148
O O7 0.792760 0.222987 0.781447
O O8 0.731103 0.000000 0.725208
O O9 0.500000 0.500000 0.679808
O O10 0.500000 0.739855 0.624297
O O11 0.500000 0.500000 0.572194
O O12 0.500000 0.289892 0.112364
O O13 0.500000 0.000000 0.095622
O O14 0.245853 0.780306 0.367866
O O15 0.000000 0.760565 0.407706
O O16 0.144494 0.000000 0.419090
O O17 0.000000 0.000000 0.676593
O O18 0.172344 0.500000 0.811194
O O19 0.000000 0.709739 0.836911
#
# Coordination Sequence:
#
# PCOD8189473 Si02
#       8
#     8   8   4   4   4   8   4   8
#     4  10  20  37  58  84 116 151 194 243 291 346
#     4  11  23  41  61  89 125 158 197 248 304 362
#     4  11  23  41  64  89 120 163 209 249 298 353
#     4   9  20  37  58  85 118 154 197 244 288 343
#     4  10  20  34  57  84 113 150 197 244 287 348
#     4  10  22  39  59  86 119 152 192 243 297 354
#     4  10  22  38  59  86 121 157 193 241 301 362
#     4  10  22  40  62  88 117 154 201 247 296 360
#
# _framework density 19.337610000000002
#
# number of rings (size 3 to 8) (size 9 to 14) (size 15 to 20)
#    0.000    1.833    1.667    1.750    2.333    4.000 
#    0.000    1.667    0.000    0.000    0.000    0.000 
#    0.000    0.000    0.000    0.000    0.000    0.000 
#
# Total GULP energy -297568.935878 kJ/mol
# GULP energy per Si atom -12398.705662 kJ/mol
# Density = 1.929360 g / cm^3
# Si number density = 19.337610 Si / 1000 Ang^3
#
#
#
# Elastic Constant Matrix: (Units=GPa)
#
#
# Indices 1 2 3 4 5 6 
#
# 1 145.0314 30.7663 44.5853 0.0000 0.0000 0.0000
# 2 30.7663 36.7434 31.2925 0.0000 0.0000 0.0000
# 3 44.5853 31.2925 105.3648 0.0000 0.0000 0.0000
# 4 0.0000 0.0000 0.0000 37.8113 0.0000 0.0000
# 5 0.0000 0.0000 0.0000 0.0000 51.4771 0.0000
# 6 0.0000 0.0000 0.0000 0.0000 0.0000 -381.8608
#
#
#
# Elastic Compliance Matrix: (Units=1/GPa)
#
#
# Indices 1 2 3 4 5 6 
#
# 1 0.008697 -0.005553 -0.002031 0.000000 0.000000 0.000000
# 2 -0.005553 0.039975 -0.009523 0.000000 0.000000 0.000000
# 3 -0.002031 -0.009523 0.013179 0.000000 0.000000 0.000000
# 4 0.000000 0.000000 0.000000 0.026447 0.000000 0.000000
# 5 0.000000 0.000000 0.000000 0.000000 0.019426 0.000000
# 6 0.000000 0.000000 0.000000 0.000000 0.000000 -0.002619
#
#
# Mechanical properties :
#
#
# Convention : Reuss Voigt Hill
#
# Bulk Modulus (GPa) = 36.18217 55.60309 45.89263
# Shear Modulus (GPa) = 33.66289 -46.48144 -6.40928
#
# Velocity S-wave (km/s) = 4.17681 -4.90805 -1.82253
# Velocity P-wave (km/s) = 6.48170 1.81724 4.39944
#
# Compressibility (1/GPa) = 0.02763792
#
# Stress axis : x y z
#
# Youngs Moduli (GPa) = 114.97659 25.01549 75.88114
#
# Poissons Ratio (x) = 0.13890 0.15413
# Poissons Ratio (y) = 0.63843 0.72259
# Poissons Ratio (z) = 0.23354 0.23821
#
# Static dielectric constant tensor:
#      x y z
#    x 4.030010 0.000000 0.000000 
#    y 0.000000 3.388580 0.000000 
#    z 0.000000 0.000000 3.580150 
# 
# 
# High freq. dielectric constant tensor:
#      x y z
#    x 1.774900 0.000000 0.000000 
#    y 0.000000 1.734980 0.000000 
#    z 0.000000 0.000000 1.761760 
# 
# From -- ./inp_files/27032.got.cif
#   From: 2010.03.12/outbox.cif.g09.slc.cpg/sg44_14_cif.got.tgz:27032.got - 2010.04.14 02:36:11.
