data_PCOD8189210
_publ_section_title
;
Structure prediction by ZEFSAII (Michael W. Deem and Ramdas Pophale) SiO2 
 PCOD8189210
Probable space group: I M M 2
;
_chemical_formula_sum "Si O2"
_cell_formula_units_Z 48
_cell_length_a 13.764054
_cell_length_b 8.849640
_cell_length_c 23.785445
_cell_angle_alpha 90.000000
_cell_angle_beta 90.000000
_cell_angle_gamma 90.000000
_cell_volume 2897.231864
_symmetry_space_group_name_H-M "I M M 2"
_symmetry_group_IT_number 44
_symmetry_cell_setting 'orthorhombic'
loop_
_space_group_symop_operation_xyz
x,y,z
-x,-y,z
-x,y,z
x,-y,z
1/2+x,1/2+y,1/2+z
1/2-x,1/2-y,1/2+z
1/2-x,1/2+y,1/2+z
1/2+x,1/2-y,1/2+z
loop_
_atom_site_type_symbol
_atom_site_label
_atom_site_fract_x
_atom_site_fract_y
_atom_site_fract_z
Si Si1 0.890774 0.676285 0.214290
Si Si2 0.112647 0.676091 0.420864
Si Si3 0.389915 0.678916 0.262251
Si Si4 0.287257 0.321791 0.817173
Si Si5 0.612969 0.674743 0.036853
Si Si6 0.793559 0.177089 0.649118
O O1 0.880848 0.500000 0.229250
O O2 0.862628 0.765421 0.270222
O O3 0.818942 0.717949 0.162672
O O4 0.000000 0.719100 0.196009
O O5 0.134462 0.500000 0.413637
O O6 0.177025 0.769775 0.377789
O O7 0.142969 0.727363 0.483119
O O8 0.000000 0.713672 0.409835
O O9 0.500000 0.727413 0.275057
O O10 0.375411 0.500000 0.266093
O O11 0.320487 0.755894 0.307963
O O12 0.360207 0.738108 0.200164
O O13 0.282388 0.500000 0.815033
O O14 0.500000 0.692989 0.051560
O O15 0.638829 0.500000 0.024942
O O16 0.673407 0.745279 0.089382
O O17 0.810562 0.000000 0.644253
#
# Coordination Sequence:
#
# PCOD8189210 Si02
#       6
#     8   8   8   8   8   8
#     4   9  17  30  48  69  94 125 159 192 227 272
#     4  10  20  33  48  66  90 121 157 195 234 279
#     4   9  17  31  51  72  95 125 157 186 221 270
#     4  11  21  31  46  69  96 123 153 192 235 277
#     4   9  16  27  45  68  92 118 150 189 232 277
#     4   8  14  26  46  71  95 120 152 186 223 271
#
# _framework density 16.567539
#
# number of rings (size 3 to 8) (size 9 to 14) (size 15 to 20)
#    0.000    2.667    0.000    4.000    0.000    5.667 
#    0.000    3.333    0.000    5.000    0.000    2.333 
#    0.000    0.000    0.000    0.000    0.000    0.000 
#
# Total GULP energy -297565.681764 kJ/mol
# GULP energy per Si atom -12398.570074 kJ/mol
# Density = 1.652983 g / cm^3
# Si number density = 16.567539 Si / 1000 Ang^3
#
#
#
# Elastic Constant Matrix: (Units=GPa)
#
#
# Indices 1 2 3 4 5 6 
#
# 1 127.3889 42.5184 66.3192 0.0000 0.0000 0.0000
# 2 42.5184 55.6449 32.1097 0.0000 0.0000 0.0000
# 3 66.3192 32.1097 109.5057 0.0000 0.0000 0.0000
# 4 0.0000 0.0000 0.0000 23.7156 0.0000 0.0000
# 5 0.0000 0.0000 0.0000 0.0000 27.7719 0.0000
# 6 0.0000 0.0000 0.0000 0.0000 0.0000 15.6745
#
#
#
# Elastic Compliance Matrix: (Units=1/GPa)
#
#
# Indices 1 2 3 4 5 6 
#
# 1 0.013208 -0.006592 -0.006066 0.000000 0.000000 0.000000
# 2 -0.006592 0.024921 -0.003315 0.000000 0.000000 0.000000
# 3 -0.006066 -0.003315 0.013778 0.000000 0.000000 0.000000
# 4 0.000000 0.000000 0.000000 0.042166 0.000000 0.000000
# 5 0.000000 0.000000 0.000000 0.000000 0.036008 0.000000
# 6 0.000000 0.000000 0.000000 0.000000 0.000000 0.063798
#
#
# Mechanical properties :
#
#
# Convention : Reuss Voigt Hill
#
# Bulk Modulus (GPa) = 50.09942 63.82602 56.96272
# Shear Modulus (GPa) = 21.50729 23.53857 22.52293
#
# Velocity S-wave (km/s) = 3.60691 3.77339 3.69109
# Velocity P-wave (km/s) = 6.90301 7.58901 7.25412
#
# Compressibility (1/GPa) = 0.01996031
#
# Stress axis : x y z
#
# Youngs Moduli (GPa) = 75.70982 40.12674 72.57962
#
# Poissons Ratio (x) = 0.26451 0.44029
# Poissons Ratio (y) = 0.49907 0.24062
# Poissons Ratio (z) = 0.45928 0.13303
#
# Static dielectric constant tensor:
#      x y z
#    x 3.209390 0.000000 0.000000 
#    y 0.000000 2.949800 0.000000 
#    z 0.000000 0.000000 3.138230 
# 
# 
# High freq. dielectric constant tensor:
#      x y z
#    x 1.631360 0.000000 0.000000 
#    y 0.000000 1.622060 0.000000 
#    z 0.000000 0.000000 1.629860 
# 
# From -- ./inp_files/22894.got.cif
#   From: 2010.03.12/outbox.cif.g09.slc.cpg/sg44_12_cif.got.tgz:22894.got - 2010.04.14 02:36:11.
