data_PCOD8189893
_publ_section_title
;
Structure prediction by ZEFSAII (Michael W. Deem and Ramdas Pophale) SiO2 
 PCOD8189893
Probable space group: I M M 2
;
_chemical_formula_sum "Si O2"
_cell_formula_units_Z 40
_cell_length_a 9.340763
_cell_length_b 25.725029
_cell_length_c 9.084355
_cell_angle_alpha 90.000000
_cell_angle_beta 90.000000
_cell_angle_gamma 90.000000
_cell_volume 2182.892372
_symmetry_space_group_name_H-M "I M M 2"
_symmetry_group_IT_number 44
_symmetry_cell_setting 'orthorhombic'
loop_
_space_group_symop_operation_xyz
x,y,z
-x,-y,z
-x,y,z
x,-y,z
1/2+x,1/2+y,1/2+z
1/2-x,1/2-y,1/2+z
1/2-x,1/2+y,1/2+z
1/2+x,1/2-y,1/2+z
loop_
_atom_site_type_symbol
_atom_site_label
_atom_site_fract_x
_atom_site_fract_y
_atom_site_fract_z
Si Si1 0.332593 0.295598 0.985840
Si Si2 0.338234 0.000000 0.990514
Si Si3 0.338234 0.000000 0.640342
Si Si4 0.165857 0.099453 0.986680
Si Si5 0.667407 0.295598 0.645020
Si Si6 0.165858 0.900547 0.644176
O O1 0.500000 0.286524 0.011266
O O2 0.291021 0.295815 0.815430
O O3 0.250000 0.249999 0.065429
O O4 0.283959 0.350158 0.054973
O O5 0.257229 0.948819 0.048421
O O6 0.500000 0.000000 0.051210
O O7 0.334695 0.000000 0.815428
O O8 0.257229 0.051181 0.582435
O O9 0.500000 0.000000 0.579646
O O10 0.216039 0.149841 0.075886
O O11 0.000000 0.086437 0.014256
O O12 0.196486 0.110009 0.815428
O O13 0.500000 0.286524 0.619594
O O14 0.000000 0.913562 0.616599
#
# Coordination Sequence:
#
# PCOD8189893 Si02
#       6
#     8   4   4   8   8   8
#     4  10  21  36  54  77 104 135 172 213 258 307
#     4   9  17  29  48  75 102 128 164 209 252 295
#     4   9  17  29  48  75 102 128 164 209 252 295
#     4   9  17  31  51  73  99 133 170 206 248 300
#     4  10  21  36  54  77 104 135 172 213 258 307
#     4   9  17  31  51  73  99 133 170 206 248 300
#
# _framework density 18.324311000000002
#
# number of rings (size 3 to 8) (size 9 to 14) (size 15 to 20)
#    0.000    2.600    0.000    1.800    0.000    6.400 
#    0.000    5.000    0.000    6.000    0.000    0.000 
#    0.000    0.000    0.000    0.000    0.000    0.000 
#
# Total GULP energy -248050.718489 kJ/mol
# GULP energy per Si atom -12402.535924 kJ/mol
# Density = 1.828260 g / cm^3
# Si number density = 18.324311 Si / 1000 Ang^3
#
#
#
# Elastic Constant Matrix: (Units=GPa)
#
#
# Indices 1 2 3 4 5 6 
#
# 1 88.0982 94.9704 47.0147 -0.0002 0.0001 0.0000
# 2 94.9704 209.5211 83.2656 -0.0001 0.0000 0.0000
# 3 47.0147 83.2656 85.1720 -0.0015 0.0004 0.0000
# 4 -0.0002 -0.0001 -0.0015 32.4639 0.0000 0.0000
# 5 0.0001 0.0000 0.0004 0.0000 20.4449 -0.0001
# 6 0.0000 0.0000 0.0000 0.0000 -0.0001 41.5938
#
#
#
# Elastic Compliance Matrix: (Units=1/GPa)
#
#
# Indices 1 2 3 4 5 6 
#
# 1 0.023042 -0.008814 -0.004102 0.000000 0.000000 0.000000
# 2 -0.008814 0.011177 -0.006061 0.000000 0.000000 0.000000
# 3 -0.004102 -0.006061 0.019931 0.000001 0.000000 0.000000
# 4 0.000000 0.000000 0.000001 0.030803 0.000000 0.000000
# 5 0.000000 0.000000 0.000000 0.000000 0.048912 0.000000
# 6 0.000000 0.000000 0.000000 0.000000 0.000000 0.024042
#
#
# Mechanical properties :
#
#
# Convention : Reuss Voigt Hill
#
# Bulk Modulus (GPa) = 61.74974 92.58807 77.16890
# Shear Modulus (GPa) = 24.84348 29.40323 27.12336
#
# Velocity S-wave (km/s) = 3.68607 4.01009 3.85149
# Velocity P-wave (km/s) = 7.20330 8.48989 7.87292
#
# Compressibility (1/GPa) = 0.01619440
#
# Stress axis : x y z
#
# Youngs Moduli (GPa) = 43.39966 89.47176 50.17293
#
# Poissons Ratio (x) = 0.78859 0.20583
# Poissons Ratio (y) = 0.38252 0.30411
# Poissons Ratio (z) = 0.17804 0.54232
#
# Static dielectric constant tensor:
#      x y z
#    x 3.397420 0.000000 0.000000 
#    y 0.000000 3.588160 0.000000 
#    z 0.000000 0.000000 3.229960 
# 
# 
# High freq. dielectric constant tensor:
#      x y z
#    x 1.706030 0.000000 0.000000 
#    y 0.000000 1.725420 0.000000 
#    z 0.000000 0.000000 1.689730 
# 
# From -- ./inp_files/4616.got.cif
#   From: 2010.03.12/outbox.cif.g09.slc.cpg/sg44_3_cif.got.tgz:4616.got - 2010.04.14 02:36:11.
