data_PCOD8189587
_publ_section_title
;
Structure prediction by ZEFSAII (Michael W. Deem and Ramdas Pophale) SiO2 
 PCOD8189587
Probable space group: I M M 2
;
_chemical_formula_sum "Si O2"
_cell_formula_units_Z 64
_cell_length_a 32.122434
_cell_length_b 13.838998
_cell_length_c 7.427849
_cell_angle_alpha 90.000000
_cell_angle_beta 90.000000
_cell_angle_gamma 90.000000
_cell_volume 3301.993078
_symmetry_space_group_name_H-M "I M M 2"
_symmetry_group_IT_number 44
_symmetry_cell_setting 'orthorhombic'
loop_
_space_group_symop_operation_xyz
x,y,z
-x,-y,z
-x,y,z
x,-y,z
1/2+x,1/2+y,1/2+z
1/2-x,1/2-y,1/2+z
1/2-x,1/2+y,1/2+z
1/2+x,1/2-y,1/2+z
loop_
_atom_site_type_symbol
_atom_site_label
_atom_site_fract_x
_atom_site_fract_y
_atom_site_fract_z
Si Si1 0.790786 0.210352 0.994570
Si Si2 0.752126 0.386731 0.831367
Si Si3 0.547283 0.232220 0.961143
Si Si4 0.109160 0.892382 0.516885
Si Si5 0.951265 0.236587 0.054469
Si Si6 0.625022 0.610061 0.601854
Si Si7 0.048915 0.604606 0.775095
Si Si8 0.195185 0.108196 0.653534
O O1 0.785665 0.326040 0.954265
O O2 0.778695 0.168741 0.797973
O O3 0.758636 0.164968 0.140532
O O4 0.838365 0.181306 0.035442
O O5 0.766149 0.500000 0.804050
O O6 0.710439 0.381143 0.948795
O O7 0.500000 0.259088 0.000436
O O8 0.555649 0.216274 0.751110
O O9 0.571263 0.321349 0.049489
O O10 0.560060 0.136136 0.070703
O O11 0.126192 0.886584 0.315382
O O12 0.146410 0.862396 0.651468
O O13 0.093251 0.000000 0.559718
O O14 0.920622 0.144882 0.032014
O O15 0.000000 0.206448 0.026319
O O16 0.934882 0.317241 0.917078
O O17 0.632369 0.500000 0.532682
O O18 0.070012 0.500000 0.809032
O O19 0.000000 0.594946 0.801324
O O20 0.200224 0.000000 0.720972
#
# Coordination Sequence:
#
# PCOD8189587 Si02
#       8
#     8   8   8   8   8   8   8   8
#     4  12  22  39  62  88 118 155 194 245 297 350
#     4  11  23  40  61  89 118 150 197 242 294 357
#     4   9  18  32  51  78 112 148 187 233 284 337
#     4   9  18  33  54  82 116 149 187 233 277 340
#     4   9  19  35  54  82 118 155 192 236 287 337
#     4  10  20  35  59  88 118 155 196 237 285 348
#     4   9  18  33  52  73  99 138 192 246 289 334
#     4  10  20  35  58  85 112 148 193 236 284 347
#
# _framework density 19.382234
#
# number of rings (size 3 to 8) (size 9 to 14) (size 15 to 20)
#    0.000    2.125    2.500    1.125    1.750    1.000 
#    0.000    5.625    0.000    3.000    0.000    0.000 
#    0.000    0.000    0.000    0.000    0.000    0.000 
#
# Total GULP energy -396446.692952 kJ/mol
# GULP energy per Si atom -12388.959155 kJ/mol
# Density = 1.933812 g / cm^3
# Si number density = 19.382234 Si / 1000 Ang^3
#
#
#
# Elastic Constant Matrix: (Units=GPa)
#
#
# Indices 1 2 3 4 5 6 
#
# 1 69.8460 51.5451 16.1765 0.0000 0.0000 0.0000
# 2 51.5451 127.3321 41.5707 0.0000 0.0000 0.0000
# 3 16.1765 41.5707 71.0254 -0.0001 -0.0001 0.0000
# 4 0.0000 0.0000 -0.0001 22.6928 0.0000 0.0000
# 5 0.0000 0.0000 -0.0001 0.0000 23.0081 0.0000
# 6 0.0000 0.0000 0.0000 0.0000 0.0000 25.7236
#
#
#
# Elastic Compliance Matrix: (Units=1/GPa)
#
#
# Indices 1 2 3 4 5 6 
#
# 1 0.020420 -0.008342 0.000232 0.000000 0.000000 0.000000
# 2 -0.008342 0.013116 -0.005777 0.000000 0.000000 0.000000
# 3 0.000232 -0.005777 0.017408 0.000000 0.000000 0.000000
# 4 0.000000 0.000000 0.000000 0.044067 0.000000 0.000000
# 5 0.000000 0.000000 0.000000 0.000000 0.043463 0.000000
# 6 0.000000 0.000000 0.000000 0.000000 0.000000 0.038875
#
#
# Mechanical properties :
#
#
# Convention : Reuss Voigt Hill
#
# Bulk Modulus (GPa) = 43.15976 54.08756 48.62366
# Shear Modulus (GPa) = 23.49121 24.87899 24.18510
#
# Velocity S-wave (km/s) = 3.48515 3.58662 3.53625
# Velocity P-wave (km/s) = 6.20573 6.71700 6.46642
#
# Compressibility (1/GPa) = 0.02316973
#
# Stress axis : x y z
#
# Youngs Moduli (GPa) = 48.97278 76.24116 57.44494
#
# Poissons Ratio (x) = 0.63597 -0.01330
# Poissons Ratio (y) = 0.40851 0.33186
# Poissons Ratio (z) = -0.01134 0.44045
#
# Static dielectric constant tensor:
#      x y z
#    x 3.359800 0.000000 0.000000 
#    y 0.000000 3.931640 0.000000 
#    z 0.000000 0.000000 3.708460 
# 
# 
# High freq. dielectric constant tensor:
#      x y z
#    x 1.726200 0.000000 0.000000 
#    y 0.000000 1.745240 0.000000 
#    z 0.000000 0.000000 1.771710 
# 
# From -- ./inp_files/10107.got.cif
#   From: 2010.03.12/outbox.cif.g09.slc.cpg/sg44_6_cif.got.tgz:10107.got - 2010.04.14 02:36:11.
