data_PCOD8189130
_publ_section_title
;
Structure prediction by ZEFSAII (Michael W. Deem and Ramdas Pophale) SiO2 
 PCOD8189130
Probable space group: I M M 2
;
_chemical_formula_sum "Si O2"
_cell_formula_units_Z 56
_cell_length_a 18.489684
_cell_length_b 9.175448
_cell_length_c 20.459490
_cell_angle_alpha 90.000000
_cell_angle_beta 90.000000
_cell_angle_gamma 90.000000
_cell_volume 3470.975681
_symmetry_space_group_name_H-M "I M M 2"
_symmetry_group_IT_number 44
_symmetry_cell_setting 'orthorhombic'
loop_
_space_group_symop_operation_xyz
x,y,z
-x,-y,z
-x,y,z
x,-y,z
1/2+x,1/2+y,1/2+z
1/2-x,1/2-y,1/2+z
1/2-x,1/2+y,1/2+z
1/2+x,1/2-y,1/2+z
loop_
_atom_site_type_symbol
_atom_site_label
_atom_site_fract_x
_atom_site_fract_y
_atom_site_fract_z
Si Si1 0.223010 0.664834 0.419640
Si Si2 0.080673 0.168818 0.985993
Si Si3 0.084127 0.670805 0.722930
Si Si4 0.854408 0.835164 0.843277
Si Si5 0.649044 0.670479 0.100476
Si Si6 0.707652 0.832477 0.534001
Si Si7 0.080259 0.332939 0.479403
O O1 0.240814 0.500000 0.445544
O O2 0.266521 0.684741 0.351263
O O3 0.251651 0.785396 0.468680
O O4 0.135647 0.686065 0.417562
O O5 0.109009 0.198096 0.912914
O O6 0.000000 0.233902 0.992268
O O7 0.080466 0.000000 0.002598
O O8 0.132458 0.244521 0.040027
O O9 0.097322 0.500000 0.714812
O O10 0.115111 0.720133 0.792452
O O11 0.127031 0.755338 0.667519
O O12 0.000000 0.710885 0.718603
O O13 0.872672 0.000000 0.820244
O O14 0.630895 0.500000 0.103085
O O15 0.735628 0.696663 0.092790
O O16 0.603740 0.737378 0.040989
O O17 0.686713 0.000000 0.528760
O O18 0.080339 0.500000 0.503390
O O19 0.000000 0.285887 0.456122
#
# Coordination Sequence:
#
# PCOD8189130 Si02
#       7
#     8   8   8   8   8   8   8
#     4   8  15  28  44  62  86 116 146 176 214 261
#     4   9  17  29  46  68  92 118 146 175 213 261
#     4  11  23  34  44  62  87 115 148 184 220 257
#     4   9  17  30  46  62  85 118 150 178 209 251
#     4  10  20  32  45  62  87 119 151 181 214 256
#     4   9  17  28  43  64  87 112 144 181 219 256
#     4   9  16  27  45  68  92 116 143 178 218 258
#
# _framework density 16.133792
#
# number of rings (size 3 to 8) (size 9 to 14) (size 15 to 20)
#    0.000    2.714    0.000    3.000    0.000    8.000 
#    0.000    0.000    0.000    0.000    0.000    1.000 
#    0.000    5.714    0.000    0.000    0.000    0.000 
#
# Total GULP energy -346934.043474 kJ/mol
# GULP energy per Si atom -12390.501553 kJ/mol
# Density = 1.609707 g / cm^3
# Si number density = 16.133792 Si / 1000 Ang^3
#
#
#
# Elastic Constant Matrix: (Units=GPa)
#
#
# Indices 1 2 3 4 5 6 
#
# 1 147.3020 57.1714 43.2261 0.0000 0.0000 0.0000
# 2 57.1714 71.7733 38.5451 0.0000 0.0000 0.0000
# 3 43.2261 38.5451 47.1034 0.0000 0.0000 0.0000
# 4 0.0000 0.0000 0.0000 20.2604 0.0000 0.0000
# 5 0.0000 0.0000 0.0000 0.0000 23.1359 0.0000
# 6 0.0000 0.0000 0.0000 0.0000 0.0000 24.0090
#
#
#
# Elastic Compliance Matrix: (Units=1/GPa)
#
#
# Indices 1 2 3 4 5 6 
#
# 1 0.010436 -0.005655 -0.004950 0.000000 0.000000 0.000000
# 2 -0.005655 0.027920 -0.017658 0.000000 0.000000 0.000000
# 3 -0.004950 -0.017658 0.040222 0.000000 0.000000 0.000000
# 4 0.000000 0.000000 0.000000 0.049357 0.000000 0.000000
# 5 0.000000 0.000000 0.000000 0.000000 0.043223 0.000000
# 6 0.000000 0.000000 0.000000 0.000000 0.000000 0.041651
#
#
# Mechanical properties :
#
#
# Convention : Reuss Voigt Hill
#
# Bulk Modulus (GPa) = 45.34500 60.45157 52.89829
# Shear Modulus (GPa) = 18.07108 21.96346 20.01727
#
# Velocity S-wave (km/s) = 3.35038 3.69363 3.52618
# Velocity P-wave (km/s) = 6.56760 7.46597 7.03115
#
# Compressibility (1/GPa) = 0.02205315
#
# Stress axis : x y z
#
# Youngs Moduli (GPa) = 95.82233 35.81648 24.86206
#
# Poissons Ratio (x) = 0.20253 0.12306
# Poissons Ratio (y) = 0.54184 0.43902
# Poissons Ratio (z) = 0.47429 0.63245
#
# Static dielectric constant tensor:
#      x y z
#    x 3.548550 0.000000 0.000000 
#    y 0.000000 3.107850 0.000000 
#    z 0.000000 0.000000 2.730570 
# 
# 
# High freq. dielectric constant tensor:
#      x y z
#    x 1.633400 0.000000 0.000000 
#    y 0.000000 1.627950 0.000000 
#    z 0.000000 0.000000 1.567730 
# 
# From -- ./inp_files/20677.got.cif
#   From: 2010.03.12/outbox.cif.g09.slc.cpg/sg44_11_cif.got.tgz:20677.got - 2010.04.14 02:36:11.
