data_PCOD8189515
_publ_section_title
;
Structure prediction by ZEFSAII (Michael W. Deem and Ramdas Pophale) SiO2 
 PCOD8189515
Probable space group: I M M 2
;
_chemical_formula_sum "Si O2"
_cell_formula_units_Z 48
_cell_length_a 30.184955
_cell_length_b 9.215024
_cell_length_c 9.186904
_cell_angle_alpha 90.000000
_cell_angle_beta 90.000000
_cell_angle_gamma 90.000000
_cell_volume 2555.384061
_symmetry_space_group_name_H-M "I M M 2"
_symmetry_group_IT_number 44
_symmetry_cell_setting 'orthorhombic'
loop_
_space_group_symop_operation_xyz
x,y,z
-x,-y,z
-x,y,z
x,-y,z
1/2+x,1/2+y,1/2+z
1/2-x,1/2-y,1/2+z
1/2-x,1/2+y,1/2+z
1/2+x,1/2-y,1/2+z
loop_
_atom_site_type_symbol
_atom_site_label
_atom_site_fract_x
_atom_site_fract_y
_atom_site_fract_z
Si Si1 0.290665 0.831845 0.040870
Si Si2 0.050314 0.669503 0.851404
Si Si3 0.370309 0.828497 0.549244
Si Si4 0.551384 0.667198 0.057504
Si Si5 0.880138 0.331139 0.375287
Si Si6 0.785914 0.672036 0.875090
O O1 0.288637 0.779979 0.207375
O O2 0.277888 0.000000 0.024177
O O3 0.339946 0.802159 0.984483
O O4 0.257672 0.738789 0.944412
O O5 0.056369 0.500000 0.816360
O O6 0.063918 0.755099 0.707508
O O7 0.000000 0.704819 0.900040
O O8 0.083085 0.721784 0.979156
O O9 0.367427 0.773182 0.714760
O O10 0.328982 0.764617 0.458335
O O11 0.366952 0.000000 0.544450
O O12 0.500000 0.686941 0.020864
O O13 0.564895 0.500000 0.071255
O O14 0.577653 0.740705 0.926294
O O15 0.893255 0.500000 0.370287
O O16 0.783173 0.500000 0.889684
#
# Coordination Sequence:
#
# PCOD8189515 Si02
#       6
#     8   8   8   8   8   8
#     4  10  21  36  55  80 107 136 174 217 259 306
#     4   9  17  32  55  79 103 135 176 219 261 307
#     4   9  18  33  54  80 106 133 172 220 263 305
#     4  10  21  36  53  76 107 140 174 213 257 307
#     4  10  20  35  56  79 104 136 174 216 260 307
#     4  10  20  35  55  77 105 140 174 212 260 311
#
# _framework density 18.783868999999999
#
# number of rings (size 3 to 8) (size 9 to 14) (size 15 to 20)
#    0.000    2.333    0.000    2.500    0.000    7.000 
#    0.000    5.833    0.000    2.000    0.000    0.000 
#    0.000    0.000    0.000    0.000    0.000    0.000 
#
# Total GULP energy -297666.599908 kJ/mol
# GULP energy per Si atom -12402.774996 kJ/mol
# Density = 1.874112 g / cm^3
# Si number density = 18.783869 Si / 1000 Ang^3
#
#
#
# Elastic Constant Matrix: (Units=GPa)
#
#
# Indices 1 2 3 4 5 6 
#
# 1 79.4500 35.7089 53.1746 0.0000 0.0000 0.0000
# 2 35.7089 47.8681 42.8647 0.0000 0.0000 0.0000
# 3 53.1746 42.8647 146.6698 0.0000 0.0000 0.0000
# 4 0.0000 0.0000 0.0000 20.0867 0.0000 0.0000
# 5 0.0000 0.0000 0.0000 0.0000 40.7184 0.0000
# 6 0.0000 0.0000 0.0000 0.0000 0.0000 28.8103
#
#
#
# Elastic Compliance Matrix: (Units=1/GPa)
#
#
# Indices 1 2 3 4 5 6 
#
# 1 0.020550 -0.011728 -0.004023 0.000000 0.000000 0.000000
# 2 -0.011728 0.034989 -0.005974 0.000000 0.000000 0.000000
# 3 -0.004023 -0.005974 0.010022 0.000000 0.000000 0.000000
# 4 0.000000 0.000000 0.000000 0.049784 0.000000 0.000000
# 5 0.000000 0.000000 0.000000 0.000000 0.024559 0.000000
# 6 0.000000 0.000000 0.000000 0.000000 0.000000 0.034710
#
#
# Mechanical properties :
#
#
# Convention : Reuss Voigt Hill
#
# Bulk Modulus (GPa) = 45.22316 59.72048 52.47182
# Shear Modulus (GPa) = 22.17952 27.40574 24.79263
#
# Velocity S-wave (km/s) = 3.43997 3.82383 3.63697
# Velocity P-wave (km/s) = 6.31709 7.16646 6.75514
#
# Compressibility (1/GPa) = 0.02211256
#
# Stress axis : x y z
#
# Youngs Moduli (GPa) = 48.66189 28.58066 99.77682
#
# Poissons Ratio (x) = 0.33518 0.40139
# Poissons Ratio (y) = 0.57069 0.59604
# Poissons Ratio (z) = 0.19576 0.17073
#
# Static dielectric constant tensor:
#      x y z
#    x 3.513510 0.000000 0.000000 
#    y 0.000000 3.246510 0.000000 
#    z 0.000000 0.000000 3.604750 
# 
# 
# High freq. dielectric constant tensor:
#      x y z
#    x 1.740170 0.000000 0.000000 
#    y 0.000000 1.703680 0.000000 
#    z 0.000000 0.000000 1.738070 
# 
# From -- ./inp_files/4852.got.cif
#   From: 2010.03.12/outbox.cif.g09.slc.cpg/sg44_3_cif.got.tgz:4852.got - 2010.04.14 02:36:11.
