data_PCOD8189484
_publ_section_title
;
Structure prediction by ZEFSAII (Michael W. Deem and Ramdas Pophale) SiO2 
 PCOD8189484
Probable space group: I M M 2
;
_chemical_formula_sum "Si O2"
_cell_formula_units_Z 40
_cell_length_a 9.065415
_cell_length_b 11.441076
_cell_length_c 19.721795
_cell_angle_alpha 90.000000
_cell_angle_beta 90.000000
_cell_angle_gamma 90.000000
_cell_volume 2045.507145
_symmetry_space_group_name_H-M "I M M 2"
_symmetry_group_IT_number 44
_symmetry_cell_setting 'orthorhombic'
loop_
_space_group_symop_operation_xyz
x,y,z
-x,-y,z
-x,y,z
x,-y,z
1/2+x,1/2+y,1/2+z
1/2-x,1/2-y,1/2+z
1/2-x,1/2+y,1/2+z
1/2+x,1/2-y,1/2+z
loop_
_atom_site_type_symbol
_atom_site_label
_atom_site_fract_x
_atom_site_fract_y
_atom_site_fract_z
Si Si1 0.669119 0.133932 0.175440
Si Si2 0.326329 0.000000 0.704607
Si Si3 0.330360 0.244225 0.034105
Si Si4 0.673430 0.634972 0.410621
Si Si5 0.833272 0.000000 0.566349
Si Si6 0.174899 0.274287 0.283111
O O1 0.500000 0.157557 0.195248
O O2 0.715234 0.212965 0.111154
O O3 0.768334 0.162818 0.241077
O O4 0.696199 0.000000 0.155320
O O5 0.264918 0.113243 0.742746
O O6 0.500000 0.000000 0.707441
O O7 0.278942 0.000000 0.627620
O O8 0.500000 0.207694 0.020757
O O9 0.307032 0.383322 0.021851
O O10 0.224917 0.171844 0.985180
O O11 0.500000 0.654022 0.404469
O O12 0.717170 0.500000 0.397954
O O13 0.755525 0.719930 0.357799
O O14 0.000000 0.000000 0.595502
O O15 0.000000 0.268285 0.290477
#
# Coordination Sequence:
#
# PCOD8189484 Si02
#       6
#     8   4   8   8   4   8
#     4  10  21  38  61  89 120 155 194 237 287 343
#     4  10  20  34  58  90 118 145 184 237 290 342
#     4  10  21  38  61  88 118 153 192 237 290 346
#     4  11  24  40  60  86 116 153 197 244 292 344
#     4  10  20  36  62  90 116 149 190 237 286 344
#     4  11  22  38  61  88 118 152 191 239 293 347
#
# _framework density 19.555053000000001
#
# number of rings (size 3 to 8) (size 9 to 14) (size 15 to 20)
#    0.000    1.600    3.000    1.800    0.000    4.800 
#    1.800    0.000    0.000    0.000    0.000    0.000 
#    0.000    0.000    0.000    0.000    0.000    0.000 
#
# Total GULP energy -248077.720565 kJ/mol
# GULP energy per Si atom -12403.886028 kJ/mol
# Density = 1.951054 g / cm^3
# Si number density = 19.555053 Si / 1000 Ang^3
#
#
#
# Elastic Constant Matrix: (Units=GPa)
#
#
# Indices 1 2 3 4 5 6 
#
# 1 74.6353 37.9472 47.8223 0.0000 0.0000 0.0000
# 2 37.9472 87.2548 30.8335 0.0000 0.0000 0.0000
# 3 47.8223 30.8335 99.3300 0.0000 0.0000 0.0000
# 4 0.0000 0.0000 0.0000 32.5231 0.0000 0.0000
# 5 0.0000 0.0000 0.0000 0.0000 39.5508 0.0000
# 6 0.0000 0.0000 0.0000 0.0000 0.0000 29.3200
#
#
#
# Elastic Compliance Matrix: (Units=1/GPa)
#
#
# Indices 1 2 3 4 5 6 
#
# 1 0.022351 -0.006647 -0.008698 0.000000 0.000000 0.000000
# 2 -0.006647 0.014849 -0.001409 0.000000 0.000000 0.000000
# 3 -0.008698 -0.001409 0.014692 0.000000 0.000000 0.000000
# 4 0.000000 0.000000 0.000000 0.030747 0.000000 0.000000
# 5 0.000000 0.000000 0.000000 0.000000 0.025284 0.000000
# 6 0.000000 0.000000 0.000000 0.000000 0.000000 0.034106
#
#
# Mechanical properties :
#
#
# Convention : Reuss Voigt Hill
#
# Bulk Modulus (GPa) = 54.39176 54.93623 54.66399
# Shear Modulus (GPa) = 27.52295 29.91991 28.72143
#
# Velocity S-wave (km/s) = 3.75568 3.91581 3.83658
# Velocity P-wave (km/s) = 6.83242 6.97129 6.90220
#
# Compressibility (1/GPa) = 0.01838514
#
# Stress axis : x y z
#
# Youngs Moduli (GPa) = 44.74079 67.34240 68.06266
#
# Poissons Ratio (x) = 0.44762 0.59198
# Poissons Ratio (y) = 0.29739 0.09592
# Poissons Ratio (z) = 0.38913 0.09491
#
# Static dielectric constant tensor:
#      x y z
#    x 3.424030 0.000000 0.000000 
#    y 0.000000 3.666090 0.000000 
#    z 0.000000 0.000000 3.360840 
# 
# 
# High freq. dielectric constant tensor:
#      x y z
#    x 1.757950 0.000000 0.000000 
#    y 0.000000 1.763740 0.000000 
#    z 0.000000 0.000000 1.754070 
# 
# From -- ./inp_files/22779.got.cif
#   From: 2010.03.12/outbox.cif.g09.slc.cpg/sg44_12_cif.got.tgz:22779.got - 2010.04.14 02:36:11.
