data_PCOD8189830
_publ_section_title
;
Structure prediction by ZEFSAII (Michael W. Deem and Ramdas Pophale) SiO2 
 PCOD8189830
Probable space group: I M M 2
;
_chemical_formula_sum "Si O2"
_cell_formula_units_Z 64
_cell_length_a 9.049349
_cell_length_b 14.403957
_cell_length_c 28.058470
_cell_angle_alpha 90.000000
_cell_angle_beta 90.000000
_cell_angle_gamma 90.000000
_cell_volume 3657.321504
_symmetry_space_group_name_H-M "I M M 2"
_symmetry_group_IT_number 44
_symmetry_cell_setting 'orthorhombic'
loop_
_space_group_symop_operation_xyz
x,y,z
-x,-y,z
-x,y,z
x,-y,z
1/2+x,1/2+y,1/2+z
1/2-x,1/2-y,1/2+z
1/2-x,1/2+y,1/2+z
1/2+x,1/2-y,1/2+z
loop_
_atom_site_type_symbol
_atom_site_label
_atom_site_fract_x
_atom_site_fract_y
_atom_site_fract_z
Si Si1 0.669650 0.392981 0.564780
Si Si2 0.827354 0.392794 0.394010
Si Si3 0.326370 0.105879 0.161688
Si Si4 0.825759 0.776388 0.973994
Si Si5 0.175034 0.397507 0.286697
Si Si6 0.824892 0.726152 0.200742
Si Si7 0.327754 0.394573 0.013014
Si Si8 0.169724 0.892675 0.622596
O O1 0.500000 0.370662 0.578007
O O2 0.689811 0.500000 0.550800
O O3 0.771068 0.365629 0.609265
O O4 0.725967 0.334172 0.520053
O O5 0.788292 0.500000 0.404991
O O6 0.735765 0.324893 0.427170
O O7 0.780065 0.367416 0.339992
O O8 0.000000 0.375021 0.402216
O O9 0.500000 0.121381 0.163783
O O10 0.247302 0.171653 0.200185
O O11 0.282195 0.000000 0.173491
O O12 0.763800 0.672346 0.978333
O O13 0.000000 0.772786 0.969639
O O14 0.240127 0.500000 0.275301
O O15 0.236463 0.324443 0.248198
O O16 0.000000 0.402902 0.282997
O O17 0.777542 0.668647 0.154413
O O18 0.000000 0.736121 0.201169
O O19 0.500000 0.376453 0.004908
O O20 0.286591 0.500000 0.999375
O O21 0.285629 0.375325 0.067885
O O22 0.000000 0.863332 0.631553
O O23 0.192683 0.000000 0.635926
#
# Coordination Sequence:
#
# PCOD8189830 Si02
#       8
#     8   8   8   8   8   8   8   8
#     4   9  18  32  48  69 100 133 162 195 238 288
#     4   9  18  34  55  75  97 128 163 197 235 284
#     4  10  21  35  49  67  95 131 169 207 243 282
#     4  11  21  31  48  75 103 128 157 199 249 295
#     4   8  16  32  52  75 101 126 156 195 236 282
#     4  11  20  30  50  76 100 128 162 201 244 289
#     4   9  19  35  51  67  93 132 173 207 236 274
#     4   9  18  32  49  72 103 134 164 199 237 281
#
# _framework density 17.499146
#
# number of rings (size 3 to 8) (size 9 to 14) (size 15 to 20)
#    0.000    2.500    0.000    4.125    0.000    6.000 
#    0.000    3.750    0.000    2.250    0.000    1.750 
#    0.000    0.000    0.000    0.000    0.000    0.000 
#
# Total GULP energy -396827.911360 kJ/mol
# GULP energy per Si atom -12400.872230 kJ/mol
# Density = 1.745932 g / cm^3
# Si number density = 17.499146 Si / 1000 Ang^3
#
#
#
# Elastic Constant Matrix: (Units=GPa)
#
#
# Indices 1 2 3 4 5 6 
#
# 1 62.7441 50.5802 47.4735 0.0000 0.0000 0.0000
# 2 50.5802 121.0203 81.4923 0.0000 0.0000 0.0000
# 3 47.4735 81.4923 105.6638 0.0000 0.0000 0.0000
# 4 0.0000 0.0000 0.0000 31.6835 0.0000 0.0000
# 5 0.0000 0.0000 0.0000 0.0000 23.8827 0.0000
# 6 0.0000 0.0000 0.0000 0.0000 0.0000 28.2009
#
#
#
# Elastic Compliance Matrix: (Units=1/GPa)
#
#
# Indices 1 2 3 4 5 6 
#
# 1 0.026273 -0.006308 -0.006939 0.000000 0.000000 0.000000
# 2 -0.006308 0.018706 -0.011592 0.000000 0.000000 0.000000
# 3 -0.006939 -0.011592 0.021522 0.000000 0.000000 0.000000
# 4 0.000000 0.000000 0.000000 0.031562 0.000000 0.000000
# 5 0.000000 0.000000 0.000000 0.000000 0.041871 0.000000
# 6 0.000000 0.000000 0.000000 0.000000 0.000000 0.035460
#
#
# Mechanical properties :
#
#
# Convention : Reuss Voigt Hill
#
# Bulk Modulus (GPa) = 59.44702 72.05778 65.75240
# Shear Modulus (GPa) = 21.67496 24.07890 22.87693
#
# Velocity S-wave (km/s) = 3.52324 3.71348 3.61961
# Velocity P-wave (km/s) = 7.11309 7.72359 7.42462
#
# Compressibility (1/GPa) = 0.01682170
#
# Stress axis : x y z
#
# Youngs Moduli (GPa) = 38.06137 53.46000 46.46387
#
# Poissons Ratio (x) = 0.33724 0.32242
# Poissons Ratio (y) = 0.24010 0.53862
# Poissons Ratio (z) = 0.26411 0.61972
#
# Static dielectric constant tensor:
#      x y z
#    x 3.081120 0.000000 0.000000 
#    y 0.000000 3.414350 0.000000 
#    z 0.000000 0.000000 3.200580 
# 
# 
# High freq. dielectric constant tensor:
#      x y z
#    x 1.667180 0.000000 0.000000 
#    y 0.000000 1.681390 0.000000 
#    z 0.000000 0.000000 1.656700 
# 
# From -- ./inp_files/25115.got.cif
#   From: 2010.03.12/outbox.cif.g09.slc.cpg/sg44_13_cif.got.tgz:25115.got - 2010.04.14 02:36:11.
