data_PCOD8189274
_publ_section_title
;
Structure prediction by ZEFSAII (Michael W. Deem and Ramdas Pophale) SiO2 
 PCOD8189274
Probable space group: I M M 2
;
_chemical_formula_sum "Si O2"
_cell_formula_units_Z 48
_cell_length_a 9.122231
_cell_length_b 8.893380
_cell_length_c 31.636584
_cell_angle_alpha 90.000000
_cell_angle_beta 90.000000
_cell_angle_gamma 90.000000
_cell_volume 2566.595916
_symmetry_space_group_name_H-M "I M M 2"
_symmetry_group_IT_number 44
_symmetry_cell_setting 'orthorhombic'
loop_
_space_group_symop_operation_xyz
x,y,z
-x,-y,z
-x,y,z
x,-y,z
1/2+x,1/2+y,1/2+z
1/2-x,1/2-y,1/2+z
1/2-x,1/2+y,1/2+z
1/2+x,1/2-y,1/2+z
loop_
_atom_site_type_symbol
_atom_site_label
_atom_site_fract_x
_atom_site_fract_y
_atom_site_fract_z
Si Si1 0.327304 0.327114 0.237730
Si Si2 0.829533 0.824827 0.161106
Si Si3 0.834576 0.821142 0.583864
Si Si4 0.337158 0.821490 0.411885
Si Si5 0.174888 0.668855 0.821740
Si Si6 0.166490 0.678742 0.002822
O O1 0.500000 0.300021 0.232308
O O2 0.285481 0.500000 0.230361
O O3 0.244198 0.224084 0.204610
O O4 0.273645 0.279041 0.284474
O O5 0.759747 0.734574 0.122838
O O6 0.000000 0.785026 0.163228
O O7 0.801315 0.000000 0.154029
O O8 0.766270 0.755502 0.540393
O O9 0.000000 0.760374 0.587905
O O10 0.832020 0.000000 0.584075
O O11 0.500000 0.753601 0.413821
O O12 0.261261 0.770378 0.367389
O O13 0.263795 0.772343 0.456828
O O14 0.345463 0.000000 0.409627
O O15 0.231982 0.500000 0.811933
O O16 0.000000 0.666903 0.825466
O O17 0.164506 0.500000 0.005631
O O18 0.000000 0.739069 0.008011
#
# Coordination Sequence:
#
# PCOD8189274 Si02
#       6
#     8   8   8   8   8   8
#     4  10  20  33  51  76 103 130 162 199 241 292
#     4  11  24  39  54  72  94 123 162 205 248 296
#     4  10  20  33  51  76 103 130 162 199 241 292
#     4   7  10  18  36  64  94 125 164 204 238 273
#     4   8  13  23  42  68  97 129 165 204 242 278
#     4   8  13  23  42  68  97 129 165 204 242 278
#
# _framework density 18.701813000000001
#
# number of rings (size 3 to 8) (size 9 to 14) (size 15 to 20)
#    0.000    3.000    0.000    4.000    0.000    5.333 
#    0.000    0.000    0.000    2.000    0.000    9.333 
#    0.000    0.000    0.000    0.000    0.000    0.000 
#
# Total GULP energy -297317.169681 kJ/mol
# GULP energy per Si atom -12388.215403 kJ/mol
# Density = 1.865925 g / cm^3
# Si number density = 18.701813 Si / 1000 Ang^3
#
#
#
# Elastic Constant Matrix: (Units=GPa)
#
#
# Indices 1 2 3 4 5 6 
#
# 1 52.8041 19.5397 42.1971 0.0000 0.0000 0.0000
# 2 19.5397 19.3584 12.7117 0.0000 0.0000 0.0000
# 3 42.1971 12.7117 163.3458 0.0000 0.0000 0.0000
# 4 0.0000 0.0000 0.0000 22.9600 0.0000 0.0000
# 5 0.0000 0.0000 0.0000 0.0000 22.3041 0.0000
# 6 0.0000 0.0000 0.0000 0.0000 0.0000 16.1563
#
#
#
# Elastic Compliance Matrix: (Units=1/GPa)
#
#
# Indices 1 2 3 4 5 6 
#
# 1 0.036340 -0.032159 -0.006885 0.000000 0.000000 0.000000
# 2 -0.032159 0.082899 0.001857 0.000000 0.000000 0.000000
# 3 -0.006885 0.001857 0.007756 0.000000 0.000000 0.000000
# 4 0.000000 0.000000 0.000000 0.043554 0.000000 0.000000
# 5 0.000000 0.000000 0.000000 0.000000 0.044835 0.000000
# 6 0.000000 0.000000 0.000000 0.000000 0.000000 0.061896
#
#
# Mechanical properties :
#
#
# Convention : Reuss Voigt Hill
#
# Bulk Modulus (GPa) = 19.00457 42.71169 30.85813
# Shear Modulus (GPa) = 13.54298 23.02140 18.28219
#
# Velocity S-wave (km/s) = 2.69393 3.51233 3.12999
# Velocity P-wave (km/s) = 4.45649 6.27188 5.44044
#
# Compressibility (1/GPa) = 0.05261891
#
# Stress axis : x y z
#
# Youngs Moduli (GPa) = 27.51769 12.06294 128.93026
#
# Poissons Ratio (x) = 0.38794 0.88770
# Poissons Ratio (y) = 0.88495 -0.23936
# Poissons Ratio (z) = 0.18946 -0.02240
#
# Static dielectric constant tensor:
#      x y z
#    x 3.198290 0.000000 0.000000 
#    y 0.000000 3.055740 0.000000 
#    z 0.000000 0.000000 4.095940 
# 
# 
# High freq. dielectric constant tensor:
#      x y z
#    x 1.681350 0.000000 0.000000 
#    y 0.000000 1.683720 0.000000 
#    z 0.000000 0.000000 1.759450 
# 
# From -- ./inp_files/26872.got.cif
#   From: 2010.03.12/outbox.cif.g09.slc.cpg/sg44_14_cif.got.tgz:26872.got - 2010.04.14 02:36:11.
