data_PCOD8189668
_publ_section_title
;
Structure prediction by ZEFSAII (Michael W. Deem and Ramdas Pophale) SiO2 
 PCOD8189668
Probable space group: I M M 2
;
_chemical_formula_sum "Si O2"
_cell_formula_units_Z 40
_cell_length_a 18.571672
_cell_length_b 12.558716
_cell_length_c 8.762059
_cell_angle_alpha 90.000000
_cell_angle_beta 90.000000
_cell_angle_gamma 90.000000
_cell_volume 2043.630697
_symmetry_space_group_name_H-M "I M M 2"
_symmetry_group_IT_number 44
_symmetry_cell_setting 'orthorhombic'
loop_
_space_group_symop_operation_xyz
x,y,z
-x,-y,z
-x,y,z
x,-y,z
1/2+x,1/2+y,1/2+z
1/2-x,1/2-y,1/2+z
1/2-x,1/2+y,1/2+z
1/2+x,1/2-y,1/2+z
loop_
_atom_site_type_symbol
_atom_site_label
_atom_site_fract_x
_atom_site_fract_y
_atom_site_fract_z
Si Si1 0.918328 0.809528 0.299430
Si Si2 0.417983 0.880221 0.588757
Si Si3 0.583057 0.623226 0.134308
Si Si4 0.281964 0.379793 0.644160
Si Si5 0.320729 0.751082 0.365178
O O1 0.908797 0.687627 0.243923
O O2 0.899700 0.814851 0.477862
O O3 0.864944 0.882923 0.200756
O O4 0.000000 0.850743 0.270795
O O5 0.500000 0.876613 0.530778
O O6 0.369707 0.835760 0.452739
O O7 0.393460 0.000000 0.627545
O O8 0.500000 0.635702 0.180870
O O9 0.604003 0.500000 0.112570
O O10 0.630313 0.673170 0.266441
O O11 0.253285 0.500000 0.628758
O O12 0.275749 0.322182 0.481365
O O13 0.235358 0.315477 0.765079
#
# Coordination Sequence:
#
# PCOD8189668 Si02
#       5
#     8   8   8   8   8
#     4   9  19  36  58  83 110 142 183 227 272 326
#     4   9  18  35  58  82 110 144 180 221 270 323
#     4  10  20  36  59  85 113 144 179 224 275 324
#     4  11  23  38  57  81 111 147 184 226 276 326
#     4  11  22  38  55  81 112 145 185 228 270 326
#
# _framework density 19.573008000000002
#
# number of rings (size 3 to 8) (size 9 to 14) (size 15 to 20)
#    0.000    2.000    0.000    3.600    0.000    2.000 
#    0.000   15.000    0.000    4.800    0.000    0.000 
#    0.000    0.000    0.000    0.000    0.000    0.000 
#
# Total GULP energy -248042.674792 kJ/mol
# GULP energy per Si atom -12402.133740 kJ/mol
# Density = 1.952846 g / cm^3
# Si number density = 19.573008 Si / 1000 Ang^3
#
#
#
# Elastic Constant Matrix: (Units=GPa)
#
#
# Indices 1 2 3 4 5 6 
#
# 1 75.6277 63.7416 57.8501 0.0000 0.0000 0.0000
# 2 63.7416 150.6783 90.8770 0.0000 0.0000 0.0000
# 3 57.8501 90.8770 142.1698 0.0000 0.0000 0.0000
# 4 0.0000 0.0000 0.0000 24.9233 0.0000 0.0000
# 5 0.0000 0.0000 0.0000 0.0000 37.9555 0.0000
# 6 0.0000 0.0000 0.0000 0.0000 0.0000 25.0773
#
#
#
# Elastic Compliance Matrix: (Units=1/GPa)
#
#
# Indices 1 2 3 4 5 6 
#
# 1 0.022547 -0.006517 -0.005009 0.000000 0.000000 0.000000
# 2 -0.006517 0.012684 -0.005456 0.000000 0.000000 0.000000
# 3 -0.005009 -0.005456 0.012559 0.000000 0.000000 0.000000
# 4 0.000000 0.000000 0.000000 0.040123 0.000000 0.000000
# 5 0.000000 0.000000 0.000000 0.000000 0.026347 0.000000
# 6 0.000000 0.000000 0.000000 0.000000 0.000000 0.039877
#
#
# Mechanical properties :
#
#
# Convention : Reuss Voigt Hill
#
# Bulk Modulus (GPa) = 72.32315 88.15703 80.24009
# Shear Modulus (GPa) = 25.94575 27.99170 26.96872
#
# Velocity S-wave (km/s) = 3.64481 3.78579 3.71597
# Velocity P-wave (km/s) = 7.39889 8.01545 7.71333
#
# Compressibility (1/GPa) = 0.01382683
#
# Stress axis : x y z
#
# Youngs Moduli (GPa) = 44.35212 78.83760 79.62106
#
# Poissons Ratio (x) = 0.51380 0.39879
# Poissons Ratio (y) = 0.28905 0.43442
# Poissons Ratio (z) = 0.22214 0.43014
#
# Static dielectric constant tensor:
#      x y z
#    x 3.643490 0.000000 0.000000 
#    y 0.000000 3.602910 0.000000 
#    z 0.000000 0.000000 3.586450 
# 
# 
# High freq. dielectric constant tensor:
#      x y z
#    x 1.766900 0.000000 0.000000 
#    y 0.000000 1.764900 0.000000 
#    z 0.000000 0.000000 1.763580 
# 
# From -- ./inp_files/5621.got.cif
#   From: 2010.03.12/outbox.cif.g09.slc.cpg/sg44_3_cif.got.tgz:5621.got - 2010.04.14 02:36:11.
