data_PCOD8189576
_publ_section_title
;
Structure prediction by ZEFSAII (Michael W. Deem and Ramdas Pophale) SiO2 
 PCOD8189576
Probable space group: I M M 2
;
_chemical_formula_sum "Si O2"
_cell_formula_units_Z 48
_cell_length_a 27.857569
_cell_length_b 8.956495
_cell_length_c 10.262582
_cell_angle_alpha 90.000000
_cell_angle_beta 90.000000
_cell_angle_gamma 90.000000
_cell_volume 2560.577606
_symmetry_space_group_name_H-M "I M M 2"
_symmetry_group_IT_number 44
_symmetry_cell_setting 'orthorhombic'
loop_
_space_group_symop_operation_xyz
x,y,z
-x,-y,z
-x,y,z
x,-y,z
1/2+x,1/2+y,1/2+z
1/2-x,1/2-y,1/2+z
1/2-x,1/2+y,1/2+z
1/2+x,1/2-y,1/2+z
loop_
_atom_site_type_symbol
_atom_site_label
_atom_site_fract_x
_atom_site_fract_y
_atom_site_fract_z
Si Si1 0.554617 0.174136 0.561610
Si Si2 0.054285 0.174936 0.787211
Si Si3 0.803416 0.172732 0.912593
Si Si4 0.641179 0.325178 0.673927
Si Si5 0.308309 0.827283 0.911247
Si Si6 0.142039 0.325071 0.680504
O O1 0.500000 0.205031 0.606294
O O2 0.566370 0.256095 0.426975
O O3 0.590029 0.240145 0.670797
O O4 0.564223 0.000000 0.541587
O O5 0.090114 0.245387 0.681883
O O6 0.000000 0.212239 0.743913
O O7 0.063339 0.000000 0.798150
O O8 0.747547 0.208153 0.926143
O O9 0.824588 0.271528 0.797686
O O10 0.813148 0.000000 0.880129
O O11 0.827899 0.219171 0.047878
O O12 0.631213 0.500000 0.681754
O O13 0.670183 0.275645 0.799866
O O14 0.317454 0.000000 0.876778
O O15 0.333088 0.781579 0.045894
O O16 0.134062 0.500000 0.694198
#
# Coordination Sequence:
#
# PCOD8189576 Si02
#       6
#     8   8   8   8   8   8
#     4  10  20  35  58  87 115 146 187 233 282 337
#     4  10  20  35  57  85 115 147 186 233 284 339
#     4  10  21  38  59  83 113 150 194 240 283 335
#     4  11  22  37  59  87 117 151 191 235 285 339
#     4  10  23  40  56  80 117 156 194 236 282 337
#     4  11  22  37  59  86 115 150 192 237 286 339
#
# _framework density 18.74577
#
# number of rings (size 3 to 8) (size 9 to 14) (size 15 to 20)
#    0.000    1.667    1.667    3.000    0.000    6.000 
#    0.000    0.833    0.000    1.000    0.000    0.000 
#    0.000    0.000    0.000    0.000    0.000    0.000 
#
# Total GULP energy -297721.052298 kJ/mol
# GULP energy per Si atom -12405.043846 kJ/mol
# Density = 1.870310 g / cm^3
# Si number density = 18.745770 Si / 1000 Ang^3
#
#
#
# Elastic Constant Matrix: (Units=GPa)
#
#
# Indices 1 2 3 4 5 6 
#
# 1 139.8284 56.9012 58.4633 0.0000 0.0000 0.0000
# 2 56.9012 90.3588 54.9486 0.0000 0.0000 0.0000
# 3 58.4633 54.9486 106.6929 0.0000 0.0000 0.0000
# 4 0.0000 0.0000 0.0000 30.5002 0.0000 0.0000
# 5 0.0000 0.0000 0.0000 0.0000 -170.3161 0.0000
# 6 0.0000 0.0000 0.0000 0.0000 0.0000 35.2229
#
#
#
# Elastic Compliance Matrix: (Units=1/GPa)
#
#
# Indices 1 2 3 4 5 6 
#
# 1 0.010392 -0.004486 -0.003384 0.000000 0.000000 0.000000
# 2 -0.004486 0.018050 -0.006838 0.000000 0.000000 0.000000
# 3 -0.003384 -0.006838 0.014749 0.000000 0.000000 0.000000
# 4 0.000000 0.000000 0.000000 0.032787 0.000000 0.000000
# 5 0.000000 0.000000 0.000000 0.000000 -0.005871 0.000000
# 6 0.000000 0.000000 0.000000 0.000000 0.000000 0.028391
#
#
# Mechanical properties :
#
#
# Convention : Reuss Voigt Hill
#
# Bulk Modulus (GPa) = 72.59667 75.27847 73.93757
# Shear Modulus (GPa) = 37.73447 -9.81412 13.96018
#
# Velocity S-wave (km/s) = 4.49147 -2.29058 2.73190
# Velocity P-wave (km/s) = 8.10609 5.76620 7.03413
#
# Compressibility (1/GPa) = 0.01377474
#
# Stress axis : x y z
#
# Youngs Moduli (GPa) = 96.22672 55.40036 67.80329
#
# Poissons Ratio (x) = 0.24855 0.22944
# Poissons Ratio (y) = 0.43171 0.46363
# Poissons Ratio (z) = 0.32562 0.37882
#
# Static dielectric constant tensor:
#      x y z
#    x 3.799750 0.000000 0.000000 
#    y 0.000000 3.478000 0.000000 
#    z 0.000000 0.000000 3.306400 
# 
# 
# High freq. dielectric constant tensor:
#      x y z
#    x 1.747780 0.000000 0.000000 
#    y 0.000000 1.737890 0.000000 
#    z 0.000000 0.000000 1.709160 
# 
# From -- ./inp_files/4879.got.cif
#   From: 2010.03.12/outbox.cif.g09.slc.cpg/sg44_3_cif.got.tgz:4879.got - 2010.04.14 02:36:11.
