data_PCOD8189825
_publ_section_title
;
Structure prediction by ZEFSAII (Michael W. Deem and Ramdas Pophale) SiO2 
 PCOD8189825
Probable space group: I M M 2
;
_chemical_formula_sum "Si O2"
_cell_formula_units_Z 48
_cell_length_a 8.905771
_cell_length_b 16.806814
_cell_length_c 16.820365
_cell_angle_alpha 90.000000
_cell_angle_beta 90.000000
_cell_angle_gamma 90.000000
_cell_volume 2517.632482
_symmetry_space_group_name_H-M "I M M 2"
_symmetry_group_IT_number 44
_symmetry_cell_setting 'orthorhombic'
loop_
_space_group_symop_operation_xyz
x,y,z
-x,-y,z
-x,y,z
x,-y,z
1/2+x,1/2+y,1/2+z
1/2-x,1/2-y,1/2+z
1/2-x,1/2+y,1/2+z
1/2+x,1/2-y,1/2+z
loop_
_atom_site_type_symbol
_atom_site_label
_atom_site_fract_x
_atom_site_fract_y
_atom_site_fract_z
Si Si1 0.674605 0.360371 0.227650
Si Si2 0.669789 0.820775 0.263033
Si Si3 0.321517 0.320038 0.054423
Si Si4 0.322485 0.410945 0.901548
Si Si5 0.823320 0.000000 0.994513
Si Si6 0.174120 0.643839 0.582193
Si Si7 0.676987 0.000000 0.822830
O O1 0.500000 0.384725 0.233346
O O2 0.701339 0.273103 0.263518
O O3 0.731669 0.361502 0.136232
O O4 0.773703 0.421504 0.276430
O O5 0.500000 0.837481 0.290595
O O6 0.781941 0.862394 0.323385
O O7 0.697017 0.858404 0.176754
O O8 0.500000 0.318792 0.055892
O O9 0.267834 0.228630 0.048982
O O10 0.254775 0.368286 0.979867
O O11 0.500000 0.413586 0.909012
O O12 0.256032 0.500000 0.896623
O O13 0.747259 0.000000 0.909375
O O14 0.776593 0.922535 0.043237
O O15 0.000000 0.000000 0.982304
O O16 0.000000 0.628734 0.560430
O O17 0.500000 0.000000 0.831786
#
# Coordination Sequence:
#
# PCOD8189825 Si02
#       7
#     8   8   8   8   4   8   4
#     4   9  19  39  64  86 111 148 195 240 287 343
#     4   9  20  38  60  85 115 152 192 236 289 343
#     4   8  17  36  62  86 111 150 192 234 285 340
#     4  10  21  34  54  87 119 150 193 235 279 339
#     4  12  26  40  58  87 118 149 192 243 290 339
#     4   9  19  39  62  84 112 150 194 235 287 348
#     4  12  26  40  58  87 120 153 190 235 290 349
#
# _framework density 19.065531
#
# number of rings (size 3 to 8) (size 9 to 14) (size 15 to 20)
#    0.000    2.500    0.000    3.500    4.667    1.667 
#    0.000    3.333    0.000    0.000    0.000    0.000 
#    0.000    0.000    0.000    0.000    0.000    0.000 
#
# Total GULP energy -297608.659925 kJ/mol
# GULP energy per Si atom -12400.360830 kJ/mol
# Density = 1.902214 g / cm^3
# Si number density = 19.065531 Si / 1000 Ang^3
#
#
#
# Elastic Constant Matrix: (Units=GPa)
#
#
# Indices 1 2 3 4 5 6 
#
# 1 75.7013 50.3801 44.9939 0.0000 0.0000 0.0000
# 2 50.3801 127.4678 83.4447 0.0000 0.0000 0.0000
# 3 44.9939 83.4447 123.8978 0.0000 0.0000 0.0000
# 4 0.0000 0.0000 0.0000 31.1645 0.0000 0.0000
# 5 0.0000 0.0000 0.0000 0.0000 30.8594 0.0000
# 6 0.0000 0.0000 0.0000 0.0000 0.0000 28.6872
#
#
#
# Elastic Compliance Matrix: (Units=1/GPa)
#
#
# Indices 1 2 3 4 5 6 
#
# 1 0.018620 -0.005245 -0.003229 0.000000 0.000000 0.000000
# 2 -0.005245 0.015509 -0.008541 0.000000 0.000000 0.000000
# 3 -0.003229 -0.008541 0.014996 0.000000 0.000000 0.000000
# 4 0.000000 0.000000 0.000000 0.032088 0.000000 0.000000
# 5 0.000000 0.000000 0.000000 0.000000 0.032405 0.000000
# 6 0.000000 0.000000 0.000000 0.000000 0.000000 0.034859
#
#
# Mechanical properties :
#
#
# Convention : Reuss Voigt Hill
#
# Bulk Modulus (GPa) = 66.24752 76.07826 71.16289
# Shear Modulus (GPa) = 26.66121 28.02544 27.34332
#
# Velocity S-wave (km/s) = 3.74357 3.83816 3.79116
# Velocity P-wave (km/s) = 7.31495 7.72218 7.52132
#
# Compressibility (1/GPa) = 0.01509490
#
# Stress axis : x y z
#
# Youngs Moduli (GPa) = 53.70576 64.47778 66.68511
#
# Poissons Ratio (x) = 0.33821 0.21534
# Poissons Ratio (y) = 0.28171 0.56953
# Poissons Ratio (z) = 0.17342 0.55067
#
# Static dielectric constant tensor:
#      x y z
#    x 3.174740 0.000000 0.000000 
#    y 0.000000 3.653210 0.000000 
#    z 0.000000 0.000000 3.631250 
# 
# 
# High freq. dielectric constant tensor:
#      x y z
#    x 1.712250 0.000000 0.000000 
#    y 0.000000 1.753600 0.000000 
#    z 0.000000 0.000000 1.751600 
# 
# From -- ./inp_files/16206.got.cif
#   From: 2010.03.12/outbox.cif.g09.slc.cpg/sg44_9_cif.got.tgz:16206.got - 2010.04.14 02:36:11.
