data_PCOD8189713
_publ_section_title
;
Structure prediction by ZEFSAII (Michael W. Deem and Ramdas Pophale) SiO2 
 PCOD8189713
Probable space group: I M M 2
;
_chemical_formula_sum "Si O2"
_cell_formula_units_Z 30
_cell_length_a 11.189350
_cell_length_b 7.481189
_cell_length_c 18.131747
_cell_angle_alpha 90.000000
_cell_angle_beta 90.000000
_cell_angle_gamma 90.000000
_cell_volume 1517.802053
_symmetry_space_group_name_H-M "I M M 2"
_symmetry_group_IT_number 44
_symmetry_cell_setting 'orthorhombic'
loop_
_space_group_symop_operation_xyz
x,y,z
-x,-y,z
-x,y,z
x,-y,z
1/2+x,1/2+y,1/2+z
1/2-x,1/2-y,1/2+z
1/2-x,1/2+y,1/2+z
1/2+x,1/2-y,1/2+z
loop_
_atom_site_type_symbol
_atom_site_label
_atom_site_fract_x
_atom_site_fract_y
_atom_site_fract_z
Si Si1 0.761135 0.500000 0.769460
Si Si2 0.500000 0.500000 0.736012
Si Si3 0.500000 0.206544 0.614953
Si Si4 0.264148 0.794956 0.526335
Si Si5 0.362450 0.294097 0.371214
Si Si6 0.136535 0.500000 0.610166
O O1 0.618971 0.500000 0.786364
O O2 0.821188 0.677549 0.801948
O O3 0.779384 0.500000 0.681715
O O4 0.500000 0.319788 0.688757
O O5 0.613531 0.257761 0.566237
O O6 0.500000 0.000000 0.638210
O O7 0.279438 0.755858 0.440025
O O8 0.159807 0.674555 0.560339
O O9 0.228610 0.000000 0.538846
O O10 0.500000 0.249678 0.390370
O O11 0.346033 0.500000 0.349028
O O12 0.000000 0.500000 0.636148
#
# Coordination Sequence:
#
# PCOD8189713 Si02
#       6
#     4   2   4   8   8   4
#     4  12  26  44  64  98 137 173 213 268 329 385
#     4  12  24  44  68  92 136 172 212 266 330 390
#     4  10  20  36  70 104 122 154 217 282 320 374
#     4  11  21  39  70 102 126 161 221 275 320 380
#     4  11  23  40  68  99 130 168 218 270 322 382
#     4  12  26  44  66  94 137 177 213 267 326 390
#
# _framework density 19.765422999999998
#
# number of rings (size 3 to 8) (size 9 to 14) (size 15 to 20)
#    0.000    0.800    6.667    1.200    0.000    2.667 
#    2.400    0.000    0.000    0.000    0.000    0.000 
#    0.000    0.000    0.000    0.000    0.000    0.000 
#
# Total GULP energy -186097.253830 kJ/mol
# GULP energy per Si atom -12406.483589 kJ/mol
# Density = 1.972044 g / cm^3
# Si number density = 19.765423 Si / 1000 Ang^3
#
#
#
# Elastic Constant Matrix: (Units=GPa)
#
#
# Indices 1 2 3 4 5 6 
#
# 1 86.5991 36.3717 16.1563 0.0000 0.0000 0.0000
# 2 36.3717 128.1697 40.7949 0.0000 0.0000 0.0000
# 3 16.1563 40.7949 87.5329 0.0000 0.0000 0.0000
# 4 0.0000 0.0000 0.0000 28.6344 0.0000 0.0000
# 5 0.0000 0.0000 0.0000 0.0000 34.5695 0.0000
# 6 0.0000 0.0000 0.0000 0.0000 0.0000 26.8255
#
#
#
# Elastic Compliance Matrix: (Units=1/GPa)
#
#
# Indices 1 2 3 4 5 6 
#
# 1 0.013159 -0.003477 -0.000808 0.000000 0.000000 0.000000
# 2 -0.003477 0.010080 -0.004056 0.000000 0.000000 0.000000
# 3 -0.000808 -0.004056 0.013464 0.000000 0.000000 0.000000
# 4 0.000000 0.000000 0.000000 0.034923 0.000000 0.000000
# 5 0.000000 0.000000 0.000000 0.000000 0.028927 0.000000
# 6 0.000000 0.000000 0.000000 0.000000 0.000000 0.037278
#
#
# Mechanical properties :
#
#
# Convention : Reuss Voigt Hill
#
# Bulk Modulus (GPa) = 49.95050 54.32749 52.13899
# Shear Modulus (GPa) = 31.02010 31.93780 31.47895
#
# Velocity S-wave (km/s) = 3.96588 4.02411 3.99510
# Velocity P-wave (km/s) = 6.80422 7.00979 6.90777
#
# Compressibility (1/GPa) = 0.02001982
#
# Stress axis : x y z
#
# Youngs Moduli (GPa) = 75.99634 99.20867 74.27339
#
# Poissons Ratio (x) = 0.34493 0.06004
# Poissons Ratio (y) = 0.26423 0.30125
# Poissons Ratio (z) = 0.06143 0.40239
#
# Static dielectric constant tensor:
#      x y z
#    x 3.491650 0.000000 0.000000 
#    y 0.000000 3.784380 0.000000 
#    z 0.000000 0.000000 3.399500 
# 
# 
# High freq. dielectric constant tensor:
#      x y z
#    x 1.759150 0.000000 0.000000 
#    y 0.000000 1.788580 0.000000 
#    z 0.000000 0.000000 1.762770 
# 
# From -- ./inp_files/17303.got.cif
#   From: 2010.03.12/outbox.cif.g09.slc.cpg/sg44_9_cif.got.tgz:17303.got - 2010.04.14 02:36:11.
