data_PCOD8189524
_publ_section_title
;
Structure prediction by ZEFSAII (Michael W. Deem and Ramdas Pophale) SiO2 
 PCOD8189524
Probable space group: I M M 2
;
_chemical_formula_sum "Si O2"
_cell_formula_units_Z 40
_cell_length_a 8.373177
_cell_length_b 25.712285
_cell_length_c 9.688244
_cell_angle_alpha 90.000000
_cell_angle_beta 90.000000
_cell_angle_gamma 90.000000
_cell_volume 2085.816089
_symmetry_space_group_name_H-M "I M M 2"
_symmetry_group_IT_number 44
_symmetry_cell_setting 'orthorhombic'
loop_
_space_group_symop_operation_xyz
x,y,z
-x,-y,z
-x,y,z
x,-y,z
1/2+x,1/2+y,1/2+z
1/2-x,1/2-y,1/2+z
1/2-x,1/2+y,1/2+z
1/2+x,1/2-y,1/2+z
loop_
_atom_site_type_symbol
_atom_site_label
_atom_site_fract_x
_atom_site_fract_y
_atom_site_fract_z
Si Si1 0.185717 0.285808 0.971690
Si Si2 0.187865 0.139583 0.250056
Si Si3 0.316695 0.826579 0.971690
Si Si4 0.312134 0.639583 0.193323
Si Si5 0.810521 0.942155 0.471690
O O1 0.268699 0.308576 0.835017
O O2 0.205296 0.224020 0.971690
O O3 0.000000 0.300283 0.971686
O O4 0.268692 0.308575 0.108368
O O5 0.245801 0.088963 0.335624
O O6 0.000000 0.138799 0.222969
O O7 0.279373 0.138546 0.105242
O O8 0.500000 0.809147 0.971686
O O9 0.279367 0.861455 0.838140
O O10 0.500000 0.638800 0.220401
O O11 0.254195 0.588964 0.107753
O O12 0.000000 0.945067 0.471692
O O13 0.735147 0.000000 0.471691
#
# Coordination Sequence:
#
# PCOD8189524 Si02
#       5
#     8   8   8   8   8
#     4  11  21  35  54  77 108 144 180 213 256 311
#     4  10  20  35  55  80 108 138 177 218 259 309
#     4  12  23  35  51  75 110 145 178 216 262 309
#     4  10  20  35  55  80 108 138 177 218 259 309
#     4   8  16  34  60  83 101 128 171 220 264 311
#
# _framework density 19.177147000000001
#
# number of rings (size 3 to 8) (size 9 to 14) (size 15 to 20)
#    0.000    1.800    0.000    7.200    0.000    0.000 
#    0.000    1.000    0.000   27.600    0.000    0.000 
#    0.000    0.000    0.000    0.000    0.000    0.000 
#
# Total GULP energy -248072.071159 kJ/mol
# GULP energy per Si atom -12403.603558 kJ/mol
# Density = 1.913350 g / cm^3
# Si number density = 19.177147 Si / 1000 Ang^3
#
#
#
# Elastic Constant Matrix: (Units=GPa)
#
#
# Indices 1 2 3 4 5 6 
#
# 1 66.0580 8.1769 22.6784 0.0000 -0.0006 0.0000
# 2 8.1769 124.7583 57.7453 0.0001 -0.0006 0.0000
# 3 22.6784 57.7453 166.7196 -0.0005 -0.0035 -0.0004
# 4 0.0000 0.0001 -0.0005 10.8833 -0.0003 0.0000
# 5 -0.0006 -0.0006 -0.0035 -0.0003 29.1160 0.0000
# 6 0.0000 0.0000 -0.0004 0.0000 0.0000 17.9575
#
#
#
# Elastic Compliance Matrix: (Units=1/GPa)
#
#
# Indices 1 2 3 4 5 6 
#
# 1 0.015880 -0.000049 -0.002143 0.000000 0.000000 0.000000
# 2 -0.000049 0.009546 -0.003300 0.000000 0.000000 0.000000
# 3 -0.002143 -0.003300 0.007433 0.000000 0.000001 0.000000
# 4 0.000000 0.000000 0.000000 0.091884 0.000001 0.000000
# 5 0.000000 0.000000 0.000001 0.000001 0.034345 0.000000
# 6 0.000000 0.000000 0.000000 0.000000 0.000000 0.055687
#
#
# Mechanical properties :
#
#
# Convention : Reuss Voigt Hill
#
# Bulk Modulus (GPa) = 45.71415 59.41525 52.56470
# Shear Modulus (GPa) = 21.45465 29.52039 25.48752
#
# Velocity S-wave (km/s) = 3.34842 3.92771 3.64958
# Velocity P-wave (km/s) = 6.23208 7.18462 6.72524
#
# Compressibility (1/GPa) = 0.02187507
#
# Stress axis : x y z
#
# Youngs Moduli (GPa) = 62.97214 104.75582 134.54369
#
# Poissons Ratio (x) = 0.00511 0.28835
# Poissons Ratio (y) = 0.00307 0.44396
# Poissons Ratio (z) = 0.13496 0.34567
#
# Static dielectric constant tensor:
#      x y z
#    x 3.355180 0.000000 0.000000 
#    y 0.000000 3.538850 0.000000 
#    z 0.000000 0.000000 3.653460 
# 
# 
# High freq. dielectric constant tensor:
#      x y z
#    x 1.742150 0.000000 0.000000 
#    y 0.000000 1.722840 0.000000 
#    z 0.000000 0.000000 1.753360 
# 
# From -- ./inp_files/4420.got.cif
#   From: 2010.03.12/outbox.cif.g09.slc.cpg/sg44_3_cif.got.tgz:4420.got - 2010.04.14 02:36:11.
