data_PCOD8189795
_publ_section_title
;
Structure prediction by ZEFSAII (Michael W. Deem and Ramdas Pophale) SiO2 
 PCOD8189795
Probable space group: I M M 2
;
_chemical_formula_sum "Si O2"
_cell_formula_units_Z 48
_cell_length_a 9.855276
_cell_length_b 9.188697
_cell_length_c 27.694078
_cell_angle_alpha 90.000000
_cell_angle_beta 90.000000
_cell_angle_gamma 90.000000
_cell_volume 2507.896638
_symmetry_space_group_name_H-M "I M M 2"
_symmetry_group_IT_number 44
_symmetry_cell_setting 'orthorhombic'
loop_
_space_group_symop_operation_xyz
x,y,z
-x,-y,z
-x,y,z
x,-y,z
1/2+x,1/2+y,1/2+z
1/2-x,1/2-y,1/2+z
1/2-x,1/2+y,1/2+z
1/2+x,1/2-y,1/2+z
loop_
_atom_site_type_symbol
_atom_site_label
_atom_site_fract_x
_atom_site_fract_y
_atom_site_fract_z
Si Si1 0.000000 0.159025 0.301911
Si Si2 0.000000 0.669712 0.395363
Si Si3 0.727527 0.666211 0.949618
Si Si4 0.500000 0.326832 0.292596
Si Si5 0.657514 0.669632 0.058454
Si Si6 0.656276 0.327634 0.635425
Si Si7 0.235214 0.334954 0.738852
Si Si8 0.000000 0.666013 0.894220
O O1 0.000000 0.288381 0.339620
O O2 0.129096 0.173258 0.268825
O O3 0.000000 0.000000 0.327836
O O4 0.867007 0.728879 0.420022
O O5 0.000000 0.500000 0.400337
O O6 0.682322 0.500000 0.940875
O O7 0.875810 0.697794 0.929512
O O8 0.716676 0.704282 0.005756
O O9 0.500000 0.500000 0.295384
O O10 0.370093 0.274063 0.263012
O O11 0.500000 0.266824 0.347155
O O12 0.500000 0.720059 0.062043
O O13 0.669251 0.500000 0.070846
O O14 0.753142 0.758267 0.093906
O O15 0.500000 0.270997 0.633398
O O16 0.657254 0.500000 0.629446
O O17 0.728384 0.281445 0.685214
O O18 0.177015 0.500000 0.738475
O O19 0.000000 0.500000 0.875249
#
# Coordination Sequence:
#
# PCOD8189795 Si02
#       8
#     4   4   8   4   8   8   8   4
#     4  10  20  38  65  88 112 152 202 248 292 348
#     4  12  24  36  57  90 123 154 192 242 305 362
#     4  10  21  41  64  86 116 158 205 249 288 348
#     4  12  26  40  57  88 129 162 194 244 307 358
#     4  10  22  40  63  91 123 157 198 246 298 355
#     4  10  22  41  64  92 122 154 197 248 301 355
#     4  10  21  41  65  87 115 157 206 247 287 351
#     4  10  22  40  65  90 114 156 212 250 290 350
#
# _framework density 19.139545999999999
#
# number of rings (size 3 to 8) (size 9 to 14) (size 15 to 20)
#    0.000    1.667    1.667    2.500    2.333    7.333 
#    0.000    0.000    0.000    0.000    0.000    0.000 
#    0.000    0.000    0.000    0.000    0.000    0.000 
#
# Total GULP energy -297618.002927 kJ/mol
# GULP energy per Si atom -12400.750122 kJ/mol
# Density = 1.909598 g / cm^3
# Si number density = 19.139546 Si / 1000 Ang^3
#
#
#
# Elastic Constant Matrix: (Units=GPa)
#
#
# Indices 1 2 3 4 5 6 
#
# 1 141.7558 51.4536 65.6340 0.0000 0.0000 0.0000
# 2 51.4536 66.1680 48.1826 0.0000 0.0000 0.0000
# 3 65.6340 48.1826 137.9836 0.0000 0.0000 0.0000
# 4 0.0000 0.0000 0.0000 34.8780 0.0000 0.0000
# 5 0.0000 0.0000 0.0000 0.0000 -47.4977 0.0000
# 6 0.0000 0.0000 0.0000 0.0000 0.0000 24.9727
#
#
#
# Elastic Compliance Matrix: (Units=1/GPa)
#
#
# Indices 1 2 3 4 5 6 
#
# 1 0.010634 -0.006150 -0.002911 0.000000 0.000000 0.000000
# 2 -0.006150 0.023823 -0.005393 0.000000 0.000000 0.000000
# 3 -0.002911 -0.005393 0.010515 0.000000 0.000000 0.000000
# 4 0.000000 0.000000 0.000000 0.028671 0.000000 0.000000
# 5 0.000000 0.000000 0.000000 0.000000 -0.021054 0.000000
# 6 0.000000 0.000000 0.000000 0.000000 0.000000 0.040044
#
#
# Mechanical properties :
#
#
# Convention : Reuss Voigt Hill
#
# Bulk Modulus (GPa) = 62.25129 75.16087 68.70608
# Shear Modulus (GPa) = 39.40216 14.51309 26.95763
#
# Velocity S-wave (km/s) = 4.54219 2.75667 3.75704
# Velocity P-wave (km/s) = 7.75269 7.03474 7.40242
#
# Compressibility (1/GPa) = 0.01606392
#
# Stress axis : x y z
#
# Youngs Moduli (GPa) = 94.03453 41.97690 95.10042
#
# Poissons Ratio (x) = 0.25815 0.27683
# Poissons Ratio (y) = 0.57829 0.51291
# Poissons Ratio (z) = 0.27373 0.22640
#
# Static dielectric constant tensor:
#      x y z
#    x 3.711780 0.000000 0.000000 
#    y 0.000000 3.451580 0.000000 
#    z 0.000000 0.000000 3.795090 
# 
# 
# High freq. dielectric constant tensor:
#      x y z
#    x 1.762170 0.000000 0.000000 
#    y 0.000000 1.730890 0.000000 
#    z 0.000000 0.000000 1.758640 
# 
# From -- ./inp_files/26995.got.cif
#   From: 2010.03.12/outbox.cif.g09.slc.cpg/sg44_14_cif.got.tgz:26995.got - 2010.04.14 02:36:11.
