data_PCOD8189105
_publ_section_title
;
Structure prediction by ZEFSAII (Michael W. Deem and Ramdas Pophale) SiO2 
 PCOD8189105
Probable space group: I M M 2
;
_chemical_formula_sum "Si O2"
_cell_formula_units_Z 64
_cell_length_a 18.433899
_cell_length_b 9.204260
_cell_length_c 26.010883
_cell_angle_alpha 90.000000
_cell_angle_beta 90.000000
_cell_angle_gamma 90.000000
_cell_volume 4413.276902
_symmetry_space_group_name_H-M "I M M 2"
_symmetry_group_IT_number 44
_symmetry_cell_setting 'orthorhombic'
loop_
_space_group_symop_operation_xyz
x,y,z
-x,-y,z
-x,y,z
x,-y,z
1/2+x,1/2+y,1/2+z
1/2-x,1/2-y,1/2+z
1/2-x,1/2+y,1/2+z
1/2+x,1/2-y,1/2+z
loop_
_atom_site_type_symbol
_atom_site_label
_atom_site_fract_x
_atom_site_fract_y
_atom_site_fract_z
Si Si1 0.208280 0.332375 0.318290
Si Si2 0.345913 0.668246 0.962816
Si Si3 0.654985 0.335010 0.258642
Si Si4 0.082744 0.830429 0.866711
Si Si5 0.916194 0.829116 0.357620
Si Si6 0.916540 0.670427 0.667700
Si Si7 0.415340 0.331890 0.065378
Si Si8 0.792436 0.668919 0.906913
O O1 0.200376 0.500000 0.335035
O O2 0.257775 0.321388 0.266980
O O3 0.128887 0.257769 0.313317
O O4 0.249873 0.241785 0.360839
O O5 0.366389 0.500000 0.965589
O O6 0.389861 0.730010 0.913489
O O7 0.258667 0.691829 0.957161
O O8 0.373005 0.737210 0.016374
O O9 0.634318 0.500000 0.243438
O O10 0.611609 0.290344 0.310112
O O11 0.632799 0.227049 0.213794
O O12 0.128932 0.745673 0.910626
O O13 0.000000 0.779568 0.871541
O O14 0.092088 0.000000 0.877388
O O15 0.000000 0.791738 0.349800
O O16 0.900512 0.000000 0.351899
O O17 0.905653 0.500000 0.662319
O O18 0.889687 0.743778 0.615166
O O19 0.000000 0.712024 0.678936
O O20 0.500000 0.310458 0.054645
O O21 0.395666 0.500000 0.074700
O O22 0.803891 0.500000 0.895270
#
# Coordination Sequence:
#
# PCOD8189105 Si02
#       8
#     8   8   8   8   8   8   8   8
#     4   9  17  28  40  56  79 105 134 166 198 234
#     4   8  14  25  41  59  78 104 137 167 193 225
#     4   9  17  29  43  56  73 103 139 167 193 230
#     4   9  17  28  41  58  81 107 135 166 197 233
#     4   9  16  26  41  61  84 108 135 166 197 231
#     4  10  20  30  39  56  81 103 127 165 206 237
#     4   9  16  27  43  58  74 102 137 166 192 227
#     4   9  16  26  40  58  80 104 132 166 200 234
#
# _framework density 14.501696000000001
#
# number of rings (size 3 to 8) (size 9 to 14) (size 15 to 20)
#    0.000    3.000    0.000    3.375    0.000    5.750 
#    0.000    3.125    0.000    3.000    0.000    0.000 
#    0.000    1.000    0.000    9.500    0.000    5.500 
#
# Total GULP energy -396567.071979 kJ/mol
# GULP energy per Si atom -12392.720999 kJ/mol
# Density = 1.446869 g / cm^3
# Si number density = 14.501696 Si / 1000 Ang^3
#
#
#
# Elastic Constant Matrix: (Units=GPa)
#
#
# Indices 1 2 3 4 5 6 
#
# 1 108.8762 45.4546 43.4447 0.0000 0.0000 0.0000
# 2 45.4546 58.6557 34.8671 0.0000 0.0000 0.0000
# 3 43.4447 34.8671 62.8505 0.0000 0.0000 0.0000
# 4 0.0000 0.0000 0.0000 16.6698 0.0000 0.0000
# 5 0.0000 0.0000 0.0000 0.0000 22.0841 0.0000
# 6 0.0000 0.0000 0.0000 0.0000 0.0000 25.7803
#
#
#
# Elastic Compliance Matrix: (Units=1/GPa)
#
#
# Indices 1 2 3 4 5 6 
#
# 1 0.014870 -0.008077 -0.005798 0.000000 0.000000 0.000000
# 2 -0.008077 0.029824 -0.010962 0.000000 0.000000 0.000000
# 3 -0.005798 -0.010962 0.026000 0.000000 0.000000 0.000000
# 4 0.000000 0.000000 0.000000 0.059989 0.000000 0.000000
# 5 0.000000 0.000000 0.000000 0.000000 0.045282 0.000000
# 6 0.000000 0.000000 0.000000 0.000000 0.000000 0.038789
#
#
# Mechanical properties :
#
#
# Convention : Reuss Voigt Hill
#
# Bulk Modulus (GPa) = 47.57390 53.10169 50.33780
# Shear Modulus (GPa) = 18.42058 20.01458 19.21758
#
# Velocity S-wave (km/s) = 3.56790 3.71907 3.64427
# Velocity P-wave (km/s) = 7.06047 7.42557 7.24532
#
# Compressibility (1/GPa) = 0.02101993
#
# Stress axis : x y z
#
# Youngs Moduli (GPa) = 67.24737 33.52987 38.46139
#
# Poissons Ratio (x) = 0.27082 0.22301
# Poissons Ratio (y) = 0.54316 0.42162
# Poissons Ratio (z) = 0.38991 0.36756
#
# Static dielectric constant tensor:
#      x y z
#    x 3.217390 0.000000 0.000000 
#    y 0.000000 2.862970 0.000000 
#    z 0.000000 0.000000 2.707270 
# 
# 
# High freq. dielectric constant tensor:
#      x y z
#    x 1.549160 0.000000 0.000000 
#    y 0.000000 1.553600 0.000000 
#    z 0.000000 0.000000 1.515370 
# 
# From -- ./inp_files/24473.got.cif
#   From: 2010.03.12/outbox.cif.g09.slc.cpg/sg44_13_cif.got.tgz:24473.got - 2010.04.14 02:36:11.
