data_PCOD8189505
_publ_section_title
;
Structure prediction by ZEFSAII (Michael W. Deem and Ramdas Pophale) SiO2 
 PCOD8189505
Probable space group: I M M 2
;
_chemical_formula_sum "Si O2"
_cell_formula_units_Z 64
_cell_length_a 20.782019
_cell_length_b 8.835580
_cell_length_c 19.549994
_cell_angle_alpha 90.000000
_cell_angle_beta 90.000000
_cell_angle_gamma 90.000000
_cell_volume 3589.793191
_symmetry_space_group_name_H-M "I M M 2"
_symmetry_group_IT_number 44
_symmetry_cell_setting 'orthorhombic'
loop_
_space_group_symop_operation_xyz
x,y,z
-x,-y,z
-x,y,z
x,-y,z
1/2+x,1/2+y,1/2+z
1/2-x,1/2-y,1/2+z
1/2-x,1/2+y,1/2+z
1/2+x,1/2-y,1/2+z
loop_
_atom_site_type_symbol
_atom_site_label
_atom_site_fract_x
_atom_site_fract_y
_atom_site_fract_z
Si Si1 0.929433 0.820309 0.445470
Si Si2 0.189467 0.820369 0.531685
Si Si3 0.227989 0.327346 0.817103
Si Si4 0.307019 0.323921 0.451575
Si Si5 0.378135 0.325861 0.803269
Si Si6 0.631608 0.823068 0.665349
Si Si7 0.427837 0.326215 0.540563
Si Si8 0.730990 0.821676 0.164002
O O1 0.874005 0.754028 0.494377
O O2 0.919337 0.766898 0.367394
O O3 0.000000 0.764575 0.470103
O O4 0.924666 0.000000 0.446988
O O5 0.253305 0.766782 0.493166
O O6 0.185438 0.759215 0.609036
O O7 0.190057 0.000000 0.532364
O O8 0.208402 0.500000 0.831855
O O9 0.192306 0.222170 0.871886
O O10 0.304091 0.306385 0.824312
O O11 0.206916 0.279135 0.740310
O O12 0.291223 0.500000 0.458393
O O13 0.377168 0.283012 0.481373
O O14 0.392824 0.500000 0.784537
O O15 0.397441 0.223179 0.738793
O O16 0.581341 0.779575 0.606611
O O17 0.696554 0.731524 0.651208
O O18 0.646583 0.000000 0.663849
O O19 0.500000 0.298779 0.512093
O O20 0.418229 0.500000 0.563147
O O21 0.729561 0.000000 0.152486
#
# Coordination Sequence:
#
# PCOD8189505 Si02
#       8
#     8   8   8   8   8   8   8   8
#     4   9  18  33  53  77 106 143 183 216 257 315
#     4  11  20  33  55  82 108 137 176 225 269 307
#     4   9  18  33  53  77 106 136 172 218 263 311
#     4  11  21  33  55  81 105 136 176 220 265 317
#     4   9  17  32  51  73 105 145 183 215 255 311
#     4  11  21  32  50  78 109 140 176 220 265 311
#     4  10  22  39  55  73 103 145 183 216 262 321
#     4  10  20  35  54  78 107 141 178 217 266 320
#
# _framework density 17.828326000000001
#
# number of rings (size 3 to 8) (size 9 to 14) (size 15 to 20)
#    0.000    2.000    2.500    3.000    0.000    3.750 
#    0.000    1.250    0.000    3.750    0.000    5.250 
#    0.000    0.000    0.000    0.000    0.000    0.000 
#
# Total GULP energy -396806.937906 kJ/mol
# GULP energy per Si atom -12400.216810 kJ/mol
# Density = 1.778775 g / cm^3
# Si number density = 17.828326 Si / 1000 Ang^3
#
#
#
# Elastic Constant Matrix: (Units=GPa)
#
#
# Indices 1 2 3 4 5 6 
#
# 1 101.0155 32.2379 64.0897 0.0000 0.0000 0.0000
# 2 32.2379 66.0932 41.8448 0.0000 0.0000 0.0000
# 3 64.0897 41.8448 125.5355 0.0000 0.0000 0.0000
# 4 0.0000 0.0000 0.0000 33.8668 0.0000 0.0000
# 5 0.0000 0.0000 0.0000 0.0000 24.9590 0.0000
# 6 0.0000 0.0000 0.0000 0.0000 0.0000 17.5181
#
#
#
# Elastic Compliance Matrix: (Units=1/GPa)
#
#
# Indices 1 2 3 4 5 6 
#
# 1 0.015145 -0.003159 -0.006679 0.000000 0.000000 0.000000
# 2 -0.003159 0.019836 -0.004999 0.000000 0.000000 0.000000
# 3 -0.006679 -0.004999 0.013042 0.000000 0.000000 0.000000
# 4 0.000000 0.000000 0.000000 0.029527 0.000000 0.000000
# 5 0.000000 0.000000 0.000000 0.000000 0.040066 0.000000
# 6 0.000000 0.000000 0.000000 0.000000 0.000000 0.057084
#
#
# Mechanical properties :
#
#
# Convention : Reuss Voigt Hill
#
# Bulk Modulus (GPa) = 54.49865 63.22101 58.85983
# Shear Modulus (GPa) = 23.75398 25.56691 24.66044
#
# Velocity S-wave (km/s) = 3.65413 3.79101 3.72320
# Velocity P-wave (km/s) = 6.95978 7.39596 7.18118
#
# Compressibility (1/GPa) = 0.01834908
#
# Stress axis : x y z
#
# Youngs Moduli (GPa) = 66.02780 50.41346 76.67370
#
# Poissons Ratio (x) = 0.15923 0.51212
# Poissons Ratio (y) = 0.20855 0.38332
# Poissons Ratio (z) = 0.44101 0.25204
#
# Static dielectric constant tensor:
#      x y z
#    x 3.203550 0.000000 0.000000 
#    y 0.000000 3.188020 0.000000 
#    z 0.000000 0.000000 3.549290 
# 
# 
# High freq. dielectric constant tensor:
#      x y z
#    x 1.662900 0.000000 0.000000 
#    y 0.000000 1.680790 0.000000 
#    z 0.000000 0.000000 1.695950 
# 
# From -- ./inp_files/24353.got.cif
#   From: 2010.03.12/outbox.cif.g09.slc.cpg/sg44_13_cif.got.tgz:24353.got - 2010.04.14 02:36:11.
