data_PCOD8189142
_publ_section_title
;
Structure prediction by ZEFSAII (Michael W. Deem and Ramdas Pophale) SiO2 
 PCOD8189142
Probable space group: I M M 2
;
_chemical_formula_sum "Si O2"
_cell_formula_units_Z 48
_cell_length_a 9.447782
_cell_length_b 18.745050
_cell_length_c 15.372049
_cell_angle_alpha 90.000000
_cell_angle_beta 90.000000
_cell_angle_gamma 90.000000
_cell_volume 2722.376750
_symmetry_space_group_name_H-M "I M M 2"
_symmetry_group_IT_number 44
_symmetry_cell_setting 'orthorhombic'
loop_
_space_group_symop_operation_xyz
x,y,z
-x,-y,z
-x,y,z
x,-y,z
1/2+x,1/2+y,1/2+z
1/2-x,1/2-y,1/2+z
1/2-x,1/2+y,1/2+z
1/2+x,1/2-y,1/2+z
loop_
_atom_site_type_symbol
_atom_site_label
_atom_site_fract_x
_atom_site_fract_y
_atom_site_fract_z
Si Si1 0.831773 0.828297 0.132190
Si Si2 0.834994 0.917574 0.296981
Si Si3 0.162773 0.083609 0.779768
Si Si4 0.836047 0.417656 0.965866
Si Si5 0.832009 0.079073 0.974887
Si Si6 0.167576 0.666386 0.136308
O O1 0.777894 0.870396 0.217097
O O2 0.777033 0.747453 0.134418
O O3 0.000000 0.830495 0.128700
O O4 0.768989 0.866229 0.045859
O O5 0.752109 0.892515 0.382497
O O6 0.000000 0.904610 0.314233
O O7 0.803764 0.000000 0.274862
O O8 0.209116 0.104180 0.877895
O O9 0.262581 0.127559 0.717072
O O10 0.000000 0.104523 0.762760
O O11 0.185505 0.000000 0.763573
O O12 0.805894 0.500000 0.988295
O O13 0.000000 0.404197 0.945132
O O14 0.784319 0.371241 0.047314
O O15 0.000000 0.075353 0.982147
O O16 0.770374 0.000000 0.993486
O O17 0.000000 0.661543 0.148321
#
# Coordination Sequence:
#
# PCOD8189142 Si02
#       6
#     8   8   8   8   8   8
#     4   9  17  29  46  70  98 124 152 189 232 279
#     4   9  17  30  50  73  93 118 155 196 235 272
#     4   9  18  32  51  74  95 118 154 197 235 271
#     4   9  18  32  48  66  90 122 158 192 228 274
#     4   8  14  27  48  71  93 119 154 195 234 272
#     4  10  20  32  47  69  97 128 157 186 228 281
#
# _framework density 17.631651999999999
#
# number of rings (size 3 to 8) (size 9 to 14) (size 15 to 20)
#    0.000    3.000    0.000    2.000    0.000    5.000 
#    0.000    4.167    0.000    2.000    0.000    2.333 
#    0.000    0.000    0.000    0.000    0.000    0.000 
#
# Total GULP energy -297575.838625 kJ/mol
# GULP energy per Si atom -12398.993276 kJ/mol
# Density = 1.759152 g / cm^3
# Si number density = 17.631652 Si / 1000 Ang^3
#
#
#
# Elastic Constant Matrix: (Units=GPa)
#
#
# Indices 1 2 3 4 5 6 
#
# 1 28.3958 32.1026 45.3434 0.0000 0.0000 0.0000
# 2 32.1026 110.8121 98.3047 -0.0001 0.0000 0.0000
# 3 45.3434 98.3047 178.1948 -0.0002 0.0000 0.0000
# 4 0.0000 -0.0001 -0.0002 4.8380 0.0000 0.0000
# 5 0.0000 0.0000 0.0000 0.0000 25.2652 0.0000
# 6 0.0000 0.0000 0.0000 0.0000 0.0000 18.0970
#
#
#
# Elastic Compliance Matrix: (Units=1/GPa)
#
#
# Indices 1 2 3 4 5 6 
#
# 1 0.062618 -0.007844 -0.011606 0.000000 0.000000 0.000000
# 2 -0.007844 0.018657 -0.008296 0.000000 0.000000 0.000000
# 3 -0.011606 -0.008296 0.013142 0.000000 0.000000 0.000000
# 4 0.000000 0.000000 0.000000 0.206696 0.000000 0.000000
# 5 0.000000 0.000000 0.000000 0.000000 0.039580 0.000000
# 6 0.000000 0.000000 0.000000 0.000000 0.000000 0.055258
#
#
# Mechanical properties :
#
#
# Convention : Reuss Voigt Hill
#
# Bulk Modulus (GPa) = 25.69172 74.32268 50.00720
# Shear Modulus (GPa) = 10.76613 19.08351 14.92482
#
# Velocity S-wave (km/s) = 2.47374 3.29347 2.91259
# Velocity P-wave (km/s) = 4.77097 7.53041 6.30354
#
# Compressibility (1/GPa) = 0.03892305
#
# Stress axis : x y z
#
# Youngs Moduli (GPa) = 15.96977 53.60021 76.09213
#
# Poissons Ratio (x) = 0.42046 0.88315
# Poissons Ratio (y) = 0.12527 0.63128
# Poissons Ratio (z) = 0.18535 0.44468
#
# Static dielectric constant tensor:
#      x y z
#    x 2.876370 0.000000 0.000000 
#    y 0.000000 3.481220 0.000000 
#    z 0.000000 0.000000 3.461050 
# 
# 
# High freq. dielectric constant tensor:
#      x y z
#    x 1.638870 0.000000 0.000000 
#    y 0.000000 1.682100 0.000000 
#    z 0.000000 0.000000 1.695250 
# 
# From -- ./inp_files/12282.got.cif
#   From: 2010.03.12/outbox.cif.g09.slc.cpg/sg44_7_cif.got.tgz:12282.got - 2010.04.14 02:36:11.
