data_PCOD8189228
_publ_section_title
;
Structure prediction by ZEFSAII (Michael W. Deem and Ramdas Pophale) SiO2 
 PCOD8189228
Probable space group: I M M 2
;
_chemical_formula_sum "Si O2"
_cell_formula_units_Z 48
_cell_length_a 8.623692
_cell_length_b 18.314235
_cell_length_c 17.442611
_cell_angle_alpha 90.000000
_cell_angle_beta 90.000000
_cell_angle_gamma 90.000000
_cell_volume 2754.821825
_symmetry_space_group_name_H-M "I M M 2"
_symmetry_group_IT_number 44
_symmetry_cell_setting 'orthorhombic'
loop_
_space_group_symop_operation_xyz
x,y,z
-x,-y,z
-x,y,z
x,-y,z
1/2+x,1/2+y,1/2+z
1/2-x,1/2-y,1/2+z
1/2-x,1/2+y,1/2+z
1/2+x,1/2-y,1/2+z
loop_
_atom_site_type_symbol
_atom_site_label
_atom_site_fract_x
_atom_site_fract_y
_atom_site_fract_z
Si Si1 0.179293 0.582283 0.204700
Si Si2 0.178676 0.309162 0.688119
Si Si3 0.181526 0.083198 0.291897
Si Si4 0.181864 0.814684 0.578782
Si Si5 0.821755 0.292533 0.309795
Si Si6 0.681386 0.808935 0.416017
O O1 0.241036 0.500000 0.214135
O O2 0.276298 0.622596 0.139404
O O3 0.199743 0.622237 0.287867
O O4 0.000000 0.583832 0.179865
O O5 0.277623 0.381730 0.708181
O O6 0.228306 0.266314 0.610552
O O7 0.205775 0.252542 0.756492
O O8 0.000000 0.331803 0.684720
O O9 0.267670 0.125630 0.360012
O O10 0.000000 0.088508 0.306619
O O11 0.239362 0.000000 0.291930
O O12 0.275172 0.830737 0.501947
O O13 0.000000 0.818772 0.562395
O O14 0.768571 0.268231 0.395082
O O15 0.000000 0.268590 0.296143
O O16 0.500000 0.796920 0.409553
#
# Coordination Sequence:
#
# PCOD8189228 Si02
#       6
#     8   8   8   8   8   8
#     4   9  18  32  50  73  99 127 158 191 232 282
#     4   9  17  30  49  70  92 121 159 198 233 276
#     4  10  20  33  50  72  98 127 157 192 236 284
#     4  10  20  33  49  71  98 127 159 195 237 282
#     4   9  16  29  49  69  93 124 158 196 233 275
#     4  11  21  32  49  71  96 127 161 198 237 279
#
# _framework density 17.423994
#
# number of rings (size 3 to 8) (size 9 to 14) (size 15 to 20)
#    0.000    2.333    0.000    5.500    0.000    5.000 
#    0.000    0.000    0.000    1.000    0.000    2.333 
#    0.000    0.000    0.000    0.000    0.000    0.000 
#
# Total GULP energy -297393.086897 kJ/mol
# GULP energy per Si atom -12391.378621 kJ/mol
# Density = 1.738434 g / cm^3
# Si number density = 17.423994 Si / 1000 Ang^3
#
#
#
# Elastic Constant Matrix: (Units=GPa)
#
#
# Indices 1 2 3 4 5 6 
#
# 1 68.3377 42.9280 26.5527 0.0000 0.0000 0.0000
# 2 42.9280 128.6556 64.0873 0.0000 0.0000 0.0000
# 3 26.5527 64.0873 44.0529 0.0000 0.0000 0.0000
# 4 0.0000 0.0000 0.0000 18.8039 0.0000 0.0000
# 5 0.0000 0.0000 0.0000 0.0000 27.4188 0.0000
# 6 0.0000 0.0000 0.0000 0.0000 0.0000 22.6028
#
#
#
# Elastic Compliance Matrix: (Units=1/GPa)
#
#
# Indices 1 2 3 4 5 6 
#
# 1 0.019301 -0.002343 -0.008225 0.000000 0.000000 0.000000
# 2 -0.002343 0.028515 -0.040071 0.000000 0.000000 0.000000
# 3 -0.008225 -0.040071 0.085952 0.000000 0.000000 0.000000
# 4 0.000000 0.000000 0.000000 0.053181 0.000000 0.000000
# 5 0.000000 0.000000 0.000000 0.000000 0.036471 0.000000
# 6 0.000000 0.000000 0.000000 0.000000 0.000000 0.044242
#
#
# Mechanical properties :
#
#
# Convention : Reuss Voigt Hill
#
# Bulk Modulus (GPa) = 30.77866 56.46470 43.62168
# Shear Modulus (GPa) = 13.16583 20.93029 17.04806
#
# Velocity S-wave (km/s) = 2.75183 3.46964 3.13137
# Velocity P-wave (km/s) = 5.27253 6.96619 6.17768
#
# Compressibility (1/GPa) = 0.03249005
#
# Stress axis : x y z
#
# Youngs Moduli (GPa) = 51.81121 35.06921 11.63434
#
# Poissons Ratio (x) = 0.08216 0.09570
# Poissons Ratio (y) = 0.12138 0.46620
# Poissons Ratio (z) = 0.42616 1.40526
#
# Static dielectric constant tensor:
#      x y z
#    x 3.252760 0.000000 0.000000 
#    y 0.000000 3.476240 0.000000 
#    z 0.000000 0.000000 3.311900 
# 
# 
# High freq. dielectric constant tensor:
#      x y z
#    x 1.685340 0.000000 0.000000 
#    y 0.000000 1.661740 0.000000 
#    z 0.000000 0.000000 1.649510 
# 
# From -- ./inp_files/20460.got.cif
#   From: 2010.03.12/outbox.cif.g09.slc.cpg/sg44_11_cif.got.tgz:20460.got - 2010.04.14 02:36:11.
