data_PCOD8189166
_publ_section_title
;
Structure prediction by ZEFSAII (Michael W. Deem and Ramdas Pophale) SiO2 
 PCOD8189166
Probable space group: I M M 2
;
_chemical_formula_sum "Si O2"
_cell_formula_units_Z 48
_cell_length_a 8.986066
_cell_length_b 9.394522
_cell_length_c 31.383558
_cell_angle_alpha 90.000000
_cell_angle_beta 90.000000
_cell_angle_gamma 90.000000
_cell_volume 2649.393524
_symmetry_space_group_name_H-M "I M M 2"
_symmetry_group_IT_number 44
_symmetry_cell_setting 'orthorhombic'
loop_
_space_group_symop_operation_xyz
x,y,z
-x,-y,z
-x,y,z
x,-y,z
1/2+x,1/2+y,1/2+z
1/2-x,1/2-y,1/2+z
1/2-x,1/2+y,1/2+z
1/2+x,1/2-y,1/2+z
loop_
_atom_site_type_symbol
_atom_site_label
_atom_site_fract_x
_atom_site_fract_y
_atom_site_fract_z
Si Si1 0.670864 0.333278 0.522430
Si Si2 0.823474 0.836137 0.447969
Si Si3 0.325592 0.165904 0.683893
Si Si4 0.162640 0.831476 0.355748
Si Si5 0.822289 0.159753 0.264600
Si Si6 0.324626 0.836617 0.109065
O O1 0.500000 0.288349 0.527233
O O2 0.690521 0.500000 0.515553
O O3 0.740522 0.258951 0.481838
O O4 0.755677 0.282800 0.564768
O O5 0.759663 0.790577 0.400787
O O6 0.000000 0.810404 0.450123
O O7 0.785796 0.000000 0.457533
O O8 0.500000 0.195661 0.677540
O O9 0.266881 0.233570 0.728073
O O10 0.237336 0.237315 0.645809
O O11 0.288535 0.000000 0.684920
O O12 0.243903 0.788750 0.310993
O O13 0.000000 0.759192 0.356101
O O14 0.142774 0.000000 0.355082
O O15 0.000000 0.160562 0.268042
O O16 0.766538 0.000000 0.253465
O O17 0.500000 0.818822 0.106124
O O18 0.278449 0.000000 0.118256
#
# Coordination Sequence:
#
# PCOD8189166 Si02
#       6
#     8   8   8   8   8   8
#     4  10  21  36  53  73  98 128 162 201 245 293
#     4   9  17  30  50  76 104 132 163 201 244 288
#     4  10  20  32  48  74 106 134 160 195 242 294
#     4   7  11  22  42  69  98 127 162 202 239 276
#     4   8  13  24  45  70  96 129 167 204 239 276
#     4  10  21  37  56  74  92 121 164 208 247 291
#
# _framework density 18.117353000000001
#
# number of rings (size 3 to 8) (size 9 to 14) (size 15 to 20)
#    0.000    3.000    0.000    3.500    0.000    4.000 
#    0.000    0.833    0.000    4.000    0.000    2.333 
#    0.000    0.000    0.000    0.000    0.000    0.000 
#
# Total GULP energy -297379.681241 kJ/mol
# GULP energy per Si atom -12390.820052 kJ/mol
# Density = 1.807612 g / cm^3
# Si number density = 18.117353 Si / 1000 Ang^3
#
#
#
# Elastic Constant Matrix: (Units=GPa)
#
#
# Indices 1 2 3 4 5 6 
#
# 1 47.9724 29.6613 52.9096 0.0000 0.0000 0.0000
# 2 29.6613 50.4405 68.0632 0.0000 0.0000 0.0000
# 3 52.9096 68.0632 200.2221 0.0000 0.0000 0.0000
# 4 0.0000 0.0000 0.0000 32.5461 0.0000 0.0000
# 5 0.0000 0.0000 0.0000 0.0000 22.1995 0.0000
# 6 0.0000 0.0000 0.0000 0.0000 0.0000 22.5012
#
#
#
# Elastic Compliance Matrix: (Units=1/GPa)
#
#
# Indices 1 2 3 4 5 6 
#
# 1 0.034485 -0.014746 -0.004100 0.000000 0.000000 0.000000
# 2 -0.014746 0.042932 -0.010697 0.000000 0.000000 0.000000
# 3 -0.004100 -0.010697 0.009714 0.000000 0.000000 0.000000
# 4 0.000000 0.000000 0.000000 0.030726 0.000000 0.000000
# 5 0.000000 0.000000 0.000000 0.000000 0.045046 0.000000
# 6 0.000000 0.000000 0.000000 0.000000 0.000000 0.044442
#
#
# Mechanical properties :
#
#
# Convention : Reuss Voigt Hill
#
# Bulk Modulus (GPa) = 35.65881 66.65592 51.15736
# Shear Modulus (GPa) = 18.13042 25.31608 21.72325
#
# Velocity S-wave (km/s) = 3.16685 3.74216 3.46646
# Velocity P-wave (km/s) = 5.75298 7.45270 6.65731
#
# Compressibility (1/GPa) = 0.02804356
#
# Stress axis : x y z
#
# Youngs Moduli (GPa) = 28.99828 23.29287 102.94090
#
# Poissons Ratio (x) = 0.34348 0.42205
# Poissons Ratio (y) = 0.42762 1.10119
# Poissons Ratio (z) = 0.11889 0.24917
#
# Static dielectric constant tensor:
#      x y z
#    x 3.005940 0.000000 0.000000 
#    y 0.000000 3.154750 0.000000 
#    z 0.000000 0.000000 3.872500 
# 
# 
# High freq. dielectric constant tensor:
#      x y z
#    x 1.661210 0.000000 0.000000 
#    y 0.000000 1.677740 0.000000 
#    z 0.000000 0.000000 1.729120 
# 
# From -- ./inp_files/26863.got.cif
#   From: 2010.03.12/outbox.cif.g09.slc.cpg/sg44_14_cif.got.tgz:26863.got - 2010.04.14 02:36:11.
