data_PCOD8189150
_publ_section_title
;
Structure prediction by ZEFSAII (Michael W. Deem and Ramdas Pophale) SiO2 
 PCOD8189150
Probable space group: I M M 2
;
_chemical_formula_sum "Si O2"
_cell_formula_units_Z 56
_cell_length_a 16.186587
_cell_length_b 8.875047
_cell_length_c 23.061908
_cell_angle_alpha 90.000000
_cell_angle_beta 90.000000
_cell_angle_gamma 90.000000
_cell_volume 3312.998069
_symmetry_space_group_name_H-M "I M M 2"
_symmetry_group_IT_number 44
_symmetry_cell_setting 'orthorhombic'
loop_
_space_group_symop_operation_xyz
x,y,z
-x,-y,z
-x,y,z
x,-y,z
1/2+x,1/2+y,1/2+z
1/2-x,1/2-y,1/2+z
1/2-x,1/2+y,1/2+z
1/2+x,1/2-y,1/2+z
loop_
_atom_site_type_symbol
_atom_site_label
_atom_site_fract_x
_atom_site_fract_y
_atom_site_fract_z
Si Si1 0.180242 0.825888 0.321390
Si Si2 0.741987 0.176407 0.647101
Si Si3 0.500000 0.821513 0.121510
Si Si4 0.594644 0.321685 0.939740
Si Si5 0.500000 0.179201 0.252060
Si Si6 0.169389 0.177750 0.764966
Si Si7 0.905657 0.826705 0.202687
Si Si8 0.657400 0.178594 0.052297
O O1 0.133804 0.770680 0.378952
O O2 0.263348 0.729780 0.312151
O O3 0.115963 0.797876 0.269653
O O4 0.206277 0.000000 0.325616
O O5 0.800703 0.228939 0.700614
O O6 0.648160 0.220116 0.661493
O O7 0.763756 0.261620 0.587527
O O8 0.749056 0.000000 0.636679
O O9 0.500000 0.758642 0.186386
O O10 0.420871 0.759526 0.087966
O O11 0.500000 0.000000 0.122581
O O12 0.500000 0.262656 0.943729
O O13 0.596776 0.500000 0.946912
O O14 0.652344 0.246819 0.988316
O O15 0.417261 0.243760 0.281609
O O16 0.500000 0.000000 0.256688
O O17 0.158691 0.000000 0.768655
O O18 0.000000 0.781713 0.192482
O O19 0.888486 0.000000 0.186213
O O20 0.660716 0.000000 0.047818
#
# Coordination Sequence:
#
# PCOD8189150 Si02
#       8
#     8   8   4   8   4   8   8   8
#     4   9  18  33  51  71  99 134 169 203 241 291
#     4  10  20  32  47  71 102 133 163 202 251 296
#     4   9  18  29  45  69  99 131 165 200 233 284
#     4  10  20  33  50  74 102 133 168 205 244 288
#     4  11  19  31  51  73  99 133 167 200 245 298
#     4  10  20  32  47  72 102 130 164 206 250 293
#     4   9  17  31  52  75  98 129 167 205 244 290
#     4  11  20  33  49  71 101 134 170 204 240 290
#
# _framework density 16.903119
#
# number of rings (size 3 to 8) (size 9 to 14) (size 15 to 20)
#    0.000    2.143    2.143    1.929    0.000    3.714 
#    0.000    0.000    0.000    2.571    1.857    0.000 
#    0.000    0.000    0.000    0.000    0.000    0.000 
#
# Total GULP energy -347255.379102 kJ/mol
# GULP energy per Si atom -12401.977825 kJ/mol
# Density = 1.686465 g / cm^3
# Si number density = 16.903119 Si / 1000 Ang^3
#
#
#
# Elastic Constant Matrix: (Units=GPa)
#
#
# Indices 1 2 3 4 5 6 
#
# 1 107.4619 36.7908 44.9413 0.0000 0.0000 0.0000
# 2 36.7908 55.0652 33.4836 0.0000 0.0000 0.0000
# 3 44.9413 33.4836 98.7212 0.0000 0.0000 0.0000
# 4 0.0000 0.0000 0.0000 25.3055 0.0000 0.0000
# 5 0.0000 0.0000 0.0000 0.0000 25.6416 0.0000
# 6 0.0000 0.0000 0.0000 0.0000 0.0000 27.1070
#
#
#
# Elastic Compliance Matrix: (Units=1/GPa)
#
#
# Indices 1 2 3 4 5 6 
#
# 1 0.013092 -0.006454 -0.003771 0.000000 0.000000 0.000000
# 2 -0.006454 0.026061 -0.005901 0.000000 0.000000 0.000000
# 3 -0.003771 -0.005901 0.013848 0.000000 0.000000 0.000000
# 4 0.000000 0.000000 0.000000 0.039517 0.000000 0.000000
# 5 0.000000 0.000000 0.000000 0.000000 0.038999 0.000000
# 6 0.000000 0.000000 0.000000 0.000000 0.000000 0.036891
#
#
# Mechanical properties :
#
#
# Convention : Reuss Voigt Hill
#
# Bulk Modulus (GPa) = 48.19653 54.63106 51.41379
# Shear Modulus (GPa) = 24.08750 25.34632 24.71691
#
# Velocity S-wave (km/s) = 3.77906 3.87655 3.82811
# Velocity P-wave (km/s) = 6.90051 7.24065 7.07263
#
# Compressibility (1/GPa) = 0.02074838
#
# Stress axis : x y z
#
# Youngs Moduli (GPa) = 76.38009 38.37175 72.21464
#
# Poissons Ratio (x) = 0.24767 0.27232
# Poissons Ratio (y) = 0.49299 0.42613
# Poissons Ratio (z) = 0.28802 0.22643
#
# Static dielectric constant tensor:
#      x y z
#    x 3.151250 0.000000 0.000000 
#    y 0.000000 3.027210 0.000000 
#    z 0.000000 0.000000 3.028200 
# 
# 
# High freq. dielectric constant tensor:
#      x y z
#    x 1.646840 0.000000 0.000000 
#    y 0.000000 1.650840 0.000000 
#    z 0.000000 0.000000 1.628020 
# 
# From -- ./inp_files/23127.got.cif
#   From: 2010.03.12/outbox.cif.g09.slc.cpg/sg44_12_cif.got.tgz:23127.got - 2010.04.14 02:36:11.
