data_PCOD8189400
_publ_section_title
;
Structure prediction by ZEFSAII (Michael W. Deem and Ramdas Pophale) SiO2 
 PCOD8189400
Probable space group: I M M 2
;
_chemical_formula_sum "Si O2"
_cell_formula_units_Z 48
_cell_length_a 7.661537
_cell_length_b 9.768742
_cell_length_c 34.231560
_cell_angle_alpha 90.000000
_cell_angle_beta 90.000000
_cell_angle_gamma 90.000000
_cell_volume 2562.012440
_symmetry_space_group_name_H-M "I M M 2"
_symmetry_group_IT_number 44
_symmetry_cell_setting 'orthorhombic'
loop_
_space_group_symop_operation_xyz
x,y,z
-x,-y,z
-x,y,z
x,-y,z
1/2+x,1/2+y,1/2+z
1/2-x,1/2-y,1/2+z
1/2-x,1/2+y,1/2+z
1/2+x,1/2-y,1/2+z
loop_
_atom_site_type_symbol
_atom_site_label
_atom_site_fract_x
_atom_site_fract_y
_atom_site_fract_z
Si Si1 0.705768 0.346774 0.053690
Si Si2 0.306612 0.337287 0.790526
Si Si3 0.202789 0.348347 0.138619
Si Si4 0.000000 0.663174 0.846474
Si Si5 0.500000 0.657278 0.422833
Si Si6 0.201063 0.342676 0.483724
Si Si7 0.207080 0.848172 0.204360
O O1 0.500000 0.350569 0.052791
O O2 0.782642 0.500000 0.047389
O O3 0.767560 0.287048 0.095358
O O4 0.773340 0.248131 0.019476
O O5 0.500000 0.279810 0.800955
O O6 0.313044 0.500000 0.789248
O O7 0.170330 0.286536 0.822841
O O8 0.246481 0.288027 0.747325
O O9 0.288758 0.500000 0.141053
O O10 0.289636 0.250178 0.171184
O O11 0.000000 0.359392 0.147685
O O12 0.000000 0.500000 0.852993
O O13 0.000000 0.738440 0.887377
O O14 0.500000 0.500000 0.408320
O O15 0.675718 0.688075 0.447014
O O16 0.217715 0.500000 0.496783
O O17 0.000000 0.306794 0.472656
O O18 0.000000 0.857464 0.200174
O O19 0.287628 0.000000 0.198799
#
# Coordination Sequence:
#
# PCOD8189400 Si02
#       7
#     8   8   8   4   4   8   8
#     4   9  18  32  48  68  97 130 164 203 247 292
#     4   8  15  30  51  73 100 131 162 204 252 289
#     4   9  17  28  43  66  96 128 161 201 245 289
#     4  10  20  34  54  80 102 126 166 208 246 300
#     4  10  22  38  54  76 106 132 158 202 256 304
#     4   9  19  36  55  73  97 131 166 201 245 296
#     4   8  14  27  46  66  91 126 164 199 239 287
#
# _framework density 18.735271999999998
#
# number of rings (size 3 to 8) (size 9 to 14) (size 15 to 20)
#    0.000    3.167    0.000    1.000    1.167    2.000 
#    1.500    0.833    0.000    1.000    0.000    0.000 
#    0.000    0.000    0.000    0.000    0.000    0.000 
#
# Total GULP energy -297472.020450 kJ/mol
# GULP energy per Si atom -12394.667519 kJ/mol
# Density = 1.869263 g / cm^3
# Si number density = 18.735272 Si / 1000 Ang^3
#
#
#
# Elastic Constant Matrix: (Units=GPa)
#
#
# Indices 1 2 3 4 5 6 
#
# 1 68.6047 29.6467 54.6182 0.0000 0.0000 0.0000
# 2 29.6467 74.2344 79.0340 0.0000 0.0000 0.0000
# 3 54.6182 79.0340 165.4926 0.0000 0.0000 0.0000
# 4 0.0000 0.0000 0.0000 37.4043 0.0000 0.0000
# 5 0.0000 0.0000 0.0000 0.0000 -5.6467 0.0000
# 6 0.0000 0.0000 0.0000 0.0000 0.0000 13.0827
#
#
#
# Elastic Compliance Matrix: (Units=1/GPa)
#
#
# Indices 1 2 3 4 5 6 
#
# 1 0.019908 -0.001944 -0.005642 0.000000 0.000000 0.000000
# 2 -0.001944 0.027594 -0.012537 0.000000 0.000000 0.000000
# 3 -0.005642 -0.012537 0.013892 0.000000 0.000000 0.000000
# 4 0.000000 0.000000 0.000000 0.026735 0.000000 0.000000
# 5 0.000000 0.000000 0.000000 0.000000 -0.177094 0.000000
# 6 0.000000 0.000000 0.000000 0.000000 0.000000 0.076437
#
#
# Mechanical properties :
#
#
# Convention : Reuss Voigt Hill
#
# Bulk Modulus (GPa) = 47.28319 70.54773 58.91546
# Shear Modulus (GPa) = 143.81834 18.63693 81.22764
#
# Velocity S-wave (km/s) = 8.77098 3.15739 6.59163
# Velocity P-wave (km/s) = 11.30777 7.14345 9.45766
#
# Compressibility (1/GPa) = 0.02114917
#
# Stress axis : x y z
#
# Youngs Moduli (GPa) = 50.23098 36.23933 71.98515
#
# Poissons Ratio (x) = 0.07044 0.40614
# Poissons Ratio (y) = 0.09764 0.90245
# Poissons Ratio (z) = 0.28341 0.45432
#
# Static dielectric constant tensor:
#      x y z
#    x 3.553990 0.000000 0.000000 
#    y 0.000000 3.578060 0.000000 
#    z 0.000000 0.000000 3.467610 
# 
# 
# High freq. dielectric constant tensor:
#      x y z
#    x 1.722450 0.000000 0.000000 
#    y 0.000000 1.701950 0.000000 
#    z 0.000000 0.000000 1.723300 
# 
# From -- ./inp_files/26917.got.cif
#   From: 2010.03.12/outbox.cif.g09.slc.cpg/sg44_14_cif.got.tgz:26917.got - 2010.04.14 02:36:11.
