data_PCOD8189289
_publ_section_title
;
Structure prediction by ZEFSAII (Michael W. Deem and Ramdas Pophale) SiO2 
 PCOD8189289
Probable space group: I M M 2
;
_chemical_formula_sum "Si O2"
_cell_formula_units_Z 56
_cell_length_a 23.550581
_cell_length_b 9.175626
_cell_length_c 13.563828
_cell_angle_alpha 90.000000
_cell_angle_beta 90.000000
_cell_angle_gamma 90.000000
_cell_volume 2931.025542
_symmetry_space_group_name_H-M "I M M 2"
_symmetry_group_IT_number 44
_symmetry_cell_setting 'orthorhombic'
loop_
_space_group_symop_operation_xyz
x,y,z
-x,-y,z
-x,y,z
x,-y,z
1/2+x,1/2+y,1/2+z
1/2-x,1/2-y,1/2+z
1/2-x,1/2+y,1/2+z
1/2+x,1/2-y,1/2+z
loop_
_atom_site_type_symbol
_atom_site_label
_atom_site_fract_x
_atom_site_fract_y
_atom_site_fract_z
Si Si1 0.728402 0.829940 0.972320
Si Si2 0.564190 0.167199 0.894049
Si Si3 0.341281 0.668436 0.582321
Si Si4 0.333391 0.668779 0.807267
Si Si5 0.065341 0.670284 0.972334
Si Si6 0.065338 0.170151 0.771773
Si Si7 0.120507 0.333670 0.596614
O O1 0.715575 0.745230 0.871351
O O2 0.723734 0.000000 0.948124
O O3 0.790396 0.785173 0.009763
O O4 0.682492 0.789764 0.056187
O O5 0.500000 0.212317 0.869843
O O6 0.604449 0.268518 0.829564
O O7 0.576461 0.000000 0.865092
O O8 0.574777 0.189092 0.010115
O O9 0.357896 0.500000 0.567497
O O10 0.319865 0.696431 0.693032
O O11 0.396119 0.766506 0.559955
O O12 0.333416 0.500000 0.834720
O O13 0.076798 0.500000 0.959712
O O14 0.082898 0.749205 0.871612
O O15 0.000000 0.702157 0.999770
O O16 0.105557 0.226972 0.685407
O O17 0.000000 0.203981 0.744974
O O18 0.076228 0.000000 0.787184
O O19 0.119495 0.500000 0.634962
#
# Coordination Sequence:
#
# PCOD8189289 Si02
#       7
#     8   8   8   8   8   8   8
#     4   9  20  39  58  78 108 144 182 223 266 317
#     4   9  18  33  53  77 108 148 189 227 270 320
#     4  10  22  40  60  81 108 142 177 218 270 321
#     4  10  21  36  55  82 113 142 177 223 272 321
#     4  10  22  39  58  81 108 139 179 224 266 316
#     4  10  20  33  51  78 112 147 182 223 271 320
#     4   9  17  31  52  77 107 143 182 225 271 318
#
# _framework density 19.105941999999999
#
# number of rings (size 3 to 8) (size 9 to 14) (size 15 to 20)
#    0.000    2.429    0.000    2.571    0.000    8.286 
#    0.000    4.286    0.000    0.000    0.000    0.000 
#    0.000    0.000    0.000    0.000    0.000    0.000 
#
# Total GULP energy -347291.662097 kJ/mol
# GULP energy per Si atom -12403.273646 kJ/mol
# Density = 1.906246 g / cm^3
# Si number density = 19.105942 Si / 1000 Ang^3
#
#
#
# Elastic Constant Matrix: (Units=GPa)
#
#
# Indices 1 2 3 4 5 6 
#
# 1 97.8934 52.7411 52.3326 0.0000 0.0000 0.0000
# 2 52.7411 98.6938 61.4071 0.0000 0.0000 0.0000
# 3 52.3326 61.4071 94.3136 0.0000 0.0000 0.0000
# 4 0.0000 0.0000 0.0000 37.5401 0.0000 0.0000
# 5 0.0000 0.0000 0.0000 0.0000 23.4708 0.0000
# 6 0.0000 0.0000 0.0000 0.0000 0.0000 27.1523
#
#
#
# Elastic Compliance Matrix: (Units=1/GPa)
#
#
# Indices 1 2 3 4 5 6 
#
# 1 0.015893 -0.005053 -0.005529 0.000000 0.000000 0.000000
# 2 -0.005053 0.018639 -0.009332 0.000000 0.000000 0.000000
# 3 -0.005529 -0.009332 0.019747 0.000000 0.000000 0.000000
# 4 0.000000 0.000000 0.000000 0.026638 0.000000 0.000000
# 5 0.000000 0.000000 0.000000 0.000000 0.042606 0.000000
# 6 0.000000 0.000000 0.000000 0.000000 0.000000 0.036829
#
#
# Mechanical properties :
#
#
# Convention : Reuss Voigt Hill
#
# Bulk Modulus (GPa) = 69.19785 69.31804 69.25794
# Shear Modulus (GPa) = 24.39059 25.92730 25.15895
#
# Velocity S-wave (km/s) = 3.57683 3.68778 3.63273
# Velocity P-wave (km/s) = 7.30444 7.38191 7.34328
#
# Compressibility (1/GPa) = 0.01445132
#
# Stress axis : x y z
#
# Youngs Moduli (GPa) = 62.91980 53.65088 50.64178
#
# Poissons Ratio (x) = 0.27111 0.27998
# Poissons Ratio (y) = 0.31795 0.47258
# Poissons Ratio (z) = 0.34786 0.50066
#
# Static dielectric constant tensor:
#      x y z
#    x 3.566710 0.000000 0.000000 
#    y 0.000000 3.461470 0.000000 
#    z 0.000000 0.000000 3.361270 
# 
# 
# High freq. dielectric constant tensor:
#      x y z
#    x 1.741870 0.000000 0.000000 
#    y 0.000000 1.743410 0.000000 
#    z 0.000000 0.000000 1.737750 
# 
# From -- ./inp_files/19179.got.cif
#   From: 2010.03.12/outbox.cif.g09.slc.cpg/sg44_10_cif.got.tgz:19179.got - 2010.04.14 02:36:11.
