data_PCOD8189786
_publ_section_title
;
Structure prediction by ZEFSAII (Michael W. Deem and Ramdas Pophale) SiO2 
 PCOD8189786
Probable space group: I M M 2
;
_chemical_formula_sum "Si O2"
_cell_formula_units_Z 48
_cell_length_a 8.814332
_cell_length_b 27.587415
_cell_length_c 9.877932
_cell_angle_alpha 90.000000
_cell_angle_beta 90.000000
_cell_angle_gamma 90.000000
_cell_volume 2401.963728
_symmetry_space_group_name_H-M "I M M 2"
_symmetry_group_IT_number 44
_symmetry_cell_setting 'orthorhombic'
loop_
_space_group_symop_operation_xyz
x,y,z
-x,-y,z
-x,y,z
x,-y,z
1/2+x,1/2+y,1/2+z
1/2-x,1/2-y,1/2+z
1/2-x,1/2+y,1/2+z
1/2+x,1/2-y,1/2+z
loop_
_atom_site_type_symbol
_atom_site_label
_atom_site_fract_x
_atom_site_fract_y
_atom_site_fract_z
Si Si1 0.177954 0.203748 0.496960
Si Si2 0.321741 0.616771 0.374716
Si Si3 0.820454 0.054566 0.124515
Si Si4 0.178286 0.096212 0.409475
Si Si5 0.172857 0.555010 0.154387
Si Si6 0.178767 0.713875 0.288895
O O1 0.227039 0.150561 0.447872
O O2 0.227993 0.239505 0.376391
O O3 0.256586 0.217893 0.637648
O O4 0.000000 0.206490 0.523817
O O5 0.500000 0.625559 0.387493
O O6 0.255503 0.584822 0.497865
O O7 0.286805 0.588763 0.236853
O O8 0.240878 0.668324 0.372436
O O9 0.772617 0.084443 0.256779
O O10 0.000000 0.050887 0.111985
O O11 0.751723 0.000000 0.125412
O O12 0.273605 0.058767 0.499742
O O13 0.000000 0.087337 0.430661
O O14 0.188305 0.500000 0.204325
O O15 0.000000 0.573191 0.170419
O O16 0.000000 0.709586 0.276243
#
# Coordination Sequence:
#
# PCOD8189786 Si02
#       6
#     8   8   8   8   8   8
#     4  10  23  41  62  91 121 157 202 246 299 364
#     4  11  22  38  62  88 119 159 204 248 296 357
#     4   9  19  35  58  89 119 152 199 249 294 344
#     4  10  20  38  63  88 117 154 199 250 297 356
#     4  11  23  38  58  87 122 158 197 246 304 361
#     4  11  24  41  63  91 124 157 196 249 306 359
#
# _framework density 19.983649
#
# number of rings (size 3 to 8) (size 9 to 14) (size 15 to 20)
#    0.000    1.667    1.667    2.500    2.333    4.000 
#    0.000    1.667    0.000    4.000    0.000    0.000 
#    0.000    0.000    0.000    0.000    0.000    0.000 
#
# Total GULP energy -297667.830888 kJ/mol
# GULP energy per Si atom -12402.826287 kJ/mol
# Density = 1.993817 g / cm^3
# Si number density = 19.983649 Si / 1000 Ang^3
#
#
#
# Elastic Constant Matrix: (Units=GPa)
#
#
# Indices 1 2 3 4 5 6 
#
# 1 38.0512 35.1998 34.3913 -0.0004 0.0007 0.0002
# 2 35.1998 112.1268 53.5396 0.0004 0.0003 0.0003
# 3 34.3913 53.5396 129.4670 0.0026 0.0006 0.0012
# 4 -0.0004 0.0004 0.0026 43.0251 -0.0002 0.0002
# 5 0.0007 0.0003 0.0006 -0.0002 24.0673 0.0005
# 6 0.0002 0.0003 0.0012 0.0002 0.0005 24.4891
#
#
#
# Elastic Compliance Matrix: (Units=1/GPa)
#
#
# Indices 1 2 3 4 5 6 
#
# 1 0.041623 -0.009703 -0.007044 0.000001 -0.000001 0.000000
# 2 -0.009703 0.013375 -0.002953 0.000000 0.000000 0.000000
# 3 -0.007044 -0.002953 0.010816 -0.000001 0.000000 0.000000
# 4 0.000001 0.000000 -0.000001 0.023242 0.000000 0.000000
# 5 -0.000001 0.000000 0.000000 0.000000 0.041550 -0.000001
# 6 0.000000 0.000000 0.000000 0.000000 -0.000001 0.040834
#
#
# Mechanical properties :
#
#
# Convention : Reuss Voigt Hill
#
# Bulk Modulus (GPa) = 37.86014 58.43403 48.14708
# Shear Modulus (GPa) = 22.76383 28.75059 25.75721
#
# Velocity S-wave (km/s) = 3.37875 3.79714 3.59404
# Velocity P-wave (km/s) = 5.84876 6.96626 6.43183
#
# Compressibility (1/GPa) = 0.02641301
#
# Stress axis : x y z
#
# Youngs Moduli (GPa) = 24.02520 74.76728 92.45137
#
# Poissons Ratio (x) = 0.72548 0.65123
# Poissons Ratio (y) = 0.23312 0.27305
# Poissons Ratio (z) = 0.16923 0.22082
#
# Static dielectric constant tensor:
#      x y z
#    x 3.407370 0.000000 0.000000 
#    y 0.000000 3.833600 0.000000 
#    z 0.000000 0.000000 3.731010 
# 
# 
# High freq. dielectric constant tensor:
#      x y z
#    x 1.760690 0.000000 0.000000 
#    y 0.000000 1.792270 0.000000 
#    z 0.000000 0.000000 1.791060 
# 
# From -- ./inp_files/4903.got.cif
#   From: 2010.03.12/outbox.cif.g09.slc.cpg/sg44_3_cif.got.tgz:4903.got - 2010.04.14 02:36:11.
