data_PCOD8189035
_publ_section_title
;
Structure prediction by ZEFSAII (Michael W. Deem and Ramdas Pophale) SiO2 
 PCOD8189035
Probable space group: I M M 2
;
_chemical_formula_sum "Si O2"
_cell_formula_units_Z 64
_cell_length_a 15.253831
_cell_length_b 8.642831
_cell_length_c 23.609187
_cell_angle_alpha 90.000000
_cell_angle_beta 90.000000
_cell_angle_gamma 90.000000
_cell_volume 3112.547469
_symmetry_space_group_name_H-M "I M M 2"
_symmetry_group_IT_number 44
_symmetry_cell_setting 'orthorhombic'
loop_
_space_group_symop_operation_xyz
x,y,z
-x,-y,z
-x,y,z
x,-y,z
1/2+x,1/2+y,1/2+z
1/2-x,1/2-y,1/2+z
1/2-x,1/2+y,1/2+z
1/2+x,1/2-y,1/2+z
loop_
_atom_site_type_symbol
_atom_site_label
_atom_site_fract_x
_atom_site_fract_y
_atom_site_fract_z
Si Si1 0.401568 0.676781 0.221970
Si Si2 0.598430 0.176976 0.717365
Si Si3 0.147507 0.677157 0.606135
Si Si4 0.247916 0.820266 0.289977
Si Si5 0.146882 0.179111 0.104250
Si Si6 0.099813 0.177188 0.490980
Si Si7 0.597110 0.683350 0.481024
Si Si8 0.239706 0.318433 0.410496
O O1 0.500000 0.693858 0.246560
O O2 0.380347 0.500000 0.206150
O O3 0.394754 0.778492 0.165711
O O4 0.334516 0.730354 0.270284
O O5 0.500000 0.199952 0.741203
O O6 0.664820 0.286634 0.750539
O O7 0.597942 0.221259 0.651438
O O8 0.628744 0.000000 0.724782
O O9 0.124702 0.500000 0.592231
O O10 0.250341 0.703636 0.610859
O O11 0.107295 0.782355 0.557076
O O12 0.221938 0.772564 0.353088
O O13 0.269123 0.000000 0.286477
O O14 0.120114 0.000000 0.111023
O O15 0.116624 0.246961 0.043795
O O16 0.161136 0.288170 0.454076
O O17 0.000000 0.202426 0.471139
O O18 0.128624 0.000000 0.482010
O O19 0.500000 0.736187 0.461354
O O20 0.605398 0.500000 0.483626
O O21 0.669251 0.745681 0.437001
O O22 0.244319 0.500000 0.397651
#
# Coordination Sequence:
#
# PCOD8189035 Si02
#       8
#     8   8   8   8   8   8   8   8
#     4  11  24  42  65  93 125 164 208 256 312 371
#     4  11  24  41  63  93 126 162 204 252 309 369
#     4  11  21  36  62  96 128 163 204 251 311 372
#     4  12  26  44  65  90 121 162 210 258 313 372
#     4  10  19  35  61  93 126 163 201 244 303 364
#     4  11  24  41  62  90 125 166 209 255 310 370
#     4   9  18  35  61  91 122 156 195 238 290 357
#     4  11  23  42  65  90 121 159 207 258 310 365
#
# _framework density 20.561934999999998
#
# number of rings (size 3 to 8) (size 9 to 14) (size 15 to 20)
#    0.000    1.250    2.500    3.750    0.000    6.500 
#    0.000    1.250    0.000    1.875    0.000    0.000 
#    0.000    0.000    0.000    0.000    0.000    0.000 
#
# Total GULP energy -396965.336563 kJ/mol
# GULP energy per Si atom -12405.166768 kJ/mol
# Density = 2.051514 g / cm^3
# Si number density = 20.561935 Si / 1000 Ang^3
#
#
#
# Elastic Constant Matrix: (Units=GPa)
#
#
# Indices 1 2 3 4 5 6 
#
# 1 107.7323 38.2534 22.0511 0.0000 0.0000 0.0000
# 2 38.2534 66.0929 11.6132 0.0000 0.0000 0.0000
# 3 22.0511 11.6132 83.1929 0.0000 0.0000 0.0000
# 4 0.0000 0.0000 0.0000 34.0407 0.0000 0.0000
# 5 0.0000 0.0000 0.0000 0.0000 9.5327 0.0000
# 6 0.0000 0.0000 0.0000 0.0000 0.0000 25.7447
#
#
#
# Elastic Compliance Matrix: (Units=1/GPa)
#
#
# Indices 1 2 3 4 5 6 
#
# 1 0.012092 -0.006598 -0.002284 0.000000 0.000000 0.000000
# 2 -0.006598 0.019110 -0.000919 0.000000 0.000000 0.000000
# 3 -0.002284 -0.000919 0.012754 0.000000 0.000000 0.000000
# 4 0.000000 0.000000 0.000000 0.029377 0.000000 0.000000
# 5 0.000000 0.000000 0.000000 0.000000 0.104903 0.000000
# 6 0.000000 0.000000 0.000000 0.000000 0.000000 0.038843
#
#
# Mechanical properties :
#
#
# Convention : Reuss Voigt Hill
#
# Bulk Modulus (GPa) = 41.05888 44.53926 42.79907
# Shear Modulus (GPa) = 20.42495 26.20363 23.31429
#
# Velocity S-wave (km/s) = 3.15515 3.57371 3.37093
# Velocity P-wave (km/s) = 5.76932 6.22387 6.00090
#
# Compressibility (1/GPa) = 0.02435527
#
# Stress axis : x y z
#
# Youngs Moduli (GPa) = 82.69610 52.32799 78.40676
#
# Poissons Ratio (x) = 0.34524 0.17910
# Poissons Ratio (y) = 0.54559 0.07205
# Poissons Ratio (z) = 0.18890 0.04808
#
# Static dielectric constant tensor:
#      x y z
#    x 3.883210 0.000000 0.000000 
#    y 0.000000 3.611200 0.000000 
#    z 0.000000 0.000000 3.636570 
# 
# 
# High freq. dielectric constant tensor:
#      x y z
#    x 1.818800 0.000000 0.000000 
#    y 0.000000 1.796660 0.000000 
#    z 0.000000 0.000000 1.798700 
# 
# From -- ./inp_files/25796.got.cif
#   From: 2010.03.12/outbox.cif.g09.slc.cpg/sg44_13_cif.got.tgz:25796.got - 2010.04.14 02:36:11.
