data_PCOD8189447
_publ_section_title
;
Structure prediction by ZEFSAII (Michael W. Deem and Ramdas Pophale) SiO2 
 PCOD8189447
Probable space group: I M M 2
;
_chemical_formula_sum "Si O2"
_cell_formula_units_Z 40
_cell_length_a 9.099814
_cell_length_b 29.112836
_cell_length_c 7.638511
_cell_angle_alpha 90.000000
_cell_angle_beta 90.000000
_cell_angle_gamma 90.000000
_cell_volume 2023.604972
_symmetry_space_group_name_H-M "I M M 2"
_symmetry_group_IT_number 44
_symmetry_cell_setting 'orthorhombic'
loop_
_space_group_symop_operation_xyz
x,y,z
-x,-y,z
-x,y,z
x,-y,z
1/2+x,1/2+y,1/2+z
1/2-x,1/2-y,1/2+z
1/2-x,1/2+y,1/2+z
1/2+x,1/2-y,1/2+z
loop_
_atom_site_type_symbol
_atom_site_label
_atom_site_fract_x
_atom_site_fract_y
_atom_site_fract_z
Si Si1 0.334399 0.203228 0.769810
Si Si2 0.331315 0.700430 0.610441
Si Si3 0.834727 0.397395 0.241122
Si Si4 0.831007 0.945914 0.438873
Si Si5 0.327308 0.888355 0.149725
O O1 0.500000 0.208647 0.851169
O O2 0.291284 0.247399 0.658437
O O3 0.329681 0.154991 0.664934
O O4 0.206097 0.198037 0.908454
O O5 0.500000 0.688772 0.645594
O O6 0.235570 0.661588 0.708803
O O7 0.788182 0.399012 0.446513
O O8 0.000000 0.416832 0.221947
O O9 0.726839 0.427966 0.125650
O O10 0.742193 0.926692 0.273520
O O11 0.000000 0.931275 0.420272
O O12 0.810521 0.000000 0.436883
O O13 0.500000 0.887523 0.180488
#
# Coordination Sequence:
#
# PCOD8189447 Si02
#       5
#     8   8   8   8   8
#     4   9  20  36  53  82 118 154 196 239 290 352
#     4  10  20  34  55  85 118 155 197 240 294 350
#     4   9  20  40  62  86 119 157 199 248 297 354
#     4  11  25  42  62  91 122 155 199 251 309 366
#     4  10  22  41  63  87 120 159 202 250 299 357
#
# _framework density 19.766705000000002
#
# number of rings (size 3 to 8) (size 9 to 14) (size 15 to 20)
#    0.000    2.200    0.000    3.000    2.800    8.000 
#    0.000    4.000    0.000    0.000    0.000    0.000 
#    0.000    0.000    0.000    0.000    0.000    0.000 
#
# Total GULP energy -247873.112048 kJ/mol
# GULP energy per Si atom -12393.655602 kJ/mol
# Density = 1.972171 g / cm^3
# Si number density = 19.766705 Si / 1000 Ang^3
#
#
#
# Elastic Constant Matrix: (Units=GPa)
#
#
# Indices 1 2 3 4 5 6 
#
# 1 108.3960 54.8055 44.8061 -0.0026 -0.0013 0.0006
# 2 54.8055 68.1077 23.4607 -0.0092 0.0013 0.0026
# 3 44.8061 23.4607 63.9043 -0.0112 0.0047 0.0031
# 4 -0.0026 -0.0092 -0.0112 33.0646 0.0006 0.0006
# 5 -0.0013 0.0013 0.0047 0.0006 31.5797 -0.0001
# 6 0.0006 0.0026 0.0031 0.0006 -0.0001 33.7527
#
#
#
# Elastic Compliance Matrix: (Units=1/GPa)
#
#
# Indices 1 2 3 4 5 6 
#
# 1 0.019138 -0.012338 -0.008889 -0.000005 0.000003 0.000001
# 2 -0.012338 0.024763 -0.000440 0.000006 -0.000001 -0.000002
# 3 -0.008889 -0.000440 0.022042 0.000007 -0.000004 -0.000002
# 4 -0.000005 0.000006 0.000007 0.030244 -0.000001 -0.000001
# 5 0.000003 -0.000001 -0.000004 -0.000001 0.031666 0.000000
# 6 0.000001 -0.000002 -0.000002 -0.000001 0.000000 0.029627
#
#
# Mechanical properties :
#
#
# Convention : Reuss Voigt Hill
#
# Bulk Modulus (GPa) = 44.23078 54.06143 49.14610
# Shear Modulus (GPa) = 23.99805 27.50177 25.74991
#
# Velocity S-wave (km/s) = 3.48812 3.73408 3.61320
# Velocity P-wave (km/s) = 6.21672 6.78235 6.50569
#
# Compressibility (1/GPa) = 0.02260869
#
# Stress axis : x y z
#
# Youngs Moduli (GPa) = 52.25231 40.38345 45.36730
#
# Poissons Ratio (x) = 0.49826 0.40326
# Poissons Ratio (y) = 0.64470 0.01997
# Poissons Ratio (z) = 0.46446 0.01777
#
# Static dielectric constant tensor:
#      x y z
#    x 3.666670 0.000000 0.000000 
#    y 0.000000 3.853140 0.000000 
#    z 0.000000 0.000000 3.481960 
# 
# 
# High freq. dielectric constant tensor:
#      x y z
#    x 1.777790 0.000000 0.000000 
#    y 0.000000 1.778750 0.000000 
#    z 0.000000 0.000000 1.753580 
# 
# From -- ./inp_files/4460.got.cif
#   From: 2010.03.12/outbox.cif.g09.slc.cpg/sg44_3_cif.got.tgz:4460.got - 2010.04.14 02:36:11.
