data_PCOD8189159
_publ_section_title
;
Structure prediction by ZEFSAII (Michael W. Deem and Ramdas Pophale) SiO2 
 PCOD8189159
Probable space group: I M M 2
;
_chemical_formula_sum "Si O2"
_cell_formula_units_Z 64
_cell_length_a 30.028061
_cell_length_b 8.929424
_cell_length_c 14.263484
_cell_angle_alpha 90.000000
_cell_angle_beta 90.000000
_cell_angle_gamma 90.000000
_cell_volume 3824.514871
_symmetry_space_group_name_H-M "I M M 2"
_symmetry_group_IT_number 44
_symmetry_cell_setting 'orthorhombic'
loop_
_space_group_symop_operation_xyz
x,y,z
-x,-y,z
-x,y,z
x,-y,z
1/2+x,1/2+y,1/2+z
1/2-x,1/2-y,1/2+z
1/2-x,1/2+y,1/2+z
1/2+x,1/2-y,1/2+z
loop_
_atom_site_type_symbol
_atom_site_label
_atom_site_fract_x
_atom_site_fract_y
_atom_site_fract_z
Si Si1 0.234829 0.669677 0.510320
Si Si2 0.301301 0.827126 0.206993
Si Si3 0.949703 0.826869 0.119354
Si Si4 0.322882 0.831930 0.497250
Si Si5 0.215774 0.324906 0.299759
Si Si6 0.630521 0.323760 0.330819
Si Si7 0.449463 0.826971 0.420121
Si Si8 0.870029 0.668930 0.191199
O O1 0.253554 0.500000 0.511210
O O2 0.199970 0.692596 0.594611
O O3 0.274312 0.784560 0.531428
O O4 0.211862 0.704259 0.410865
O O5 0.257506 0.762305 0.257338
O O6 0.345842 0.741093 0.238416
O O7 0.304783 0.000000 0.236026
O O8 0.915505 0.765348 0.198348
O O9 0.000000 0.800734 0.156310
O O10 0.939915 0.000000 0.100820
O O11 0.942250 0.742851 0.021815
O O12 0.338326 0.716307 0.418572
O O13 0.356114 0.824621 0.583369
O O14 0.321260 0.000000 0.455861
O O15 0.221756 0.500000 0.275116
O O16 0.169571 0.263888 0.255346
O O17 0.625689 0.500000 0.321205
O O18 0.581716 0.252349 0.343454
O O19 0.500000 0.806185 0.385550
O O20 0.435784 0.000000 0.427583
O O21 0.880627 0.500000 0.223409
#
# Coordination Sequence:
#
# PCOD8189159 Si02
#       8
#     8   8   8   8   8   8   8   8
#     4  10  21  35  51  71 100 135 170 211 255 295
#     4  11  22  34  50  74 100 132 172 209 249 298
#     4  10  20  32  48  72 102 134 167 205 250 301
#     4  11  20  30  48  74 102 134 171 209 247 291
#     4  10  20  35  51  71  99 133 170 209 252 297
#     4  12  23  34  50  72 101 139 173 206 248 296
#     4  10  20  34  52  74 101 131 164 205 251 300
#     4  10  20  32  49  72 101 137 172 207 248 295
#
# _framework density 16.734148000000001
#
# number of rings (size 3 to 8) (size 9 to 14) (size 15 to 20)
#    0.000    1.500    3.750    2.625    0.000    3.000 
#    0.000    0.000    0.000    0.000    0.000    0.875 
#    0.000    3.000    0.000    0.000    0.000    0.000 
#
# Total GULP energy -396821.315984 kJ/mol
# GULP energy per Si atom -12400.666125 kJ/mol
# Density = 1.669606 g / cm^3
# Si number density = 16.734148 Si / 1000 Ang^3
#
#
#
# Elastic Constant Matrix: (Units=GPa)
#
#
# Indices 1 2 3 4 5 6 
#
# 1 113.9020 59.7783 29.2612 0.0000 0.0000 0.0000
# 2 59.7783 107.6510 31.6007 0.0000 0.0000 0.0000
# 3 29.2612 31.6007 65.3058 0.0000 0.0000 0.0000
# 4 0.0000 0.0000 0.0000 17.6624 0.0000 0.0000
# 5 0.0000 0.0000 0.0000 0.0000 26.4039 0.0000
# 6 0.0000 0.0000 0.0000 0.0000 0.0000 30.3052
#
#
#
# Elastic Compliance Matrix: (Units=1/GPa)
#
#
# Indices 1 2 3 4 5 6 
#
# 1 0.012778 -0.006312 -0.002671 0.000000 0.000000 0.000000
# 2 -0.006312 0.013945 -0.003920 0.000000 0.000000 0.000000
# 3 -0.002671 -0.003920 0.018406 0.000000 0.000000 0.000000
# 4 0.000000 0.000000 0.000000 0.056617 0.000000 0.000000
# 5 0.000000 0.000000 0.000000 0.000000 0.037873 0.000000
# 6 0.000000 0.000000 0.000000 0.000000 0.000000 0.032998
#
#
# Mechanical properties :
#
#
# Convention : Reuss Voigt Hill
#
# Bulk Modulus (GPa) = 51.74940 58.68212 55.21576
# Shear Modulus (GPa) = 24.40648 25.95555 25.18102
#
# Velocity S-wave (km/s) = 3.82315 3.94261 3.88334
# Velocity P-wave (km/s) = 7.10494 7.47456 7.29209
#
# Compressibility (1/GPa) = 0.01932389
#
# Stress axis : x y z
#
# Youngs Moduli (GPa) = 78.25851 71.71205 54.32942
#
# Poissons Ratio (x) = 0.45261 0.14513
# Poissons Ratio (y) = 0.49393 0.21295
# Poissons Ratio (z) = 0.20906 0.28109
#
# Static dielectric constant tensor:
#      x y z
#    x 3.252810 0.000000 0.000000 
#    y 0.000000 3.259670 0.000000 
#    z 0.000000 0.000000 3.027000 
# 
# 
# High freq. dielectric constant tensor:
#      x y z
#    x 1.639690 0.000000 0.000000 
#    y 0.000000 1.656840 0.000000 
#    z 0.000000 0.000000 1.613980 
# 
# From -- ./inp_files/17107.got.cif
#   From: 2010.03.12/outbox.cif.g09.slc.cpg/sg44_9_cif.got.tgz:17107.got - 2010.04.14 02:36:11.
