data_PCOD8189723
_publ_section_title
;
Structure prediction by ZEFSAII (Michael W. Deem and Ramdas Pophale) SiO2 
 PCOD8189723
Probable space group: I M M 2
;
_chemical_formula_sum "Si O2"
_cell_formula_units_Z 64
_cell_length_a 32.862186
_cell_length_b 8.542910
_cell_length_c 11.687922
_cell_angle_alpha 90.000000
_cell_angle_beta 90.000000
_cell_angle_gamma 90.000000
_cell_volume 3281.251998
_symmetry_space_group_name_H-M "I M M 2"
_symmetry_group_IT_number 44
_symmetry_cell_setting 'orthorhombic'
loop_
_space_group_symop_operation_xyz
x,y,z
-x,-y,z
-x,y,z
x,-y,z
1/2+x,1/2+y,1/2+z
1/2-x,1/2-y,1/2+z
1/2-x,1/2+y,1/2+z
1/2+x,1/2-y,1/2+z
loop_
_atom_site_type_symbol
_atom_site_label
_atom_site_fract_x
_atom_site_fract_y
_atom_site_fract_z
Si Si1 0.103328 0.828282 0.848470
Si Si2 0.814741 0.827368 0.986295
Si Si3 0.724252 0.818138 0.274738
Si Si4 0.690627 0.180463 0.721044
Si Si5 0.546864 0.682537 0.538166
Si Si6 0.849032 0.186551 0.640300
Si Si7 0.375662 0.315592 0.888095
Si Si8 0.546623 0.183938 0.781506
O O1 0.116470 0.745465 0.728928
O O2 0.085674 0.000000 0.818824
O O3 0.142925 0.843467 0.924344
O O4 0.069743 0.741694 0.927535
O O5 0.820979 0.707501 0.089676
O O6 0.800499 0.000000 0.028889
O O7 0.781933 0.762403 0.897151
O O8 0.770913 0.789415 0.245100
O O9 0.695361 0.751446 0.173839
O O10 0.715138 0.000000 0.286863
O O11 0.652312 0.226777 0.797908
O O12 0.701603 0.000000 0.742055
O O13 0.500000 0.706538 0.512364
O O14 0.558647 0.500000 0.554599
O O15 0.559823 0.772817 0.652666
O O16 0.861634 0.239596 0.513934
O O17 0.847118 0.000000 0.652869
O O18 0.370222 0.500000 0.872932
O O19 0.422909 0.269685 0.869284
O O20 0.500000 0.239791 0.805035
O O21 0.550677 0.000000 0.798977
#
# Coordination Sequence:
#
# PCOD8189723 Si02
#       8
#     8   8   8   8   8   8   8   8
#     4   8  15  31  54  78 106 140 177 224 278 334
#     4  10  20  37  58  80 108 144 188 234 284 338
#     4  11  23  39  59  83 113 150 192 238 293 349
#     4  12  25  39  58  84 116 150 190 240 293 351
#     4   9  16  28  52  84 114 144 182 231 287 348
#     4   9  20  39  59  79 111 153 196 242 293 350
#     4  11  23  39  60  86 116 153 200 248 297 357
#     4  10  21  37  57  83 118 156 194 241 299 358
#
# _framework density 19.504750000000001
#
# number of rings (size 3 to 8) (size 9 to 14) (size 15 to 20)
#    0.000    2.000    0.000    4.875    1.750    2.750 
#    0.000    3.125    0.000    2.250    0.000    1.750 
#    0.000    0.000    0.000    0.000    0.000    0.000 
#
# Total GULP energy -396709.796080 kJ/mol
# GULP energy per Si atom -12397.181128 kJ/mol
# Density = 1.946036 g / cm^3
# Si number density = 19.504750 Si / 1000 Ang^3
#
#
#
# Elastic Constant Matrix: (Units=GPa)
#
#
# Indices 1 2 3 4 5 6 
#
# 1 76.5933 19.4399 51.9570 0.0000 0.0000 0.0000
# 2 19.4399 62.8869 22.0840 0.0000 0.0000 0.0000
# 3 51.9570 22.0840 117.5728 0.0000 0.0000 0.0000
# 4 0.0000 0.0000 0.0000 3.6767 0.0000 0.0000
# 5 0.0000 0.0000 0.0000 0.0000 14.5064 0.0000
# 6 0.0000 0.0000 0.0000 0.0000 0.0000 25.2058
#
#
#
# Elastic Compliance Matrix: (Units=1/GPa)
#
#
# Indices 1 2 3 4 5 6 
#
# 1 0.019217 -0.003167 -0.007897 0.000000 0.000000 0.000000
# 2 -0.003167 0.017546 -0.001896 0.000000 0.000000 0.000000
# 3 -0.007897 -0.001896 0.012351 0.000000 0.000000 0.000000
# 4 0.000000 0.000000 0.000000 0.271983 0.000000 0.000000
# 5 0.000000 0.000000 0.000000 0.000000 0.068935 0.000000
# 6 0.000000 0.000000 0.000000 0.000000 0.000000 0.039673
#
#
# Mechanical properties :
#
#
# Convention : Reuss Voigt Hill
#
# Bulk Modulus (GPa) = 43.11540 49.33498 46.22519
# Shear Modulus (GPa) = 10.79077 19.58258 15.18667
#
# Velocity S-wave (km/s) = 2.35465 3.17202 2.79339
# Velocity P-wave (km/s) = 5.43559 6.22610 5.84422
#
# Compressibility (1/GPa) = 0.02319357
#
# Stress axis : x y z
#
# Youngs Moduli (GPa) = 52.03735 56.99147 80.96199
#
# Poissons Ratio (x) = 0.18050 0.63938
# Poissons Ratio (y) = 0.16481 0.15352
# Poissons Ratio (z) = 0.41096 0.10807
#
# Static dielectric constant tensor:
#      x y z
#    x 3.614410 0.000000 0.000000 
#    y 0.000000 3.508990 0.000000 
#    z 0.000000 0.000000 3.912410 
# 
# 
# High freq. dielectric constant tensor:
#      x y z
#    x 1.758330 0.000000 0.000000 
#    y 0.000000 1.748130 0.000000 
#    z 0.000000 0.000000 1.760380 
# 
# From -- ./inp_files/15121.got.cif
#   From: 2010.03.12/outbox.cif.g09.slc.cpg/sg44_8_cif.got.tgz:15121.got - 2010.04.14 02:36:11.
