data_PCOD8189195
_publ_section_title
;
Structure prediction by ZEFSAII (Michael W. Deem and Ramdas Pophale) SiO2 
 PCOD8189195
Probable space group: I M M 2
;
_chemical_formula_sum "Si O2"
_cell_formula_units_Z 56
_cell_length_a 8.864502
_cell_length_b 23.419378
_cell_length_c 13.643831
_cell_angle_alpha 90.000000
_cell_angle_beta 90.000000
_cell_angle_gamma 90.000000
_cell_volume 2832.474639
_symmetry_space_group_name_H-M "I M M 2"
_symmetry_group_IT_number 44
_symmetry_cell_setting 'orthorhombic'
loop_
_space_group_symop_operation_xyz
x,y,z
-x,-y,z
-x,y,z
x,-y,z
1/2+x,1/2+y,1/2+z
1/2-x,1/2-y,1/2+z
1/2-x,1/2+y,1/2+z
1/2+x,1/2-y,1/2+z
loop_
_atom_site_type_symbol
_atom_site_label
_atom_site_fract_x
_atom_site_fract_y
_atom_site_fract_z
Si Si1 0.824864 0.934727 0.981340
Si Si2 0.676362 0.671029 0.777069
Si Si3 0.677101 0.064221 0.601165
Si Si4 0.671813 0.381047 0.280210
Si Si5 0.822368 0.669517 0.572490
Si Si6 0.824644 0.767354 0.894990
Si Si7 0.175006 0.064255 0.401153
O O1 0.781557 0.923484 0.868372
O O2 0.000000 0.918320 0.997967
O O3 0.791943 0.000000 0.008324
O O4 0.724065 0.896005 0.052220
O O5 0.500000 0.679395 0.754431
O O6 0.774470 0.685600 0.682026
O O7 0.727563 0.712940 0.863719
O O8 0.711427 0.606276 0.811110
O O9 0.500000 0.065174 0.594252
O O10 0.725963 0.106838 0.686739
O O11 0.739693 0.086208 0.497716
O O12 0.737203 0.000000 0.622549
O O13 0.500000 0.391921 0.249484
O O14 0.698421 0.316281 0.313683
O O15 0.736014 0.711704 0.499437
O O16 0.000000 0.677422 0.559601
O O17 0.000000 0.751178 0.905901
O O18 0.000000 0.066023 0.427325
O O19 0.226182 0.000000 0.371556
#
# Coordination Sequence:
#
# PCOD8189195 Si02
#       7
#     8   8   8   8   8   8   8
#     4   9  18  34  56  82 114 153 195 239 287 337
#     4  11  23  40  63  88 112 144 187 232 283 340
#     4  10  20  32  50  80 115 148 183 227 278 328
#     4   9  18  33  54  79 109 148 190 229 274 331
#     4  11  23  39  59  85 117 151 189 233 282 339
#     4  10  22  41  61  83 113 148 189 236 284 335
#     4   9  20  39  60  81 108 144 185 227 272 329
#
# _framework density 19.770697999999999
#
# number of rings (size 3 to 8) (size 9 to 14) (size 15 to 20)
#    0.000    2.143    0.000    3.857    0.000    7.429 
#    0.000    2.857    0.000    0.000    0.000    0.000 
#    0.000    0.000    0.000    0.000    0.000    0.000 
#
# Total GULP energy -347302.846102 kJ/mol
# GULP energy per Si atom -12403.673075 kJ/mol
# Density = 1.972570 g / cm^3
# Si number density = 19.770698 Si / 1000 Ang^3
#
#
#
# Elastic Constant Matrix: (Units=GPa)
#
#
# Indices 1 2 3 4 5 6 
#
# 1 72.1278 25.0760 34.1532 0.0000 0.0000 0.0000
# 2 25.0760 78.4133 34.6034 0.0000 0.0000 0.0000
# 3 34.1532 34.6034 95.6125 0.0005 -0.0003 0.0000
# 4 0.0000 0.0000 0.0005 21.2141 -0.0001 0.0000
# 5 0.0000 0.0000 -0.0003 -0.0001 31.0827 0.0000
# 6 0.0000 0.0000 0.0000 0.0000 0.0000 30.6072
#
#
#
# Elastic Compliance Matrix: (Units=1/GPa)
#
#
# Indices 1 2 3 4 5 6 
#
# 1 0.017399 -0.003358 -0.005000 0.000000 0.000000 0.000000
# 2 -0.003358 0.015825 -0.004528 0.000000 0.000000 0.000000
# 3 -0.005000 -0.004528 0.013884 0.000000 0.000000 0.000000
# 4 0.000000 0.000000 0.000000 0.047138 0.000000 0.000000
# 5 0.000000 0.000000 0.000000 0.000000 0.032172 0.000000
# 6 0.000000 0.000000 0.000000 0.000000 0.000000 0.032672
#
#
# Mechanical properties :
#
#
# Convention : Reuss Voigt Hill
#
# Bulk Modulus (GPa) = 46.86757 48.20208 47.53482
# Shear Modulus (GPa) = 26.04531 26.73553 26.39042
#
# Velocity S-wave (km/s) = 3.63350 3.68133 3.65749
# Velocity P-wave (km/s) = 6.43118 6.51944 6.47546
#
# Compressibility (1/GPa) = 0.02133672
#
# Stress axis : x y z
#
# Youngs Moduli (GPa) = 57.47431 63.19190 72.02784
#
# Poissons Ratio (x) = 0.21218 0.36013
# Poissons Ratio (y) = 0.19298 0.32613
# Poissons Ratio (z) = 0.28736 0.28612
#
# Static dielectric constant tensor:
#      x y z
#    x 3.532700 0.000000 0.000000 
#    y 0.000000 3.711330 0.000000 
#    z 0.000000 0.000000 3.451560 
# 
# 
# High freq. dielectric constant tensor:
#      x y z
#    x 1.770150 0.000000 0.000000 
#    y 0.000000 1.769570 0.000000 
#    z 0.000000 0.000000 1.766750 
# 
# From -- ./inp_files/16496.got.cif
#   From: 2010.03.12/outbox.cif.g09.slc.cpg/sg44_9_cif.got.tgz:16496.got - 2010.04.14 02:36:11.
