data_PCOD8189414
_publ_section_title
;
Structure prediction by ZEFSAII (Michael W. Deem and Ramdas Pophale) SiO2 
 PCOD8189414
Probable space group: I M M 2
;
_chemical_formula_sum "Si O2"
_cell_formula_units_Z 56
_cell_length_a 14.282236
_cell_length_b 8.749697
_cell_length_c 22.884959
_cell_angle_alpha 90.000000
_cell_angle_beta 90.000000
_cell_angle_gamma 90.000000
_cell_volume 2859.824336
_symmetry_space_group_name_H-M "I M M 2"
_symmetry_group_IT_number 44
_symmetry_cell_setting 'orthorhombic'
loop_
_space_group_symop_operation_xyz
x,y,z
-x,-y,z
-x,y,z
x,-y,z
1/2+x,1/2+y,1/2+z
1/2-x,1/2-y,1/2+z
1/2-x,1/2+y,1/2+z
1/2+x,1/2-y,1/2+z
loop_
_atom_site_type_symbol
_atom_site_label
_atom_site_fract_x
_atom_site_fract_y
_atom_site_fract_z
Si Si1 0.608031 0.324066 0.394760
Si Si2 0.396043 0.823583 0.517352
Si Si3 0.715500 0.178593 0.291800
Si Si4 0.791215 0.821314 0.570691
Si Si5 0.108392 0.174258 0.456152
Si Si6 0.106954 0.818387 0.684517
Si Si7 0.893796 0.679410 0.334317
O O1 0.500000 0.296427 0.378294
O O2 0.636358 0.500000 0.385301
O O3 0.626807 0.279472 0.461553
O O4 0.671400 0.218044 0.354346
O O5 0.500000 0.787413 0.541993
O O6 0.320494 0.787192 0.568235
O O7 0.388080 0.000000 0.497780
O O8 0.654955 0.259831 0.242705
O O9 0.822990 0.236955 0.289953
O O10 0.713732 0.000000 0.280589
O O11 0.837199 0.755152 0.511583
O O12 0.836943 0.748859 0.628748
O O13 0.813427 0.000000 0.572111
O O14 0.132963 0.277394 0.400541
O O15 0.000000 0.181483 0.472205
O O16 0.139471 0.000000 0.442317
O O17 0.000000 0.760444 0.681726
O O18 0.110989 0.000000 0.685354
O O19 0.882751 0.500000 0.326110
O O20 0.000000 0.732940 0.320154
#
# Coordination Sequence:
#
# PCOD8189414 Si02
#       7
#     8   8   8   8   8   8   8
#     4  10  20  34  54  81 112 145 181 223 272 324
#     4   9  17  30  50  78 110 141 175 217 265 320
#     4  12  24  37  55  78 107 143 181 223 272 325
#     4   9  17  31  52  76 103 139 181 221 263 313
#     4   9  16  28  50  80 110 139 173 214 262 315
#     4  10  21  38  58  78 103 138 182 229 271 316
#     4  10  21  37  57  82 111 142 178 220 265 316
#
# _framework density 19.581623
#
# number of rings (size 3 to 8) (size 9 to 14) (size 15 to 20)
#    0.000    2.143    0.000    3.857    0.000    6.571 
#    0.000    2.143    0.000    4.286    0.000    0.000 
#    0.000    0.000    0.000    0.000    0.000    0.000 
#
# Total GULP energy -347210.496479 kJ/mol
# GULP energy per Si atom -12400.374874 kJ/mol
# Density = 1.953705 g / cm^3
# Si number density = 19.581623 Si / 1000 Ang^3
#
#
#
# Elastic Constant Matrix: (Units=GPa)
#
#
# Indices 1 2 3 4 5 6 
#
# 1 145.6283 23.5452 72.4855 0.0000 0.0000 0.0000
# 2 23.5452 18.0037 12.7030 0.0000 0.0000 0.0000
# 3 72.4855 12.7030 74.1677 0.0000 0.0000 0.0000
# 4 0.0000 0.0000 0.0000 20.3601 0.0000 0.0000
# 5 0.0000 0.0000 0.0000 0.0000 36.2300 0.0000
# 6 0.0000 0.0000 0.0000 0.0000 0.0000 21.8666
#
#
#
# Elastic Compliance Matrix: (Units=1/GPa)
#
#
# Indices 1 2 3 4 5 6 
#
# 1 0.014934 -0.010502 -0.012797 0.000000 0.000000 0.000000
# 2 -0.010502 0.070564 -0.001822 0.000000 0.000000 0.000000
# 3 -0.012797 -0.001822 0.026302 0.000000 0.000000 0.000000
# 4 0.000000 0.000000 0.000000 0.049116 0.000000 0.000000
# 5 0.000000 0.000000 0.000000 0.000000 0.027601 0.000000
# 6 0.000000 0.000000 0.000000 0.000000 0.000000 0.045732
#
#
# Mechanical properties :
#
#
# Convention : Reuss Voigt Hill
#
# Bulk Modulus (GPa) = 16.24479 50.58523 33.41501
# Shear Modulus (GPa) = 16.39291 24.29573 20.34432
#
# Velocity S-wave (km/s) = 2.89651 3.52624 3.22677
# Velocity P-wave (km/s) = 4.41591 6.51677 5.56635
#
# Compressibility (1/GPa) = 0.06155819
#
# Stress axis : x y z
#
# Youngs Moduli (GPa) = 66.96008 14.17155 38.02043
#
# Poissons Ratio (x) = 0.14883 0.48654
# Poissons Ratio (y) = 0.70320 0.06928
# Poissons Ratio (z) = 0.85688 0.02582
#
# Static dielectric constant tensor:
#      x y z
#    x 3.962680 0.000000 0.000000 
#    y 0.000000 3.371270 0.000000 
#    z 0.000000 0.000000 3.434790 
# 
# 
# High freq. dielectric constant tensor:
#      x y z
#    x 1.784230 0.000000 0.000000 
#    y 0.000000 1.740540 0.000000 
#    z 0.000000 0.000000 1.739570 
# 
# From -- ./inp_files/23028.got.cif
#   From: 2010.03.12/outbox.cif.g09.slc.cpg/sg44_12_cif.got.tgz:23028.got - 2010.04.14 02:36:11.
