data_PCOD8189817
_publ_section_title
;
Structure prediction by ZEFSAII (Michael W. Deem and Ramdas Pophale) SiO2 
 PCOD8189817
Probable space group: I M M 2
;
_chemical_formula_sum "Si O2"
_cell_formula_units_Z 40
_cell_length_a 17.430770
_cell_length_b 27.024973
_cell_length_c 4.855120
_cell_angle_alpha 90.000000
_cell_angle_beta 90.000000
_cell_angle_gamma 90.000000
_cell_volume 2287.082388
_symmetry_space_group_name_H-M "I M M 2"
_symmetry_group_IT_number 44
_symmetry_cell_setting 'orthorhombic'
loop_
_space_group_symop_operation_xyz
x,y,z
-x,-y,z
-x,y,z
x,-y,z
1/2+x,1/2+y,1/2+z
1/2-x,1/2-y,1/2+z
1/2-x,1/2+y,1/2+z
1/2+x,1/2-y,1/2+z
loop_
_atom_site_type_symbol
_atom_site_label
_atom_site_fract_x
_atom_site_fract_y
_atom_site_fract_z
Si Si1 0.500000 0.810742 0.648950
Si Si2 0.625270 0.115964 0.877285
Si Si3 0.500000 0.741900 0.128318
Si Si4 0.756471 0.684738 0.643744
Si Si5 0.413827 0.055769 0.394865
Si Si6 0.165112 0.787031 0.653852
O O1 0.423876 0.841655 0.722368
O O2 0.500000 0.790147 0.333798
O O3 0.500000 0.761031 0.819426
O O4 0.701608 0.135994 0.028805
O O5 0.643871 0.078121 0.626371
O O6 0.580737 0.087273 0.115916
O O7 0.426170 0.706163 0.141570
O O8 0.817940 0.728828 0.617100
O O9 0.718895 0.680330 0.947736
O O10 0.683266 0.695954 0.459322
O O11 0.500000 0.056790 0.520978
O O12 0.387176 0.000000 0.326321
#
# Coordination Sequence:
#
# PCOD8189817 Si02
#       6
#     4   8   4   8   8   8
#     4  12  22  30  49  80  94 134 188 210 249 296
#     4  12  21  35  52  71 102 138 178 222 252 303
#     4  12  22  34  52  70 103 136 175 222 250 298
#     4  10  21  33  49  69  99 129 171 211 256 296
#     4  11  22  35  50  73 102 135 175 220 265 305
#     4  10  21  34  47  71  98 132 166 214 257 297
#
# _framework density 17.489532000000001
#
# number of rings (size 3 to 8) (size 9 to 14) (size 15 to 20)
#    0.000    1.000    4.000    4.200    5.600    1.600 
#    0.000    0.000    0.000    0.000    0.000    0.000 
#    0.000    0.000    0.000   63.000    0.000    0.000 
#
# Total GULP energy -247854.556839 kJ/mol
# GULP energy per Si atom -12392.727842 kJ/mol
# Density = 1.744972 g / cm^3
# Si number density = 17.489532 Si / 1000 Ang^3
#
#
#
# Elastic Constant Matrix: (Units=GPa)
#
#
# Indices 1 2 3 4 5 6 
#
# 1 81.4226 15.2636 3.7203 0.0004 -0.0017 0.0003
# 2 15.2636 49.9693 10.5586 0.0002 -0.0011 0.0002
# 3 3.7203 10.5586 72.6801 0.0010 -0.0065 0.0026
# 4 0.0004 0.0002 0.0010 22.0202 -0.0002 -0.0003
# 5 -0.0017 -0.0011 -0.0065 -0.0002 4.4025 -0.0001
# 6 0.0003 0.0002 0.0026 -0.0003 -0.0001 11.4167
#
#
#
# Elastic Compliance Matrix: (Units=1/GPa)
#
#
# Indices 1 2 3 4 5 6 
#
# 1 0.013028 -0.003960 -0.000092 0.000000 0.000004 0.000000
# 2 -0.003960 0.021850 -0.002972 0.000000 0.000000 0.000000
# 3 -0.000092 -0.002972 0.014195 -0.000001 0.000020 -0.000003
# 4 0.000000 0.000000 -0.000001 0.045413 0.000002 0.000001
# 5 0.000004 0.000000 0.000020 0.000002 0.227141 0.000002
# 6 0.000000 0.000000 -0.000003 0.000001 0.000002 0.087591
#
#
# Mechanical properties :
#
#
# Convention : Reuss Voigt Hill
#
# Bulk Modulus (GPa) = 28.54962 29.23965 28.89463
# Shear Modulus (GPa) = 11.49581 19.20319 15.34950
#
# Velocity S-wave (km/s) = 2.56656 3.31718 2.96571
# Velocity P-wave (km/s) = 5.01420 5.60591 5.31829
#
# Compressibility (1/GPa) = 0.03502674
#
# Stress axis : x y z
#
# Youngs Moduli (GPa) = 76.75668 45.76685 70.44587
#
# Poissons Ratio (x) = 0.18125 0.00645
# Poissons Ratio (y) = 0.30397 0.20933
# Poissons Ratio (z) = 0.00703 0.13600
#
# Static dielectric constant tensor:
#      x y z
#    x 2.999860 0.000000 0.000000 
#    y 0.000000 3.072580 0.000000 
#    z 0.000000 0.000000 3.484100 
# 
# 
# High freq. dielectric constant tensor:
#      x y z
#    x 1.646200 0.000000 0.000000 
#    y 0.000000 1.630210 0.000000 
#    z 0.000000 0.000000 1.705000 
# 
# From -- ./inp_files/1493.got.cif
#   From: 2010.03.12/outbox.cif.g09.slc.cpg/sg44_1_cif.got.tgz:1493.got - 2010.04.14 02:36:11.
