data_PCOD8189882
_publ_section_title
;
Structure prediction by ZEFSAII (Michael W. Deem and Ramdas Pophale) SiO2 
 PCOD8189882
Probable space group: I M M 2
;
_chemical_formula_sum "Si O2"
_cell_formula_units_Z 64
_cell_length_a 9.187676
_cell_length_b 14.681531
_cell_length_c 24.165232
_cell_angle_alpha 90.000000
_cell_angle_beta 90.000000
_cell_angle_gamma 90.000000
_cell_volume 3259.627604
_symmetry_space_group_name_H-M "I M M 2"
_symmetry_group_IT_number 44
_symmetry_cell_setting 'orthorhombic'
loop_
_space_group_symop_operation_xyz
x,y,z
-x,-y,z
-x,y,z
x,-y,z
1/2+x,1/2+y,1/2+z
1/2-x,1/2-y,1/2+z
1/2-x,1/2+y,1/2+z
1/2+x,1/2-y,1/2+z
loop_
_atom_site_type_symbol
_atom_site_label
_atom_site_fract_x
_atom_site_fract_y
_atom_site_fract_z
Si Si1 0.330528 0.395633 0.444890
Si Si2 0.835552 0.391648 0.552572
Si Si3 0.330916 0.393217 0.916185
Si Si4 0.830212 0.263445 0.237764
Si Si5 0.832212 0.103281 0.159641
Si Si6 0.326837 0.101083 0.643430
Si Si7 0.338455 0.108165 0.522873
Si Si8 0.328506 0.254023 0.350351
O O1 0.500000 0.389050 0.458598
O O2 0.284905 0.500000 0.432107
O O3 0.246490 0.355132 0.498058
O O4 0.287718 0.335298 0.392118
O O5 0.827407 0.500000 0.552335
O O6 0.758543 0.356076 0.608293
O O7 0.000000 0.355414 0.551561
O O8 0.500000 0.369261 0.912802
O O9 0.301814 0.500000 0.907361
O O10 0.246423 0.340277 0.868185
O O11 0.271167 0.358702 0.975400
O O12 0.803071 0.161799 0.214700
O O13 0.771265 0.333222 0.191531
O O14 0.734101 0.282210 0.291224
O O15 0.000000 0.279293 0.251589
O O16 0.000000 0.109770 0.141722
O O17 0.786522 0.000000 0.173944
O O18 0.500000 0.097270 0.642631
O O19 0.277962 0.139730 0.583009
O O20 0.262761 0.000000 0.654137
O O21 0.500000 0.148380 0.510374
O O22 0.348758 0.000000 0.524241
O O23 0.500000 0.238423 0.346292
#
# Coordination Sequence:
#
# PCOD8189882 Si02
#       8
#     8   8   8   8   8   8   8   8
#     4   9  19  37  58  78 105 142 179 216 263 320
#     4   9  17  30  52  83 112 135 166 212 264 315
#     4  10  21  37  57  81 110 142 175 216 267 319
#     4  10  21  36  53  74 101 136 181 223 257 305
#     4   9  18  33  52  74 104 141 174 206 252 312
#     4   8  15  30  53  79 105 134 169 212 262 313
#     4   8  14  28  52  80 108 137 172 213 257 311
#     4  11  24  39  55  77 105 140 184 227 266 313
#
# _framework density 19.634145
#
# number of rings (size 3 to 8) (size 9 to 14) (size 15 to 20)
#    0.000    2.750    0.000    1.875    0.000    5.750 
#    0.000    4.375    0.000    0.750    0.000    0.000 
#    0.000    0.000    0.000    0.000    0.000    0.000 
#
# Total GULP energy -396786.332756 kJ/mol
# GULP energy per Si atom -12399.572899 kJ/mol
# Density = 1.958946 g / cm^3
# Si number density = 19.634145 Si / 1000 Ang^3
#
#
#
# Elastic Constant Matrix: (Units=GPa)
#
#
# Indices 1 2 3 4 5 6 
#
# 1 71.0212 14.3436 32.4381 0.0000 0.0000 0.0000
# 2 14.3436 46.1903 12.5652 0.0000 0.0000 0.0000
# 3 32.4381 12.5652 94.6083 0.0000 0.0000 0.0000
# 4 0.0000 0.0000 0.0000 31.0796 0.0000 0.0000
# 5 0.0000 0.0000 0.0000 0.0000 39.0340 0.0000
# 6 0.0000 0.0000 0.0000 0.0000 0.0000 17.0585
#
#
#
# Elastic Compliance Matrix: (Units=1/GPa)
#
#
# Indices 1 2 3 4 5 6 
#
# 1 0.017350 -0.003911 -0.005429 0.000000 0.000000 0.000000
# 2 -0.003911 0.023343 -0.001759 0.000000 0.000000 0.000000
# 3 -0.005429 -0.001759 0.012665 0.000000 0.000000 0.000000
# 4 0.000000 0.000000 0.000000 0.032175 0.000000 0.000000
# 5 0.000000 0.000000 0.000000 0.000000 0.025619 0.000000
# 6 0.000000 0.000000 0.000000 0.000000 0.000000 0.058622
#
#
# Mechanical properties :
#
#
# Convention : Reuss Voigt Hill
#
# Bulk Modulus (GPa) = 32.09372 36.72375 34.40874
# Shear Modulus (GPa) = 24.70863 27.59929 26.15396
#
# Velocity S-wave (km/s) = 3.55131 3.75330 3.65371
# Velocity P-wave (km/s) = 5.76170 6.12599 5.94663
#
# Compressibility (1/GPa) = 0.03115875
#
# Stress axis : x y z
#
# Youngs Moduli (GPa) = 57.63725 42.84019 78.95717
#
# Poissons Ratio (x) = 0.16754 0.42868
# Poissons Ratio (y) = 0.22541 0.13891
# Poissons Ratio (z) = 0.31293 0.07537
#
# Static dielectric constant tensor:
#      x y z
#    x 3.434550 0.000000 0.000000 
#    y 0.000000 3.589690 0.000000 
#    z 0.000000 0.000000 3.653440 
# 
# 
# High freq. dielectric constant tensor:
#      x y z
#    x 1.745700 0.000000 0.000000 
#    y 0.000000 1.760000 0.000000 
#    z 0.000000 0.000000 1.764660 
# 
# From -- ./inp_files/25100.got.cif
#   From: 2010.03.12/outbox.cif.g09.slc.cpg/sg44_13_cif.got.tgz:25100.got - 2010.04.14 02:36:11.
