data_PCOD8189031
_publ_section_title
;
Structure prediction by ZEFSAII (Michael W. Deem and Ramdas Pophale) SiO2 
 PCOD8189031
Probable space group: I M M 2
;
_chemical_formula_sum "Si O2"
_cell_formula_units_Z 64
_cell_length_a 9.063260
_cell_length_b 23.786392
_cell_length_c 15.129817
_cell_angle_alpha 90.000000
_cell_angle_beta 90.000000
_cell_angle_gamma 90.000000
_cell_volume 3261.720069
_symmetry_space_group_name_H-M "I M M 2"
_symmetry_group_IT_number 44
_symmetry_cell_setting 'orthorhombic'
loop_
_space_group_symop_operation_xyz
x,y,z
-x,-y,z
-x,y,z
x,-y,z
1/2+x,1/2+y,1/2+z
1/2-x,1/2-y,1/2+z
1/2-x,1/2+y,1/2+z
1/2+x,1/2-y,1/2+z
loop_
_atom_site_type_symbol
_atom_site_label
_atom_site_fract_x
_atom_site_fract_y
_atom_site_fract_z
Si Si1 0.326254 0.435781 0.604600
Si Si2 0.168219 0.243372 0.500136
Si Si3 0.330406 0.133653 0.453899
Si Si4 0.173644 0.065293 0.604597
Si Si5 0.169301 0.632323 0.455957
Si Si6 0.169300 0.632328 0.753242
Si Si7 0.830407 0.633647 0.255298
Si Si8 0.668217 0.256635 0.209064
O O1 0.500000 0.429343 0.604587
O O2 0.274838 0.500000 0.604618
O O3 0.265993 0.407823 0.516058
O O4 0.266019 0.407806 0.693136
O O5 0.273149 0.197270 0.456747
O O6 0.224759 0.303719 0.466697
O O7 0.182901 0.239418 0.604600
O O8 0.000000 0.232597 0.469916
O O9 0.500000 0.132738 0.484356
O O10 0.237977 0.093107 0.516754
O O11 0.313029 0.111719 0.353905
O O12 0.237973 0.093100 0.692446
O O13 0.000000 0.075684 0.604595
O O14 0.215521 0.000000 0.604590
O O15 0.186969 0.611716 0.355294
O O16 0.000000 0.628846 0.487750
O O17 0.224738 0.696289 0.742513
O O18 0.000000 0.628841 0.721447
O O19 0.773156 0.697265 0.252448
O O20 0.000000 0.632729 0.224839
O O21 0.500000 0.267418 0.239279
#
# Coordination Sequence:
#
# PCOD8189031 Si02
#       8
#     8   8   8   8   8   8   8   8
#     4  11  25  42  61  88 119 154 200 251 296 345
#     4  10  19  35  61  89 122 159 194 235 289 354
#     4  11  23  38  62  93 122 153 195 245 296 350
#     4  11  25  44  63  82 113 160 204 245 298 353
#     4  10  22  41  63  89 121 159 197 239 294 352
#     4  10  22  41  63  89 121 159 197 239 294 352
#     4  11  23  38  62  93 122 153 195 245 296 350
#     4  10  19  35  61  89 122 159 194 235 289 354
#
# _framework density 19.621549999999999
#
# number of rings (size 3 to 8) (size 9 to 14) (size 15 to 20)
#    0.000    1.500    2.500    2.250    0.000    6.000 
#    0.000    5.000    0.000    0.000    0.000    0.000 
#    0.000    0.000    0.000    0.000    0.000    0.000 
#
# Total GULP energy -396973.087977 kJ/mol
# GULP energy per Si atom -12405.408999 kJ/mol
# Density = 1.957689 g / cm^3
# Si number density = 19.621550 Si / 1000 Ang^3
#
#
#
# Elastic Constant Matrix: (Units=GPa)
#
#
# Indices 1 2 3 4 5 6 
#
# 1 90.0915 72.8817 46.6459 0.0000 -0.0001 0.0000
# 2 72.8817 150.3828 58.9338 -0.0001 0.0001 -0.0001
# 3 46.6459 58.9338 104.1355 -0.0008 0.0009 -0.0010
# 4 0.0000 -0.0001 -0.0008 0.2990 0.0000 0.0001
# 5 -0.0001 0.0001 0.0009 0.0000 28.8741 0.0001
# 6 0.0000 -0.0001 -0.0010 0.0001 0.0001 19.3551
#
#
#
# Elastic Compliance Matrix: (Units=1/GPa)
#
#
# Indices 1 2 3 4 5 6 
#
# 1 0.019710 -0.007829 -0.004398 -0.000012 0.000000 0.000000
# 2 -0.007829 0.011654 -0.003089 -0.000004 0.000000 0.000000
# 3 -0.004398 -0.003089 0.013321 0.000032 0.000000 0.000001
# 4 -0.000012 -0.000004 0.000032 3.344217 -0.000006 -0.000015
# 5 0.000000 0.000000 0.000000 -0.000006 0.034633 0.000000
# 6 0.000000 0.000000 0.000001 -0.000015 0.000000 0.051666
#
#
# Mechanical properties :
#
#
# Convention : Reuss Voigt Hill
#
# Bulk Modulus (GPa) = 71.15459 77.94806 74.55133
# Shear Modulus (GPa) = 1.42429 20.78221 11.10325
#
# Velocity S-wave (km/s) = 0.85291 3.25799 2.38138
# Velocity P-wave (km/s) = 6.10837 7.34607 6.75562
#
# Compressibility (1/GPa) = 0.01405391
#
# Stress axis : x y z
#
# Youngs Moduli (GPa) = 50.73451 85.80509 75.06876
#
# Poissons Ratio (x) = 0.67175 0.33018
# Poissons Ratio (y) = 0.39719 0.23187
# Poissons Ratio (z) = 0.22315 0.26503
#
# Static dielectric constant tensor:
#      x y z
#    x 3.615400 0.000000 0.000000 
#    y 0.000000 3.595140 0.000000 
#    z 0.000000 0.000000 3.602030 
# 
# 
# High freq. dielectric constant tensor:
#      x y z
#    x 1.766820 0.000000 0.000000 
#    y 0.000000 1.762600 0.000000 
#    z 0.000000 0.000000 1.778110 
# 
# From -- ./inp_files/16793.got.cif
#   From: 2010.03.12/outbox.cif.g09.slc.cpg/sg44_9_cif.got.tgz:16793.got - 2010.04.14 02:36:11.
