data_PCOD8189874
_publ_section_title
;
Structure prediction by ZEFSAII (Michael W. Deem and Ramdas Pophale) SiO2 
 PCOD8189874
Probable space group: I M M 2
;
_chemical_formula_sum "Si O2"
_cell_formula_units_Z 64
_cell_length_a 18.298811
_cell_length_b 9.355055
_cell_length_c 20.573231
_cell_angle_alpha 90.000000
_cell_angle_beta 90.000000
_cell_angle_gamma 90.000000
_cell_volume 3521.857009
_symmetry_space_group_name_H-M "I M M 2"
_symmetry_group_IT_number 44
_symmetry_cell_setting 'orthorhombic'
loop_
_space_group_symop_operation_xyz
x,y,z
-x,-y,z
-x,y,z
x,-y,z
1/2+x,1/2+y,1/2+z
1/2-x,1/2-y,1/2+z
1/2-x,1/2+y,1/2+z
1/2+x,1/2-y,1/2+z
loop_
_atom_site_type_symbol
_atom_site_label
_atom_site_fract_x
_atom_site_fract_y
_atom_site_fract_z
Si Si1 0.584367 0.834988 0.870970
Si Si2 0.586920 0.661676 0.994777
Si Si3 0.413152 0.341954 0.499559
Si Si4 0.914657 0.833795 0.854650
Si Si5 0.172693 0.331017 0.747097
Si Si6 0.915440 0.334478 0.618827
Si Si7 0.676892 0.167223 0.744221
Si Si8 0.083263 0.667072 0.120357
O O1 0.500000 0.799213 0.855958
O O2 0.630217 0.795648 0.807655
O O3 0.593457 0.000000 0.890488
O O4 0.615701 0.741322 0.930399
O O5 0.500000 0.666290 0.994775
O O6 0.616830 0.500000 0.995138
O O7 0.615808 0.742397 0.058836
O O8 0.500000 0.342797 0.499598
O O9 0.382973 0.500000 0.514778
O O10 0.387851 0.294370 0.427618
O O11 0.382753 0.238078 0.555494
O O12 0.870397 0.731664 0.807750
O O13 0.000000 0.801716 0.845637
O O14 0.897999 0.000000 0.839723
O O15 0.179493 0.500000 0.755769
O O16 0.129701 0.289721 0.681940
O O17 0.251748 0.262293 0.744052
O O18 0.905029 0.500000 0.600972
O O19 0.000000 0.299174 0.632913
O O20 0.629684 0.214435 0.682264
O O21 0.697303 0.000000 0.741813
O O22 0.087033 0.500000 0.108848
O O23 0.000000 0.717431 0.132225
#
# Coordination Sequence:
#
# PCOD8189874 Si02
#       8
#     8   8   8   8   8   8   8   8
#     4   9  17  32  55  78 100 131 169 207 250 302
#     4   9  17  29  49  79 107 127 156 204 255 299
#     4   8  15  29  50  77 105 130 160 201 249 301
#     4   9  18  34  56  79 103 134 171 208 249 301
#     4  11  23  36  51  74 104 136 172 213 254 297
#     4   9  18  34  54  74  98 130 167 205 247 298
#     4  10  21  36  52  72 102 138 173 208 250 302
#     4   9  17  31  53  79 103 129 166 211 254 297
#
# _framework density 18.172232000000001
#
# number of rings (size 3 to 8) (size 9 to 14) (size 15 to 20)
#    0.000    2.750    0.000    2.250    0.000    6.250 
#    0.000    3.750    0.000    5.250    0.000    0.000 
#    0.000    0.000    0.000    0.000    0.000    0.000 
#
# Total GULP energy -396782.800634 kJ/mol
# GULP energy per Si atom -12399.462520 kJ/mol
# Density = 1.813087 g / cm^3
# Si number density = 18.172232 Si / 1000 Ang^3
#
#
#
# Elastic Constant Matrix: (Units=GPa)
#
#
# Indices 1 2 3 4 5 6 
#
# 1 73.6419 51.8112 66.6750 0.0000 0.0000 0.0000
# 2 51.8112 90.8186 90.5630 0.0000 0.0000 0.0000
# 3 66.6750 90.5630 185.6185 0.0000 0.0000 0.0000
# 4 0.0000 0.0000 0.0000 33.0016 0.0000 0.0000
# 5 0.0000 0.0000 0.0000 0.0000 -2.3832 0.0000
# 6 0.0000 0.0000 0.0000 0.0000 0.0000 23.9364
#
#
#
# Elastic Compliance Matrix: (Units=1/GPa)
#
#
# Indices 1 2 3 4 5 6 
#
# 1 0.023969 -0.009910 -0.003775 0.000000 0.000000 0.000000
# 2 -0.009910 0.025541 -0.008902 0.000000 0.000000 0.000000
# 3 -0.003775 -0.008902 0.011086 0.000000 0.000000 0.000000
# 4 0.000000 0.000000 0.000000 0.030302 0.000000 0.000000
# 5 0.000000 0.000000 0.000000 0.000000 -0.419602 0.000000
# 6 0.000000 0.000000 0.000000 0.000000 0.000000 0.041777
#
#
# Mechanical properties :
#
#
# Convention : Reuss Voigt Hill
#
# Bulk Modulus (GPa) = 64.83531 85.35305 75.09418
# Shear Modulus (GPa) = -21.13168 20.31294 -0.40937
#
# Velocity S-wave (km/s) = -3.41377 3.34698 -0.47514
# Velocity P-wave (km/s) = 4.49636 7.87447 6.41189
#
# Compressibility (1/GPa) = 0.01542370
#
# Stress axis : x y z
#
# Youngs Moduli (GPa) = 41.72036 39.15212 90.19984
#
# Poissons Ratio (x) = 0.38800 0.34048
# Poissons Ratio (y) = 0.41345 0.80295
# Poissons Ratio (z) = 0.15748 0.34853
#
# Static dielectric constant tensor:
#      x y z
#    x 3.085660 0.000000 0.000000 
#    y 0.000000 3.393370 0.000000 
#    z 0.000000 0.000000 3.592410 
# 
# 
# High freq. dielectric constant tensor:
#      x y z
#    x 1.672620 0.000000 0.000000 
#    y 0.000000 1.701980 0.000000 
#    z 0.000000 0.000000 1.720450 
# 
# From -- ./inp_files/24358.got.cif
#   From: 2010.03.12/outbox.cif.g09.slc.cpg/sg44_13_cif.got.tgz:24358.got - 2010.04.14 02:36:11.
