data_PCOD8189460
_publ_section_title
;
Structure prediction by ZEFSAII (Michael W. Deem and Ramdas Pophale) SiO2 
 PCOD8189460
Probable space group: I M M 2
;
_chemical_formula_sum "Si O2"
_cell_formula_units_Z 48
_cell_length_a 8.846231
_cell_length_b 24.596229
_cell_length_c 12.285205
_cell_angle_alpha 90.000000
_cell_angle_beta 90.000000
_cell_angle_gamma 90.000000
_cell_volume 2673.063104
_symmetry_space_group_name_H-M "I M M 2"
_symmetry_group_IT_number 44
_symmetry_cell_setting 'orthorhombic'
loop_
_space_group_symop_operation_xyz
x,y,z
-x,-y,z
-x,y,z
x,-y,z
1/2+x,1/2+y,1/2+z
1/2-x,1/2-y,1/2+z
1/2-x,1/2+y,1/2+z
1/2+x,1/2-y,1/2+z
loop_
_atom_site_type_symbol
_atom_site_label
_atom_site_fract_x
_atom_site_fract_y
_atom_site_fract_z
Si Si1 0.178357 0.670714 0.175950
Si Si2 0.176060 0.437243 0.791614
Si Si3 0.174177 0.061740 0.069259
Si Si4 0.829599 0.131895 0.477254
Si Si5 0.323894 0.654876 0.404371
Si Si6 0.171154 0.248909 0.528385
O O1 0.226650 0.653199 0.295566
O O2 0.000000 0.677531 0.170928
O O3 0.233362 0.624468 0.089380
O O4 0.257356 0.728429 0.143544
O O5 0.218838 0.500000 0.810987
O O6 0.227475 0.418819 0.671879
O O7 0.260022 0.401717 0.880132
O O8 0.000000 0.426463 0.803156
O O9 0.000000 0.067587 0.103558
O O10 0.214356 0.000000 0.036186
O O11 0.212812 0.099034 0.966469
O O12 0.828915 0.196480 0.447104
O O13 0.000000 0.111509 0.498673
O O14 0.500000 0.660427 0.375778
O O15 0.275881 0.704704 0.479966
O O16 0.000000 0.270221 0.546812
#
# Coordination Sequence:
#
# PCOD8189460 Si02
#       6
#     8   8   8   8   8   8
#     4  10  20  36  56  79 112 146 182 229 277 325
#     4  10  20  34  56  85 114 145 184 230 279 330
#     4   9  20  38  57  79 109 145 187 232 276 328
#     4   9  19  36  56  79 110 146 184 226 273 325
#     4  11  21  35  58  84 111 147 188 227 279 335
#     4   9  20  36  54  80 111 143 182 225 272 327
#
# _framework density 17.956928000000001
#
# number of rings (size 3 to 8) (size 9 to 14) (size 15 to 20)
#    1.000    1.333    0.000    3.000    0.000    3.667 
#    0.000    2.500    0.000    3.000    0.000    0.000 
#    0.000    0.000    0.000    0.000    0.000    0.000 
#
# Total GULP energy -297488.077757 kJ/mol
# GULP energy per Si atom -12395.336573 kJ/mol
# Density = 1.791606 g / cm^3
# Si number density = 17.956928 Si / 1000 Ang^3
#
#
#
# Elastic Constant Matrix: (Units=GPa)
#
#
# Indices 1 2 3 4 5 6 
#
# 1 100.2113 35.1898 43.7933 0.0000 0.0000 0.0000
# 2 35.1898 66.2650 49.0409 0.0000 0.0000 0.0000
# 3 43.7933 49.0409 103.5000 -0.0001 0.0000 -0.0001
# 4 0.0000 0.0000 -0.0001 31.2697 0.0000 0.0000
# 5 0.0000 0.0000 0.0000 0.0000 34.9573 0.0000
# 6 0.0000 0.0000 -0.0001 0.0000 0.0000 25.5835
#
#
#
# Elastic Compliance Matrix: (Units=1/GPa)
#
#
# Indices 1 2 3 4 5 6 
#
# 1 0.013015 -0.004368 -0.003437 0.000000 0.000000 0.000000
# 2 -0.004368 0.024706 -0.009858 0.000000 0.000000 0.000000
# 3 -0.003437 -0.009858 0.015787 0.000000 0.000000 0.000000
# 4 0.000000 0.000000 0.000000 0.031980 0.000000 0.000000
# 5 0.000000 0.000000 0.000000 0.000000 0.028606 0.000000
# 6 0.000000 0.000000 0.000000 0.000000 0.000000 0.039088
#
#
# Mechanical properties :
#
#
# Convention : Reuss Voigt Hill
#
# Bulk Modulus (GPa) = 55.00026 58.44716 56.72371
# Shear Modulus (GPa) = 25.69772 27.82558 26.76165
#
# Velocity S-wave (km/s) = 3.78706 3.94073 3.86466
# Velocity P-wave (km/s) = 7.05818 7.30240 7.18133
#
# Compressibility (1/GPa) = 0.01818173
#
# Stress axis : x y z
#
# Youngs Moduli (GPa) = 76.83574 40.47557 63.34134
#
# Poissons Ratio (x) = 0.17678 0.21773
# Poissons Ratio (y) = 0.33558 0.62445
# Poissons Ratio (z) = 0.26412 0.39903
#
# Static dielectric constant tensor:
#      x y z
#    x 3.420550 0.000000 0.000000 
#    y 0.000000 3.219300 0.000000 
#    z 0.000000 0.000000 3.180990 
# 
# 
# High freq. dielectric constant tensor:
#      x y z
#    x 1.712180 0.000000 0.000000 
#    y 0.000000 1.678100 0.000000 
#    z 0.000000 0.000000 1.685910 
# 
# From -- ./inp_files/11211.got.cif
#   From: 2010.03.12/outbox.cif.g09.slc.cpg/sg44_6_cif.got.tgz:11211.got - 2010.04.14 02:36:11.
