data_PCOD8189189
_publ_section_title
;
Structure prediction by ZEFSAII (Michael W. Deem and Ramdas Pophale) SiO2 
 PCOD8189189
Probable space group: I M M 2
;
_chemical_formula_sum "Si O2"
_cell_formula_units_Z 64
_cell_length_a 8.794002
_cell_length_b 32.688393
_cell_length_c 11.662343
_cell_angle_alpha 90.000000
_cell_angle_beta 90.000000
_cell_angle_gamma 90.000000
_cell_volume 3352.478034
_symmetry_space_group_name_H-M "I M M 2"
_symmetry_group_IT_number 44
_symmetry_cell_setting 'orthorhombic'
loop_
_space_group_symop_operation_xyz
x,y,z
-x,-y,z
-x,y,z
x,-y,z
1/2+x,1/2+y,1/2+z
1/2-x,1/2-y,1/2+z
1/2-x,1/2+y,1/2+z
1/2+x,1/2-y,1/2+z
loop_
_atom_site_type_symbol
_atom_site_label
_atom_site_fract_x
_atom_site_fract_y
_atom_site_fract_z
Si Si1 0.170569 0.319015 0.688600
Si Si2 0.678152 0.692970 0.923052
Si Si3 0.331721 0.451989 0.727280
Si Si4 0.179140 0.650208 0.342056
Si Si5 0.821508 0.454395 0.960070
Si Si6 0.179339 0.221376 0.975344
Si Si7 0.332026 0.098962 0.051984
Si Si8 0.178571 0.626405 0.084527
O O1 0.284131 0.320824 0.794933
O O2 0.237454 0.288801 0.593664
O O3 0.162323 0.364383 0.641465
O O4 0.000000 0.304124 0.722576
O O5 0.500000 0.702788 0.935107
O O6 0.779399 0.732397 0.947719
O O7 0.722862 0.656979 0.009142
O O8 0.500000 0.434743 0.748396
O O9 0.330306 0.500000 0.715319
O O10 0.232426 0.438225 0.836158
O O11 0.272753 0.435770 0.605465
O O12 0.265101 0.692410 0.370954
O O13 0.233607 0.614940 0.430483
O O14 0.220614 0.634811 0.216055
O O15 0.000000 0.658407 0.358436
O O16 0.753328 0.500000 0.989173
O O17 0.000000 0.458248 0.953583
O O18 0.774734 0.420576 0.054937
O O19 0.000000 0.216438 0.990899
O O20 0.500000 0.080506 0.033399
O O21 0.000000 0.633689 0.060428
#
# Coordination Sequence:
#
# PCOD8189189 Si02
#       8
#     8   8   8   8   8   8   8   8
#     4  10  21  39  59  81 108 139 181 229 280 335
#     4  12  25  38  56  83 115 149 188 234 282 337
#     4  10  20  32  50  79 113 146 181 228 282 337
#     4   9  20  39  59  80 112 150 189 234 284 340
#     4   9  18  34  57  84 114 149 188 234 289 344
#     4  11  23  39  59  82 110 147 188 233 287 339
#     4   9  18  34  56  79 105 140 179 225 277 332
#     4  10  21  38  59  84 115 151 193 240 287 341
#
# _framework density 19.090357000000001
#
# number of rings (size 3 to 8) (size 9 to 14) (size 15 to 20)
#    0.000    2.000    0.000    4.500    1.750    7.250 
#    0.000    0.625    0.000    2.250    0.000    1.750 
#    0.000    0.000    0.000    0.000    0.000    0.000 
#
# Total GULP energy -396795.964690 kJ/mol
# GULP energy per Si atom -12399.873897 kJ/mol
# Density = 1.904691 g / cm^3
# Si number density = 19.090357 Si / 1000 Ang^3
#
#
#
# Elastic Constant Matrix: (Units=GPa)
#
#
# Indices 1 2 3 4 5 6 
#
# 1 61.4510 37.6929 22.7097 -0.0015 -0.0001 -0.0001
# 2 37.6929 72.0432 52.5960 0.0017 0.0004 0.0001
# 3 22.7097 52.5960 110.1003 -0.0034 0.0005 0.0004
# 4 -0.0015 0.0017 -0.0034 15.2032 0.0007 0.0006
# 5 -0.0001 0.0004 0.0005 0.0007 12.5949 -0.0001
# 6 -0.0001 0.0001 0.0004 0.0006 -0.0001 27.1012
#
#
#
# Elastic Compliance Matrix: (Units=1/GPa)
#
#
# Indices 1 2 3 4 5 6 
#
# 1 0.024150 -0.013818 0.001620 0.000004 0.000001 0.000000
# 2 -0.013818 0.029220 -0.011109 -0.000007 -0.000001 0.000000
# 3 0.001620 -0.011109 0.014055 0.000005 0.000000 0.000000
# 4 0.000004 -0.000007 0.000005 0.065776 -0.000004 -0.000001
# 5 0.000001 -0.000001 0.000000 -0.000004 0.079397 0.000000
# 6 0.000000 0.000000 0.000000 -0.000001 0.000000 0.036899
#
#
# Mechanical properties :
#
#
# Convention : Reuss Voigt Hill
#
# Bulk Modulus (GPa) = 48.04947 52.17685 50.11316
# Shear Modulus (GPa) = 16.49904 19.68623 18.09264
#
# Velocity S-wave (km/s) = 2.94302 3.21473 3.08187
# Velocity P-wave (km/s) = 6.06404 6.41640 6.24271
#
# Compressibility (1/GPa) = 0.02081189
#
# Stress axis : x y z
#
# Youngs Moduli (GPa) = 41.40763 34.22325 71.14792
#
# Poissons Ratio (x) = 0.47289 -0.11523
# Poissons Ratio (y) = 0.57216 0.79035
# Poissons Ratio (z) = -0.06706 0.38017
#
# Static dielectric constant tensor:
#      x y z
#    x 3.597230 0.000000 0.000000 
#    y 0.000000 3.582260 0.000000 
#    z 0.000000 0.000000 3.658540 
# 
# 
# High freq. dielectric constant tensor:
#      x y z
#    x 1.741450 0.000000 0.000000 
#    y 0.000000 1.740740 0.000000 
#    z 0.000000 0.000000 1.740240 
# 
# From -- ./inp_files/11573.got.cif
#   From: 2010.03.12/outbox.cif.g09.slc.cpg/sg44_6_cif.got.tgz:11573.got - 2010.04.14 02:36:11.
