data_PCOD8189653
_publ_section_title
;
Structure prediction by ZEFSAII (Michael W. Deem and Ramdas Pophale) SiO2 
 PCOD8189653
Probable space group: I M M 2
;
_chemical_formula_sum "Si O2"
_cell_formula_units_Z 48
_cell_length_a 19.996623
_cell_length_b 13.487098
_cell_length_c 9.838972
_cell_angle_alpha 90.000000
_cell_angle_beta 90.000000
_cell_angle_gamma 90.000000
_cell_volume 2653.535467
_symmetry_space_group_name_H-M "I M M 2"
_symmetry_group_IT_number 44
_symmetry_cell_setting 'orthorhombic'
loop_
_space_group_symop_operation_xyz
x,y,z
-x,-y,z
-x,y,z
x,-y,z
1/2+x,1/2+y,1/2+z
1/2-x,1/2-y,1/2+z
1/2-x,1/2+y,1/2+z
1/2+x,1/2-y,1/2+z
loop_
_atom_site_type_symbol
_atom_site_label
_atom_site_fract_x
_atom_site_fract_y
_atom_site_fract_z
Si Si1 0.827178 0.194521 0.002750
Si Si2 0.076344 0.769288 0.509137
Si Si3 0.315995 0.885907 0.052399
Si Si4 0.791570 0.610775 0.865991
Si Si5 0.923832 0.113891 0.777873
Si Si6 0.142887 0.886274 0.288350
O O1 0.753577 0.148595 0.986453
O O2 0.854834 0.181096 0.154125
O O3 0.825634 0.311568 0.968346
O O4 0.876136 0.137438 0.902562
O O5 0.123341 0.674430 0.485573
O O6 0.097808 0.822388 0.648119
O O7 0.084420 0.845978 0.384695
O O8 0.000000 0.733315 0.514067
O O9 0.316301 0.868649 0.213617
O O10 0.326900 0.000000 0.015398
O O11 0.812718 0.500000 0.912108
O O12 0.711732 0.621981 0.871899
O O13 0.000000 0.137809 0.820987
O O14 0.915886 0.000000 0.735781
O O15 0.128965 0.000000 0.245772
#
# Coordination Sequence:
#
# PCOD8189653 Si02
#       6
#     8   8   8   8   8   8
#     4  11  19  36  62  84 113 147 185 236 288 330
#     4  11  22  37  56  80 115 158 191 228 280 335
#     4  10  20  36  58  86 113 145 189 233 281 336
#     4   9  18  34  58  84 113 144 182 234 283 332
#     4  10  21  36  56  85 115 144 188 237 278 330
#     4  10  21  36  54  82 118 151 182 227 289 343
#
# _framework density 18.089075000000001
#
# number of rings (size 3 to 8) (size 9 to 14) (size 15 to 20)
#    0.000    1.833    3.333    3.000    0.000    2.000 
#    0.000    0.833    0.000    0.500    0.000    0.000 
#    0.000    0.000    0.000    0.000    0.000    0.000 
#
# Total GULP energy -297670.066981 kJ/mol
# GULP energy per Si atom -12402.919458 kJ/mol
# Density = 1.804790 g / cm^3
# Si number density = 18.089075 Si / 1000 Ang^3
#
#
#
# Elastic Constant Matrix: (Units=GPa)
#
#
# Indices 1 2 3 4 5 6 
#
# 1 87.4124 43.4273 42.6578 0.0000 0.0000 0.0000
# 2 43.4273 123.6554 42.7507 0.0000 0.0000 0.0000
# 3 42.6578 42.7507 71.4664 0.0000 0.0000 0.0000
# 4 0.0000 0.0000 0.0000 32.5502 0.0000 0.0000
# 5 0.0000 0.0000 0.0000 0.0000 29.3239 0.0000
# 6 0.0000 0.0000 0.0000 0.0000 0.0000 24.2659
#
#
#
# Elastic Compliance Matrix: (Units=1/GPa)
#
#
# Indices 1 2 3 4 5 6 
#
# 1 0.017042 -0.003112 -0.008311 0.000000 0.000000 0.000000
# 2 -0.003112 0.010764 -0.004581 0.000000 0.000000 0.000000
# 3 -0.008311 -0.004581 0.021694 0.000000 0.000000 0.000000
# 4 0.000000 0.000000 0.000000 0.030722 0.000000 0.000000
# 5 0.000000 0.000000 0.000000 0.000000 0.034102 0.000000
# 6 0.000000 0.000000 0.000000 0.000000 0.000000 0.041210
#
#
# Mechanical properties :
#
#
# Convention : Reuss Voigt Hill
#
# Bulk Modulus (GPa) = 57.17054 60.02286 58.59670
# Shear Modulus (GPa) = 25.85707 27.47456 26.66581
#
# Velocity S-wave (km/s) = 3.78488 3.90147 3.84362
# Velocity P-wave (km/s) = 7.12559 7.31773 7.22230
#
# Compressibility (1/GPa) = 0.01749153
#
# Stress axis : x y z
#
# Youngs Moduli (GPa) = 58.67995 92.90464 46.09642
#
# Poissons Ratio (x) = 0.28910 0.38309
# Poissons Ratio (y) = 0.18260 0.21119
# Poissons Ratio (z) = 0.48766 0.42563
#
# Static dielectric constant tensor:
#      x y z
#    x 3.222580 0.000000 0.000000 
#    y 0.000000 3.387690 0.000000 
#    z 0.000000 0.000000 3.179520 
# 
# 
# High freq. dielectric constant tensor:
#      x y z
#    x 1.690000 0.000000 0.000000 
#    y 0.000000 1.707010 0.000000 
#    z 0.000000 0.000000 1.690240 
# 
# From -- ./inp_files/6028.got.cif
#   From: 2010.03.12/outbox.cif.g09.slc.cpg/sg44_4_cif.got.tgz:6028.got - 2010.04.14 02:36:11.
