data_PCOD8189624
_publ_section_title
;
Structure prediction by ZEFSAII (Michael W. Deem and Ramdas Pophale) SiO2 
 PCOD8189624
Probable space group: I M M 2
;
_chemical_formula_sum "Si O2"
_cell_formula_units_Z 64
_cell_length_a 8.742841
_cell_length_b 29.624137
_cell_length_c 12.784435
_cell_angle_alpha 90.000000
_cell_angle_beta 90.000000
_cell_angle_gamma 90.000000
_cell_volume 3311.157409
_symmetry_space_group_name_H-M "I M M 2"
_symmetry_group_IT_number 44
_symmetry_cell_setting 'orthorhombic'
loop_
_space_group_symop_operation_xyz
x,y,z
-x,-y,z
-x,y,z
x,-y,z
1/2+x,1/2+y,1/2+z
1/2-x,1/2-y,1/2+z
1/2-x,1/2+y,1/2+z
1/2+x,1/2-y,1/2+z
loop_
_atom_site_type_symbol
_atom_site_label
_atom_site_fract_x
_atom_site_fract_y
_atom_site_fract_z
Si Si1 0.673100 0.255189 0.770750
Si Si2 0.680863 0.123299 0.079834
Si Si3 0.181402 0.448834 0.414847
Si Si4 0.828475 0.288183 0.475704
Si Si5 0.321980 0.447783 0.197380
Si Si6 0.176563 0.205987 0.593065
Si Si7 0.177568 0.383561 0.034264
Si Si8 0.319977 0.150204 0.308898
O O1 0.500000 0.260140 0.726157
O O2 0.674090 0.212823 0.851099
O O3 0.800380 0.238764 0.691073
O O4 0.723566 0.303894 0.814459
O O5 0.500000 0.123859 0.064321
O O6 0.723576 0.121908 0.203219
O O7 0.744353 0.080617 0.013448
O O8 0.755239 0.168612 0.027324
O O9 0.239833 0.500000 0.432900
O O10 0.243776 0.429565 0.304260
O O11 0.000000 0.446858 0.408887
O O12 0.760583 0.238675 0.501609
O O13 0.000000 0.288522 0.522032
O O14 0.500000 0.438707 0.209726
O O15 0.281379 0.500000 0.182682
O O16 0.264948 0.423866 0.091716
O O17 0.282223 0.162247 0.595580
O O18 0.000000 0.191025 0.581972
O O19 0.000000 0.393520 0.045451
O O20 0.224688 0.379500 0.911329
O O21 0.500000 0.161533 0.309916
#
# Coordination Sequence:
#
# PCOD8189624 Si02
#       8
#     8   8   8   8   8   8   8   8
#     4  11  21  33  50  77 109 147 191 235 281 330
#     4   9  17  33  55  79 110 146 183 225 280 339
#     4   9  18  34  60  89 113 141 180 230 284 338
#     4   9  18  31  50  73 104 146 185 224 274 326
#     4  10  22  41  63  85 112 146 182 226 284 343
#     4  11  21  36  54  76 108 150 192 231 280 333
#     4  11  23  37  57  86 115 147 190 236 281 332
#     4  10  20  36  56  78 109 152 191 230 280 333
#
# _framework density 19.328589000000001
#
# number of rings (size 3 to 8) (size 9 to 14) (size 15 to 20)
#    0.000    2.000    2.500    1.500    1.750    1.250 
#    0.000    1.250    0.000    2.250    0.000    1.750 
#    0.000    0.000    0.000    0.000    0.000    0.000 
#
# Total GULP energy -396481.151100 kJ/mol
# GULP energy per Si atom -12390.035972 kJ/mol
# Density = 1.928460 g / cm^3
# Si number density = 19.328589 Si / 1000 Ang^3
#
#
#
# Elastic Constant Matrix: (Units=GPa)
#
#
# Indices 1 2 3 4 5 6 
#
# 1 34.6351 25.7570 29.2779 -0.0001 0.0000 0.0000
# 2 25.7570 92.1846 58.9013 -0.0003 0.0001 0.0000
# 3 29.2779 58.9013 130.7104 -0.0005 0.0002 -0.0001
# 4 -0.0001 -0.0003 -0.0005 38.6273 0.0000 -0.0001
# 5 0.0000 0.0001 0.0002 0.0000 19.3411 0.0000
# 6 0.0000 0.0000 -0.0001 -0.0001 0.0000 23.4479
#
#
#
# Elastic Compliance Matrix: (Units=1/GPa)
#
#
# Indices 1 2 3 4 5 6 
#
# 1 0.038952 -0.007455 -0.005365 0.000000 0.000000 0.000000
# 2 -0.007455 0.016661 -0.005838 0.000000 0.000000 0.000000
# 3 -0.005365 -0.005838 0.011483 0.000000 0.000000 0.000000
# 4 0.000000 0.000000 0.000000 0.025888 0.000000 0.000000
# 5 0.000000 0.000000 0.000000 0.000000 0.051703 0.000000
# 6 0.000000 0.000000 0.000000 0.000000 0.000000 0.042648
#
#
# Mechanical properties :
#
#
# Convention : Reuss Voigt Hill
#
# Bulk Modulus (GPa) = 33.58076 53.93359 43.75718
# Shear Modulus (GPa) = 21.31476 25.85619 23.58547
#
# Velocity S-wave (km/s) = 3.32438 3.66145 3.49698
# Velocity P-wave (km/s) = 5.66981 6.77045 6.24443
#
# Compressibility (1/GPa) = 0.02977895
#
# Stress axis : x y z
#
# Youngs Moduli (GPa) = 25.67254 60.02036 87.08516
#
# Poissons Ratio (x) = 0.44747 0.46724
# Poissons Ratio (y) = 0.19140 0.50840
# Poissons Ratio (z) = 0.13774 0.35040
#
# Static dielectric constant tensor:
#      x y z
#    x 3.267140 0.000000 0.000000 
#    y 0.000000 3.550200 0.000000 
#    z 0.000000 0.000000 3.779910 
# 
# 
# High freq. dielectric constant tensor:
#      x y z
#    x 1.728390 0.000000 0.000000 
#    y 0.000000 1.738980 0.000000 
#    z 0.000000 0.000000 1.762310 
# 
# From -- ./inp_files/11490.got.cif
#   From: 2010.03.12/outbox.cif.g09.slc.cpg/sg44_6_cif.got.tgz:11490.got - 2010.04.14 02:36:11.
