data_PCOD8189521
_publ_section_title
;
Structure prediction by ZEFSAII (Michael W. Deem and Ramdas Pophale) SiO2 
 PCOD8189521
Probable space group: I M M 2
;
_chemical_formula_sum "Si O2"
_cell_formula_units_Z 64
_cell_length_a 9.415275
_cell_length_b 28.201550
_cell_length_c 12.710129
_cell_angle_alpha 90.000000
_cell_angle_beta 90.000000
_cell_angle_gamma 90.000000
_cell_volume 3374.861434
_symmetry_space_group_name_H-M "I M M 2"
_symmetry_group_IT_number 44
_symmetry_cell_setting 'orthorhombic'
loop_
_space_group_symop_operation_xyz
x,y,z
-x,-y,z
-x,y,z
x,-y,z
1/2+x,1/2+y,1/2+z
1/2-x,1/2-y,1/2+z
1/2-x,1/2+y,1/2+z
1/2+x,1/2-y,1/2+z
loop_
_atom_site_type_symbol
_atom_site_label
_atom_site_fract_x
_atom_site_fract_y
_atom_site_fract_z
Si Si1 0.830484 0.112523 0.785270
Si Si2 0.843668 0.423366 0.894327
Si Si3 0.168508 0.053898 0.988941
Si Si4 0.656308 0.183296 0.466729
Si Si5 0.165249 0.304934 0.201545
Si Si6 0.662265 0.947299 0.621709
Si Si7 0.667382 0.600372 0.704856
Si Si8 0.336705 0.703053 0.779814
O O1 0.760215 0.164937 0.784129
O O2 0.771572 0.085149 0.683934
O O3 0.000000 0.116607 0.778920
O O4 0.779399 0.084410 0.889048
O O5 0.851868 0.368550 0.920535
O O6 0.736954 0.431420 0.797249
O O7 0.000000 0.442160 0.861704
O O8 0.790432 0.449929 0.999367
O O9 0.224137 0.080485 0.093627
O O10 0.000000 0.051967 0.989466
O O11 0.229082 0.000000 0.983298
O O12 0.500000 0.207215 0.468186
O O13 0.716476 0.181245 0.584682
O O14 0.757380 0.212743 0.389845
O O15 0.194312 0.248914 0.209581
O O16 0.000000 0.316971 0.221566
O O17 0.500000 0.927033 0.629531
O O18 0.669420 0.000000 0.669291
O O19 0.500000 0.593670 0.714134
O O20 0.712260 0.655829 0.716351
O O21 0.500000 0.697584 0.809840
#
# Coordination Sequence:
#
# PCOD8189521 Si02
#       8
#     8   8   8   8   8   8   8   8
#     4  11  22  35  55  81 109 142 187 238 277 327
#     4   9  17  32  52  76 104 137 174 217 269 323
#     4   9  19  36  56  79 111 148 182 225 283 336
#     4   9  17  32  53  72 101 141 175 215 269 329
#     4  10  20  36  55  76 107 148 186 226 282 340
#     4  10  20  35  55  78 108 144 177 215 273 338
#     4   9  18  34  55  78 106 143 184 224 272 330
#     4   9  19  33  52  79 107 138 181 231 275 323
#
# _framework density 18.963742
#
# number of rings (size 3 to 8) (size 9 to 14) (size 15 to 20)
#    0.000    2.500    1.250    0.750    0.000    3.750 
#    0.000    3.750    0.000    4.500    0.000    0.000 
#    0.000    0.000    0.000    0.000    0.000    0.000 
#
# Total GULP energy -396673.892735 kJ/mol
# GULP energy per Si atom -12396.059148 kJ/mol
# Density = 1.892058 g / cm^3
# Si number density = 18.963742 Si / 1000 Ang^3
#
#
#
# Elastic Constant Matrix: (Units=GPa)
#
#
# Indices 1 2 3 4 5 6 
#
# 1 54.2414 32.6073 44.4876 0.0002 0.0000 0.0000
# 2 32.6073 86.1871 48.6388 0.0000 0.0000 0.0000
# 3 44.4876 48.6388 128.3435 0.0003 0.0001 0.0000
# 4 0.0002 0.0000 0.0003 22.8311 0.0001 0.0000
# 5 0.0000 0.0000 0.0001 0.0001 29.0146 0.0000
# 6 0.0000 0.0000 0.0000 0.0000 0.0000 19.2964
#
#
#
# Elastic Compliance Matrix: (Units=1/GPa)
#
#
# Indices 1 2 3 4 5 6 
#
# 1 0.028441 -0.006610 -0.007353 0.000000 0.000000 0.000000
# 2 -0.006610 0.016296 -0.003884 0.000000 0.000000 0.000000
# 3 -0.007353 -0.003884 0.011812 0.000000 0.000000 0.000000
# 4 0.000000 0.000000 0.000000 0.043800 0.000000 0.000000
# 5 0.000000 0.000000 0.000000 0.000000 0.034465 0.000000
# 6 0.000000 0.000000 0.000000 0.000000 0.000000 0.051823
#
#
# Mechanical properties :
#
#
# Convention : Reuss Voigt Hill
#
# Bulk Modulus (GPa) = 47.95427 57.80439 52.87933
# Shear Modulus (GPa) = 21.80698 23.76431 22.78564
#
# Velocity S-wave (km/s) = 3.39474 3.54382 3.47008
# Velocity P-wave (km/s) = 6.38028 6.87696 6.63327
#
# Compressibility (1/GPa) = 0.02085320
#
# Stress axis : x y z
#
# Youngs Moduli (GPa) = 35.16056 61.36619 84.65609
#
# Poissons Ratio (x) = 0.40565 0.62250
# Poissons Ratio (y) = 0.23242 0.32883
# Poissons Ratio (z) = 0.25855 0.23836
#
# Static dielectric constant tensor:
#      x y z
#    x 3.467720 0.000000 0.000000 
#    y 0.000000 3.558240 0.000000 
#    z 0.000000 0.000000 3.579150 
# 
# 
# High freq. dielectric constant tensor:
#      x y z
#    x 1.714860 0.000000 0.000000 
#    y 0.000000 1.737610 0.000000 
#    z 0.000000 0.000000 1.734390 
# 
# From -- ./inp_files/11509.got.cif
#   From: 2010.03.12/outbox.cif.g09.slc.cpg/sg44_6_cif.got.tgz:11509.got - 2010.04.14 02:36:11.
