data_PCOD8189590
_publ_section_title
;
Structure prediction by ZEFSAII (Michael W. Deem and Ramdas Pophale) SiO2 
 PCOD8189590
Probable space group: I M M 2
;
_chemical_formula_sum "Si O2"
_cell_formula_units_Z 64
_cell_length_a 8.540754
_cell_length_b 30.840138
_cell_length_c 11.991136
_cell_angle_alpha 90.000000
_cell_angle_beta 90.000000
_cell_angle_gamma 90.000000
_cell_volume 3158.441624
_symmetry_space_group_name_H-M "I M M 2"
_symmetry_group_IT_number 44
_symmetry_cell_setting 'orthorhombic'
loop_
_space_group_symop_operation_xyz
x,y,z
-x,-y,z
-x,y,z
x,-y,z
1/2+x,1/2+y,1/2+z
1/2-x,1/2-y,1/2+z
1/2-x,1/2+y,1/2+z
1/2+x,1/2-y,1/2+z
loop_
_atom_site_type_symbol
_atom_site_label
_atom_site_fract_x
_atom_site_fract_y
_atom_site_fract_z
Si Si1 0.682614 0.704952 0.803700
Si Si2 0.679839 0.451969 0.809866
Si Si3 0.313397 0.626608 0.208535
Si Si4 0.179175 0.673645 0.582404
Si Si5 0.185807 0.126611 0.458041
Si Si6 0.184080 0.952152 0.854506
Si Si7 0.318395 0.705336 0.361182
Si Si8 0.678817 0.073861 0.085371
O O1 0.500000 0.697980 0.779296
O O2 0.778937 0.702006 0.689761
O O3 0.743886 0.668987 0.891459
O O4 0.712760 0.752072 0.853901
O O5 0.500000 0.440591 0.782480
O O6 0.695360 0.500000 0.863408
O O7 0.748100 0.416770 0.896667
O O8 0.774698 0.452369 0.695071
O O9 0.500000 0.624320 0.209542
O O10 0.243050 0.584514 0.272896
O O11 0.258615 0.670326 0.270695
O O12 0.244759 0.627565 0.083221
O O13 0.295258 0.685626 0.483120
O O14 0.208053 0.623937 0.613271
O O15 0.000000 0.682833 0.547558
O O16 0.000000 0.125968 0.466037
O O17 0.000000 0.952666 0.837925
O O18 0.252395 0.000000 0.824790
O O19 0.217196 0.941132 0.982441
O O20 0.500000 0.716890 0.343170
O O21 0.500000 0.064078 0.054474
#
# Coordination Sequence:
#
# PCOD8189590 Si02
#       8
#     8   8   8   8   8   8   8   8
#     4  11  23  39  62  89 120 156 194 241 297 355
#     4  10  20  35  58  86 115 150 194 240 289 353
#     4   9  19  36  57  83 116 152 189 236 291 345
#     4  11  23  40  62  87 118 156 201 247 294 349
#     4   9  19  36  57  83 116 152 189 236 291 345
#     4  10  20  35  58  86 115 150 194 240 289 353
#     4  11  23  39  62  89 120 156 194 241 297 355
#     4  11  22  36  57  84 118 154 192 243 295 345
#
# _framework density 20.263155999999999
#
# number of rings (size 3 to 8) (size 9 to 14) (size 15 to 20)
#    0.000    1.750    2.500    1.875    1.750    3.500 
#    0.000    2.500    0.000    3.750    0.000    1.750 
#    0.000    0.000    0.000    0.000    0.000    0.000 
#
# Total GULP energy -396887.054426 kJ/mol
# GULP energy per Si atom -12402.720451 kJ/mol
# Density = 2.021704 g / cm^3
# Si number density = 20.263156 Si / 1000 Ang^3
#
#
#
# Elastic Constant Matrix: (Units=GPa)
#
#
# Indices 1 2 3 4 5 6 
#
# 1 24.8306 23.9128 7.3465 0.0004 -0.0001 0.0000
# 2 23.9128 143.7274 60.6682 -0.0001 0.0000 0.0000
# 3 7.3465 60.6682 147.5774 0.0012 0.0000 0.0000
# 4 0.0004 -0.0001 0.0012 22.2392 -0.0002 0.0000
# 5 -0.0001 0.0000 0.0000 -0.0002 14.2294 0.0001
# 6 0.0000 0.0000 0.0000 0.0000 0.0001 24.3023
#
#
#
# Elastic Compliance Matrix: (Units=1/GPa)
#
#
# Indices 1 2 3 4 5 6 
#
# 1 0.048100 -0.008460 0.001083 -0.000001 0.000000 0.000000
# 2 -0.008460 0.009906 -0.003651 0.000000 0.000000 0.000000
# 3 0.001083 -0.003651 0.008223 0.000000 0.000000 0.000000
# 4 -0.000001 0.000000 0.000000 0.044966 0.000000 0.000000
# 5 0.000000 0.000000 0.000000 0.000000 0.070277 0.000000
# 6 0.000000 0.000000 0.000000 0.000000 0.000000 0.041148
#
#
# Mechanical properties :
#
#
# Convention : Reuss Voigt Hill
#
# Bulk Modulus (GPa) = 22.63803 55.55450 39.09627
# Shear Modulus (GPa) = 19.27522 27.10137 23.18830
#
# Velocity S-wave (km/s) = 3.08757 3.66111 3.38651
# Velocity P-wave (km/s) = 4.88949 6.73407 5.88450
#
# Compressibility (1/GPa) = 0.04417345
#
# Stress axis : x y z
#
# Youngs Moduli (GPa) = 20.79022 100.94492 121.60709
#
# Poissons Ratio (x) = 0.85399 -0.13175
# Poissons Ratio (y) = 0.17588 0.44403
# Poissons Ratio (z) = -0.02252 0.36858
#
# Static dielectric constant tensor:
#      x y z
#    x 3.303330 0.000000 0.000000 
#    y 0.000000 3.897440 0.000000 
#    z 0.000000 0.000000 3.709570 
# 
# 
# High freq. dielectric constant tensor:
#      x y z
#    x 1.760090 0.000000 0.000000 
#    y 0.000000 1.807580 0.000000 
#    z 0.000000 0.000000 1.791130 
# 
# From -- ./inp_files/11453.got.cif
#   From: 2010.03.12/outbox.cif.g09.slc.cpg/sg44_6_cif.got.tgz:11453.got - 2010.04.14 02:36:11.
