data_PCOD8189360
_publ_section_title
;
Structure prediction by ZEFSAII (Michael W. Deem and Ramdas Pophale) SiO2 
 PCOD8189360
Probable space group: I M M 2
;
_chemical_formula_sum "Si O2"
_cell_formula_units_Z 64
_cell_length_a 29.319073
_cell_length_b 8.856790
_cell_length_c 12.836622
_cell_angle_alpha 90.000000
_cell_angle_beta 90.000000
_cell_angle_gamma 90.000000
_cell_volume 3333.322509
_symmetry_space_group_name_H-M "I M M 2"
_symmetry_group_IT_number 44
_symmetry_cell_setting 'orthorhombic'
loop_
_space_group_symop_operation_xyz
x,y,z
-x,-y,z
-x,y,z
x,-y,z
1/2+x,1/2+y,1/2+z
1/2-x,1/2-y,1/2+z
1/2-x,1/2+y,1/2+z
1/2+x,1/2-y,1/2+z
loop_
_atom_site_type_symbol
_atom_site_label
_atom_site_fract_x
_atom_site_fract_y
_atom_site_fract_z
Si Si1 0.551214 0.679337 0.805900
Si Si2 0.707256 0.333319 0.776508
Si Si3 0.624067 0.321074 0.638124
Si Si4 0.791388 0.334202 0.641130
Si Si5 0.051299 0.179300 0.538063
Si Si6 0.144204 0.320976 0.922304
Si Si7 0.258569 0.325702 0.436028
Si Si8 0.121468 0.177448 0.710618
O O1 0.500000 0.737403 0.782128
O O2 0.552334 0.500000 0.804452
O O3 0.584671 0.740513 0.715667
O O4 0.566616 0.735078 0.921855
O O5 0.690482 0.500000 0.813383
O O6 0.672215 0.273431 0.689775
O O7 0.759507 0.342708 0.741063
O O8 0.712588 0.218385 0.872135
O O9 0.621192 0.500000 0.620028
O O10 0.619893 0.241857 0.526255
O O11 0.813651 0.500000 0.620842
O O12 0.755983 0.288422 0.552380
O O13 0.829775 0.209064 0.657482
O O14 0.083764 0.241680 0.629635
O O15 0.000000 0.236382 0.560569
O O16 0.053031 0.000000 0.539062
O O17 0.142156 0.500000 0.923611
O O18 0.196274 0.268712 0.911828
O O19 0.116498 0.261987 0.821186
O O20 0.270934 0.500000 0.417919
O O21 0.116085 0.000000 0.729852
#
# Coordination Sequence:
#
# PCOD8189360 Si02
#       8
#     8   8   8   8   8   8   8   8
#     4   8  15  31  58  89 116 140 171 222 282 328
#     4  10  20  34  52  77 111 146 181 223 273 322
#     4  10  20  36  58  82 112 146 186 229 271 327
#     4  10  21  36  51  74 111 148 180 224 273 318
#     4   8  16  33  57  87 117 140 172 224 278 326
#     4  12  24  38  55  75 110 151 188 231 277 324
#     4  11  22  37  54  74 106 147 189 230 270 320
#     4  11  22  35  58  85 109 144 189 228 272 331
#
# _framework density 19.200061999999999
#
# number of rings (size 3 to 8) (size 9 to 14) (size 15 to 20)
#    0.000    2.000    2.500    2.625    1.750    1.500 
#    0.000    0.625    0.000    5.625    0.000    3.500 
#    0.000    0.000    0.000    0.000    0.000    0.000 
#
# Total GULP energy -396580.906221 kJ/mol
# GULP energy per Si atom -12393.153319 kJ/mol
# Density = 1.915636 g / cm^3
# Si number density = 19.200062 Si / 1000 Ang^3
#
#
#
# Elastic Constant Matrix: (Units=GPa)
#
#
# Indices 1 2 3 4 5 6 
#
# 1 99.9085 30.2112 68.4846 0.0000 0.0000 0.0000
# 2 30.2112 67.0286 49.6113 0.0000 0.0000 0.0000
# 3 68.4846 49.6113 133.0663 0.0000 0.0000 0.0000
# 4 0.0000 0.0000 0.0000 26.2850 0.0000 0.0000
# 5 0.0000 0.0000 0.0000 0.0000 39.0804 0.0000
# 6 0.0000 0.0000 0.0000 0.0000 0.0000 15.1335
#
#
#
# Elastic Compliance Matrix: (Units=1/GPa)
#
#
# Indices 1 2 3 4 5 6 
#
# 1 0.015574 -0.001501 -0.007456 0.000000 0.000000 0.000000
# 2 -0.001501 0.020750 -0.006964 0.000000 0.000000 0.000000
# 3 -0.007456 -0.006964 0.013948 0.000000 0.000000 0.000000
# 4 0.000000 0.000000 0.000000 0.038044 0.000000 0.000000
# 5 0.000000 0.000000 0.000000 0.000000 0.025588 0.000000
# 6 0.000000 0.000000 0.000000 0.000000 0.000000 0.066078
#
#
# Mechanical properties :
#
#
# Convention : Reuss Voigt Hill
#
# Bulk Modulus (GPa) = 54.25565 66.29085 60.27325
# Shear Modulus (GPa) = 22.93923 26.21287 24.57605
#
# Velocity S-wave (km/s) = 3.46026 3.69894 3.58159
# Velocity P-wave (km/s) = 6.65462 7.26940 6.96879
#
# Compressibility (1/GPa) = 0.01843126
#
# Stress axis : x y z
#
# Youngs Moduli (GPa) = 64.21095 48.19352 71.69277
#
# Poissons Ratio (x) = 0.07234 0.53451
# Poissons Ratio (y) = 0.09639 0.49924
# Poissons Ratio (z) = 0.47873 0.33560
#
# Static dielectric constant tensor:
#      x y z
#    x 3.513500 0.000000 0.000000 
#    y 0.000000 3.237290 0.000000 
#    z 0.000000 0.000000 3.939570 
# 
# 
# High freq. dielectric constant tensor:
#      x y z
#    x 1.729510 0.000000 0.000000 
#    y 0.000000 1.715580 0.000000 
#    z 0.000000 0.000000 1.762460 
# 
# From -- ./inp_files/15060.got.cif
#   From: 2010.03.12/outbox.cif.g09.slc.cpg/sg44_8_cif.got.tgz:15060.got - 2010.04.14 02:36:11.
