data_PCOD8189842
_publ_section_title
;
Structure prediction by ZEFSAII (Michael W. Deem and Ramdas Pophale) SiO2 
 PCOD8189842
Probable space group: I M M 2
;
_chemical_formula_sum "Si O2"
_cell_formula_units_Z 48
_cell_length_a 9.792781
_cell_length_b 9.329504
_cell_length_c 30.186642
_cell_angle_alpha 90.000000
_cell_angle_beta 90.000000
_cell_angle_gamma 90.000000
_cell_volume 2757.905632
_symmetry_space_group_name_H-M "I M M 2"
_symmetry_group_IT_number 44
_symmetry_cell_setting 'orthorhombic'
loop_
_space_group_symop_operation_xyz
x,y,z
-x,-y,z
-x,y,z
x,-y,z
1/2+x,1/2+y,1/2+z
1/2-x,1/2-y,1/2+z
1/2-x,1/2+y,1/2+z
1/2+x,1/2-y,1/2+z
loop_
_atom_site_type_symbol
_atom_site_label
_atom_site_fract_x
_atom_site_fract_y
_atom_site_fract_z
Si Si1 0.657710 0.833333 0.275680
Si Si2 0.658001 0.664568 0.620660
Si Si3 0.653107 0.666916 0.518504
Si Si4 0.841696 0.832332 0.687768
Si Si5 0.151543 0.170485 0.353880
Si Si6 0.340265 0.335786 0.952247
O O1 0.500000 0.807970 0.287048
O O2 0.703675 0.744788 0.232917
O O3 0.742592 0.772602 0.317359
O O4 0.689316 0.000000 0.266566
O O5 0.500000 0.692906 0.632378
O O6 0.695910 0.500000 0.631512
O O7 0.686878 0.699061 0.569522
O O8 0.752426 0.770852 0.648104
O O9 0.500000 0.719953 0.507482
O O10 0.665966 0.500000 0.508685
O O11 0.760176 0.747083 0.488356
O O12 0.000000 0.800680 0.677417
O O13 0.812924 0.000000 0.692848
O O14 0.194944 0.223272 0.402940
O O15 0.000000 0.227856 0.342033
O O16 0.149429 0.000000 0.354722
O O17 0.500000 0.318249 0.961637
O O18 0.294902 0.500000 0.956659
#
# Coordination Sequence:
#
# PCOD8189842 Si02
#       6
#     8   8   8   8   8   8
#     4   9  17  30  49  71  94 124 164 204 239 281
#     4   9  19  36  55  73  95 126 165 206 245 288
#     4   9  19  35  52  72  99 129 163 203 245 290
#     4  10  21  35  50  72 103 133 160 196 244 295
#     4   8  15  29  48  70  96 125 159 200 241 281
#     4   9  18  32  50  74 103 132 163 200 242 289
#
# _framework density 17.404510999999999
#
# number of rings (size 3 to 8) (size 9 to 14) (size 15 to 20)
#    0.000    3.000    0.000    2.500    0.000    4.667 
#    0.000    9.167    0.000    3.000    0.000    0.000 
#    0.000    0.000    0.000    0.000    0.000    0.000 
#
# Total GULP energy -297567.369468 kJ/mol
# GULP energy per Si atom -12398.640395 kJ/mol
# Density = 1.736490 g / cm^3
# Si number density = 17.404511 Si / 1000 Ang^3
#
#
#
# Elastic Constant Matrix: (Units=GPa)
#
#
# Indices 1 2 3 4 5 6 
#
# 1 76.3346 43.7401 75.1994 0.0000 0.0000 0.0000
# 2 43.7401 61.5683 59.9255 0.0000 0.0000 0.0000
# 3 75.1994 59.9255 126.7483 0.0000 0.0000 0.0000
# 4 0.0000 0.0000 0.0000 26.1777 0.0000 0.0000
# 5 0.0000 0.0000 0.0000 0.0000 38.5002 0.0000
# 6 0.0000 0.0000 0.0000 0.0000 0.0000 28.3577
#
#
#
# Elastic Compliance Matrix: (Units=1/GPa)
#
#
# Indices 1 2 3 4 5 6 
#
# 1 0.033667 -0.008293 -0.016054 0.000000 0.000000 0.000000
# 2 -0.008293 0.032130 -0.010271 0.000000 0.000000 0.000000
# 3 -0.016054 -0.010271 0.022270 0.000000 0.000000 0.000000
# 4 0.000000 0.000000 0.000000 0.038200 0.000000 0.000000
# 5 0.000000 0.000000 0.000000 0.000000 0.025974 0.000000
# 6 0.000000 0.000000 0.000000 0.000000 0.000000 0.035264
#
#
# Mechanical properties :
#
#
# Convention : Reuss Voigt Hill
#
# Bulk Modulus (GPa) = 53.09862 69.15348 61.12605
# Shear Modulus (GPa) = 19.01004 24.32618 21.66811
#
# Velocity S-wave (km/s) = 3.30850 3.74263 3.53224
# Velocity P-wave (km/s) = 6.72084 7.64825 7.19949
#
# Compressibility (1/GPa) = 0.01883288
#
# Stress axis : x y z
#
# Youngs Moduli (GPa) = 29.70257 31.12314 44.90254
#
# Poissons Ratio (x) = 0.25809 0.72086
# Poissons Ratio (y) = 0.24631 0.46119
# Poissons Ratio (z) = 0.47684 0.31967
#
# Static dielectric constant tensor:
#      x y z
#    x 3.272120 0.000000 0.000000 
#    y 0.000000 3.025020 0.000000 
#    z 0.000000 0.000000 3.328490 
# 
# 
# High freq. dielectric constant tensor:
#      x y z
#    x 1.673210 0.000000 0.000000 
#    y 0.000000 1.651510 0.000000 
#    z 0.000000 0.000000 1.679660 
# 
# From -- ./inp_files/24794.got.cif
#   From: 2010.03.12/outbox.cif.g09.slc.cpg/sg44_13_cif.got.tgz:24794.got - 2010.04.14 02:36:11.
