data_PCOD8189405
_publ_section_title
;
Structure prediction by ZEFSAII (Michael W. Deem and Ramdas Pophale) SiO2 
 PCOD8189405
Probable space group: I M M 2
;
_chemical_formula_sum "Si O2"
_cell_formula_units_Z 48
_cell_length_a 8.961370
_cell_length_b 31.393183
_cell_length_c 9.021369
_cell_angle_alpha 90.000000
_cell_angle_beta 90.000000
_cell_angle_gamma 90.000000
_cell_volume 2537.945009
_symmetry_space_group_name_H-M "I M M 2"
_symmetry_group_IT_number 44
_symmetry_cell_setting 'orthorhombic'
loop_
_space_group_symop_operation_xyz
x,y,z
-x,-y,z
-x,y,z
x,-y,z
1/2+x,1/2+y,1/2+z
1/2-x,1/2-y,1/2+z
1/2-x,1/2+y,1/2+z
1/2+x,1/2-y,1/2+z
loop_
_atom_site_type_symbol
_atom_site_label
_atom_site_fract_x
_atom_site_fract_y
_atom_site_fract_z
Si Si1 0.828356 0.630669 0.807440
Si Si2 0.325561 0.287963 0.303307
Si Si3 0.675625 0.290718 0.962071
Si Si4 0.173186 0.046754 0.293267
Si Si5 0.668658 0.136624 0.956378
Si Si6 0.830987 0.454560 0.490113
O O1 0.739653 0.667025 0.890707
O O2 0.768509 0.584895 0.866350
O O3 0.802399 0.636041 0.632255
O O4 0.000000 0.634685 0.851234
O O5 0.500000 0.279441 0.321943
O O6 0.237700 0.250717 0.382796
O O7 0.285501 0.332901 0.377434
O O8 0.276896 0.288937 0.132994
O O9 0.500000 0.291188 0.942458
O O10 0.000000 0.057906 0.311325
O O11 0.208802 0.000000 0.364872
O O12 0.211543 0.044407 0.120312
O O13 0.500000 0.152122 0.922424
O O14 0.695864 0.088249 0.893057
O O15 0.816824 0.500000 0.401056
O O16 0.000000 0.450599 0.557141
#
# Coordination Sequence:
#
# PCOD8189405 Si02
#       6
#     8   8   8   8   8   8
#     4  10  20  34  54  80 108 139 177 217 259 308
#     4  11  24  39  56  79 105 135 172 212 259 315
#     4  11  24  40  57  78 104 133 170 215 261 312
#     4   9  16  26  44  73 107 141 176 214 257 303
#     4   9  18  32  52  79 108 138 174 215 258 305
#     4   8  14  26  45  71 104 139 175 217 260 302
#
# _framework density 18.912939999999999
#
# number of rings (size 3 to 8) (size 9 to 14) (size 15 to 20)
#    0.000    2.333    0.000    4.000    0.000   11.000 
#    0.000    0.000    0.000    1.000    0.000    4.667 
#    0.000    0.000    0.000    0.000    0.000    0.000 
#
# Total GULP energy -297427.353401 kJ/mol
# GULP energy per Si atom -12392.806392 kJ/mol
# Density = 1.886989 g / cm^3
# Si number density = 18.912940 Si / 1000 Ang^3
#
#
#
# Elastic Constant Matrix: (Units=GPa)
#
#
# Indices 1 2 3 4 5 6 
#
# 1 49.8990 45.0338 35.8802 0.0004 -0.0002 -0.0004
# 2 45.0338 179.9733 53.3869 0.0006 0.0003 -0.0002
# 3 35.8802 53.3869 61.8844 0.0037 -0.0002 -0.0006
# 4 0.0004 0.0006 0.0037 22.0591 0.0001 -0.0006
# 5 -0.0002 0.0003 -0.0002 0.0001 22.9185 0.0005
# 6 -0.0004 -0.0002 -0.0006 -0.0006 0.0005 34.5177
#
#
#
# Elastic Compliance Matrix: (Units=1/GPa)
#
#
# Indices 1 2 3 4 5 6 
#
# 1 0.036212 -0.003807 -0.017711 0.000002 0.000000 0.000000
# 2 -0.003807 0.007868 -0.004580 0.000001 0.000000 0.000000
# 3 -0.017711 -0.004580 0.030379 -0.000005 0.000000 0.000000
# 4 0.000002 0.000001 -0.000005 0.045333 0.000000 0.000001
# 5 0.000000 0.000000 0.000000 0.000000 0.043633 -0.000001
# 6 0.000000 0.000000 0.000000 0.000001 -0.000001 0.028971
#
#
# Mechanical properties :
#
#
# Convention : Reuss Voigt Hill
#
# Bulk Modulus (GPa) = 44.91929 62.26203 53.59066
# Shear Modulus (GPa) = 19.84042 26.39611 23.11827
#
# Velocity S-wave (km/s) = 3.24240 3.73991 3.50001
# Velocity P-wave (km/s) = 6.14977 7.18617 6.68808
#
# Compressibility (1/GPa) = 0.02226215
#
# Stress axis : x y z
#
# Youngs Moduli (GPa) = 27.61541 127.10319 32.91786
#
# Poissons Ratio (x) = 0.48393 0.58300
# Poissons Ratio (y) = 0.10514 0.15076
# Poissons Ratio (z) = 0.48909 0.58211
#
# Static dielectric constant tensor:
#      x y z
#    x 3.515750 0.000000 0.000000 
#    y 0.000000 4.051090 0.000000 
#    z 0.000000 0.000000 3.073690 
# 
# 
# High freq. dielectric constant tensor:
#      x y z
#    x 1.743930 0.000000 0.000000 
#    y 0.000000 1.768670 0.000000 
#    z 0.000000 0.000000 1.677080 
# 
# From -- ./inp_files/4898.got.cif
#   From: 2010.03.12/outbox.cif.g09.slc.cpg/sg44_3_cif.got.tgz:4898.got - 2010.04.14 02:36:11.
