data_PCOD8189373
_publ_section_title
;
Structure prediction by ZEFSAII (Michael W. Deem and Ramdas Pophale) SiO2 
 PCOD8189373
Probable space group: I M M 2
;
_chemical_formula_sum "Si O2"
_cell_formula_units_Z 64
_cell_length_a 9.017384
_cell_length_b 24.570660
_cell_length_c 15.199626
_cell_angle_alpha 90.000000
_cell_angle_beta 90.000000
_cell_angle_gamma 90.000000
_cell_volume 3367.675896
_symmetry_space_group_name_H-M "I M M 2"
_symmetry_group_IT_number 44
_symmetry_cell_setting 'orthorhombic'
loop_
_space_group_symop_operation_xyz
x,y,z
-x,-y,z
-x,y,z
x,-y,z
1/2+x,1/2+y,1/2+z
1/2-x,1/2-y,1/2+z
1/2-x,1/2+y,1/2+z
1/2+x,1/2-y,1/2+z
loop_
_atom_site_type_symbol
_atom_site_label
_atom_site_fract_x
_atom_site_fract_y
_atom_site_fract_z
Si Si1 0.666856 0.747911 0.010730
Si Si2 0.322721 0.438619 0.833936
Si Si3 0.824197 0.134638 0.691040
Si Si4 0.171097 0.742127 0.185917
Si Si5 0.169703 0.366752 0.493486
Si Si6 0.674395 0.637614 0.679130
Si Si7 0.669525 0.630707 0.991467
Si Si8 0.325897 0.063182 0.832029
O O1 0.500000 0.746581 0.053995
O O2 0.794941 0.745733 0.082688
O O3 0.684864 0.804261 0.957116
O O4 0.684611 0.692823 0.953198
O O5 0.500000 0.436382 0.836229
O O6 0.262724 0.500000 0.830090
O O7 0.265519 0.406945 0.747847
O O8 0.254272 0.410083 0.921673
O O9 0.766851 0.193116 0.728416
O O10 0.765120 0.126776 0.590515
O O11 0.758279 0.085368 0.746865
O O12 0.000000 0.133838 0.697231
O O13 0.212282 0.802737 0.220723
O O14 0.000000 0.728170 0.202475
O O15 0.251415 0.374377 0.585633
O O16 0.236054 0.406249 0.418903
O O17 0.000000 0.382371 0.510489
O O18 0.500000 0.632866 0.663527
O O19 0.500000 0.612993 0.998382
O O20 0.500000 0.074043 0.819929
O O21 0.288554 0.000000 0.842375
#
# Coordination Sequence:
#
# PCOD8189373 Si02
#       8
#     8   8   8   8   8   8   8   8
#     4   8  14  27  48  73  98 125 164 208 249 298
#     4   9  17  29  46  71 101 131 167 208 245 287
#     4  10  20  34  53  77 103 131 168 214 260 305
#     4   9  16  28  48  74 104 133 162 200 251 309
#     4   9  18  33  53  73  97 132 168 206 255 308
#     4   9  18  31  50  77 105 133 167 208 252 298
#     4   8  15  28  47  71  98 127 160 203 251 296
#     4  10  22  38  53  73 102 137 178 217 257 311
#
# _framework density 19.004204000000001
#
# number of rings (size 3 to 8) (size 9 to 14) (size 15 to 20)
#    0.000    3.000    0.000    1.500    0.000    3.250 
#    0.000    5.000    0.000    3.750    0.000    0.000 
#    0.000    0.000    0.000    0.000    0.000    0.000 
#
# Total GULP energy -396472.043299 kJ/mol
# GULP energy per Si atom -12389.751353 kJ/mol
# Density = 1.896095 g / cm^3
# Si number density = 19.004204 Si / 1000 Ang^3
#
#
#
# Elastic Constant Matrix: (Units=GPa)
#
#
# Indices 1 2 3 4 5 6 
#
# 1 35.9750 33.7355 25.9148 -0.0001 0.0000 0.0000
# 2 33.7355 159.7937 76.0978 0.0001 0.0001 0.0000
# 3 25.9148 76.0978 106.3795 -0.0002 0.0001 0.0000
# 4 -0.0001 0.0001 -0.0002 37.0127 0.0000 0.0000
# 5 0.0000 0.0001 0.0001 0.0000 20.5581 0.0000
# 6 0.0000 0.0000 0.0000 0.0000 0.0000 21.1804
#
#
#
# Elastic Compliance Matrix: (Units=1/GPa)
#
#
# Indices 1 2 3 4 5 6 
#
# 1 0.036404 -0.005251 -0.005112 0.000000 0.000000 0.000000
# 2 -0.005251 0.010249 -0.006052 0.000000 0.000000 0.000000
# 3 -0.005112 -0.006052 0.014975 0.000000 0.000000 0.000000
# 4 0.000000 0.000000 0.000000 0.027018 0.000000 0.000000
# 5 0.000000 0.000000 0.000000 0.000000 0.048643 0.000000
# 6 0.000000 0.000000 0.000000 0.000000 0.000000 0.047213
#
#
# Mechanical properties :
#
#
# Convention : Reuss Voigt Hill
#
# Bulk Modulus (GPa) = 34.72563 63.73828 49.23196
# Shear Modulus (GPa) = 22.03312 26.84357 24.43835
#
# Velocity S-wave (km/s) = 3.40866 3.76241 3.58990
# Velocity P-wave (km/s) = 5.81414 7.24473 6.56850
#
# Compressibility (1/GPa) = 0.02879717
#
# Stress axis : x y z
#
# Youngs Moduli (GPa) = 27.46972 97.57110 66.77780
#
# Poissons Ratio (x) = 0.51236 0.34136
# Poissons Ratio (y) = 0.14425 0.40416
# Poissons Ratio (z) = 0.14042 0.59053
#
# Static dielectric constant tensor:
#      x y z
#    x 3.178400 0.000000 0.000000 
#    y 0.000000 3.826370 0.000000 
#    z 0.000000 0.000000 3.358410 
# 
# 
# High freq. dielectric constant tensor:
#      x y z
#    x 1.704720 0.000000 0.000000 
#    y 0.000000 1.750850 0.000000 
#    z 0.000000 0.000000 1.718480 
# 
# From -- ./inp_files/16862.got.cif
#   From: 2010.03.12/outbox.cif.g09.slc.cpg/sg44_9_cif.got.tgz:16862.got - 2010.04.14 02:36:11.
