data_PCOD8189916
_publ_section_title
;
Structure prediction by ZEFSAII (Michael W. Deem and Ramdas Pophale) SiO2 
 PCOD8189916
Probable space group: I M M 2
;
_chemical_formula_sum "Si O2"
_cell_formula_units_Z 40
_cell_length_a 7.508705
_cell_length_b 8.925057
_cell_length_c 29.210274
_cell_angle_alpha 90.000000
_cell_angle_beta 90.000000
_cell_angle_gamma 90.000000
_cell_volume 1957.544626
_symmetry_space_group_name_H-M "I M M 2"
_symmetry_group_IT_number 44
_symmetry_cell_setting 'orthorhombic'
loop_
_space_group_symop_operation_xyz
x,y,z
-x,-y,z
-x,y,z
x,-y,z
1/2+x,1/2+y,1/2+z
1/2-x,1/2-y,1/2+z
1/2-x,1/2+y,1/2+z
1/2+x,1/2-y,1/2+z
loop_
_atom_site_type_symbol
_atom_site_label
_atom_site_fract_x
_atom_site_fract_y
_atom_site_fract_z
Si Si1 0.291634 0.324489 0.690850
Si Si2 0.500000 0.326863 0.132066
Si Si3 0.790070 0.667570 0.873206
Si Si4 0.706667 0.323747 0.465608
Si Si5 0.500000 0.326902 0.024257
Si Si6 0.295382 0.835592 0.781130
O O1 0.500000 0.289700 0.682578
O O2 0.254438 0.500000 0.691591
O O3 0.179534 0.249948 0.650387
O O4 0.216461 0.259009 0.738888
O O5 0.500000 0.500000 0.146563
O O6 0.500000 0.305697 0.078123
O O7 0.709848 0.500000 0.874961
O O8 0.723713 0.748226 0.828093
O O9 0.000000 0.662036 0.872445
O O10 0.723805 0.758791 0.917338
O O11 0.500000 0.283600 0.474275
O O12 0.738774 0.500000 0.464926
O O13 0.821425 0.250621 0.505688
O O14 0.500000 0.500000 0.009690
O O15 0.500000 0.858673 0.770370
O O16 0.202741 0.000000 0.784306
#
# Coordination Sequence:
#
# PCOD8189916 Si02
#       6
#     8   4   8   8   4   8
#     4  10  22  41  64  90 123 161 204 255 309 366
#     4  11  25  43  65  93 123 161 207 255 312 373
#     4  10  21  36  56  84 119 160 203 245 297 359
#     4  10  22  41  64  90 123 161 204 255 309 366
#     4  11  25  43  65  93 123 161 207 255 312 373
#     4  10  21  36  56  84 119 160 203 245 297 359
#
# _framework density 20.433758999999998
#
# number of rings (size 3 to 8) (size 9 to 14) (size 15 to 20)
#    0.000    1.800    0.000    3.000    2.800    7.200 
#    0.000    4.000    0.000    0.000    0.000    0.000 
#    0.000    0.000    0.000    0.000    0.000    0.000 
#
# Total GULP energy -248032.320472 kJ/mol
# GULP energy per Si atom -12401.616024 kJ/mol
# Density = 2.038725 g / cm^3
# Si number density = 20.433759 Si / 1000 Ang^3
#
#
#
# Elastic Constant Matrix: (Units=GPa)
#
#
# Indices 1 2 3 4 5 6 
#
# 1 80.3982 61.8879 53.5088 0.0000 0.0000 0.0000
# 2 61.8879 177.9927 76.6696 0.0000 0.0000 0.0000
# 3 53.5088 76.6696 122.8010 0.0000 0.0000 0.0000
# 4 0.0000 0.0000 0.0000 42.3946 0.0000 0.0000
# 5 0.0000 0.0000 0.0000 0.0000 38.0842 0.0000
# 6 0.0000 0.0000 0.0000 0.0000 0.0000 29.3029
#
#
#
# Elastic Compliance Matrix: (Units=1/GPa)
#
#
# Indices 1 2 3 4 5 6 
#
# 1 0.019666 -0.004304 -0.005882 0.000000 0.000000 0.000000
# 2 -0.004304 0.008627 -0.003511 0.000000 0.000000 0.000000
# 3 -0.005882 -0.003511 0.012898 0.000000 0.000000 0.000000
# 4 0.000000 0.000000 0.000000 0.023588 0.000000 0.000000
# 5 0.000000 0.000000 0.000000 0.000000 0.026258 0.000000
# 6 0.000000 0.000000 0.000000 0.000000 0.000000 0.034126
#
#
# Mechanical properties :
#
#
# Convention : Reuss Voigt Hill
#
# Bulk Modulus (GPa) = 72.47697 85.03605 78.75651
# Shear Modulus (GPa) = 31.81560 34.56473 33.19017
#
# Velocity S-wave (km/s) = 3.95018 4.11731 4.03461
# Velocity P-wave (km/s) = 7.50676 8.01928 7.76725
#
# Compressibility (1/GPa) = 0.01379749
#
# Stress axis : x y z
#
# Youngs Moduli (GPa) = 50.84907 115.91512 77.53121
#
# Poissons Ratio (x) = 0.49893 0.45603
# Poissons Ratio (y) = 0.21887 0.27219
# Poissons Ratio (z) = 0.29909 0.40694
#
# Static dielectric constant tensor:
#      x y z
#    x 3.444780 0.000000 0.000000 
#    y 0.000000 4.042320 0.000000 
#    z 0.000000 0.000000 3.793130 
# 
# 
# High freq. dielectric constant tensor:
#      x y z
#    x 1.800110 0.000000 0.000000 
#    y 0.000000 1.819450 0.000000 
#    z 0.000000 0.000000 1.797340 
# 
# From -- ./inp_files/4433.got.cif
#   From: 2010.03.12/outbox.cif.g09.slc.cpg/sg44_3_cif.got.tgz:4433.got - 2010.04.14 02:36:11.
