data_PCOD8189887
_publ_section_title
;
Structure prediction by ZEFSAII (Michael W. Deem and Ramdas Pophale) SiO2 
 PCOD8189887
Probable space group: I M M 2
;
_chemical_formula_sum "Si O2"
_cell_formula_units_Z 48
_cell_length_a 8.911271
_cell_length_b 14.909106
_cell_length_c 18.776876
_cell_angle_alpha 90.000000
_cell_angle_beta 90.000000
_cell_angle_gamma 90.000000
_cell_volume 2494.678544
_symmetry_space_group_name_H-M "I M M 2"
_symmetry_group_IT_number 44
_symmetry_cell_setting 'orthorhombic'
loop_
_space_group_symop_operation_xyz
x,y,z
-x,-y,z
-x,y,z
x,-y,z
1/2+x,1/2+y,1/2+z
1/2-x,1/2-y,1/2+z
1/2-x,1/2+y,1/2+z
1/2+x,1/2-y,1/2+z
loop_
_atom_site_type_symbol
_atom_site_label
_atom_site_fract_x
_atom_site_fract_y
_atom_site_fract_z
Si Si1 0.676169 0.102876 0.838080
Si Si2 0.327512 0.898229 0.505024
Si Si3 0.676792 0.757603 0.254845
Si Si4 0.174186 0.104199 0.359149
Si Si5 0.674321 0.739094 0.606065
Si Si6 0.673003 0.397251 0.483627
O O1 0.500000 0.117442 0.832733
O O2 0.754287 0.162934 0.778571
O O3 0.729419 0.133379 0.916178
O O4 0.722303 0.000000 0.823790
O O5 0.500000 0.885396 0.481604
O O6 0.226216 0.869761 0.438343
O O7 0.289132 0.835769 0.571952
O O8 0.294087 0.000000 0.528868
O O9 0.500000 0.752213 0.261464
O O10 0.734651 0.839324 0.302161
O O11 0.722931 0.775953 0.174049
O O12 0.000000 0.127908 0.351829
O O13 0.206796 0.000000 0.343970
O O14 0.500000 0.731666 0.627825
O O15 0.720079 0.662063 0.550596
O O16 0.500000 0.381231 0.463228
O O17 0.705138 0.500000 0.504090
#
# Coordination Sequence:
#
# PCOD8189887 Si02
#       6
#     8   8   8   8   8   8
#     4  10  21  38  61  86 112 145 186 232 279 329
#     4   9  18  34  57  83 110 142 181 225 274 329
#     4  12  25  38  55  81 115 153 189 230 279 330
#     4  10  21  38  61  86 112 145 186 232 279 329
#     4  10  21  36  53  77 111 149 185 222 271 330
#     4   9  18  34  57  83 110 142 181 225 274 329
#
# _framework density 19.240956000000001
#
# number of rings (size 3 to 8) (size 9 to 14) (size 15 to 20)
#    0.000    2.000    0.000    3.500    0.000    6.000 
#    0.000    3.333    0.000    0.000    0.000    0.000 
#    0.000    0.000    0.000    0.000    0.000    0.000 
#
# Total GULP energy -297721.007922 kJ/mol
# GULP energy per Si atom -12405.041997 kJ/mol
# Density = 1.919716 g / cm^3
# Si number density = 19.240956 Si / 1000 Ang^3
#
#
#
# Elastic Constant Matrix: (Units=GPa)
#
#
# Indices 1 2 3 4 5 6 
#
# 1 79.1454 14.7907 19.4323 0.0000 0.0000 0.0000
# 2 14.7907 56.8966 9.7233 0.0000 0.0000 0.0000
# 3 19.4323 9.7233 53.3935 0.0000 0.0000 0.0000
# 4 0.0000 0.0000 0.0000 17.7002 0.0000 0.0000
# 5 0.0000 0.0000 0.0000 0.0000 39.1144 0.0000
# 6 0.0000 0.0000 0.0000 0.0000 0.0000 26.2573
#
#
#
# Elastic Compliance Matrix: (Units=1/GPa)
#
#
# Indices 1 2 3 4 5 6 
#
# 1 0.014331 -0.002925 -0.004683 0.000000 0.000000 0.000000
# 2 -0.002925 0.018737 -0.002348 0.000000 0.000000 0.000000
# 3 -0.004683 -0.002348 0.020861 0.000000 0.000000 0.000000
# 4 0.000000 0.000000 0.000000 0.056496 0.000000 0.000000
# 5 0.000000 0.000000 0.000000 0.000000 0.025566 0.000000
# 6 0.000000 0.000000 0.000000 0.000000 0.000000 0.038085
#
#
# Mechanical properties :
#
#
# Convention : Reuss Voigt Hill
#
# Bulk Modulus (GPa) = 29.39646 30.81422 30.10534
# Shear Modulus (GPa) = 24.35130 26.31368 25.33249
#
# Velocity S-wave (km/s) = 3.56138 3.70210 3.63242
# Velocity P-wave (km/s) = 5.67649 5.85865 5.76829
#
# Compressibility (1/GPa) = 0.03401770
#
# Stress axis : x y z
#
# Youngs Moduli (GPa) = 69.77642 53.36928 47.93682
#
# Poissons Ratio (x) = 0.15612 0.22450
# Poissons Ratio (y) = 0.20411 0.11253
# Poissons Ratio (z) = 0.32677 0.12529
#
# Static dielectric constant tensor:
#      x y z
#    x 3.524290 0.000000 0.000000 
#    y 0.000000 3.825110 0.000000 
#    z 0.000000 0.000000 3.393090 
# 
# 
# High freq. dielectric constant tensor:
#      x y z
#    x 1.748360 0.000000 0.000000 
#    y 0.000000 1.763810 0.000000 
#    z 0.000000 0.000000 1.741710 
# 
# From -- ./inp_files/16100.got.cif
#   From: 2010.03.12/outbox.cif.g09.slc.cpg/sg44_9_cif.got.tgz:16100.got - 2010.04.14 02:36:11.
