data_PCOD8189925
_publ_section_title
;
Structure prediction by ZEFSAII (Michael W. Deem and Ramdas Pophale) SiO2 
 PCOD8189925
Probable space group: I M M 2
;
_chemical_formula_sum "Si O2"
_cell_formula_units_Z 64
_cell_length_a 15.450612
_cell_length_b 9.127275
_cell_length_c 22.896711
_cell_angle_alpha 90.000000
_cell_angle_beta 90.000000
_cell_angle_gamma 90.000000
_cell_volume 3228.939627
_symmetry_space_group_name_H-M "I M M 2"
_symmetry_group_IT_number 44
_symmetry_cell_setting 'orthorhombic'
loop_
_space_group_symop_operation_xyz
x,y,z
-x,-y,z
-x,y,z
x,-y,z
1/2+x,1/2+y,1/2+z
1/2-x,1/2-y,1/2+z
1/2-x,1/2+y,1/2+z
1/2+x,1/2-y,1/2+z
loop_
_atom_site_type_symbol
_atom_site_label
_atom_site_fract_x
_atom_site_fract_y
_atom_site_fract_z
Si Si1 0.243311 0.167222 0.079100
Si Si2 0.597662 0.160343 0.361989
Si Si3 0.905507 0.832453 0.539705
Si Si4 0.900217 0.327767 0.295485
Si Si5 0.398710 0.671606 0.251675
Si Si6 0.821455 0.665544 0.973996
Si Si7 0.140262 0.833532 0.413675
Si Si8 0.764626 0.829707 0.210294
O O1 0.338235 0.237689 0.075880
O O2 0.203272 0.187353 0.143435
O O3 0.254993 0.000000 0.062257
O O4 0.178337 0.236284 0.031703
O O5 0.500000 0.136413 0.344427
O O6 0.632800 0.281393 0.316890
O O7 0.602406 0.213137 0.429581
O O8 0.645093 0.000000 0.355322
O O9 0.913267 0.788307 0.471512
O O10 0.000000 0.813123 0.568769
O O11 0.872810 0.000000 0.543180
O O12 0.881047 0.500000 0.292952
O O13 0.883965 0.273508 0.361187
O O14 0.834951 0.248135 0.251137
O O15 0.000000 0.294304 0.277873
O O16 0.500000 0.710033 0.238137
O O17 0.383160 0.500000 0.244228
O O18 0.331771 0.758640 0.210655
O O19 0.831221 0.500000 0.996500
O O20 0.739446 0.685874 0.931729
O O21 0.118991 0.000000 0.394382
O O22 0.757455 0.000000 0.228270
#
# Coordination Sequence:
#
# PCOD8189925 Si02
#       8
#     8   8   8   8   8   8   8   8
#     4  10  22  37  53  75 101 134 180 227 268 312
#     4   9  17  31  53  81 111 141 174 213 261 323
#     4   9  18  33  54  80 109 141 173 205 252 318
#     4  11  24  39  57  84 113 142 182 233 285 331
#     4  10  21  36  57  87 118 147 181 224 276 329
#     4   9  18  33  53  77 106 141 177 213 261 320
#     4   9  17  31  53  80 110 144 178 212 259 324
#     4  11  24  41  59  78 106 149 194 232 274 327
#
# _framework density 19.820747999999998
#
# number of rings (size 3 to 8) (size 9 to 14) (size 15 to 20)
#    0.000    2.250    0.000    3.375    0.000    8.500 
#    0.000    3.125    0.000    2.250    0.000    0.000 
#    0.000    0.000    0.000    0.000    0.000    0.000 
#
# Total GULP energy -396542.575951 kJ/mol
# GULP energy per Si atom -12391.955498 kJ/mol
# Density = 1.977564 g / cm^3
# Si number density = 19.820748 Si / 1000 Ang^3
#
#
#
# Elastic Constant Matrix: (Units=GPa)
#
#
# Indices 1 2 3 4 5 6 
#
# 1 51.3112 35.5039 23.6628 0.0000 0.0000 0.0000
# 2 35.5039 111.9766 51.3592 0.0000 0.0000 0.0000
# 3 23.6628 51.3592 92.6379 0.0000 0.0000 0.0000
# 4 0.0000 0.0000 0.0000 33.4941 0.0000 0.0000
# 5 0.0000 0.0000 0.0000 0.0000 13.2129 0.0000
# 6 0.0000 0.0000 0.0000 0.0000 0.0000 21.9156
#
#
#
# Elastic Compliance Matrix: (Units=1/GPa)
#
#
# Indices 1 2 3 4 5 6 
#
# 1 0.025467 -0.006827 -0.002720 0.000000 0.000000 0.000000
# 2 -0.006827 0.013806 -0.005910 0.000000 0.000000 0.000000
# 3 -0.002720 -0.005910 0.014766 0.000000 0.000000 0.000000
# 4 0.000000 0.000000 0.000000 0.029856 0.000000 0.000000
# 5 0.000000 0.000000 0.000000 0.000000 0.075684 0.000000
# 6 0.000000 0.000000 0.000000 0.000000 0.000000 0.045630
#
#
# Mechanical properties :
#
#
# Convention : Reuss Voigt Hill
#
# Bulk Modulus (GPa) = 43.24451 52.99748 48.12100
# Shear Modulus (GPa) = 20.50595 23.41784 21.96189
#
# Velocity S-wave (km/s) = 3.21996 3.44100 3.33231
# Velocity P-wave (km/s) = 5.97406 6.52562 6.25592
#
# Compressibility (1/GPa) = 0.02312432
#
# Stress axis : x y z
#
# Youngs Moduli (GPa) = 39.26605 72.43296 67.72225
#
# Poissons Ratio (x) = 0.49451 0.18421
# Poissons Ratio (y) = 0.26808 0.40025
# Poissons Ratio (z) = 0.10681 0.42809
#
# Static dielectric constant tensor:
#      x y z
#    x 3.769250 0.000000 0.000000 
#    y 0.000000 3.648680 0.000000 
#    z 0.000000 0.000000 3.554900 
# 
# 
# High freq. dielectric constant tensor:
#      x y z
#    x 1.762040 0.000000 0.000000 
#    y 0.000000 1.769560 0.000000 
#    z 0.000000 0.000000 1.770270 
# 
# From -- ./inp_files/24363.got.cif
#   From: 2010.03.12/outbox.cif.g09.slc.cpg/sg44_13_cif.got.tgz:24363.got - 2010.04.14 02:36:11.
