data_PCOD8189480
_publ_section_title
;
Structure prediction by ZEFSAII (Michael W. Deem and Ramdas Pophale) SiO2 
 PCOD8189480
Probable space group: I M M 2
;
_chemical_formula_sum "Si O2"
_cell_formula_units_Z 64
_cell_length_a 18.544380
_cell_length_b 15.462930
_cell_length_c 11.847763
_cell_angle_alpha 90.000000
_cell_angle_beta 90.000000
_cell_angle_gamma 90.000000
_cell_volume 3397.351370
_symmetry_space_group_name_H-M "I M M 2"
_symmetry_group_IT_number 44
_symmetry_cell_setting 'orthorhombic'
loop_
_space_group_symop_operation_xyz
x,y,z
-x,-y,z
-x,y,z
x,-y,z
1/2+x,1/2+y,1/2+z
1/2-x,1/2-y,1/2+z
1/2-x,1/2+y,1/2+z
1/2+x,1/2-y,1/2+z
loop_
_atom_site_type_symbol
_atom_site_label
_atom_site_fract_x
_atom_site_fract_y
_atom_site_fract_z
Si Si1 0.790034 0.902561 0.795720
Si Si2 0.581693 0.238916 0.777461
Si Si3 0.582396 0.319913 0.400586
Si Si4 0.823758 0.665031 0.914403
Si Si5 0.789026 0.401346 0.667224
Si Si6 0.619453 0.598787 0.637482
Si Si7 0.164619 0.404507 0.142808
Si Si8 0.802250 0.702574 0.456640
O O1 0.864306 0.848970 0.799140
O O2 0.747306 0.883978 0.679942
O O3 0.734292 0.879031 0.895130
O O4 0.813881 0.000000 0.811856
O O5 0.500000 0.214404 0.806956
O O6 0.582461 0.334998 0.724271
O O7 0.611447 0.169121 0.688184
O O8 0.626509 0.235932 0.893215
O O9 0.500000 0.328283 0.361351
O O10 0.602532 0.220362 0.421213
O O11 0.596343 0.378302 0.510554
O O12 0.811666 0.624043 0.792920
O O13 0.755884 0.721060 0.956770
O O14 0.835197 0.590954 0.007295
O O15 0.813914 0.500000 0.643997
O O16 0.704184 0.390871 0.652308
O O17 0.825098 0.332937 0.580340
O O18 0.595085 0.500000 0.663794
O O19 0.141915 0.500000 0.188209
#
# Coordination Sequence:
#
# PCOD8189480 Si02
#       8
#     8   8   8   8   8   8   8   8
#     4   9  18  33  55  81 112 144 183 235 289 338
#     4  11  22  39  59  87 122 156 191 240 298 351
#     4  11  22  33  53  84 121 157 191 232 290 356
#     4  11  21  36  59  83 118 154 195 241 292 345
#     4  11  21  37  62  89 115 151 201 251 293 344
#     4  11  21  35  58  91 122 153 192 240 300 360
#     4  10  21  37  59  86 114 151 198 245 290 341
#     4  10  20  34  58  83 114 149 191 238 285 345
#
# _framework density 18.838204000000001
#
# number of rings (size 3 to 8) (size 9 to 14) (size 15 to 20)
#    0.000    1.500    5.000    1.500    3.500    2.500 
#    0.000    0.625    0.000    1.875    0.000    0.000 
#    0.000    0.000    0.000    0.000    0.000    0.000 
#
# Total GULP energy -396678.256471 kJ/mol
# GULP energy per Si atom -12396.195515 kJ/mol
# Density = 1.879533 g / cm^3
# Si number density = 18.838204 Si / 1000 Ang^3
#
#
#
# Elastic Constant Matrix: (Units=GPa)
#
#
# Indices 1 2 3 4 5 6 
#
# 1 107.5704 39.2884 15.5360 0.0000 0.0000 0.0000
# 2 39.2884 94.7161 31.1793 0.0000 0.0000 0.0000
# 3 15.5360 31.1793 61.8024 0.0000 0.0000 0.0000
# 4 0.0000 0.0000 0.0000 27.7769 0.0000 0.0000
# 5 0.0000 0.0000 0.0000 0.0000 12.5174 0.0000
# 6 0.0000 0.0000 0.0000 0.0000 0.0000 13.5740
#
#
#
# Elastic Compliance Matrix: (Units=1/GPa)
#
#
# Indices 1 2 3 4 5 6 
#
# 1 0.010972 -0.004369 -0.000554 0.000000 0.000000 0.000000
# 2 -0.004369 0.014400 -0.006167 0.000000 0.000000 0.000000
# 3 -0.000554 -0.006167 0.019431 0.000000 0.000000 0.000000
# 4 0.000000 0.000000 0.000000 0.036001 0.000000 0.000000
# 5 0.000000 0.000000 0.000000 0.000000 0.079889 0.000000
# 6 0.000000 0.000000 0.000000 0.000000 0.000000 0.073670
#
#
# Mechanical properties :
#
#
# Convention : Reuss Voigt Hill
#
# Bulk Modulus (GPa) = 44.20095 48.45517 46.32806
# Shear Modulus (GPa) = 18.93345 22.64602 20.78974
#
# Velocity S-wave (km/s) = 3.17370 3.47094 3.32564
# Velocity P-wave (km/s) = 6.07818 6.46845 6.27635
#
# Compressibility (1/GPa) = 0.02262395
#
# Stress axis : x y z
#
# Youngs Moduli (GPa) = 91.14208 69.44452 51.46439
#
# Poissons Ratio (x) = 0.30339 0.02852
# Poissons Ratio (y) = 0.39818 0.31736
# Poissons Ratio (z) = 0.05050 0.42823
#
# Static dielectric constant tensor:
#      x y z
#    x 3.315910 0.000000 0.000000 
#    y 0.000000 3.606140 0.000000 
#    z 0.000000 0.000000 3.466290 
# 
# 
# High freq. dielectric constant tensor:
#      x y z
#    x 1.705800 0.000000 0.000000 
#    y 0.000000 1.742550 0.000000 
#    z 0.000000 0.000000 1.720810 
# 
# From -- ./inp_files/13440.got.cif
#   From: 2010.03.12/outbox.cif.g09.slc.cpg/sg44_7_cif.got.tgz:13440.got - 2010.04.14 02:36:11.
