data_PCOD8189753
_publ_section_title
;
Structure prediction by ZEFSAII (Michael W. Deem and Ramdas Pophale) SiO2 
 PCOD8189753
Probable space group: I M M 2
;
_chemical_formula_sum "Si O2"
_cell_formula_units_Z 64
_cell_length_a 8.553609
_cell_length_b 23.736769
_cell_length_c 15.369867
_cell_angle_alpha 90.000000
_cell_angle_beta 90.000000
_cell_angle_gamma 90.000000
_cell_volume 3120.621576
_symmetry_space_group_name_H-M "I M M 2"
_symmetry_group_IT_number 44
_symmetry_cell_setting 'orthorhombic'
loop_
_space_group_symop_operation_xyz
x,y,z
-x,-y,z
-x,y,z
x,-y,z
1/2+x,1/2+y,1/2+z
1/2-x,1/2-y,1/2+z
1/2-x,1/2+y,1/2+z
1/2+x,1/2-y,1/2+z
loop_
_atom_site_type_symbol
_atom_site_label
_atom_site_fract_x
_atom_site_fract_y
_atom_site_fract_z
Si Si1 0.179605 0.754502 0.090420
Si Si2 0.182819 0.366352 0.525264
Si Si3 0.313971 0.936476 0.189888
Si Si4 0.321372 0.249185 0.275364
Si Si5 0.819451 0.861075 0.535875
Si Si6 0.682012 0.131239 0.356566
Si Si7 0.819947 0.871537 0.842471
Si Si8 0.180892 0.565182 0.183814
O O1 0.285954 0.800966 0.044153
O O2 0.208203 0.752955 0.193238
O O3 0.215584 0.694030 0.049986
O O4 0.000000 0.769371 0.071851
O O5 0.248161 0.403338 0.605496
O O6 0.272107 0.387814 0.439931
O O7 0.000000 0.375701 0.510781
O O8 0.500000 0.935235 0.189711
O O9 0.252118 0.905472 0.276365
O O10 0.248911 0.000000 0.188170
O O11 0.500000 0.247002 0.240983
O O12 0.286798 0.197009 0.338323
O O13 0.288073 0.305236 0.329888
O O14 0.777067 0.887075 0.442040
O O15 0.785285 0.907027 0.609270
O O16 0.000000 0.844321 0.541198
O O17 0.500000 0.118737 0.372151
O O18 0.715253 0.906971 0.776544
O O19 0.000000 0.886788 0.826225
O O20 0.225771 0.500000 0.189168
O O21 0.000000 0.574286 0.160599
#
# Coordination Sequence:
#
# PCOD8189753 Si02
#       8
#     8   8   8   8   8   8   8   8
#     4  12  23  37  62  92 125 162 206 254 311 375
#     4  11  22  39  63  92 128 166 208 255 309 369
#     4   9  19  37  62  90 120 160 208 255 301 353
#     4  10  20  37  61  90 123 160 199 250 313 375
#     4  12  25  41  63  93 128 162 203 253 316 380
#     4  10  20  38  63  91 126 163 205 252 306 370
#     4  11  23  39  63  94 128 161 201 255 317 376
#     4  11  25  45  67  91 121 163 215 262 306 365
#
# _framework density 20.508734
#
# number of rings (size 3 to 8) (size 9 to 14) (size 15 to 20)
#    0.000    1.250    2.500    4.125    0.000    4.000 
#    0.000    2.500    0.000    2.625    0.000    0.000 
#    0.000    0.000    0.000    0.000    0.000    0.000 
#
# Total GULP energy -397015.835386 kJ/mol
# GULP energy per Si atom -12406.744856 kJ/mol
# Density = 2.046205 g / cm^3
# Si number density = 20.508734 Si / 1000 Ang^3
#
#
#
# Elastic Constant Matrix: (Units=GPa)
#
#
# Indices 1 2 3 4 5 6 
#
# 1 55.8498 16.5781 20.9797 0.0001 0.0000 0.0000
# 2 16.5781 120.7169 45.9153 0.0000 0.0000 0.0000
# 3 20.9797 45.9153 150.4910 -0.0002 0.0000 0.0000
# 4 0.0001 0.0000 -0.0002 6.7084 0.0001 0.0000
# 5 0.0000 0.0000 0.0000 0.0001 33.1937 0.0000
# 6 0.0000 0.0000 0.0000 0.0000 0.0000 23.6763
#
#
#
# Elastic Compliance Matrix: (Units=1/GPa)
#
#
# Indices 1 2 3 4 5 6 
#
# 1 0.019248 -0.001836 -0.002123 0.000000 0.000000 0.000000
# 2 -0.001836 0.009546 -0.002657 0.000000 0.000000 0.000000
# 3 -0.002123 -0.002657 0.007751 0.000000 0.000000 0.000000
# 4 0.000000 0.000000 0.000000 0.149068 0.000000 0.000000
# 5 0.000000 0.000000 0.000000 0.000000 0.030126 0.000000
# 6 0.000000 0.000000 0.000000 0.000000 0.000000 0.042236
#
#
# Mechanical properties :
#
#
# Convention : Reuss Voigt Hill
#
# Bulk Modulus (GPa) = 42.89217 54.88932 48.89075
# Shear Modulus (GPa) = 17.92252 28.95465 23.43859
#
# Velocity S-wave (km/s) = 2.95938 3.76150 3.38429
# Velocity P-wave (km/s) = 5.71286 6.75922 6.25795
#
# Compressibility (1/GPa) = 0.02331428
#
# Stress axis : x y z
#
# Youngs Moduli (GPa) = 51.95438 104.75095 129.00749
#
# Poissons Ratio (x) = 0.19229 0.27391
# Poissons Ratio (y) = 0.09537 0.34274
# Poissons Ratio (z) = 0.11031 0.27830
#
# Static dielectric constant tensor:
#      x y z
#    x 3.510640 0.000000 0.000000 
#    y 0.000000 3.746470 0.000000 
#    z 0.000000 0.000000 3.812070 
# 
# 
# High freq. dielectric constant tensor:
#      x y z
#    x 1.788500 0.000000 0.000000 
#    y 0.000000 1.797620 0.000000 
#    z 0.000000 0.000000 1.815960 
# 
# From -- ./inp_files/16799.got.cif
#   From: 2010.03.12/outbox.cif.g09.slc.cpg/sg44_9_cif.got.tgz:16799.got - 2010.04.14 02:36:11.
