data_PCOD8189870
_publ_section_title
;
Structure prediction by ZEFSAII (Michael W. Deem and Ramdas Pophale) SiO2 
 PCOD8189870
Probable space group: I M M 2
;
_chemical_formula_sum "Si O2"
_cell_formula_units_Z 48
_cell_length_a 7.868421
_cell_length_b 17.750530
_cell_length_c 16.946966
_cell_angle_alpha 90.000000
_cell_angle_beta 90.000000
_cell_angle_gamma 90.000000
_cell_volume 2366.959744
_symmetry_space_group_name_H-M "I M M 2"
_symmetry_group_IT_number 44
_symmetry_cell_setting 'orthorhombic'
loop_
_space_group_symop_operation_xyz
x,y,z
-x,-y,z
-x,y,z
x,-y,z
1/2+x,1/2+y,1/2+z
1/2-x,1/2-y,1/2+z
1/2-x,1/2+y,1/2+z
1/2+x,1/2-y,1/2+z
loop_
_atom_site_type_symbol
_atom_site_label
_atom_site_fract_x
_atom_site_fract_y
_atom_site_fract_z
Si Si1 0.806322 0.085072 0.514750
Si Si2 0.500000 0.410398 0.618094
Si Si3 0.000000 0.088883 0.941492
Si Si4 0.192032 0.343340 0.346867
Si Si5 0.691216 0.182857 0.375101
Si Si6 0.308289 0.088587 0.223516
Si Si7 0.197238 0.585213 0.184592
O O1 0.706366 0.143058 0.459751
O O2 0.794278 0.111704 0.605757
O O3 0.000000 0.086177 0.487175
O O4 0.731098 0.000000 0.507005
O O5 0.500000 0.500000 0.617469
O O6 0.500000 0.377943 0.529957
O O7 0.328870 0.380390 0.660780
O O8 0.825957 0.115527 0.902248
O O9 0.000000 0.000000 0.941347
O O10 0.187710 0.254571 0.364771
O O11 0.246178 0.359358 0.256278
O O12 0.000000 0.374588 0.361903
O O13 0.500000 0.213336 0.366258
O O14 0.736681 0.122680 0.308241
O O15 0.500000 0.110298 0.195875
O O16 0.290045 0.000000 0.233879
O O17 0.250814 0.500000 0.208325
O O18 0.000000 0.589574 0.164548
#
# Coordination Sequence:
#
# PCOD8189870 Si02
#       7
#     8   4   4   8   8   8   8
#     4  10  21  35  58  92 125 163 207 254 305 362
#     4   9  20  38  62  91 117 150 202 254 301 354
#     4  11  24  44  68  91 118 158 206 256 306 362
#     4  11  24  42  62  91 125 161 203 254 311 366
#     4  11  22  39  59  86 126 167 204 250 305 367
#     4   9  19  36  60  89 121 160 204 247 296 360
#     4   9  19  38  62  87 116 155 204 254 306 364
#
# _framework density 20.279178000000002
#
# number of rings (size 3 to 8) (size 9 to 14) (size 15 to 20)
#    0.000    2.000    0.833    2.000    3.500    3.333 
#    3.000    1.667    0.000    0.000    0.000    0.000 
#    0.000    0.000    0.000    0.000    0.000    0.000 
#
# Total GULP energy -297616.415245 kJ/mol
# GULP energy per Si atom -12400.683969 kJ/mol
# Density = 2.023302 g / cm^3
# Si number density = 20.279178 Si / 1000 Ang^3
#
#
#
# Elastic Constant Matrix: (Units=GPa)
#
#
# Indices 1 2 3 4 5 6 
#
# 1 111.0103 27.4443 58.7302 0.0000 0.0000 0.0000
# 2 27.4443 74.6002 53.8699 0.0000 0.0000 0.0000
# 3 58.7302 53.8699 151.2773 0.0000 0.0000 0.0000
# 4 0.0000 0.0000 0.0000 19.6005 0.0000 0.0000
# 5 0.0000 0.0000 0.0000 0.0000 35.4324 0.0000
# 6 0.0000 0.0000 0.0000 0.0000 0.0000 22.9297
#
#
#
# Elastic Compliance Matrix: (Units=1/GPa)
#
#
# Indices 1 2 3 4 5 6 
#
# 1 0.011436 -0.001348 -0.003960 0.000000 0.000000 0.000000
# 2 -0.001348 0.018204 -0.005959 0.000000 0.000000 0.000000
# 3 -0.003960 -0.005959 0.010270 0.000000 0.000000 0.000000
# 4 0.000000 0.000000 0.000000 0.051019 0.000000 0.000000
# 5 0.000000 0.000000 0.000000 0.000000 0.028223 0.000000
# 6 0.000000 0.000000 0.000000 0.000000 0.000000 0.043611
#
#
# Mechanical properties :
#
#
# Convention : Reuss Voigt Hill
#
# Bulk Modulus (GPa) = 57.54978 68.55297 63.05138
# Shear Modulus (GPa) = 26.16579 28.71543 27.44061
#
# Velocity S-wave (km/s) = 3.59594 3.76707 3.68250
# Velocity P-wave (km/s) = 6.75880 7.26630 7.01714
#
# Compressibility (1/GPa) = 0.01737626
#
# Stress axis : x y z
#
# Youngs Moduli (GPa) = 87.43995 54.93364 97.37255
#
# Poissons Ratio (x) = 0.07403 0.38560
# Poissons Ratio (y) = 0.11784 0.58026
# Poissons Ratio (z) = 0.34627 0.32736
#
# Static dielectric constant tensor:
#      x y z
#    x 3.742660 0.000000 0.000000 
#    y 0.000000 3.504790 0.000000 
#    z 0.000000 0.000000 3.726840 
# 
# 
# High freq. dielectric constant tensor:
#      x y z
#    x 1.801960 0.000000 0.000000 
#    y 0.000000 1.773350 0.000000 
#    z 0.000000 0.000000 1.792270 
# 
# From -- ./inp_files/16147.got.cif
#   From: 2010.03.12/outbox.cif.g09.slc.cpg/sg44_9_cif.got.tgz:16147.got - 2010.04.14 02:36:11.
