data_PCOD8189346
_publ_section_title
;
Structure prediction by ZEFSAII (Michael W. Deem and Ramdas Pophale) SiO2 
 PCOD8189346
Probable space group: I M M 2
;
_chemical_formula_sum "Si O2"
_cell_formula_units_Z 64
_cell_length_a 23.178020
_cell_length_b 8.886558
_cell_length_c 18.824948
_cell_angle_alpha 90.000000
_cell_angle_beta 90.000000
_cell_angle_gamma 90.000000
_cell_volume 3877.427608
_symmetry_space_group_name_H-M "I M M 2"
_symmetry_group_IT_number 44
_symmetry_cell_setting 'orthorhombic'
loop_
_space_group_symop_operation_xyz
x,y,z
-x,-y,z
-x,y,z
x,-y,z
1/2+x,1/2+y,1/2+z
1/2-x,1/2-y,1/2+z
1/2-x,1/2+y,1/2+z
1/2+x,1/2-y,1/2+z
loop_
_atom_site_type_symbol
_atom_site_label
_atom_site_fract_x
_atom_site_fract_y
_atom_site_fract_z
Si Si1 0.933644 0.323314 0.654530
Si Si2 0.933856 0.327206 0.380710
Si Si3 0.251116 0.175580 0.516284
Si Si4 0.837082 0.175206 0.736298
Si Si5 0.382728 0.324100 0.015917
Si Si6 0.772252 0.827288 0.875320
Si Si7 0.834177 0.326418 0.278622
Si Si8 0.230166 0.822621 0.159354
O O1 0.923539 0.500000 0.658274
O O2 0.899025 0.245344 0.718714
O O3 0.912378 0.266603 0.578704
O O4 0.000000 0.279445 0.664824
O O5 0.923911 0.500000 0.404743
O O6 0.914201 0.218277 0.443231
O O7 0.897579 0.292925 0.309336
O O8 0.000000 0.295260 0.361530
O O9 0.184100 0.221136 0.511323
O O10 0.282544 0.222979 0.443413
O O11 0.281699 0.265159 0.579932
O O12 0.259922 0.000000 0.528986
O O13 0.823775 0.202321 0.819299
O O14 0.789392 0.250680 0.686562
O O15 0.836692 0.000000 0.717034
O O16 0.390705 0.500000 0.030266
O O17 0.711870 0.782151 0.839037
O O18 0.771013 0.000000 0.900131
O O19 0.825461 0.500000 0.256940
O O20 0.823574 0.226524 0.208737
O O21 0.236395 0.000000 0.160220
#
# Coordination Sequence:
#
# PCOD8189346 Si02
#       8
#     8   8   8   8   8   8   8   8
#     4  11  23  36  51  72  99 135 176 211 245 290
#     4  10  20  34  52  72  98 136 176 210 247 293
#     4  11  21  32  49  74 102 133 168 204 247 299
#     4  10  20  35  52  73  99 129 165 206 252 298
#     4  11  22  33  47  70 102 138 175 210 244 289
#     4   9  18  32  51  72  97 129 163 203 251 299
#     4   9  18  33  50  70  99 130 164 207 250 293
#     4  11  21  32  51  73  98 130 166 206 251 299
#
# _framework density 16.505787999999999
#
# number of rings (size 3 to 8) (size 9 to 14) (size 15 to 20)
#    0.000    1.750    2.500    3.750    0.000    6.750 
#    0.000    0.000    0.000    0.000    0.000    0.875 
#    0.000    5.000    0.000    0.000    0.000    0.000 
#
# Total GULP energy -396917.308378 kJ/mol
# GULP energy per Si atom -12403.665887 kJ/mol
# Density = 1.646822 g / cm^3
# Si number density = 16.505788 Si / 1000 Ang^3
#
#
#
# Elastic Constant Matrix: (Units=GPa)
#
#
# Indices 1 2 3 4 5 6 
#
# 1 76.3070 34.2966 50.9610 0.0000 0.0000 0.0000
# 2 34.2966 80.3536 50.9533 0.0000 0.0000 0.0000
# 3 50.9610 50.9533 110.7167 0.0000 0.0000 0.0000
# 4 0.0000 0.0000 0.0000 31.7594 0.0000 0.0000
# 5 0.0000 0.0000 0.0000 0.0000 21.7807 0.0000
# 6 0.0000 0.0000 0.0000 0.0000 0.0000 21.1118
#
#
#
# Elastic Compliance Matrix: (Units=1/GPa)
#
#
# Indices 1 2 3 4 5 6 
#
# 1 0.019691 -0.003752 -0.007337 0.000000 0.000000 0.000000
# 2 -0.003752 0.018288 -0.006689 0.000000 0.000000 0.000000
# 3 -0.007337 -0.006689 0.015488 0.000000 0.000000 0.000000
# 4 0.000000 0.000000 0.000000 0.031487 0.000000 0.000000
# 5 0.000000 0.000000 0.000000 0.000000 0.045912 0.000000
# 6 0.000000 0.000000 0.000000 0.000000 0.000000 0.047367
#
#
# Mechanical properties :
#
#
# Convention : Reuss Voigt Hill
#
# Bulk Modulus (GPa) = 55.83371 59.97768 57.90569
# Shear Modulus (GPa) = 22.75209 23.67479 23.21344
#
# Velocity S-wave (km/s) = 3.71675 3.79137 3.75424
# Velocity P-wave (km/s) = 7.23320 7.45535 7.34511
#
# Compressibility (1/GPa) = 0.01791033
#
# Stress axis : x y z
#
# Youngs Moduli (GPa) = 50.78413 54.67929 64.56794
#
# Poissons Ratio (x) = 0.20518 0.47371
# Poissons Ratio (y) = 0.19056 0.43192
# Poissons Ratio (z) = 0.37258 0.36577
#
# Static dielectric constant tensor:
#      x y z
#    x 3.039260 0.000000 0.000000 
#    y 0.000000 3.150530 0.000000 
#    z 0.000000 0.000000 3.106000 
# 
# 
# High freq. dielectric constant tensor:
#      x y z
#    x 1.607970 0.000000 0.000000 
#    y 0.000000 1.646100 0.000000 
#    z 0.000000 0.000000 1.630740 
# 
# From -- ./inp_files/20883.got.cif
#   From: 2010.03.12/outbox.cif.g09.slc.cpg/sg44_11_cif.got.tgz:20883.got - 2010.04.14 02:36:11.
