data_PCOD8189683
_publ_section_title
;
Structure prediction by ZEFSAII (Michael W. Deem and Ramdas Pophale) SiO2 
 PCOD8189683
Probable space group: I M M 2
;
_chemical_formula_sum "Si O2"
_cell_formula_units_Z 48
_cell_length_a 16.926017
_cell_length_b 8.509223
_cell_length_c 16.822748
_cell_angle_alpha 90.000000
_cell_angle_beta 90.000000
_cell_angle_gamma 90.000000
_cell_volume 2422.934185
_symmetry_space_group_name_H-M "I M M 2"
_symmetry_group_IT_number 44
_symmetry_cell_setting 'orthorhombic'
loop_
_space_group_symop_operation_xyz
x,y,z
-x,-y,z
-x,y,z
x,-y,z
1/2+x,1/2+y,1/2+z
1/2-x,1/2-y,1/2+z
1/2-x,1/2+y,1/2+z
1/2+x,1/2-y,1/2+z
loop_
_atom_site_type_symbol
_atom_site_label
_atom_site_fract_x
_atom_site_fract_y
_atom_site_fract_z
Si Si1 0.908061 0.817116 0.408490
Si Si2 0.500000 0.814709 0.505175
Si Si3 0.808581 0.316678 0.268537
Si Si4 0.500000 0.319180 0.332955
Si Si5 0.849786 0.684721 0.095434
Si Si6 0.174934 0.815006 0.570231
Si Si7 0.857028 0.317663 0.738328
O O1 0.865907 0.715867 0.341426
O O2 0.874527 0.764471 0.493545
O O3 0.000000 0.777194 0.406575
O O4 0.891242 0.000000 0.393047
O O5 0.500000 0.782605 0.412373
O O6 0.577696 0.737979 0.546890
O O7 0.500000 0.000000 0.518451
O O8 0.787367 0.500000 0.263718
O O9 0.852340 0.261845 0.187622
O O10 0.727296 0.221742 0.277767
O O11 0.500000 0.500000 0.357405
O O12 0.577207 0.282945 0.282211
O O13 0.858939 0.500000 0.089604
O O14 0.766170 0.735511 0.056713
O O15 0.139887 0.723608 0.645292
O O16 0.168290 0.000000 0.587904
O O17 0.875672 0.500000 0.750482
#
# Coordination Sequence:
#
# PCOD8189683 Si02
#       7
#     8   4   8   4   8   8   8
#     4  10  22  37  57  88 124 164 204 246 300 356
#     4  10  20  36  60  89 116 155 202 243 288 357
#     4  10  21  39  62  89 119 160 202 247 302 357
#     4  12  26  42  60  89 124 157 194 247 302 359
#     4   8  17  34  58  84 114 152 197 242 294 352
#     4   9  19  38  60  85 118 161 200 243 301 361
#     4  11  23  41  64  90 118 156 200 249 301 359
#
# _framework density 19.810690999999998
#
# number of rings (size 3 to 8) (size 9 to 14) (size 15 to 20)
#    0.000    2.167    0.000    3.750    4.667    1.000 
#    0.000    4.167    0.000    0.000    0.000    0.000 
#    0.000    0.000    0.000    0.000    0.000    0.000 
#
# Total GULP energy -297643.457381 kJ/mol
# GULP energy per Si atom -12401.810724 kJ/mol
# Density = 1.976560 g / cm^3
# Si number density = 19.810691 Si / 1000 Ang^3
#
#
#
# Elastic Constant Matrix: (Units=GPa)
#
#
# Indices 1 2 3 4 5 6 
#
# 1 111.3160 5.9975 72.8333 0.0000 0.0000 0.0000
# 2 5.9975 38.3852 12.7048 0.0000 0.0000 0.0000
# 3 72.8333 12.7048 106.2716 0.0000 0.0000 0.0000
# 4 0.0000 0.0000 0.0000 30.3288 0.0000 0.0000
# 5 0.0000 0.0000 0.0000 0.0000 22.0970 0.0000
# 6 0.0000 0.0000 0.0000 0.0000 0.0000 23.8379
#
#
#
# Elastic Compliance Matrix: (Units=1/GPa)
#
#
# Indices 1 2 3 4 5 6 
#
# 1 0.016340 0.001201 -0.011342 0.000000 0.000000 0.000000
# 2 0.001201 0.027213 -0.004076 0.000000 0.000000 0.000000
# 3 -0.011342 -0.004076 0.017670 0.000000 0.000000 0.000000
# 4 0.000000 0.000000 0.000000 0.032972 0.000000 0.000000
# 5 0.000000 0.000000 0.000000 0.000000 0.045255 0.000000
# 6 0.000000 0.000000 0.000000 0.000000 0.000000 0.041950
#
#
# Mechanical properties :
#
#
# Convention : Reuss Voigt Hill
#
# Bulk Modulus (GPa) = 30.49850 48.78265 39.64058
# Shear Modulus (GPa) = 22.64853 26.21523 24.43188
#
# Velocity S-wave (km/s) = 3.38486 3.64165 3.51560
# Velocity P-wave (km/s) = 5.54119 6.50846 6.04420
#
# Compressibility (1/GPa) = 0.03278850
#
# Stress axis : x y z
#
# Youngs Moduli (GPa) = 61.20049 36.74678 56.59164
#
# Poissons Ratio (x) = -0.04413 0.64186
# Poissons Ratio (y) = -0.07350 0.23069
# Poissons Ratio (z) = 0.69414 0.14980
#
# Static dielectric constant tensor:
#      x y z
#    x 3.891030 0.000000 0.000000 
#    y 0.000000 3.331520 0.000000 
#    z 0.000000 0.000000 3.622160 
# 
# 
# High freq. dielectric constant tensor:
#      x y z
#    x 1.783940 0.000000 0.000000 
#    y 0.000000 1.751000 0.000000 
#    z 0.000000 0.000000 1.778690 
# 
# From -- ./inp_files/16220.got.cif
#   From: 2010.03.12/outbox.cif.g09.slc.cpg/sg44_9_cif.got.tgz:16220.got - 2010.04.14 02:36:11.
