data_PCOD8189967
_publ_section_title
;
Structure prediction by ZEFSAII (Michael W. Deem and Ramdas Pophale) SiO2 
 PCOD8189967
Probable space group: I M M 2
;
_chemical_formula_sum "Si O2"
_cell_formula_units_Z 56
_cell_length_a 24.812450
_cell_length_b 8.567876
_cell_length_c 14.125767
_cell_angle_alpha 90.000000
_cell_angle_beta 90.000000
_cell_angle_gamma 90.000000
_cell_volume 3002.996734
_symmetry_space_group_name_H-M "I M M 2"
_symmetry_group_IT_number 44
_symmetry_cell_setting 'orthorhombic'
loop_
_space_group_symop_operation_xyz
x,y,z
-x,-y,z
-x,y,z
x,-y,z
1/2+x,1/2+y,1/2+z
1/2-x,1/2-y,1/2+z
1/2-x,1/2+y,1/2+z
1/2+x,1/2-y,1/2+z
loop_
_atom_site_type_symbol
_atom_site_label
_atom_site_fract_x
_atom_site_fract_y
_atom_site_fract_z
Si Si1 0.891249 0.316730 0.381460
Si Si2 0.319599 0.682855 0.025792
Si Si3 0.210270 0.682690 0.928816
Si Si4 0.000000 0.815196 0.079728
Si Si5 0.329943 0.317856 0.716398
Si Si6 0.500000 0.314548 0.799158
Si Si7 0.610251 0.185265 0.550256
Si Si8 0.280629 0.678685 0.226666
O O1 0.890459 0.500000 0.361746
O O2 0.872257 0.276174 0.488218
O O3 0.845244 0.226511 0.322776
O O4 0.949379 0.250113 0.356827
O O5 0.325119 0.500000 0.003169
O O6 0.320495 0.711625 0.139053
O O7 0.264386 0.751234 0.977667
O O8 0.211294 0.500000 0.944309
O O9 0.205800 0.717669 0.817501
O O10 0.155817 0.748490 0.977909
O O11 0.000000 0.758327 0.189772
O O12 0.051059 0.745876 0.022430
O O13 0.000000 0.000000 0.072732
O O14 0.317736 0.500000 0.708714
O O15 0.379547 0.265694 0.651569
O O16 0.278029 0.219944 0.685255
O O17 0.500000 0.500000 0.803159
O O18 0.610568 0.000000 0.559576
O O19 0.282431 0.500000 0.258888
#
# Coordination Sequence:
#
# PCOD8189967 Si02
#       8
#     8   8   8   4   8   4   8   8
#     4  12  24  37  57  85 115 151 194 234 277 339
#     4  10  21  38  57  82 117 153 187 233 287 337
#     4  10  21  37  57  83 117 151 188 234 288 337
#     4  11  23  37  57  86 116 151 190 232 283 341
#     4  12  22  33  53  82 118 154 188 232 281 334
#     4  11  23  39  59  84 116 153 186 230 289 337
#     4  11  22  38  58  82 115 154 192 234 282 337
#     4  11  22  37  57  83 115 153 195 233 279 338
#
# _framework density 18.648038
#
# number of rings (size 3 to 8) (size 9 to 14) (size 15 to 20)
#    0.000    1.000    4.286    3.857    0.000    2.857 
#    0.000    0.000    0.000    0.857    0.000    4.000 
#    0.000    0.000    0.000    0.000    0.000    0.000 
#
# Total GULP energy -347224.234528 kJ/mol
# GULP energy per Si atom -12400.865519 kJ/mol
# Density = 1.860559 g / cm^3
# Si number density = 18.648038 Si / 1000 Ang^3
#
#
#
# Elastic Constant Matrix: (Units=GPa)
#
#
# Indices 1 2 3 4 5 6 
#
# 1 101.0330 23.9228 31.5910 0.0000 0.0000 0.0000
# 2 23.9228 44.7228 23.1238 0.0000 0.0000 0.0000
# 3 31.5910 23.1238 69.1282 0.0000 0.0000 0.0000
# 4 0.0000 0.0000 0.0000 27.8143 0.0000 0.0000
# 5 0.0000 0.0000 0.0000 0.0000 29.6597 0.0000
# 6 0.0000 0.0000 0.0000 0.0000 0.0000 29.5493
#
#
#
# Elastic Compliance Matrix: (Units=1/GPa)
#
#
# Indices 1 2 3 4 5 6 
#
# 1 0.012229 -0.004416 -0.004111 0.000000 0.000000 0.000000
# 2 -0.004416 0.028630 -0.007559 0.000000 0.000000 0.000000
# 3 -0.004111 -0.007559 0.018873 0.000000 0.000000 0.000000
# 4 0.000000 0.000000 0.000000 0.035953 0.000000 0.000000
# 5 0.000000 0.000000 0.000000 0.000000 0.033716 0.000000
# 6 0.000000 0.000000 0.000000 0.000000 0.000000 0.033842
#
#
# Mechanical properties :
#
#
# Convention : Reuss Voigt Hill
#
# Bulk Modulus (GPa) = 36.28417 41.35102 38.81760
# Shear Modulus (GPa) = 24.43771 26.48775 25.46273
#
# Velocity S-wave (km/s) = 3.62397 3.77291 3.69919
# Velocity P-wave (km/s) = 6.08362 6.41891 6.25352
#
# Compressibility (1/GPa) = 0.02756022
#
# Stress axis : x y z
#
# Youngs Moduli (GPa) = 81.77385 34.92802 52.98477
#
# Poissons Ratio (x) = 0.15423 0.21784
# Poissons Ratio (y) = 0.36108 0.40052
# Poissons Ratio (z) = 0.33621 0.26403
#
# Static dielectric constant tensor:
#      x y z
#    x 3.456270 0.000000 0.000000 
#    y 0.000000 3.328640 0.000000 
#    z 0.000000 0.000000 3.330480 
# 
# 
# High freq. dielectric constant tensor:
#      x y z
#    x 1.715330 0.000000 0.000000 
#    y 0.000000 1.727570 0.000000 
#    z 0.000000 0.000000 1.709710 
# 
# From -- ./inp_files/16573.got.cif
#   From: 2010.03.12/outbox.cif.g09.slc.cpg/sg44_9_cif.got.tgz:16573.got - 2010.04.14 02:36:11.
