data_PCOD8189453
_publ_section_title
;
Structure prediction by ZEFSAII (Michael W. Deem and Ramdas Pophale) SiO2 
 PCOD8189453
Probable space group: I M M 2
;
_chemical_formula_sum "Si O2"
_cell_formula_units_Z 56
_cell_length_a 8.630238
_cell_length_b 21.053237
_cell_length_c 14.037164
_cell_angle_alpha 90.000000
_cell_angle_beta 90.000000
_cell_angle_gamma 90.000000
_cell_volume 2550.474736
_symmetry_space_group_name_H-M "I M M 2"
_symmetry_group_IT_number 44
_symmetry_cell_setting 'orthorhombic'
loop_
_space_group_symop_operation_xyz
x,y,z
-x,-y,z
-x,y,z
x,-y,z
1/2+x,1/2+y,1/2+z
1/2-x,1/2-y,1/2+z
1/2-x,1/2+y,1/2+z
1/2+x,1/2-y,1/2+z
loop_
_atom_site_type_symbol
_atom_site_label
_atom_site_fract_x
_atom_site_fract_y
_atom_site_fract_z
Si Si1 0.315880 0.500000 0.741310
Si Si2 0.819041 0.705270 0.916512
Si Si3 0.682915 0.861633 0.219108
Si Si4 0.323501 0.185965 0.019365
Si Si5 0.674157 0.928847 0.745406
Si Si6 0.174431 0.928544 0.942129
Si Si7 0.316190 0.500000 0.954316
Si Si8 0.681143 0.380234 0.067790
O O1 0.500000 0.500000 0.731760
O O2 0.257107 0.431839 0.700114
O O3 0.251024 0.500000 0.848393
O O4 0.758944 0.674576 0.816629
O O5 0.000000 0.691364 0.927222
O O6 0.782668 0.779398 0.937814
O O7 0.719910 0.681108 0.006713
O O8 0.500000 0.871753 0.224197
O O9 0.724597 0.812588 0.132283
O O10 0.500000 0.207976 0.006294
O O11 0.303123 0.111769 0.996550
O O12 0.500000 0.912413 0.779653
O O13 0.795325 0.924492 0.830069
O O14 0.727018 0.878083 0.666652
O O15 0.681322 0.000000 0.701796
O O16 0.000000 0.904377 0.962312
O O17 0.193974 0.000000 0.980278
O O18 0.500000 0.500000 0.952921
O O19 0.252180 0.561598 0.006637
O O20 0.500000 0.385398 0.089423
#
# Coordination Sequence:
#
# PCOD8189453 Si02
#       8
#     4   8   8   8   8   8   4   8
#     4  11  21  37  65 100 133 168 215 271 326 386
#     4  11  24  43  64  90 126 167 218 270 320 387
#     4  10  24  44  66  95 131 172 216 267 331 392
#     4  11  25  45  67  91 124 168 214 264 326 394
#     4  10  20  34  55  87 123 161 207 253 304 369
#     4  10  22  41  64  91 123 160 206 263 324 382
#     4   9  18  31  53  88 125 162 203 255 320 380
#     4  11  20  35  58  88 127 168 211 261 323 383
#
# _framework density 21.956697999999999
#
# number of rings (size 3 to 8) (size 9 to 14) (size 15 to 20)
#    0.000    1.571    2.143    2.357    1.000    4.286 
#    0.000    4.286    0.000    0.000    0.000    0.000 
#    0.000    0.000    0.000    0.000    0.000    0.000 
#
# Total GULP energy -346962.810841 kJ/mol
# GULP energy per Si atom -12391.528959 kJ/mol
# Density = 2.190672 g / cm^3
# Si number density = 21.956698 Si / 1000 Ang^3
#
#
#
# Elastic Constant Matrix: (Units=GPa)
#
#
# Indices 1 2 3 4 5 6 
#
# 1 62.2172 23.7319 20.9447 0.0000 0.0000 0.0000
# 2 23.7319 76.3716 31.0499 -0.0001 0.0000 0.0000
# 3 20.9447 31.0499 72.5614 -0.0005 0.0000 0.0000
# 4 0.0000 -0.0001 -0.0005 32.3109 0.0000 0.0000
# 5 0.0000 0.0000 0.0000 0.0000 30.9005 0.0000
# 6 0.0000 0.0000 0.0000 0.0000 0.0000 36.4967
#
#
#
# Elastic Compliance Matrix: (Units=1/GPa)
#
#
# Indices 1 2 3 4 5 6 
#
# 1 0.018970 -0.004441 -0.003575 0.000000 0.000000 0.000000
# 2 -0.004441 0.016891 -0.005946 0.000000 0.000000 0.000000
# 3 -0.003575 -0.005946 0.017358 0.000000 0.000000 0.000000
# 4 0.000000 0.000000 0.000000 0.030949 0.000000 0.000000
# 5 0.000000 0.000000 0.000000 0.000000 0.032362 0.000000
# 6 0.000000 0.000000 0.000000 0.000000 0.000000 0.027400
#
#
# Mechanical properties :
#
#
# Convention : Reuss Voigt Hill
#
# Bulk Modulus (GPa) = 39.53460 40.28925 39.91192
# Shear Modulus (GPa) = 27.73350 28.96986 28.35168
#
# Velocity S-wave (km/s) = 3.55787 3.63631 3.59730
# Velocity P-wave (km/s) = 5.90954 6.00163 5.95576
#
# Compressibility (1/GPa) = 0.02529430
#
# Stress axis : x y z
#
# Youngs Moduli (GPa) = 52.71373 59.20162 57.61092
#
# Poissons Ratio (x) = 0.26293 0.20598
# Poissons Ratio (y) = 0.23412 0.34256
# Poissons Ratio (z) = 0.18847 0.35202
#
# Static dielectric constant tensor:
#      x y z
#    x 3.658560 0.000000 0.000000 
#    y 0.000000 4.092520 0.000000 
#    z 0.000000 0.000000 4.056520 
# 
# 
# High freq. dielectric constant tensor:
#      x y z
#    x 1.853210 0.000000 0.000000 
#    y 0.000000 1.860470 0.000000 
#    z 0.000000 0.000000 1.868980 
# 
# From -- ./inp_files/16524.got.cif
#   From: 2010.03.12/outbox.cif.g09.slc.cpg/sg44_9_cif.got.tgz:16524.got - 2010.04.14 02:36:11.
