data_PCOD8189691
_publ_section_title
;
Structure prediction by ZEFSAII (Michael W. Deem and Ramdas Pophale) SiO2 
 PCOD8189691
Probable space group: I M M 2
;
_chemical_formula_sum "Si O2"
_cell_formula_units_Z 40
_cell_length_a 8.766660
_cell_length_b 23.415203
_cell_length_c 10.144971
_cell_angle_alpha 90.000000
_cell_angle_beta 90.000000
_cell_angle_gamma 90.000000
_cell_volume 2082.489885
_symmetry_space_group_name_H-M "I M M 2"
_symmetry_group_IT_number 44
_symmetry_cell_setting 'orthorhombic'
loop_
_space_group_symop_operation_xyz
x,y,z
-x,-y,z
-x,y,z
x,-y,z
1/2+x,1/2+y,1/2+z
1/2-x,1/2-y,1/2+z
1/2-x,1/2+y,1/2+z
1/2+x,1/2-y,1/2+z
loop_
_atom_site_type_symbol
_atom_site_label
_atom_site_fract_x
_atom_site_fract_y
_atom_site_fract_z
Si Si1 0.679610 0.356614 0.214510
Si Si2 0.321276 0.619678 0.747053
Si Si3 0.172829 0.728543 0.684327
Si Si4 0.324839 0.065874 0.495117
Si Si5 0.827325 0.636109 0.488306
O O1 0.500000 0.362337 0.190401
O O2 0.739019 0.292388 0.185602
O O3 0.767071 0.398553 0.118598
O O4 0.720268 0.373665 0.363269
O O5 0.500000 0.615503 0.726882
O O6 0.272776 0.685902 0.776918
O O7 0.238383 0.598959 0.611459
O O8 0.272209 0.579348 0.865695
O O9 0.177249 0.702970 0.534634
O O10 0.000000 0.728765 0.739326
O O11 0.500000 0.081021 0.466564
O O12 0.302508 0.000000 0.531541
O O13 0.000000 0.616776 0.455905
#
# Coordination Sequence:
#
# PCOD8189691 Si02
#       5
#     8   8   8   8   8
#     4  11  22  37  60  91 124 159 202 254 304 355
#     4  10  20  36  61  88 117 153 199 253 300 352
#     4   8  19  35  55  86 124 159 193 237 301 366
#     4  11  25  44  63  85 119 166 210 251 306 368
#     4   9  19  37  57  85 122 157 194 236 296 365
#
# _framework density 19.207775999999999
#
# number of rings (size 3 to 8) (size 9 to 14) (size 15 to 20)
#    1.200    1.000    0.000    3.000    2.800    3.200 
#    0.000    1.000    0.000    6.000    0.000    0.000 
#    0.000    0.000    0.000    0.000    0.000    0.000 
#
# Total GULP energy -247881.454792 kJ/mol
# GULP energy per Si atom -12394.072740 kJ/mol
# Density = 1.916406 g / cm^3
# Si number density = 19.207776 Si / 1000 Ang^3
#
#
#
# Elastic Constant Matrix: (Units=GPa)
#
#
# Indices 1 2 3 4 5 6 
#
# 1 90.1523 33.0742 15.2948 -0.0017 0.0006 0.0000
# 2 33.0742 57.1978 20.7147 -0.0014 0.0015 0.0002
# 3 15.2948 20.7147 94.0102 -0.0033 0.0036 -0.0007
# 4 -0.0017 -0.0014 -0.0033 27.0216 0.0006 -0.0002
# 5 0.0006 0.0015 0.0036 0.0006 35.1362 -0.0004
# 6 0.0000 0.0002 -0.0007 -0.0002 -0.0004 22.5747
#
#
#
# Elastic Compliance Matrix: (Units=1/GPa)
#
#
# Indices 1 2 3 4 5 6 
#
# 1 0.014104 -0.007960 -0.000541 0.000000 0.000000 0.000000
# 2 -0.007960 0.023492 -0.003881 0.000000 0.000000 0.000000
# 3 -0.000541 -0.003881 0.011580 0.000001 -0.000001 0.000000
# 4 0.000000 0.000000 0.000001 0.037007 -0.000001 0.000000
# 5 0.000000 0.000000 -0.000001 -0.000001 0.028461 0.000000
# 6 0.000000 0.000000 0.000000 0.000000 0.000000 0.044297
#
#
# Mechanical properties :
#
#
# Convention : Reuss Voigt Hill
#
# Bulk Modulus (GPa) = 40.96266 42.16973 41.56619
# Shear Modulus (GPa) = 26.06301 28.43163 27.24732
#
# Velocity S-wave (km/s) = 3.68761 3.85153 3.77046
# Velocity P-wave (km/s) = 6.28519 6.46384 6.37514
#
# Compressibility (1/GPa) = 0.02441248
#
# Stress axis : x y z
#
# Youngs Moduli (GPa) = 70.90025 42.56849 86.35330
#
# Poissons Ratio (x) = 0.33884 0.04670
# Poissons Ratio (y) = 0.56436 0.33516
# Poissons Ratio (z) = 0.03834 0.16522
#
# Static dielectric constant tensor:
#      x y z
#    x 3.489200 0.000000 0.000000 
#    y 0.000000 3.324390 -0.000010 
#    z 0.000000 -0.000010 3.352450 
# 
# 
# High freq. dielectric constant tensor:
#      x y z
#    x 1.757090 0.000000 0.000000 
#    y 0.000000 1.719630 0.000000 
#    z 0.000000 0.000000 1.740950 
# 
# From -- ./inp_files/4446.got.cif
#   From: 2010.03.12/outbox.cif.g09.slc.cpg/sg44_3_cif.got.tgz:4446.got - 2010.04.14 02:36:11.
