data_PCOD8189995
_publ_section_title
;
Structure prediction by ZEFSAII (Michael W. Deem and Ramdas Pophale) SiO2 
 PCOD8189995
Probable space group: I M M 2
;
_chemical_formula_sum "Si O2"
_cell_formula_units_Z 48
_cell_length_a 8.308553
_cell_length_b 14.473836
_cell_length_c 20.184998
_cell_angle_alpha 90.000000
_cell_angle_beta 90.000000
_cell_angle_gamma 90.000000
_cell_volume 2427.379907
_symmetry_space_group_name_H-M "I M M 2"
_symmetry_group_IT_number 44
_symmetry_cell_setting 'orthorhombic'
loop_
_space_group_symop_operation_xyz
x,y,z
-x,-y,z
-x,y,z
x,-y,z
1/2+x,1/2+y,1/2+z
1/2-x,1/2-y,1/2+z
1/2-x,1/2+y,1/2+z
1/2+x,1/2-y,1/2+z
loop_
_atom_site_type_symbol
_atom_site_label
_atom_site_fract_x
_atom_site_fract_y
_atom_site_fract_z
Si Si1 0.812047 0.695278 0.937070
Si Si2 0.688964 0.187296 0.671854
Si Si3 0.688232 0.309150 0.795130
Si Si4 0.184117 0.000000 0.628769
Si Si5 0.687090 0.500000 0.598296
Si Si6 0.685810 0.000000 0.484873
Si Si7 0.687403 0.000000 0.243313
Si Si8 0.812246 0.310693 0.553172
O O1 0.784070 0.719903 0.860668
O O2 0.739564 0.592966 0.952877
O O3 0.000000 0.700930 0.954979
O O4 0.715972 0.769533 0.980504
O O5 0.500000 0.169678 0.673193
O O6 0.747616 0.242642 0.736295
O O7 0.731723 0.243755 0.606408
O O8 0.779150 0.089586 0.672797
O O9 0.500000 0.298396 0.808246
O O10 0.727229 0.412959 0.775451
O O11 0.293222 0.000000 0.563575
O O12 0.000000 0.000000 0.605832
O O13 0.500000 0.500000 0.617997
O O14 0.792295 0.500000 0.664623
O O15 0.729053 0.410536 0.555133
O O16 0.500000 0.000000 0.466767
O O17 0.500000 0.000000 0.261768
O O18 0.000000 0.320305 0.568477
#
# Coordination Sequence:
#
# PCOD8189995 Si02
#       8
#     8   8   8   4   4   4   4   8
#     4  11  23  40  63  92 129 169 207 254 313 373
#     4  11  23  41  64  89 125 167 206 252 311 372
#     4  11  24  41  63  91 127 167 209 258 313 373
#     4  12  24  37  62  95 124 158 207 263 306 357
#     4  12  24  41  64  93 126 164 210 258 313 368
#     4  10  21  37  60  88 125 165 202 247 310 373
#     4  12  23  37  62  94 129 165 205 258 317 374
#     4  12  24  40  64  94 126 162 209 259 309 368
#
# _framework density 19.774408000000001
#
# number of rings (size 3 to 8) (size 9 to 14) (size 15 to 20)
#    0.000    0.667    3.333    5.750    0.000    3.333 
#    0.000    0.833    0.000    3.000    0.000    0.000 
#    0.000    0.000    0.000    0.000    0.000    0.000 
#
# Total GULP energy -297779.191691 kJ/mol
# GULP energy per Si atom -12407.466320 kJ/mol
# Density = 1.972940 g / cm^3
# Si number density = 19.774408 Si / 1000 Ang^3
#
#
#
# Elastic Constant Matrix: (Units=GPa)
#
#
# Indices 1 2 3 4 5 6 
#
# 1 48.9637 12.4907 2.2134 0.0000 0.0000 0.0000
# 2 12.4907 139.3491 51.8041 0.0000 0.0000 0.0000
# 3 2.2134 51.8041 120.2375 0.0000 0.0000 0.0000
# 4 0.0000 0.0000 0.0000 58.6975 0.0000 0.0000
# 5 0.0000 0.0000 0.0000 0.0000 33.2459 0.0000
# 6 0.0000 0.0000 0.0000 0.0000 0.0000 42.0932
#
#
#
# Elastic Compliance Matrix: (Units=1/GPa)
#
#
# Indices 1 2 3 4 5 6 
#
# 1 0.020927 -0.002063 0.000504 0.000000 0.000000 0.000000
# 2 -0.002063 0.008748 -0.003731 0.000000 0.000000 0.000000
# 3 0.000504 -0.003731 0.009915 0.000000 0.000000 0.000000
# 4 0.000000 0.000000 0.000000 0.017037 0.000000 0.000000
# 5 0.000000 0.000000 0.000000 0.000000 0.030079 0.000000
# 6 0.000000 0.000000 0.000000 0.000000 0.000000 0.023757
#
#
# Mechanical properties :
#
#
# Convention : Reuss Voigt Hill
#
# Bulk Modulus (GPa) = 34.47198 49.06295 41.76747
# Shear Modulus (GPa) = 38.25165 42.94346 40.59756
#
# Velocity S-wave (km/s) = 4.40296 4.66517 4.53596
# Velocity P-wave (km/s) = 6.58168 7.34055 6.97145
#
# Compressibility (1/GPa) = 0.02900906
#
# Stress axis : x y z
#
# Youngs Moduli (GPa) = 47.78557 114.30876 100.85552
#
# Poissons Ratio (x) = 0.23582 -0.05079
# Poissons Ratio (y) = 0.09858 0.37631
# Poissons Ratio (z) = -0.02407 0.42651
#
# Static dielectric constant tensor:
#      x y z
#    x 3.597550 0.000000 0.000000 
#    y 0.000000 3.656620 0.000000 
#    z 0.000000 0.000000 3.548020 
# 
# 
# High freq. dielectric constant tensor:
#      x y z
#    x 1.779700 0.000000 0.000000 
#    y 0.000000 1.776260 0.000000 
#    z 0.000000 0.000000 1.766290 
# 
# From -- ./inp_files/20377.got.cif
#   From: 2010.03.12/outbox.cif.g09.slc.cpg/sg44_11_cif.got.tgz:20377.got - 2010.04.14 02:36:11.
