data_PCOD8189435
_publ_section_title
;
Structure prediction by ZEFSAII (Michael W. Deem and Ramdas Pophale) SiO2 
 PCOD8189435
Probable space group: I M M 2
;
_chemical_formula_sum "Si O2"
_cell_formula_units_Z 56
_cell_length_a 14.199554
_cell_length_b 8.984094
_cell_length_c 22.630802
_cell_angle_alpha 90.000000
_cell_angle_beta 90.000000
_cell_angle_gamma 90.000000
_cell_volume 2887.014305
_symmetry_space_group_name_H-M "I M M 2"
_symmetry_group_IT_number 44
_symmetry_cell_setting 'orthorhombic'
loop_
_space_group_symop_operation_xyz
x,y,z
-x,-y,z
-x,y,z
x,-y,z
1/2+x,1/2+y,1/2+z
1/2-x,1/2-y,1/2+z
1/2-x,1/2+y,1/2+z
1/2+x,1/2-y,1/2+z
loop_
_atom_site_type_symbol
_atom_site_label
_atom_site_fract_x
_atom_site_fract_y
_atom_site_fract_z
Si Si1 0.108749 0.170615 0.210600
Si Si2 0.108748 0.169986 0.649003
Si Si3 0.782612 0.824228 0.533959
Si Si4 0.605442 0.325750 0.574848
Si Si5 0.783032 0.675471 0.311740
Si Si6 0.109582 0.825406 0.417837
Si Si7 0.392847 0.824878 0.270394
O O1 0.124379 0.217178 0.142856
O O2 0.171702 0.280285 0.249214
O O3 0.000000 0.189644 0.228505
O O4 0.139942 0.000000 0.221628
O O5 0.165871 0.232530 0.593083
O O6 0.132860 0.274101 0.704206
O O7 0.000000 0.179625 0.631357
O O8 0.136503 0.000000 0.664839
O O9 0.677324 0.759291 0.532103
O O10 0.839612 0.767828 0.477070
O O11 0.777720 0.000000 0.533565
O O12 0.500000 0.276969 0.556864
O O13 0.618482 0.500000 0.565726
O O14 0.775795 0.500000 0.317116
O O15 0.847856 0.737448 0.363291
O O16 0.677742 0.744277 0.315993
O O17 0.000000 0.786996 0.423446
O O18 0.125743 0.000000 0.407399
O O19 0.500000 0.778527 0.286246
O O20 0.378516 0.000000 0.275064
#
# Coordination Sequence:
#
# PCOD8189435 Si02
#       7
#     8   8   8   8   8   8   8
#     4   9  18  34  56  81 111 148 185 220 264 321
#     4   9  17  31  53  83 117 145 171 213 269 322
#     4  10  20  34  55  82 108 140 182 222 264 315
#     4   9  19  35  54  78 109 144 180 218 264 318
#     4  12  24  36  54  81 111 142 179 226 277 323
#     4  10  22  41  61  79 105 143 183 221 263 317
#     4  10  21  37  57  81 109 143 183 222 263 320
#
# _framework density 19.397202
#
# number of rings (size 3 to 8) (size 9 to 14) (size 15 to 20)
#    0.000    2.143    0.000    4.286    0.000    9.143 
#    0.000    2.143    0.000    3.429    0.000    0.000 
#    0.000    0.000    0.000    0.000    0.000    0.000 
#
# Total GULP energy -347279.437130 kJ/mol
# GULP energy per Si atom -12402.837040 kJ/mol
# Density = 1.935305 g / cm^3
# Si number density = 19.397202 Si / 1000 Ang^3
#
#
#
# Elastic Constant Matrix: (Units=GPa)
#
#
# Indices 1 2 3 4 5 6 
#
# 1 133.7144 49.3977 61.1414 0.0000 0.0000 0.0000
# 2 49.3977 62.8364 35.7168 0.0000 0.0000 0.0000
# 3 61.1414 35.7168 65.9860 0.0000 0.0000 0.0000
# 4 0.0000 0.0000 0.0000 19.4852 0.0000 0.0000
# 5 0.0000 0.0000 0.0000 0.0000 36.7110 0.0000
# 6 0.0000 0.0000 0.0000 0.0000 0.0000 33.2491
#
#
#
# Elastic Compliance Matrix: (Units=1/GPa)
#
#
# Indices 1 2 3 4 5 6 
#
# 1 0.014094 -0.005282 -0.010200 0.000000 0.000000 0.000000
# 2 -0.005282 0.024966 -0.008620 0.000000 0.000000 0.000000
# 3 -0.010200 -0.008620 0.029272 0.000000 0.000000 0.000000
# 4 0.000000 0.000000 0.000000 0.051321 0.000000 0.000000
# 5 0.000000 0.000000 0.000000 0.000000 0.027240 0.000000
# 6 0.000000 0.000000 0.000000 0.000000 0.000000 0.030076
#
#
# Mechanical properties :
#
#
# Convention : Reuss Voigt Hill
#
# Bulk Modulus (GPa) = 49.68108 61.67209 55.67658
# Shear Modulus (GPa) = 21.56278 25.64113 23.60196
#
# Velocity S-wave (km/s) = 3.33775 3.63974 3.49201
# Velocity P-wave (km/s) = 6.36570 7.03754 6.71003
#
# Compressibility (1/GPa) = 0.02012839
#
# Stress axis : x y z
#
# Youngs Moduli (GPa) = 70.95228 40.05458 34.16272
#
# Poissons Ratio (x) = 0.21156 0.34847
# Poissons Ratio (y) = 0.37476 0.29447
# Poissons Ratio (z) = 0.72373 0.34525
#
# Static dielectric constant tensor:
#      x y z
#    x 3.780070 0.000000 0.000000 
#    y 0.000000 3.365430 0.000000 
#    z 0.000000 0.000000 3.443640 
# 
# 
# High freq. dielectric constant tensor:
#      x y z
#    x 1.773240 0.000000 0.000000 
#    y 0.000000 1.744020 0.000000 
#    z 0.000000 0.000000 1.736100 
# 
# From -- ./inp_files/23065.got.cif
#   From: 2010.03.12/outbox.cif.g09.slc.cpg/sg44_12_cif.got.tgz:23065.got - 2010.04.14 02:36:11.
