data_PCOD8189660
_publ_section_title
;
Structure prediction by ZEFSAII (Michael W. Deem and Ramdas Pophale) SiO2 
 PCOD8189660
Probable space group: I M M 2
;
_chemical_formula_sum "Si O2"
_cell_formula_units_Z 48
_cell_length_a 14.495029
_cell_length_b 8.670755
_cell_length_c 20.395581
_cell_angle_alpha 90.000000
_cell_angle_beta 90.000000
_cell_angle_gamma 90.000000
_cell_volume 2563.374649
_symmetry_space_group_name_H-M "I M M 2"
_symmetry_group_IT_number 44
_symmetry_cell_setting 'orthorhombic'
loop_
_space_group_symop_operation_xyz
x,y,z
-x,-y,z
-x,y,z
x,-y,z
1/2+x,1/2+y,1/2+z
1/2-x,1/2-y,1/2+z
1/2-x,1/2+y,1/2+z
1/2+x,1/2-y,1/2+z
loop_
_atom_site_type_symbol
_atom_site_label
_atom_site_fract_x
_atom_site_fract_y
_atom_site_fract_z
Si Si1 0.801170 0.819059 0.217220
Si Si2 0.315505 0.819967 0.342584
Si Si3 0.500000 0.316727 0.533573
Si Si4 0.693729 0.681780 0.478145
Si Si5 0.000000 0.181424 0.179856
Si Si6 0.696448 0.318725 0.096024
Si Si7 0.500000 0.682055 0.144140
Si Si8 0.500000 0.681973 0.290738
O O1 0.758881 0.776111 0.287299
O O2 0.750825 0.720713 0.161924
O O3 0.908489 0.767735 0.219104
O O4 0.790169 0.000000 0.200574
O O5 0.274053 0.764777 0.411694
O O6 0.410873 0.734078 0.330249
O O7 0.335130 0.000000 0.343661
O O8 0.500000 0.500000 0.536917
O O9 0.408735 0.257856 0.496479
O O10 0.500000 0.245648 0.606869
O O11 0.694813 0.500000 0.467632
O O12 0.764698 0.724746 0.535025
O O13 0.000000 0.000000 0.171171
O O14 0.704308 0.500000 0.082173
O O15 0.590504 0.264511 0.104877
O O16 0.500000 0.500000 0.152739
O O17 0.500000 0.754738 0.217484
O O18 0.500000 0.500000 0.287924
#
# Coordination Sequence:
#
# PCOD8189660 Si02
#       8
#     8   8   4   8   4   8   4   4
#     4  10  20  36  59  83 111 147 189 233 282 340
#     4  11  23  37  55  86 119 151 193 242 287 338
#     4   9  17  31  56  82 108 142 184 222 269 343
#     4  11  22  38  58  83 115 156 192 229 288 350
#     4   9  16  33  58  83 109 140 184 228 273 336
#     4  11  21  37  59  84 114 148 191 239 283 339
#     4   9  20  36  57  84 114 150 190 232 289 350
#     4  11  20  36  59  85 117 156 192 232 295 359
#
# _framework density 18.725317
#
# number of rings (size 3 to 8) (size 9 to 14) (size 15 to 20)
#    0.000    1.667    3.333    2.250    0.000    1.333 
#    0.000    5.000    0.000    3.000    0.000    0.000 
#    0.000    0.000    0.000    0.000    0.000    0.000 
#
# Total GULP energy -297657.113547 kJ/mol
# GULP energy per Si atom -12402.379731 kJ/mol
# Density = 1.868270 g / cm^3
# Si number density = 18.725317 Si / 1000 Ang^3
#
#
#
# Elastic Constant Matrix: (Units=GPa)
#
#
# Indices 1 2 3 4 5 6 
#
# 1 137.1347 22.9358 58.0894 0.0000 0.0000 0.0000
# 2 22.9358 42.9403 25.7358 0.0000 0.0000 0.0000
# 3 58.0894 25.7358 136.4889 0.0000 0.0000 0.0000
# 4 0.0000 0.0000 0.0000 31.7603 0.0000 0.0000
# 5 0.0000 0.0000 0.0000 0.0000 34.7537 0.0000
# 6 0.0000 0.0000 0.0000 0.0000 0.0000 21.8519
#
#
#
# Elastic Compliance Matrix: (Units=1/GPa)
#
#
# Indices 1 2 3 4 5 6 
#
# 1 0.009205 -0.002896 -0.003371 0.000000 0.000000 0.000000
# 2 -0.002896 0.027166 -0.003890 0.000000 0.000000 0.000000
# 3 -0.003371 -0.003890 0.009495 0.000000 0.000000 0.000000
# 4 0.000000 0.000000 0.000000 0.031486 0.000000 0.000000
# 5 0.000000 0.000000 0.000000 0.000000 0.028774 0.000000
# 6 0.000000 0.000000 0.000000 0.000000 0.000000 0.045763
#
#
# Mechanical properties :
#
#
# Convention : Reuss Voigt Hill
#
# Bulk Modulus (GPa) = 39.13668 58.89843 49.01755
# Shear Modulus (GPa) = 27.66716 31.66002 29.66359
#
# Velocity S-wave (km/s) = 3.84803 4.11635 3.98445
# Velocity P-wave (km/s) = 6.37879 7.35626 6.88489
#
# Compressibility (1/GPa) = 0.02555147
#
# Stress axis : x y z
#
# Youngs Moduli (GPa) = 108.64211 36.81034 105.31933
#
# Poissons Ratio (x) = 0.10660 0.35507
# Poissons Ratio (y) = 0.31461 0.40968
# Poissons Ratio (z) = 0.36628 0.14319
#
# Static dielectric constant tensor:
#      x y z
#    x 3.648230 0.000000 0.000000 
#    y 0.000000 3.240080 0.000000 
#    z 0.000000 0.000000 3.503320 
# 
# 
# High freq. dielectric constant tensor:
#      x y z
#    x 1.729640 0.000000 0.000000 
#    y 0.000000 1.711690 0.000000 
#    z 0.000000 0.000000 1.729360 
# 
# From -- ./inp_files/21753.got.cif
#   From: 2010.03.12/outbox.cif.g09.slc.cpg/sg44_11_cif.got.tgz:21753.got - 2010.04.14 02:36:11.
