data_PCOD8189401
_publ_section_title
;
Structure prediction by ZEFSAII (Michael W. Deem and Ramdas Pophale) SiO2 
 PCOD8189401
Probable space group: I M M 2
;
_chemical_formula_sum "Si O2"
_cell_formula_units_Z 64
_cell_length_a 9.106418
_cell_length_b 18.137982
_cell_length_c 20.644564
_cell_angle_alpha 90.000000
_cell_angle_beta 90.000000
_cell_angle_gamma 90.000000
_cell_volume 3409.904870
_symmetry_space_group_name_H-M "I M M 2"
_symmetry_group_IT_number 44
_symmetry_cell_setting 'orthorhombic'
loop_
_space_group_symop_operation_xyz
x,y,z
-x,-y,z
-x,y,z
x,-y,z
1/2+x,1/2+y,1/2+z
1/2-x,1/2-y,1/2+z
1/2-x,1/2+y,1/2+z
1/2+x,1/2-y,1/2+z
loop_
_atom_site_type_symbol
_atom_site_label
_atom_site_fract_x
_atom_site_fract_y
_atom_site_fract_z
Si Si1 0.162675 0.412580 0.560300
Si Si2 0.171575 0.086272 0.697730
Si Si3 0.169517 0.168431 0.315377
Si Si4 0.833109 0.912402 0.936061
Si Si5 0.170873 0.914242 0.442861
Si Si6 0.673907 0.916788 0.203944
Si Si7 0.834369 0.412339 0.069774
Si Si8 0.670588 0.159085 0.817568
O O1 0.151371 0.500000 0.558475
O O2 0.275509 0.384067 0.505875
O O3 0.219099 0.389523 0.631757
O O4 0.000000 0.379530 0.546692
O O5 0.245192 0.116259 0.631960
O O6 0.240398 0.129791 0.756779
O O7 0.000000 0.103292 0.693950
O O8 0.202432 0.000000 0.707978
O O9 0.228519 0.128791 0.380001
O O10 0.256861 0.139804 0.253773
O O11 0.196795 0.254439 0.323521
O O12 0.000000 0.148813 0.304619
O O13 0.729385 0.878642 0.881989
O O14 0.000000 0.885071 0.926951
O O15 0.823773 0.000000 0.930779
O O16 0.258218 0.882520 0.504618
O O17 0.000000 0.899710 0.455926
O O18 0.203980 0.000000 0.431481
O O19 0.500000 0.915156 0.210997
O O20 0.731925 0.000000 0.216911
O O21 0.831055 0.500000 0.068855
O O22 0.000000 0.381951 0.073408
O O23 0.500000 0.139062 0.809031
#
# Coordination Sequence:
#
# PCOD8189401 Si02
#       8
#     8   8   8   8   8   8   8   8
#     4   8  15  30  52  78 106 133 164 206 255 305
#     4  10  20  35  56  80 104 132 169 212 258 310
#     4  10  22  37  52  74 105 141 179 216 255 303
#     4  10  20  34  54  80 105 131 169 214 259 309
#     4   9  17  32  54  77 102 134 171 210 253 301
#     4   9  18  33  55  82 108 136 173 214 256 305
#     4   9  17  30  51  80 108 131 162 208 258 305
#     4  11  23  37  52  73 104 140 177 215 256 305
#
# _framework density 18.768851000000002
#
# number of rings (size 3 to 8) (size 9 to 14) (size 15 to 20)
#    0.000    2.500    0.000    3.000    0.000    7.250 
#    0.000    3.750    0.000    1.500    0.000    0.000 
#    0.000    0.000    0.000    0.000    0.000    0.000 
#
# Total GULP energy -396820.985919 kJ/mol
# GULP energy per Si atom -12400.655810 kJ/mol
# Density = 1.872613 g / cm^3
# Si number density = 18.768851 Si / 1000 Ang^3
#
#
#
# Elastic Constant Matrix: (Units=GPa)
#
#
# Indices 1 2 3 4 5 6 
#
# 1 87.4825 31.2671 61.9078 0.0000 0.0000 0.0000
# 2 31.2671 38.2451 38.9674 0.0000 0.0000 0.0000
# 3 61.9078 38.9674 163.5529 0.0000 0.0000 0.0000
# 4 0.0000 0.0000 0.0000 5.0575 0.0000 0.0000
# 5 0.0000 0.0000 0.0000 0.0000 39.1869 0.0000
# 6 0.0000 0.0000 0.0000 0.0000 0.0000 21.6753
#
#
#
# Elastic Compliance Matrix: (Units=1/GPa)
#
#
# Indices 1 2 3 4 5 6 
#
# 1 0.018305 -0.010440 -0.004441 0.000000 0.000000 0.000000
# 2 -0.010440 0.040484 -0.005694 0.000000 0.000000 0.000000
# 3 -0.004441 -0.005694 0.009152 0.000000 0.000000 0.000000
# 4 0.000000 0.000000 0.000000 0.197728 0.000000 0.000000
# 5 0.000000 0.000000 0.000000 0.000000 0.025519 0.000000
# 6 0.000000 0.000000 0.000000 0.000000 0.000000 0.046135
#
#
# Mechanical properties :
#
#
# Convention : Reuss Voigt Hill
#
# Bulk Modulus (GPa) = 37.32686 61.50725 49.41705
# Shear Modulus (GPa) = 12.90644 23.65982 18.28313
#
# Velocity S-wave (km/s) = 2.62516 3.55433 3.12448
# Velocity P-wave (km/s) = 5.39624 7.04886 6.27717
#
# Compressibility (1/GPa) = 0.02679036
#
# Stress axis : x y z
#
# Youngs Moduli (GPa) = 54.62902 24.70140 109.26619
#
# Poissons Ratio (x) = 0.25788 0.48530
# Poissons Ratio (y) = 0.57033 0.62213
# Poissons Ratio (z) = 0.24263 0.14064
#
# Static dielectric constant tensor:
#      x y z
#    x 3.595280 0.000000 0.000000 
#    y 0.000000 3.131170 0.000000 
#    z 0.000000 0.000000 3.767290 
# 
# 
# High freq. dielectric constant tensor:
#      x y z
#    x 1.732580 0.000000 0.000000 
#    y 0.000000 1.692800 0.000000 
#    z 0.000000 0.000000 1.747260 
# 
# From -- ./inp_files/23319.got.cif
#   From: 2010.03.12/outbox.cif.g09.slc.cpg/sg44_12_cif.got.tgz:23319.got - 2010.04.14 02:36:11.
