data_PCOD8189191
_publ_section_title
;
Structure prediction by ZEFSAII (Michael W. Deem and Ramdas Pophale) SiO2 
 PCOD8189191
Probable space group: I M M 2
;
_chemical_formula_sum "Si O2"
_cell_formula_units_Z 56
_cell_length_a 9.212205
_cell_length_b 13.513458
_cell_length_c 23.741651
_cell_angle_alpha 90.000000
_cell_angle_beta 90.000000
_cell_angle_gamma 90.000000
_cell_volume 2955.568346
_symmetry_space_group_name_H-M "I M M 2"
_symmetry_group_IT_number 44
_symmetry_cell_setting 'orthorhombic'
loop_
_space_group_symop_operation_xyz
x,y,z
-x,-y,z
-x,y,z
x,-y,z
1/2+x,1/2+y,1/2+z
1/2-x,1/2-y,1/2+z
1/2-x,1/2+y,1/2+z
1/2+x,1/2-y,1/2+z
loop_
_atom_site_type_symbol
_atom_site_label
_atom_site_fract_x
_atom_site_fract_y
_atom_site_fract_z
Si Si1 0.833872 0.611413 0.825850
Si Si2 0.166793 0.698019 0.615564
Si Si3 0.331841 0.300229 0.390419
Si Si4 0.161419 0.883561 0.218744
Si Si5 0.329461 0.884685 0.996314
Si Si6 0.833624 0.888481 0.677920
Si Si7 0.837353 0.616689 0.286136
O O1 0.784939 0.500000 0.842538
O O2 0.812729 0.682354 0.879811
O O3 0.741330 0.658488 0.774467
O O4 0.000000 0.611747 0.805379
O O5 0.255804 0.638780 0.661615
O O6 0.222081 0.666215 0.554217
O O7 0.187687 0.816387 0.624224
O O8 0.000000 0.666333 0.622610
O O9 0.500000 0.330659 0.393340
O O10 0.255844 0.327345 0.448309
O O11 0.258486 0.359753 0.340080
O O12 0.000000 0.838187 0.216068
O O13 0.156526 0.000000 0.226245
O O14 0.500000 0.870840 0.985846
O O15 0.286865 0.000000 0.996901
O O16 0.736550 0.843507 0.728577
O O17 0.000000 0.886991 0.698717
O O18 0.787527 0.000000 0.660390
O O19 0.844197 0.500000 0.280556
O O20 0.000000 0.660813 0.292112
#
# Coordination Sequence:
#
# PCOD8189191 Si02
#       7
#     8   8   8   8   8   8   8
#     4   9  19  36  55  75 103 138 172 206 251 310
#     4  10  20  35  55  76 101 138 178 211 250 304
#     4  11  22  35  54  78 102 133 174 217 258 300
#     4  10  20  32  50  80 112 137 166 210 260 304
#     4  10  22  39  56  75 102 136 172 210 254 306
#     4   9  18  33  53  78 107 136 169 211 255 300
#     4  10  20  33  51  77 109 142 172 206 254 309
#
# _framework density 18.947288
#
# number of rings (size 3 to 8) (size 9 to 14) (size 15 to 20)
#    0.000    2.143    0.000    3.000    0.000   10.000 
#    0.000    0.714    0.000    0.857    0.000    0.000 
#    0.000    0.000    0.000    0.000    0.000    0.000 
#
# Total GULP energy -347211.283822 kJ/mol
# GULP energy per Si atom -12400.402994 kJ/mol
# Density = 1.890416 g / cm^3
# Si number density = 18.947288 Si / 1000 Ang^3
#
#
#
# Elastic Constant Matrix: (Units=GPa)
#
#
# Indices 1 2 3 4 5 6 
#
# 1 90.8972 43.1003 69.3335 0.0000 0.0000 0.0000
# 2 43.1003 70.2104 65.1956 0.0000 0.0000 0.0000
# 3 69.3335 65.1956 154.3087 0.0000 0.0000 0.0000
# 4 0.0000 0.0000 0.0000 30.9521 0.0000 0.0000
# 5 0.0000 0.0000 0.0000 0.0000 33.7711 0.0000
# 6 0.0000 0.0000 0.0000 0.0000 0.0000 21.8847
#
#
#
# Elastic Compliance Matrix: (Units=1/GPa)
#
#
# Indices 1 2 3 4 5 6 
#
# 1 0.018091 -0.005854 -0.005655 0.000000 0.000000 0.000000
# 2 -0.005854 0.025333 -0.008073 0.000000 0.000000 0.000000
# 3 -0.005655 -0.008073 0.012432 0.000000 0.000000 0.000000
# 4 0.000000 0.000000 0.000000 0.032308 0.000000 0.000000
# 5 0.000000 0.000000 0.000000 0.000000 0.029611 0.000000
# 6 0.000000 0.000000 0.000000 0.000000 0.000000 0.045694
#
#
# Mechanical properties :
#
#
# Convention : Reuss Voigt Hill
#
# Bulk Modulus (GPa) = 59.91024 74.51947 67.21486
# Shear Modulus (GPa) = 24.01571 26.50737 25.26154
#
# Velocity S-wave (km/s) = 3.56406 3.74439 3.65534
# Velocity P-wave (km/s) = 6.97315 7.62294 7.30527
#
# Compressibility (1/GPa) = 0.01669164
#
# Stress axis : x y z
#
# Youngs Moduli (GPa) = 55.27648 39.47445 80.43656
#
# Poissons Ratio (x) = 0.23110 0.45487
# Poissons Ratio (y) = 0.32361 0.64934
# Poissons Ratio (z) = 0.31259 0.31867
#
# Static dielectric constant tensor:
#      x y z
#    x 3.707550 0.000000 0.000000 
#    y 0.000000 3.666240 0.000000 
#    z 0.000000 0.000000 3.316900 
# 
# 
# High freq. dielectric constant tensor:
#      x y z
#    x 1.740210 0.000000 0.000000 
#    y 0.000000 1.750910 0.000000 
#    z 0.000000 0.000000 1.715110 
# 
# From -- ./inp_files/23003.got.cif
#   From: 2010.03.12/outbox.cif.g09.slc.cpg/sg44_12_cif.got.tgz:23003.got - 2010.04.14 02:36:11.
