data_PCOD8189093
_publ_section_title
;
Structure prediction by ZEFSAII (Michael W. Deem and Ramdas Pophale) SiO2 
 PCOD8189093
Probable space group: I M M 2
;
_chemical_formula_sum "Si O2"
_cell_formula_units_Z 32
_cell_length_a 18.059487
_cell_length_b 10.407670
_cell_length_c 8.547064
_cell_angle_alpha 90.000000
_cell_angle_beta 90.000000
_cell_angle_gamma 90.000000
_cell_volume 1606.482056
_symmetry_space_group_name_H-M "I M M 2"
_symmetry_group_IT_number 44
_symmetry_cell_setting 'orthorhombic'
loop_
_space_group_symop_operation_xyz
x,y,z
-x,-y,z
-x,y,z
x,-y,z
1/2+x,1/2+y,1/2+z
1/2-x,1/2-y,1/2+z
1/2-x,1/2+y,1/2+z
1/2+x,1/2-y,1/2+z
loop_
_atom_site_type_symbol
_atom_site_label
_atom_site_fract_x
_atom_site_fract_y
_atom_site_fract_z
Si Si1 0.146710 0.500000 0.196030
Si Si2 0.837026 0.228536 0.233239
Si Si3 0.915030 0.500000 0.865540
Si Si4 0.180108 0.259795 0.863441
Si Si5 0.682074 0.500000 0.181505
Si Si6 0.084677 0.000000 0.375558
O O1 0.135680 0.630519 0.296277
O O2 0.231840 0.500000 0.132072
O O3 0.089557 0.500000 0.053313
O O4 0.761887 0.189940 0.320950
O O5 0.899435 0.124954 0.270403
O O6 0.824491 0.238963 0.048380
O O7 0.876125 0.630130 0.802548
O O8 0.000000 0.500000 0.810823
O O9 0.161115 0.125862 0.780697
O O10 0.633524 0.500000 0.028412
O O11 0.000000 0.000000 0.426112
#
# Coordination Sequence:
#
# PCOD8189093 Si02
#       6
#     4   8   4   8   4   4
#     4   8  18  35  60  83 104 139 187 242 288 336
#     4  10  19  37  61  88 114 145 192 242 297 348
#     4  10  20  33  52  82 116 146 177 222 284 350
#     4  10  20  37  64  88 111 145 191 246 296 350
#     4  10  21  40  60  83 110 149 201 246 290 333
#     4  12  25  38  54  82 124 164 197 238 288 347
#
# _framework density 19.9193
#
# number of rings (size 3 to 8) (size 9 to 14) (size 15 to 20)
#    0.000    2.000    0.000    6.000    0.000    5.000 
#    0.000    5.000    0.000    0.000    0.000    1.750 
#    0.000    0.000    0.000    0.000    0.000    0.000 
#
# Total GULP energy -198360.620100 kJ/mol
# GULP energy per Si atom -12397.538756 kJ/mol
# Density = 1.987396 g / cm^3
# Si number density = 19.919300 Si / 1000 Ang^3
#
#
#
# Elastic Constant Matrix: (Units=GPa)
#
#
# Indices 1 2 3 4 5 6 
#
# 1 67.4221 48.5105 5.2153 0.0000 0.0000 0.0000
# 2 48.5105 172.3250 23.0368 0.0000 0.0000 0.0000
# 3 5.2153 23.0368 64.8168 0.0000 0.0000 0.0000
# 4 0.0000 0.0000 0.0000 24.5839 0.0000 0.0000
# 5 0.0000 0.0000 0.0000 0.0000 17.6246 0.0000
# 6 0.0000 0.0000 0.0000 0.0000 0.0000 14.1263
#
#
#
# Elastic Compliance Matrix: (Units=1/GPa)
#
#
# Indices 1 2 3 4 5 6 
#
# 1 0.018608 -0.005289 0.000383 0.000000 0.000000 0.000000
# 2 -0.005289 0.007596 -0.002274 0.000000 0.000000 0.000000
# 3 0.000383 -0.002274 0.016206 0.000000 0.000000 0.000000
# 4 0.000000 0.000000 0.000000 0.040677 0.000000 0.000000
# 5 0.000000 0.000000 0.000000 0.000000 0.056739 0.000000
# 6 0.000000 0.000000 0.000000 0.000000 0.000000 0.070790
#
#
# Mechanical properties :
#
#
# Convention : Reuss Voigt Hill
#
# Bulk Modulus (GPa) = 35.65330 50.89881 43.27606
# Shear Modulus (GPa) = 21.33773 26.45370 23.89571
#
# Velocity S-wave (km/s) = 3.27648 3.64819 3.46732
# Velocity P-wave (km/s) = 5.67904 6.58435 6.14838
#
# Compressibility (1/GPa) = 0.02804790
#
# Stress axis : x y z
#
# Youngs Moduli (GPa) = 53.74001 131.64811 61.70724
#
# Poissons Ratio (x) = 0.69635 -0.02361
# Poissons Ratio (y) = 0.28425 0.14033
# Poissons Ratio (z) = -0.02057 0.29938
#
# Static dielectric constant tensor:
#      x y z
#    x 3.362540 0.000000 0.000000 
#    y 0.000000 5.058000 0.000000 
#    z 0.000000 0.000000 3.342630 
# 
# 
# High freq. dielectric constant tensor:
#      x y z
#    x 1.753000 0.000000 0.000000 
#    y 0.000000 1.810280 0.000000 
#    z 0.000000 0.000000 1.754880 
# 
# From -- ./inp_files/6597.got.cif
#   From: 2010.03.12/outbox.cif.g09.slc.cpg/sg44_4_cif.got.tgz:6597.got - 2010.04.14 02:36:11.
