data_PCOD8189501
_publ_section_title
;
Structure prediction by ZEFSAII (Michael W. Deem and Ramdas Pophale) SiO2 
 PCOD8189501
Probable space group: I M M 2
;
_chemical_formula_sum "Si O2"
_cell_formula_units_Z 40
_cell_length_a 18.399227
_cell_length_b 8.940982
_cell_length_c 13.570127
_cell_angle_alpha 90.000000
_cell_angle_beta 90.000000
_cell_angle_gamma 90.000000
_cell_volume 2232.383019
_symmetry_space_group_name_H-M "I M M 2"
_symmetry_group_IT_number 44
_symmetry_cell_setting 'orthorhombic'
loop_
_space_group_symop_operation_xyz
x,y,z
-x,-y,z
-x,y,z
x,-y,z
1/2+x,1/2+y,1/2+z
1/2-x,1/2-y,1/2+z
1/2-x,1/2+y,1/2+z
1/2+x,1/2-y,1/2+z
loop_
_atom_site_type_symbol
_atom_site_label
_atom_site_fract_x
_atom_site_fract_y
_atom_site_fract_z
Si Si1 0.212020 0.175494 0.762960
Si Si2 0.638432 0.823463 0.861997
Si Si3 0.500000 0.677707 0.764682
Si Si4 0.000000 0.322400 0.052094
Si Si5 0.642554 0.173350 0.438201
Si Si6 0.207472 0.825086 0.539625
O O1 0.292641 0.225047 0.795892
O O2 0.151211 0.246727 0.833091
O O3 0.197578 0.228544 0.651779
O O4 0.204792 0.000000 0.772574
O O5 0.570065 0.735607 0.821623
O O6 0.623750 0.000000 0.858010
O O7 0.652340 0.772182 0.974265
O O8 0.500000 0.500000 0.763152
O O9 0.500000 0.739334 0.654996
O O10 0.000000 0.500000 0.071557
O O11 0.070228 0.268781 0.991509
O O12 0.709765 0.209729 0.509593
O O13 0.636083 0.000000 0.414997
O O14 0.189680 0.000000 0.526264
#
# Coordination Sequence:
#
# PCOD8189501 Si02
#       6
#     8   8   4   4   8   8
#     4   9  18  33  54  77 104 137 173 212 256 302
#     4  10  20  35  54  77 104 136 173 212 253 305
#     4  12  24  36  53  78 105 134 167 210 260 308
#     4  10  20  36  55  76 105 140 171 206 254 306
#     4   9  18  32  52  76 103 134 173 216 256 301
#     4   9  17  32  52  75 102 134 172 216 260 301
#
# _framework density 17.918071999999999
#
# number of rings (size 3 to 8) (size 9 to 14) (size 15 to 20)
#    0.000    2.400    0.000    2.700    0.000    5.600 
#    0.000    5.000    0.000    4.800    0.000    0.000 
#    0.000    0.000    0.000    0.000    0.000    0.000 
#
# Total GULP energy -248044.671079 kJ/mol
# GULP energy per Si atom -12402.233554 kJ/mol
# Density = 1.787729 g / cm^3
# Si number density = 17.918072 Si / 1000 Ang^3
#
#
#
# Elastic Constant Matrix: (Units=GPa)
#
#
# Indices 1 2 3 4 5 6 
#
# 1 122.7274 48.1977 79.0881 0.0000 0.0000 0.0000
# 2 48.1977 58.9349 54.2913 0.0000 0.0000 0.0000
# 3 79.0881 54.2913 170.0711 0.0000 0.0000 0.0000
# 4 0.0000 0.0000 0.0000 36.1451 0.0000 0.0000
# 5 0.0000 0.0000 0.0000 0.0000 21.8666 0.0000
# 6 0.0000 0.0000 0.0000 0.0000 0.0000 39.7384
#
#
#
# Elastic Compliance Matrix: (Units=1/GPa)
#
#
# Indices 1 2 3 4 5 6 
#
# 1 0.013645 -0.007527 -0.003942 0.000000 0.000000 0.000000
# 2 -0.007527 0.028189 -0.005498 0.000000 0.000000 0.000000
# 3 -0.003942 -0.005498 0.009468 0.000000 0.000000 0.000000
# 4 0.000000 0.000000 0.000000 0.027666 0.000000 0.000000
# 5 0.000000 0.000000 0.000000 0.000000 0.045732 0.000000
# 6 0.000000 0.000000 0.000000 0.000000 0.000000 0.025165
#
#
# Mechanical properties :
#
#
# Convention : Reuss Voigt Hill
#
# Bulk Modulus (GPa) = 57.58257 79.43195 68.50726
# Shear Modulus (GPa) = 26.37290 30.89377 28.63333
#
# Velocity S-wave (km/s) = 3.84064 4.15682 4.00185
# Velocity P-wave (km/s) = 7.20234 8.21375 7.72462
#
# Compressibility (1/GPa) = 0.01736637
#
# Stress axis : x y z
#
# Youngs Moduli (GPa) = 73.28844 35.47529 105.61456
#
# Poissons Ratio (x) = 0.26703 0.41637
# Poissons Ratio (y) = 0.55165 0.58070
# Poissons Ratio (z) = 0.28893 0.19505
#
# Static dielectric constant tensor:
#      x y z
#    x 3.396530 0.000000 0.000000 
#    y 0.000000 3.258710 0.000000 
#    z 0.000000 0.000000 3.510630 
# 
# 
# High freq. dielectric constant tensor:
#      x y z
#    x 1.684760 0.000000 0.000000 
#    y 0.000000 1.689660 0.000000 
#    z 0.000000 0.000000 1.702590 
# 
# From -- ./inp_files/11002.got.cif
#   From: 2010.03.12/outbox.cif.g09.slc.cpg/sg44_6_cif.got.tgz:11002.got - 2010.04.14 02:36:11.
