data_PCOD8189602
_publ_section_title
;
Structure prediction by ZEFSAII (Michael W. Deem and Ramdas Pophale) SiO2 
 PCOD8189602
Probable space group: I M M 2
;
_chemical_formula_sum "Si O2"
_cell_formula_units_Z 48
_cell_length_a 8.362843
_cell_length_b 16.818127
_cell_length_c 16.993613
_cell_angle_alpha 90.000000
_cell_angle_beta 90.000000
_cell_angle_gamma 90.000000
_cell_volume 2390.106731
_symmetry_space_group_name_H-M "I M M 2"
_symmetry_group_IT_number 44
_symmetry_cell_setting 'orthorhombic'
loop_
_space_group_symop_operation_xyz
x,y,z
-x,-y,z
-x,y,z
x,-y,z
1/2+x,1/2+y,1/2+z
1/2-x,1/2-y,1/2+z
1/2-x,1/2+y,1/2+z
1/2+x,1/2-y,1/2+z
loop_
_atom_site_type_symbol
_atom_site_label
_atom_site_fract_x
_atom_site_fract_y
_atom_site_fract_z
Si Si1 0.313902 0.359398 0.929780
Si Si2 0.690531 0.589031 0.253713
Si Si3 0.182651 0.500000 0.829019
Si Si4 0.312859 0.311330 0.402760
Si Si5 0.310844 0.677672 0.102067
Si Si6 0.188158 0.647954 0.565164
Si Si7 0.185220 0.000000 0.158959
O O1 0.500000 0.380577 0.921465
O O2 0.212841 0.421763 0.880234
O O3 0.284351 0.270621 0.898730
O O4 0.256369 0.364081 0.020729
O O5 0.500000 0.587527 0.249899
O O6 0.759474 0.500000 0.257835
O O7 0.748758 0.636315 0.330103
O O8 0.763595 0.631188 0.176054
O O9 0.294279 0.500000 0.752590
O O10 0.000000 0.500000 0.800624
O O11 0.500000 0.292422 0.396902
O O12 0.276043 0.361498 0.481474
O O13 0.500000 0.675163 0.107033
O O14 0.253995 0.769372 0.104540
O O15 0.232992 0.577655 0.623383
O O16 0.000000 0.648677 0.549282
O O17 0.000000 0.000000 0.137184
#
# Coordination Sequence:
#
# PCOD8189602 Si02
#       7
#     8   8   4   8   8   8   4
#     4  10  21  39  62  88 118 156 203 252 305 361
#     4   9  18  31  53  87 119 152 197 244 291 347
#     4  12  26  42  62  89 122 157 198 247 308 379
#     4  10  20  35  59  89 122 162 204 248 299 356
#     4   8  17  34  58  86 117 154 197 241 291 352
#     4  10  21  39  61  86 119 160 201 244 302 365
#     4  12  26  42  62  91 120 151 200 255 308 367
#
# _framework density 20.082785000000001
#
# number of rings (size 3 to 8) (size 9 to 14) (size 15 to 20)
#    0.000    2.167    0.000    4.000    4.667    0.000 
#    0.000    0.000    0.000    3.000    0.000    0.000 
#    0.000    0.000    0.000    0.000    0.000    0.000 
#
# Total GULP energy -297643.436774 kJ/mol
# GULP energy per Si atom -12401.809866 kJ/mol
# Density = 2.003708 g / cm^3
# Si number density = 20.082785 Si / 1000 Ang^3
#
#
#
# Elastic Constant Matrix: (Units=GPa)
#
#
# Indices 1 2 3 4 5 6 
#
# 1 42.5400 7.5267 6.5089 0.0000 0.0000 0.0000
# 2 7.5267 120.2521 87.9360 0.0000 0.0000 0.0000
# 3 6.5089 87.9360 160.2735 0.0000 0.0000 0.0000
# 4 0.0000 0.0000 0.0000 20.9497 0.0000 0.0000
# 5 0.0000 0.0000 0.0000 0.0000 26.5536 0.0000
# 6 0.0000 0.0000 0.0000 0.0000 0.0000 27.7883
#
#
#
# Elastic Compliance Matrix: (Units=1/GPa)
#
#
# Indices 1 2 3 4 5 6 
#
# 1 0.023776 -0.001306 -0.000249 0.000000 0.000000 0.000000
# 2 -0.001306 0.013960 -0.007606 0.000000 0.000000 0.000000
# 3 -0.000249 -0.007606 0.010423 0.000000 0.000000 0.000000
# 4 0.000000 0.000000 0.000000 0.047733 0.000000 0.000000
# 5 0.000000 0.000000 0.000000 0.000000 0.037660 0.000000
# 6 0.000000 0.000000 0.000000 0.000000 0.000000 0.035986
#
#
# Mechanical properties :
#
#
# Convention : Reuss Voigt Hill
#
# Bulk Modulus (GPa) = 33.51612 58.55652 46.03632
# Shear Modulus (GPa) = 25.27730 29.79793 27.53762
#
# Velocity S-wave (km/s) = 3.55160 3.85613 3.70700
# Velocity P-wave (km/s) = 5.79169 7.00337 6.42615
#
# Compressibility (1/GPa) = 0.02983639
#
# Stress axis : x y z
#
# Youngs Moduli (GPa) = 42.05836 71.63489 95.94511
#
# Poissons Ratio (x) = 0.09356 0.02389
# Poissons Ratio (y) = 0.05493 0.72977
# Poissons Ratio (z) = 0.01047 0.54486
#
# Static dielectric constant tensor:
#      x y z
#    x 3.354850 0.000000 0.000000 
#    y 0.000000 3.847520 0.000000 
#    z 0.000000 0.000000 3.859060 
# 
# 
# High freq. dielectric constant tensor:
#      x y z
#    x 1.760360 0.000000 0.000000 
#    y 0.000000 1.790740 0.000000 
#    z 0.000000 0.000000 1.793630 
# 
# From -- ./inp_files/16219.got.cif
#   From: 2010.03.12/outbox.cif.g09.slc.cpg/sg44_9_cif.got.tgz:16219.got - 2010.04.14 02:36:11.
