data_PCOD8189525
_publ_section_title
;
Structure prediction by ZEFSAII (Michael W. Deem and Ramdas Pophale) SiO2 
 PCOD8189525
Probable space group: I M M 2
;
_chemical_formula_sum "Si O2"
_cell_formula_units_Z 48
_cell_length_a 10.382794
_cell_length_b 8.738206
_cell_length_c 28.323560
_cell_angle_alpha 90.000000
_cell_angle_beta 90.000000
_cell_angle_gamma 90.000000
_cell_volume 2569.711425
_symmetry_space_group_name_H-M "I M M 2"
_symmetry_group_IT_number 44
_symmetry_cell_setting 'orthorhombic'
loop_
_space_group_symop_operation_xyz
x,y,z
-x,-y,z
-x,y,z
x,-y,z
1/2+x,1/2+y,1/2+z
1/2-x,1/2-y,1/2+z
1/2-x,1/2+y,1/2+z
1/2+x,1/2-y,1/2+z
loop_
_atom_site_type_symbol
_atom_site_label
_atom_site_fract_x
_atom_site_fract_y
_atom_site_fract_z
Si Si1 0.246754 0.181875 0.388950
Si Si2 0.500000 0.181593 0.536668
Si Si3 0.352940 0.680340 0.687503
Si Si4 0.000000 0.819045 0.933861
Si Si5 0.744494 0.820804 0.596383
Si Si6 0.500000 0.181152 0.939886
Si Si7 0.642711 0.318879 0.791214
Si Si8 0.500000 0.319425 0.041640
O O1 0.375842 0.254393 0.408041
O O2 0.235957 0.231443 0.333820
O O3 0.126043 0.245480 0.417350
O O4 0.250787 0.000000 0.395458
O O5 0.500000 0.267965 0.487589
O O6 0.374820 0.237841 0.565098
O O7 0.500000 0.000000 0.527694
O O8 0.500000 0.734980 0.679113
O O9 0.343640 0.500000 0.683307
O O10 0.259204 0.751653 0.648716
O O11 0.306534 0.736087 0.739760
O O12 0.000000 0.000000 0.930779
O O13 0.875999 0.770542 0.571686
O O14 0.735751 0.000000 0.602239
O O15 0.500000 0.000000 0.932199
O O16 0.500000 0.219475 0.994900
O O17 0.500000 0.250399 0.800572
O O18 0.630695 0.500000 0.790261
O O19 0.500000 0.500000 0.029395
#
# Coordination Sequence:
#
# PCOD8189525 Si02
#       8
#     8   4   8   4   8   4   8   4
#     4  11  21  39  64  85 112 156 199 231 277 347
#     4  10  20  36  57  78 103 145 196 233 269 338
#     4   9  17  31  55  84 111 138 176 230 284 327
#     4  12  26  40  55  84 123 151 186 245 297 336
#     4  10  20  35  55  80 109 141 186 231 271 327
#     4  12  24  38  59  90 119 145 188 247 297 334
#     4   8  15  31  57  86 108 136 185 234 270 326
#     4  10  22  38  55  76 109 155 192 225 273 338
#
# _framework density 18.67914
#
# number of rings (size 3 to 8) (size 9 to 14) (size 15 to 20)
#    0.000    2.000    1.667    4.000    0.000    2.667 
#    0.000    2.500    0.000    3.000    0.000    0.000 
#    0.000    0.000    0.000    0.000    0.000    0.000 
#
# Total GULP energy -297565.866758 kJ/mol
# GULP energy per Si atom -12398.577782 kJ/mol
# Density = 1.863663 g / cm^3
# Si number density = 18.679140 Si / 1000 Ang^3
#
#
#
# Elastic Constant Matrix: (Units=GPa)
#
#
# Indices 1 2 3 4 5 6 
#
# 1 148.2405 42.6475 87.0528 0.0000 0.0000 0.0000
# 2 42.6475 61.8255 53.7668 0.0000 0.0000 0.0000
# 3 87.0528 53.7668 185.6374 0.0000 0.0000 0.0000
# 4 0.0000 0.0000 0.0000 28.4968 0.0000 0.0000
# 5 0.0000 0.0000 0.0000 0.0000 54.9371 0.0000
# 6 0.0000 0.0000 0.0000 0.0000 0.0000 23.2127
#
#
#
# Elastic Compliance Matrix: (Units=1/GPa)
#
#
# Indices 1 2 3 4 5 6 
#
# 1 0.009916 -0.003738 -0.003567 0.000000 0.000000 0.000000
# 2 -0.003738 0.023029 -0.004917 0.000000 0.000000 0.000000
# 3 -0.003567 -0.004917 0.008484 0.000000 0.000000 0.000000
# 4 0.000000 0.000000 0.000000 0.035092 0.000000 0.000000
# 5 0.000000 0.000000 0.000000 0.000000 0.018203 0.000000
# 6 0.000000 0.000000 0.000000 0.000000 0.000000 0.043080
#
#
# Mechanical properties :
#
#
# Convention : Reuss Voigt Hill
#
# Bulk Modulus (GPa) = 58.87769 84.73749 71.80759
# Shear Modulus (GPa) = 29.77793 35.47842 32.62818
#
# Velocity S-wave (km/s) = 3.99705 4.36289 4.18397
# Velocity P-wave (km/s) = 7.27261 8.41683 7.86555
#
# Compressibility (1/GPa) = 0.01698436
#
# Stress axis : x y z
#
# Youngs Moduli (GPa) = 100.84660 43.42324 117.86922
#
# Poissons Ratio (x) = 0.16230 0.42050
# Poissons Ratio (y) = 0.37693 0.57959
# Poissons Ratio (z) = 0.35977 0.21352
#
# Static dielectric constant tensor:
#      x y z
#    x 3.495750 0.000000 0.000000 
#    y 0.000000 3.236960 0.000000 
#    z 0.000000 0.000000 3.924080 
# 
# 
# High freq. dielectric constant tensor:
#      x y z
#    x 1.714270 0.000000 0.000000 
#    y 0.000000 1.706710 0.000000 
#    z 0.000000 0.000000 1.745940 
# 
# From -- ./inp_files/27079.got.cif
#   From: 2010.03.12/outbox.cif.g09.slc.cpg/sg44_14_cif.got.tgz:27079.got - 2010.04.14 02:36:11.
