data_PCOD8189610
_publ_section_title
;
Structure prediction by ZEFSAII (Michael W. Deem and Ramdas Pophale) SiO2 
 PCOD8189610
Probable space group: I M M 2
;
_chemical_formula_sum "Si O2"
_cell_formula_units_Z 64
_cell_length_a 29.562459
_cell_length_b 8.845678
_cell_length_c 12.847971
_cell_angle_alpha 90.000000
_cell_angle_beta 90.000000
_cell_angle_gamma 90.000000
_cell_volume 3359.744329
_symmetry_space_group_name_H-M "I M M 2"
_symmetry_group_IT_number 44
_symmetry_cell_setting 'orthorhombic'
loop_
_space_group_symop_operation_xyz
x,y,z
-x,-y,z
-x,y,z
x,-y,z
1/2+x,1/2+y,1/2+z
1/2-x,1/2-y,1/2+z
1/2-x,1/2+y,1/2+z
1/2+x,1/2-y,1/2+z
loop_
_atom_site_type_symbol
_atom_site_label
_atom_site_fract_x
_atom_site_fract_y
_atom_site_fract_z
Si Si1 0.550224 0.679778 0.819170
Si Si2 0.705744 0.334159 0.776194
Si Si3 0.622461 0.319644 0.653619
Si Si4 0.785656 0.333753 0.630937
Si Si5 0.053363 0.173780 0.552107
Si Si6 0.141887 0.820597 0.924940
Si Si7 0.261539 0.821866 0.454273
Si Si8 0.118728 0.321443 0.713497
O O1 0.500000 0.744966 0.798858
O O2 0.548715 0.500000 0.816439
O O3 0.582077 0.742832 0.726723
O O4 0.567204 0.728346 0.934945
O O5 0.684166 0.500000 0.794085
O O6 0.669006 0.249999 0.703445
O O7 0.756625 0.351862 0.734433
O O8 0.717584 0.261369 0.887804
O O9 0.623270 0.500000 0.650991
O O10 0.618740 0.263921 0.533819
O O11 0.790056 0.500000 0.577063
O O12 0.755125 0.215233 0.568966
O O13 0.834729 0.267072 0.659252
O O14 0.077703 0.273420 0.639386
O O15 0.000000 0.194544 0.566718
O O16 0.067534 0.000000 0.568373
O O17 0.193649 0.768358 0.923673
O O18 0.114068 0.752394 0.827963
O O19 0.140596 0.000000 0.916262
O O20 0.270517 0.000000 0.441252
O O21 0.118494 0.500000 0.728777
#
# Coordination Sequence:
#
# PCOD8189610 Si02
#       8
#     8   8   8   8   8   8   8   8
#     4   8  15  30  54  83 111 135 167 219 276 328
#     4   9  17  31  48  69 101 140 179 220 267 317
#     4   9  17  30  51  76 103 140 180 219 272 329
#     4  10  20  36  51  70 106 146 184 227 270 320
#     4   9  19  37  61  88 113 136 174 229 281 337
#     4  11  21  35  55  77 108 151 191 229 276 328
#     4  11  21  33  51  76 106 144 185 230 279 328
#     4  11  23  38  56  79 112 150 189 232 279 333
#
# _framework density 19.04907
#
# number of rings (size 3 to 8) (size 9 to 14) (size 15 to 20)
#    0.000    2.250    2.500    1.875    1.750    1.250 
#    0.000    0.625    0.000    3.750    0.000    0.000 
#    0.000    0.000    0.000    0.000    0.000    0.000 
#
# Total GULP energy -396436.679617 kJ/mol
# GULP energy per Si atom -12388.646238 kJ/mol
# Density = 1.900571 g / cm^3
# Si number density = 19.049070 Si / 1000 Ang^3
#
#
#
# Elastic Constant Matrix: (Units=GPa)
#
#
# Indices 1 2 3 4 5 6 
#
# 1 86.8521 20.3208 59.8182 0.0000 0.0000 0.0000
# 2 20.3208 46.1829 33.1424 0.0000 0.0000 0.0000
# 3 59.8182 33.1424 130.9866 0.0000 0.0000 0.0000
# 4 0.0000 0.0000 0.0000 18.0625 0.0000 0.0000
# 5 0.0000 0.0000 0.0000 0.0000 35.9385 0.0000
# 6 0.0000 0.0000 0.0000 0.0000 0.0000 22.6363
#
#
#
# Elastic Compliance Matrix: (Units=1/GPa)
#
#
# Indices 1 2 3 4 5 6 
#
# 1 0.017000 -0.002332 -0.007173 0.000000 0.000000 0.000000
# 2 -0.002332 0.026777 -0.005710 0.000000 0.000000 0.000000
# 3 -0.007173 -0.005710 0.012355 0.000000 0.000000 0.000000
# 4 0.000000 0.000000 0.000000 0.055363 0.000000 0.000000
# 5 0.000000 0.000000 0.000000 0.000000 0.027825 0.000000
# 6 0.000000 0.000000 0.000000 0.000000 0.000000 0.044177
#
#
# Mechanical properties :
#
#
# Convention : Reuss Voigt Hill
#
# Bulk Modulus (GPa) = 38.90953 54.50940 46.70946
# Shear Modulus (GPa) = 22.47234 25.37682 23.92458
#
# Velocity S-wave (km/s) = 3.43841 3.65387 3.54778
# Velocity P-wave (km/s) = 6.01946 6.81750 6.43087
#
# Compressibility (1/GPa) = 0.02570064
#
# Stress axis : x y z
#
# Youngs Moduli (GPa) = 58.82328 37.34555 80.93862
#
# Poissons Ratio (x) = 0.08710 0.58060
# Poissons Ratio (y) = 0.13719 0.46216
# Poissons Ratio (z) = 0.42196 0.21325
#
# Static dielectric constant tensor:
#      x y z
#    x 3.486930 0.000000 0.000000 
#    y 0.000000 3.143480 0.000000 
#    z 0.000000 0.000000 3.731780 
# 
# 
# High freq. dielectric constant tensor:
#      x y z
#    x 1.728110 0.000000 0.000000 
#    y 0.000000 1.700390 0.000000 
#    z 0.000000 0.000000 1.754840 
# 
# From -- ./inp_files/15061.got.cif
#   From: 2010.03.12/outbox.cif.g09.slc.cpg/sg44_8_cif.got.tgz:15061.got - 2010.04.14 02:36:11.
