data_PCOD8189486
_publ_section_title
;
Structure prediction by ZEFSAII (Michael W. Deem and Ramdas Pophale) SiO2 
 PCOD8189486
Probable space group: I M M 2
;
_chemical_formula_sum "Si O2"
_cell_formula_units_Z 64
_cell_length_a 9.122322
_cell_length_b 14.389479
_cell_length_c 23.755005
_cell_angle_alpha 90.000000
_cell_angle_beta 90.000000
_cell_angle_gamma 90.000000
_cell_volume 3118.211679
_symmetry_space_group_name_H-M "I M M 2"
_symmetry_group_IT_number 44
_symmetry_cell_setting 'orthorhombic'
loop_
_space_group_symop_operation_xyz
x,y,z
-x,-y,z
-x,y,z
x,-y,z
1/2+x,1/2+y,1/2+z
1/2-x,1/2-y,1/2+z
1/2-x,1/2+y,1/2+z
1/2+x,1/2-y,1/2+z
loop_
_atom_site_type_symbol
_atom_site_label
_atom_site_fract_x
_atom_site_fract_y
_atom_site_fract_z
Si Si1 0.161380 0.302609 0.054770
Si Si2 0.741799 0.397894 0.560580
Si Si3 0.672208 0.749100 0.755648
Si Si4 0.673042 0.102790 0.667056
Si Si5 0.162807 0.604141 0.437545
Si Si6 0.325896 0.762250 0.373849
Si Si7 0.672296 0.392436 0.954217
Si Si8 0.338225 0.894838 0.184430
O O1 0.135731 0.191323 0.058406
O O2 0.231091 0.341408 0.112657
O O3 0.000000 0.345537 0.042616
O O4 0.273640 0.331653 0.006567
O O5 0.660468 0.500000 0.561267
O O6 0.842358 0.392192 0.505223
O O7 0.837240 0.387764 0.616840
O O8 0.500000 0.743122 0.769825
O O9 0.715237 0.844407 0.724144
O O10 0.768776 0.748440 0.811060
O O11 0.712558 0.664814 0.714247
O O12 0.500000 0.096647 0.661942
O O13 0.743737 0.000000 0.668678
O O14 0.203391 0.500000 0.417219
O O15 0.280877 0.673724 0.411335
O O16 0.000000 0.631293 0.415977
O O17 0.500000 0.771163 0.374626
O O18 0.255126 0.856202 0.398755
O O19 0.500000 0.376491 0.946481
O O20 0.711083 0.500000 0.963719
O O21 0.500000 0.861963 0.204203
O O22 0.309563 0.000000 0.203858
#
# Coordination Sequence:
#
# PCOD8189486 Si02
#       8
#     8   8   8   8   8   8   8   8
#     4  11  21  37  63  96 131 168 203 249 310 368
#     4  10  20  34  60  98 134 166 203 246 304 373
#     4  11  23  41  63  88 119 161 212 259 310 366
#     4   9  19  37  61  90 124 161 203 249 301 363
#     4  10  21  39  64  93 126 166 207 248 302 368
#     4  12  26  43  64  91 122 161 209 261 317 370
#     4  11  25  44  66  93 124 162 208 258 313 374
#     4  10  21  38  61  91 126 163 202 248 307 371
#
# _framework density 20.524584000000001
#
# number of rings (size 3 to 8) (size 9 to 14) (size 15 to 20)
#    0.000    1.500    2.500    2.625    0.000    5.250 
#    0.000    3.750    0.000    1.875    0.000    0.000 
#    0.000    0.000    0.000    0.000    0.000    0.000 
#
# Total GULP energy -396682.494025 kJ/mol
# GULP energy per Si atom -12396.327938 kJ/mol
# Density = 2.047787 g / cm^3
# Si number density = 20.524584 Si / 1000 Ang^3
#
#
#
# Elastic Constant Matrix: (Units=GPa)
#
#
# Indices 1 2 3 4 5 6 
#
# 1 106.9755 47.0628 42.2112 0.0000 0.0000 0.0000
# 2 47.0628 151.9703 55.6116 0.0000 0.0000 0.0000
# 3 42.2112 55.6116 125.0059 0.0000 0.0000 0.0000
# 4 0.0000 0.0000 0.0000 20.6161 0.0000 0.0000
# 5 0.0000 0.0000 0.0000 0.0000 27.6664 0.0000
# 6 0.0000 0.0000 0.0000 0.0000 0.0000 21.7749
#
#
#
# Elastic Compliance Matrix: (Units=1/GPa)
#
#
# Indices 1 2 3 4 5 6 
#
# 1 0.011569 -0.002572 -0.002763 0.000000 0.000000 0.000000
# 2 -0.002572 0.008432 -0.002882 0.000000 0.000000 0.000000
# 3 -0.002763 -0.002882 0.010215 0.000000 0.000000 0.000000
# 4 0.000000 0.000000 0.000000 0.048506 0.000000 0.000000
# 5 0.000000 0.000000 0.000000 0.000000 0.036145 0.000000
# 6 0.000000 0.000000 0.000000 0.000000 0.000000 0.045925
#
#
# Mechanical properties :
#
#
# Convention : Reuss Voigt Hill
#
# Bulk Modulus (GPa) = 72.55893 74.85808 73.70851
# Shear Modulus (GPa) = 27.49989 29.94923 28.72456
#
# Velocity S-wave (km/s) = 3.66437 3.82408 3.74507
# Velocity P-wave (km/s) = 7.30290 7.48663 7.39534
#
# Compressibility (1/GPa) = 0.01378190
#
# Stress axis : x y z
#
# Youngs Moduli (GPa) = 86.43418 118.60237 97.89748
#
# Poissons Ratio (x) = 0.30504 0.27044
# Poissons Ratio (y) = 0.22231 0.28219
# Poissons Ratio (z) = 0.23878 0.34187
#
# Static dielectric constant tensor:
#      x y z
#    x 3.435360 0.000000 0.000000 
#    y 0.000000 4.130360 0.000000 
#    z 0.000000 0.000000 3.721650 
# 
# 
# High freq. dielectric constant tensor:
#      x y z
#    x 1.783060 0.000000 0.000000 
#    y 0.000000 1.816070 0.000000 
#    z 0.000000 0.000000 1.802100 
# 
# From -- ./inp_files/25157.got.cif
#   From: 2010.03.12/outbox.cif.g09.slc.cpg/sg44_13_cif.got.tgz:25157.got - 2010.04.14 02:36:11.
