data_PCOD8189939
_publ_section_title
;
Structure prediction by ZEFSAII (Michael W. Deem and Ramdas Pophale) SiO2 
 PCOD8189939
Probable space group: I M M 2
;
_chemical_formula_sum "Si O2"
_cell_formula_units_Z 64
_cell_length_a 19.747780
_cell_length_b 8.838825
_cell_length_c 20.293166
_cell_angle_alpha 90.000000
_cell_angle_beta 90.000000
_cell_angle_gamma 90.000000
_cell_volume 3542.114727
_symmetry_space_group_name_H-M "I M M 2"
_symmetry_group_IT_number 44
_symmetry_cell_setting 'orthorhombic'
loop_
_space_group_symop_operation_xyz
x,y,z
-x,-y,z
-x,y,z
x,-y,z
1/2+x,1/2+y,1/2+z
1/2-x,1/2-y,1/2+z
1/2-x,1/2+y,1/2+z
1/2+x,1/2-y,1/2+z
loop_
_atom_site_type_symbol
_atom_site_label
_atom_site_fract_x
_atom_site_fract_y
_atom_site_fract_z
Si Si1 0.173754 0.324030 0.720880
Si Si2 0.177075 0.678642 0.366337
Si Si3 0.579071 0.675269 0.969645
Si Si4 0.421990 0.822912 0.107208
Si Si5 0.827148 0.822995 0.227473
Si Si6 0.319306 0.819698 0.367255
Si Si7 0.423635 0.821197 0.476244
Si Si8 0.922622 0.177509 0.111055
O O1 0.157729 0.500000 0.722515
O O2 0.123403 0.253120 0.666582
O O3 0.251387 0.290933 0.701387
O O4 0.160234 0.259402 0.794401
O O5 0.183986 0.500000 0.367451
O O6 0.118759 0.729255 0.415745
O O7 0.156595 0.732251 0.293508
O O8 0.247876 0.750857 0.389344
O O9 0.500000 0.702138 0.956535
O O10 0.598870 0.500000 0.964014
O O11 0.599195 0.733789 0.041857
O O12 0.500000 0.794080 0.125845
O O13 0.407586 0.000000 0.095270
O O14 0.878202 0.763409 0.171847
O O15 0.837303 0.000000 0.242882
O O16 0.376622 0.761959 0.417234
O O17 0.311410 0.000000 0.367092
O O18 0.500000 0.763303 0.462849
O O19 0.395795 0.755505 0.544701
O O20 0.421229 0.000000 0.480724
O O21 0.000000 0.223427 0.125333
O O22 0.913744 0.000000 0.101737
#
# Coordination Sequence:
#
# PCOD8189939 Si02
#       8
#     8   8   8   8   8   8   8   8
#     4   8  15  29  49  71  96 128 164 204 247 290
#     4  11  22  35  53  77 103 130 166 212 257 299
#     4  10  21  37  55  74 100 135 170 204 249 306
#     4   9  17  30  49  74 102 130 165 209 250 289
#     4   9  18  34  52  70  97 132 169 205 245 298
#     4   9  18  34  53  74 104 139 173 207 248 301
#     4   9  18  32  51  76 105 136 171 212 253 293
#     4   9  18  32  50  72  99 132 168 205 247 298
#
# _framework density 18.068303
#
# number of rings (size 3 to 8) (size 9 to 14) (size 15 to 20)
#    0.000    2.750    0.000    2.250    0.000    3.750 
#    0.000    7.500    0.000    0.000    0.000    3.500 
#    0.000    0.000    0.000    0.000    0.000    0.000 
#
# Total GULP energy -396799.034869 kJ/mol
# GULP energy per Si atom -12399.969840 kJ/mol
# Density = 1.802718 g / cm^3
# Si number density = 18.068303 Si / 1000 Ang^3
#
#
#
# Elastic Constant Matrix: (Units=GPa)
#
#
# Indices 1 2 3 4 5 6 
#
# 1 96.6298 30.7075 87.0563 0.0000 0.0000 0.0000
# 2 30.7075 43.8870 37.4834 0.0000 0.0000 0.0000
# 3 87.0563 37.4834 136.4935 0.0000 0.0000 0.0000
# 4 0.0000 0.0000 0.0000 29.0783 0.0000 0.0000
# 5 0.0000 0.0000 0.0000 0.0000 41.9604 0.0000
# 6 0.0000 0.0000 0.0000 0.0000 0.0000 19.2305
#
#
#
# Elastic Compliance Matrix: (Units=1/GPa)
#
#
# Indices 1 2 3 4 5 6 
#
# 1 0.025171 -0.005095 -0.014655 0.000000 0.000000 0.000000
# 2 -0.005095 0.030799 -0.005208 0.000000 0.000000 0.000000
# 3 -0.014655 -0.005208 0.018104 0.000000 0.000000 0.000000
# 4 0.000000 0.000000 0.000000 0.034390 0.000000 0.000000
# 5 0.000000 0.000000 0.000000 0.000000 0.023832 0.000000
# 6 0.000000 0.000000 0.000000 0.000000 0.000000 0.052001
#
#
# Mechanical properties :
#
#
# Convention : Reuss Voigt Hill
#
# Bulk Modulus (GPa) = 41.39601 65.27830 53.33716
# Shear Modulus (GPa) = 20.63851 26.17138 23.40494
#
# Velocity S-wave (km/s) = 3.38338 3.81000 3.60301
# Velocity P-wave (km/s) = 6.18253 7.45399 6.84783
#
# Compressibility (1/GPa) = 0.02415691
#
# Stress axis : x y z
#
# Youngs Moduli (GPa) = 39.72821 32.46839 55.23775
#
# Poissons Ratio (x) = 0.16544 0.80950
# Poissons Ratio (y) = 0.20243 0.28768
# Poissons Ratio (z) = 0.58221 0.16910
#
# Static dielectric constant tensor:
#      x y z
#    x 3.447280 0.000000 0.000000 
#    y 0.000000 3.134400 0.000000 
#    z 0.000000 0.000000 3.547790 
# 
# 
# High freq. dielectric constant tensor:
#      x y z
#    x 1.700050 0.000000 0.000000 
#    y 0.000000 1.680010 0.000000 
#    z 0.000000 0.000000 1.706900 
# 
# From -- ./inp_files/20792.got.cif
#   From: 2010.03.12/outbox.cif.g09.slc.cpg/sg44_11_cif.got.tgz:20792.got - 2010.04.14 02:36:11.
