data_PCOD8189631
_publ_section_title
;
Structure prediction by ZEFSAII (Michael W. Deem and Ramdas Pophale) SiO2 
 PCOD8189631
Probable space group: I M M 2
;
_chemical_formula_sum "Si O2"
_cell_formula_units_Z 48
_cell_length_a 16.994889
_cell_length_b 8.839753
_cell_length_c 16.946781
_cell_angle_alpha 90.000000
_cell_angle_beta 90.000000
_cell_angle_gamma 90.000000
_cell_volume 2545.925434
_symmetry_space_group_name_H-M "I M M 2"
_symmetry_group_IT_number 44
_symmetry_cell_setting 'orthorhombic'
loop_
_space_group_symop_operation_xyz
x,y,z
-x,-y,z
-x,y,z
x,-y,z
1/2+x,1/2+y,1/2+z
1/2-x,1/2-y,1/2+z
1/2-x,1/2+y,1/2+z
1/2+x,1/2-y,1/2+z
loop_
_atom_site_type_symbol
_atom_site_label
_atom_site_fract_x
_atom_site_fract_y
_atom_site_fract_z
Si Si1 0.149814 0.321921 0.336130
Si Si2 0.000000 0.318535 0.244756
Si Si3 0.823567 0.821431 0.807260
Si Si4 0.150719 0.320665 0.971981
Si Si5 0.811164 0.677872 0.508835
Si Si6 0.408622 0.176107 0.161580
Si Si7 0.000000 0.679520 0.067226
O O1 0.142438 0.500000 0.329856
O O2 0.232583 0.269159 0.297795
O O3 0.146089 0.271917 0.427756
O O4 0.076910 0.250327 0.288605
O O5 0.000000 0.255879 0.155916
O O6 0.000000 0.500000 0.246458
O O7 0.859855 0.744957 0.884564
O O8 0.872536 0.772704 0.731754
O O9 0.829084 0.000000 0.818572
O O10 0.152993 0.500000 0.966369
O O11 0.228523 0.263343 0.016480
O O12 0.077207 0.261163 0.022627
O O13 0.793530 0.500000 0.507619
O O14 0.866953 0.725404 0.580607
O O15 0.500000 0.215433 0.153103
O O16 0.395157 0.000000 0.179526
O O17 0.000000 0.500000 0.069428
#
# Coordination Sequence:
#
# PCOD8189631 Si02
#       7
#     8   4   8   8   8   8   4
#     4   8  16  30  52  78 106 136 173 219 270 322
#     4   9  16  28  50  80 107 134 172 223 267 311
#     4  10  21  37  56  82 110 141 185 234 283 333
#     4  10  20  36  57  80 109 148 186 225 275 332
#     4   9  19  36  55  82 112 143 181 226 276 330
#     4  10  22  37  56  81 112 148 188 231 278 334
#     4   9  20  32  49  80 111 138 180 225 265 319
#
# _framework density 18.853653999999999
#
# number of rings (size 3 to 8) (size 9 to 14) (size 15 to 20)
#    0.000    2.667    0.000    2.000    4.667    1.000 
#    0.000    1.250    0.000    0.000    0.000    1.750 
#    0.000    0.000    0.000    0.000    0.000    0.000 
#
# Total GULP energy -297589.986928 kJ/mol
# GULP energy per Si atom -12399.582789 kJ/mol
# Density = 1.881074 g / cm^3
# Si number density = 18.853654 Si / 1000 Ang^3
#
#
#
# Elastic Constant Matrix: (Units=GPa)
#
#
# Indices 1 2 3 4 5 6 
#
# 1 162.4457 38.0732 111.8885 0.0000 0.0000 0.0000
# 2 38.0732 43.9400 37.9935 0.0000 0.0000 0.0000
# 3 111.8885 37.9935 152.2869 0.0000 0.0000 0.0000
# 4 0.0000 0.0000 0.0000 20.2588 0.0000 0.0000
# 5 0.0000 0.0000 0.0000 0.0000 37.6889 0.0000
# 6 0.0000 0.0000 0.0000 0.0000 0.0000 25.2466
#
#
#
# Elastic Compliance Matrix: (Units=1/GPa)
#
#
# Indices 1 2 3 4 5 6 
#
# 1 0.012946 -0.003816 -0.008560 0.000000 0.000000 0.000000
# 2 -0.003816 0.030143 -0.004716 0.000000 0.000000 0.000000
# 3 -0.008560 -0.004716 0.014032 0.000000 0.000000 0.000000
# 4 0.000000 0.000000 0.000000 0.049361 0.000000 0.000000
# 5 0.000000 0.000000 0.000000 0.000000 0.026533 0.000000
# 6 0.000000 0.000000 0.000000 0.000000 0.000000 0.039609
#
#
# Mechanical properties :
#
#
# Convention : Reuss Voigt Hill
#
# Bulk Modulus (GPa) = 43.59817 81.62035 62.60926
# Shear Modulus (GPa) = 23.31494 28.02003 25.66749
#
# Velocity S-wave (km/s) = 3.52039 3.85929 3.69373
# Velocity P-wave (km/s) = 6.30070 7.95263 7.17437
#
# Compressibility (1/GPa) = 0.02293674
#
# Stress axis : x y z
#
# Youngs Moduli (GPa) = 77.24427 33.17505 71.26498
#
# Poissons Ratio (x) = 0.12660 0.61000
# Poissons Ratio (y) = 0.29478 0.33612
# Poissons Ratio (z) = 0.66118 0.15647
#
# Static dielectric constant tensor:
#      x y z
#    x 3.713020 0.000000 0.000000 
#    y 0.000000 3.110770 0.000000 
#    z 0.000000 0.000000 3.629090 
# 
# 
# High freq. dielectric constant tensor:
#      x y z
#    x 1.743180 0.000000 0.000000 
#    y 0.000000 1.698400 0.000000 
#    z 0.000000 0.000000 1.742100 
# 
# From -- ./inp_files/16180.got.cif
#   From: 2010.03.12/outbox.cif.g09.slc.cpg/sg44_9_cif.got.tgz:16180.got - 2010.04.14 02:36:11.
