data_PCOD8189994
_publ_section_title
;
Structure prediction by ZEFSAII (Michael W. Deem and Ramdas Pophale) SiO2 
 PCOD8189994
Probable space group: I M M 2
;
_chemical_formula_sum "Si O2"
_cell_formula_units_Z 32
_cell_length_a 13.603803
_cell_length_b 17.410845
_cell_length_c 7.497645
_cell_angle_alpha 90.000000
_cell_angle_beta 90.000000
_cell_angle_gamma 90.000000
_cell_volume 1775.845000
_symmetry_space_group_name_H-M "I M M 2"
_symmetry_group_IT_number 44
_symmetry_cell_setting 'orthorhombic'
loop_
_space_group_symop_operation_xyz
x,y,z
-x,-y,z
-x,y,z
x,-y,z
1/2+x,1/2+y,1/2+z
1/2-x,1/2-y,1/2+z
1/2-x,1/2+y,1/2+z
1/2+x,1/2-y,1/2+z
loop_
_atom_site_type_symbol
_atom_site_label
_atom_site_fract_x
_atom_site_fract_y
_atom_site_fract_z
Si Si1 0.386620 0.587645 0.276630
Si Si2 0.611685 0.089382 0.223078
Si Si3 0.236128 0.847971 0.462734
Si Si4 0.777874 0.821759 0.076981
O O1 0.500000 0.605843 0.239952
O O2 0.370793 0.500000 0.338545
O O3 0.350556 0.644268 0.430804
O O4 0.329086 0.601108 0.093257
O O5 0.500000 0.119068 0.227394
O O6 0.662369 0.106932 0.415387
O O7 0.671238 0.135516 0.068530
O O8 0.617047 0.000000 0.177873
O O9 0.177167 0.834527 0.276033
O O10 0.263572 0.768256 0.554032
#
# Coordination Sequence:
#
# PCOD8189994 Si02
#       4
#     8   8   8   8
#     4  11  23  39  60  87 120 157 197 240 290 349
#     4   9  19  37  60  83 112 149 189 238 290 341
#     4  10  21  37  60  87 117 153 193 240 292 345
#     4  10  21  37  60  87 117 153 193 240 292 345
#
# _framework density 18.019590999999998
#
# number of rings (size 3 to 8) (size 9 to 14) (size 15 to 20)
#    1.500    0.500    2.500    1.500    0.000    5.000 
#    0.000    3.750    0.000    4.500    0.000    0.000 
#    0.000    0.000    0.000    0.000    0.000    0.000 
#
# Total GULP energy -198284.158285 kJ/mol
# GULP energy per Si atom -12392.759893 kJ/mol
# Density = 1.797858 g / cm^3
# Si number density = 18.019591 Si / 1000 Ang^3
#
#
#
# Elastic Constant Matrix: (Units=GPa)
#
#
# Indices 1 2 3 4 5 6 
#
# 1 81.6318 25.1006 3.5911 0.0000 0.0000 0.0000
# 2 25.1006 65.1375 -7.0497 0.0000 0.0000 0.0000
# 3 3.5911 -7.0497 65.2253 0.0000 0.0000 0.0000
# 4 0.0000 0.0000 0.0000 27.2582 0.0000 0.0000
# 5 0.0000 0.0000 0.0000 0.0000 32.6316 0.0000
# 6 0.0000 0.0000 0.0000 0.0000 0.0000 13.9111
#
#
#
# Elastic Compliance Matrix: (Units=1/GPa)
#
#
# Indices 1 2 3 4 5 6 
#
# 1 0.014017 -0.005550 -0.001372 0.000000 0.000000 0.000000
# 2 -0.005550 0.017731 0.002222 0.000000 0.000000 0.000000
# 3 -0.001372 0.002222 0.015647 0.000000 0.000000 0.000000
# 4 0.000000 0.000000 0.000000 0.036686 0.000000 0.000000
# 5 0.000000 0.000000 0.000000 0.000000 0.030645 0.000000
# 6 0.000000 0.000000 0.000000 0.000000 0.000000 0.071885
#
#
# Mechanical properties :
#
#
# Convention : Reuss Voigt Hill
#
# Bulk Modulus (GPa) = 26.31823 28.36429 27.34126
# Shear Modulus (GPa) = 23.96058 27.45035 25.70547
#
# Velocity S-wave (km/s) = 3.65046 3.90726 3.78104
# Velocity P-wave (km/s) = 5.69252 6.01087 5.85386
#
# Compressibility (1/GPa) = 0.03799648
#
# Stress axis : x y z
#
# Youngs Moduli (GPa) = 71.34220 56.39769 63.90945
#
# Poissons Ratio (x) = 0.31300 0.08766
# Poissons Ratio (y) = 0.39594 -0.14201
# Poissons Ratio (z) = 0.09785 -0.12531
#
# Static dielectric constant tensor:
#      x y z
#    x 3.231830 0.000000 0.000000 
#    y 0.000000 3.367480 0.000000 
#    z 0.000000 0.000000 3.223570 
# 
# 
# High freq. dielectric constant tensor:
#      x y z
#    x 1.682260 0.000000 0.000000 
#    y 0.000000 1.713420 0.000000 
#    z 0.000000 0.000000 1.689800 
# 
# From -- ./inp_files/1838.got.cif
#   From: 2010.03.12/outbox.cif.g09.slc.cpg/sg44_1_cif.got.tgz:1838.got - 2010.04.14 02:36:11.
