data_PCOD8189111
_publ_section_title
;
Structure prediction by ZEFSAII (Michael W. Deem and Ramdas Pophale) SiO2 
 PCOD8189111
Probable space group: I M M 2
;
_chemical_formula_sum "Si O2"
_cell_formula_units_Z 56
_cell_length_a 9.229057
_cell_length_b 13.654637
_cell_length_c 29.465100
_cell_angle_alpha 90.000000
_cell_angle_beta 90.000000
_cell_angle_gamma 90.000000
_cell_volume 3713.174906
_symmetry_space_group_name_H-M "I M M 2"
_symmetry_group_IT_number 44
_symmetry_cell_setting 'orthorhombic'
loop_
_space_group_symop_operation_xyz
x,y,z
-x,-y,z
-x,y,z
x,-y,z
1/2+x,1/2+y,1/2+z
1/2-x,1/2-y,1/2+z
1/2-x,1/2+y,1/2+z
1/2+x,1/2-y,1/2+z
loop_
_atom_site_type_symbol
_atom_site_label
_atom_site_fract_x
_atom_site_fract_y
_atom_site_fract_z
Si Si1 0.167439 0.613102 0.514990
Si Si2 0.672631 0.109306 0.377495
Si Si3 0.169316 0.887573 0.192211
Si Si4 0.328610 0.226625 0.463899
Si Si5 0.838982 0.383385 0.778344
Si Si6 0.829965 0.606839 0.051154
Si Si7 0.171872 0.201214 0.098104
O O1 0.182562 0.500000 0.501946
O O2 0.243532 0.673514 0.474493
O O3 0.246964 0.631372 0.562755
O O4 0.000000 0.644503 0.519455
O O5 0.500000 0.103118 0.377882
O O6 0.726670 0.184783 0.415744
O O7 0.723777 0.148144 0.327794
O O8 0.734614 0.000000 0.387142
O O9 0.241759 0.842329 0.237321
O O10 0.221678 0.826146 0.148700
O O11 0.000000 0.877755 0.199464
O O12 0.215564 0.000000 0.184439
O O13 0.500000 0.248328 0.464234
O O14 0.286275 0.146326 0.501655
O O15 0.841852 0.500000 0.777291
O O16 0.000000 0.340881 0.771419
O O17 0.756433 0.500000 0.059576
O O18 0.781943 0.685803 0.089172
O O19 0.000000 0.593398 0.053409
O O20 0.000000 0.185442 0.091156
#
# Coordination Sequence:
#
# PCOD8189111 Si02
#       7
#     8   8   8   8   8   8   8
#     4  10  20  31  41  56  81 109 134 164 202 240
#     4   8  13  23  41  64  86 106 132 166 198 231
#     4   9  16  25  37  55  80 106 132 165 201 234
#     4   9  16  26  43  63  80 103 134 163 194 234
#     4   8  14  24  38  57  81 107 132 158 192 236
#     4   8  13  22  38  60  81  99 124 160 197 231
#     4   9  17  28  43  61  79 104 138 170 199 233
#
# _framework density 15.081433000000001
#
# number of rings (size 3 to 8) (size 9 to 14) (size 15 to 20)
#    0.000    3.286    0.000    3.000    0.000    4.000 
#    0.000    2.143    0.000   11.571    0.000    1.000 
#    0.000    3.429    0.000    0.000    0.000    0.000 
#
# Total GULP energy -346996.956556 kJ/mol
# GULP energy per Si atom -12392.748448 kJ/mol
# Density = 1.504711 g / cm^3
# Si number density = 15.081433 Si / 1000 Ang^3
#
#
#
# Elastic Constant Matrix: (Units=GPa)
#
#
# Indices 1 2 3 4 5 6 
#
# 1 38.6610 28.8109 38.6159 0.0000 0.0000 0.0000
# 2 28.8109 83.6471 58.9381 0.0000 0.0000 0.0000
# 3 38.6159 58.9381 152.7546 0.0000 0.0000 0.0000
# 4 0.0000 0.0000 0.0000 23.4956 0.0000 0.0000
# 5 0.0000 0.0000 0.0000 0.0000 21.6416 0.0000
# 6 0.0000 0.0000 0.0000 0.0000 0.0000 12.7455
#
#
#
# Elastic Compliance Matrix: (Units=1/GPa)
#
#
# Indices 1 2 3 4 5 6 
#
# 1 0.038878 -0.008880 -0.006402 0.000000 0.000000 0.000000
# 2 -0.008880 0.018447 -0.004873 0.000000 0.000000 0.000000
# 3 -0.006402 -0.004873 0.010045 0.000000 0.000000 0.000000
# 4 0.000000 0.000000 0.000000 0.042561 0.000000 0.000000
# 5 0.000000 0.000000 0.000000 0.000000 0.046207 0.000000
# 6 0.000000 0.000000 0.000000 0.000000 0.000000 0.078459
#
#
# Mechanical properties :
#
#
# Convention : Reuss Voigt Hill
#
# Bulk Modulus (GPa) = 36.95436 58.64364 47.79900
# Shear Modulus (GPa) = 17.61018 21.48972 19.54995
#
# Velocity S-wave (km/s) = 3.42083 3.77890 3.60431
# Velocity P-wave (km/s) = 6.33713 7.61637 7.00601
#
# Compressibility (1/GPa) = 0.02706041
#
# Stress axis : x y z
#
# Youngs Moduli (GPa) = 25.72157 54.20996 99.55321
#
# Poissons Ratio (x) = 0.48138 0.63734
# Poissons Ratio (y) = 0.22841 0.48508
# Poissons Ratio (z) = 0.16467 0.26414
#
# Static dielectric constant tensor:
#      x y z
#    x 2.721110 0.000000 0.000000 
#    y 0.000000 2.886730 0.000000 
#    z 0.000000 0.000000 3.141950 
# 
# 
# High freq. dielectric constant tensor:
#      x y z
#    x 1.552050 0.000000 0.000000 
#    y 0.000000 1.550090 0.000000 
#    z 0.000000 0.000000 1.577730 
# 
# From -- ./inp_files/26408.got.cif
#   From: 2010.03.12/outbox.cif.g09.slc.cpg/sg44_14_cif.got.tgz:26408.got - 2010.04.14 02:36:11.
