data_PCOD8189542
_publ_section_title
;
Structure prediction by ZEFSAII (Michael W. Deem and Ramdas Pophale) SiO2 
 PCOD8189542
Probable space group: I M M 2
;
_chemical_formula_sum "Si O2"
_cell_formula_units_Z 64
_cell_length_a 8.409646
_cell_length_b 17.951432
_cell_length_c 20.788521
_cell_angle_alpha 90.000000
_cell_angle_beta 90.000000
_cell_angle_gamma 90.000000
_cell_volume 3138.342988
_symmetry_space_group_name_H-M "I M M 2"
_symmetry_group_IT_number 44
_symmetry_cell_setting 'orthorhombic'
loop_
_space_group_symop_operation_xyz
x,y,z
-x,-y,z
-x,y,z
x,-y,z
1/2+x,1/2+y,1/2+z
1/2-x,1/2-y,1/2+z
1/2-x,1/2+y,1/2+z
1/2+x,1/2-y,1/2+z
loop_
_atom_site_type_symbol
_atom_site_label
_atom_site_fract_x
_atom_site_fract_y
_atom_site_fract_z
Si Si1 0.310809 0.416305 0.410330
Si Si2 0.812798 0.416956 0.909562
Si Si3 0.315020 0.671942 0.285565
Si Si4 0.814890 0.166104 0.288032
Si Si5 0.689399 0.584014 0.661090
Si Si6 0.189144 0.663450 0.035766
Si Si7 0.184714 0.412620 0.166722
Si Si8 0.189748 0.831468 0.035831
O O1 0.500000 0.419099 0.411658
O O2 0.241206 0.500000 0.409134
O O3 0.251137 0.372907 0.347377
O O4 0.244809 0.374178 0.473178
O O5 0.740309 0.500000 0.900362
O O6 0.775199 0.364774 0.849677
O O7 0.000000 0.422678 0.917204
O O8 0.740469 0.380172 0.974144
O O9 0.500000 0.692048 0.292900
O O10 0.214047 0.746691 0.279503
O O11 0.289354 0.621259 0.223423
O O12 0.747421 0.124444 0.225083
O O13 0.000000 0.149961 0.296681
O O14 0.500000 0.584640 0.659629
O O15 0.755390 0.500000 0.660138
O O16 0.756610 0.627294 0.599037
O O17 0.246523 0.622446 0.100169
O O18 0.256103 0.747467 0.035257
O O19 0.000000 0.664408 0.032432
O O20 0.214928 0.500000 0.163665
O O21 0.000000 0.393527 0.178507
O O22 0.000000 0.831622 0.036082
#
# Coordination Sequence:
#
# PCOD8189542 Si02
#       8
#     8   8   8   8   8   8   8   8
#     4   9  17  29  47  73 103 133 166 209 263 318
#     4  10  20  35  56  81 109 143 183 225 271 326
#     4  11  22  36  54  77 108 143 180 225 275 329
#     4  11  22  36  54  77 108 143 180 225 275 329
#     4   9  17  29  47  73 103 133 166 209 263 318
#     4   9  17  31  52  79 110 143 180 222 268 321
#     4  10  20  35  56  81 109 143 183 225 271 326
#     4   9  15  25  45  72 102 133 168 212 258 309
#
# _framework density 20.392928000000001
#
# number of rings (size 3 to 8) (size 9 to 14) (size 15 to 20)
#    0.000    2.250    0.000    3.750    0.000    8.500 
#    0.000    0.625    0.000    1.500    0.000    2.625 
#    0.000   12.000    0.000    0.000    0.000    0.000 
#
# Total GULP energy -396878.450196 kJ/mol
# GULP energy per Si atom -12402.451569 kJ/mol
# Density = 2.034651 g / cm^3
# Si number density = 20.392928 Si / 1000 Ang^3
#
#
#
# Elastic Constant Matrix: (Units=GPa)
#
#
# Indices 1 2 3 4 5 6 
#
# 1 12.9174 9.2084 9.2976 0.0000 0.0000 0.0000
# 2 9.2084 167.3804 81.7398 0.0000 0.0000 0.0000
# 3 9.2976 81.7398 191.5399 0.0000 0.0000 0.0000
# 4 0.0000 0.0000 0.0000 49.3785 0.0000 0.0000
# 5 0.0000 0.0000 0.0000 0.0000 22.5764 0.0000
# 6 0.0000 0.0000 0.0000 0.0000 0.0000 19.1098
#
#
#
# Elastic Compliance Matrix: (Units=1/GPa)
#
#
# Indices 1 2 3 4 5 6 
#
# 1 0.081574 -0.003226 -0.002583 0.000000 0.000000 0.000000
# 2 -0.003226 0.007675 -0.003119 0.000000 0.000000 0.000000
# 3 -0.002583 -0.003119 0.006677 0.000000 0.000000 0.000000
# 4 0.000000 0.000000 0.000000 0.020252 0.000000 0.000000
# 5 0.000000 0.000000 0.000000 0.000000 0.044294 0.000000
# 6 0.000000 0.000000 0.000000 0.000000 0.000000 0.052329
#
#
# Mechanical properties :
#
#
# Convention : Reuss Voigt Hill
#
# Bulk Modulus (GPa) = 12.80902 63.59215 38.20058
# Shear Modulus (GPa) = 19.47951 36.31906 27.89929
#
# Velocity S-wave (km/s) = 3.09400 4.22472 3.70278
# Velocity P-wave (km/s) = 4.36561 7.41949 6.08717
#
# Compressibility (1/GPa) = 0.07806998
#
# Stress axis : x y z
#
# Youngs Moduli (GPa) = 12.25884 130.29477 149.76539
#
# Poissons Ratio (x) = 0.42039 0.38682
# Poissons Ratio (y) = 0.03955 0.46707
# Poissons Ratio (z) = 0.03166 0.40634
#
# Static dielectric constant tensor:
#      x y z
#    x 3.050570 0.000000 0.000000 
#    y 0.000000 3.931950 0.000000 
#    z 0.000000 0.000000 3.901630 
# 
# 
# High freq. dielectric constant tensor:
#      x y z
#    x 1.736820 0.000000 0.000000 
#    y 0.000000 1.816780 0.000000 
#    z 0.000000 0.000000 1.816060 
# 
# From -- ./inp_files/23257.got.cif
#   From: 2010.03.12/outbox.cif.g09.slc.cpg/sg44_12_cif.got.tgz:23257.got - 2010.04.14 02:36:11.
