data_PCOD8189572
_publ_section_title
;
Structure prediction by ZEFSAII (Michael W. Deem and Ramdas Pophale) SiO2 
 PCOD8189572
Probable space group: I M M 2
;
_chemical_formula_sum "Si O2"
_cell_formula_units_Z 32
_cell_length_a 8.717008
_cell_length_b 10.284078
_cell_length_c 17.687385
_cell_angle_alpha 90.000000
_cell_angle_beta 90.000000
_cell_angle_gamma 90.000000
_cell_volume 1585.610217
_symmetry_space_group_name_H-M "I M M 2"
_symmetry_group_IT_number 44
_symmetry_cell_setting 'orthorhombic'
loop_
_space_group_symop_operation_xyz
x,y,z
-x,-y,z
-x,y,z
x,-y,z
1/2+x,1/2+y,1/2+z
1/2-x,1/2-y,1/2+z
1/2-x,1/2+y,1/2+z
1/2+x,1/2-y,1/2+z
loop_
_atom_site_type_symbol
_atom_site_label
_atom_site_fract_x
_atom_site_fract_y
_atom_site_fract_z
Si Si1 0.181249 0.769988 0.979040
Si Si2 0.179040 0.000000 0.720280
Si Si3 0.180386 0.500000 0.383511
Si Si4 0.182442 0.500000 0.912754
Si Si5 0.818316 0.500000 0.744188
Si Si6 0.819980 0.733481 0.640142
O O1 0.242229 0.627004 0.956575
O O2 0.000000 0.780500 0.971725
O O3 0.252675 0.871886 0.921603
O O4 0.230845 0.799679 0.063949
O O5 0.278169 0.000000 0.795610
O O6 0.223238 0.124375 0.670247
O O7 0.000000 0.000000 0.742604
O O8 0.000000 0.500000 0.394005
O O9 0.252277 0.500000 0.828199
O O10 0.000000 0.500000 0.909345
O O11 0.762184 0.629165 0.701450
O O12 0.000000 0.500000 0.749602
O O13 0.000000 0.719942 0.624043
#
# Coordination Sequence:
#
# PCOD8189572 Si02
#       6
#     8   4   4   4   4   8
#     4  11  22  38  61  87 117 153 194 241 296 357
#     4  10  21  38  60  85 116 156 197 238 291 354
#     4  12  25  40  59  85 119 158 203 252 297 344
#     4   9  19  36  59  85 111 145 190 237 286 344
#     4   9  17  32  54  77 104 141 184 227 272 326
#     4  10  20  35  57  84 115 150 188 233 286 347
#
# _framework density 20.181505000000001
#
# number of rings (size 3 to 8) (size 9 to 14) (size 15 to 20)
#    0.000    1.750    0.000    4.875    0.000    6.000 
#    0.000    1.875    0.000    3.000    0.000    0.000 
#    0.000    0.000    0.000    0.000    0.000    0.000 
#
# Total GULP energy -198474.349351 kJ/mol
# GULP energy per Si atom -12404.646834 kJ/mol
# Density = 2.013557 g / cm^3
# Si number density = 20.181505 Si / 1000 Ang^3
#
#
#
# Elastic Constant Matrix: (Units=GPa)
#
#
# Indices 1 2 3 4 5 6 
#
# 1 62.3551 17.4064 19.9166 0.0000 0.0000 0.0000
# 2 17.4064 97.0915 0.6390 0.0000 0.0000 0.0000
# 3 19.9166 0.6390 91.6836 0.0000 0.0000 0.0000
# 4 0.0000 0.0000 0.0000 45.8247 0.0000 0.0000
# 5 0.0000 0.0000 0.0000 0.0000 36.7394 0.0000
# 6 0.0000 0.0000 0.0000 0.0000 0.0000 12.8169
#
#
#
# Elastic Compliance Matrix: (Units=1/GPa)
#
#
# Indices 1 2 3 4 5 6 
#
# 1 0.018196 -0.003236 -0.003930 0.000000 0.000000 0.000000
# 2 -0.003236 0.010876 0.000627 0.000000 0.000000 0.000000
# 3 -0.003930 0.000627 0.011756 0.000000 0.000000 0.000000
# 4 0.000000 0.000000 0.000000 0.021822 0.000000 0.000000
# 5 0.000000 0.000000 0.000000 0.000000 0.027219 0.000000
# 6 0.000000 0.000000 0.000000 0.000000 0.000000 0.078022
#
#
# Mechanical properties :
#
#
# Convention : Reuss Voigt Hill
#
# Bulk Modulus (GPa) = 36.03661 36.33935 36.18798
# Shear Modulus (GPa) = 26.28546 33.28741 29.78644
#
# Velocity S-wave (km/s) = 3.61287 4.06569 3.84595
# Velocity P-wave (km/s) = 5.94128 6.33128 6.13938
#
# Compressibility (1/GPa) = 0.02774956
#
# Stress axis : x y z
#
# Youngs Moduli (GPa) = 54.95736 91.94865 85.05953
#
# Poissons Ratio (x) = 0.29757 0.33430
# Poissons Ratio (y) = 0.17786 -0.05335
# Poissons Ratio (z) = 0.21599 -0.05767
#
# Static dielectric constant tensor:
#      x y z
#    x 3.353600 0.000000 0.000000 
#    y 0.000000 3.962880 0.000000 
#    z 0.000000 0.000000 3.749370 
# 
# 
# High freq. dielectric constant tensor:
#      x y z
#    x 1.758360 0.000000 0.000000 
#    y 0.000000 1.809860 0.000000 
#    z 0.000000 0.000000 1.803590 
# 
# From -- ./inp_files/15560.got.cif
#   From: 2010.03.12/outbox.cif.g09.slc.cpg/sg44_8_cif.got.tgz:15560.got - 2010.04.14 02:36:11.
