data_PCOD8189101
_publ_section_title
;
Structure prediction by ZEFSAII (Michael W. Deem and Ramdas Pophale) SiO2 
 PCOD8189101
Probable space group: I M M 2
;
_chemical_formula_sum "Si O2"
_cell_formula_units_Z 64
_cell_length_a 9.330778
_cell_length_b 18.547304
_cell_length_c 26.009480
_cell_angle_alpha 90.000000
_cell_angle_beta 90.000000
_cell_angle_gamma 90.000000
_cell_volume 4501.220795
_symmetry_space_group_name_H-M "I M M 2"
_symmetry_group_IT_number 44
_symmetry_cell_setting 'orthorhombic'
loop_
_space_group_symop_operation_xyz
x,y,z
-x,-y,z
-x,y,z
x,-y,z
1/2+x,1/2+y,1/2+z
1/2-x,1/2-y,1/2+z
1/2-x,1/2+y,1/2+z
1/2+x,1/2-y,1/2+z
loop_
_atom_site_type_symbol
_atom_site_label
_atom_site_fract_x
_atom_site_fract_y
_atom_site_fract_z
Si Si1 0.334248 0.795508 0.542400
Si Si2 0.332404 0.916686 0.782737
Si Si3 0.334173 0.416785 0.383760
Si Si4 0.661910 0.779792 0.128302
Si Si5 0.666639 0.418587 0.083315
Si Si6 0.833584 0.844812 0.988376
Si Si7 0.661714 0.347243 0.193037
Si Si8 0.335126 0.920297 0.078899
O O1 0.500000 0.815115 0.548074
O O2 0.283282 0.751669 0.591873
O O3 0.247093 0.870625 0.539892
O O4 0.306283 0.741624 0.494156
O O5 0.500000 0.902639 0.787832
O O6 0.258457 0.891326 0.835265
O O7 0.272929 0.869399 0.736259
O O8 0.296630 0.000000 0.771438
O O9 0.500000 0.404292 0.370163
O O10 0.303902 0.500000 0.397508
O O11 0.284426 0.368107 0.431641
O O12 0.500000 0.761837 0.107414
O O13 0.677746 0.739606 0.183360
O O14 0.684218 0.866646 0.128388
O O15 0.500000 0.415172 0.070540
O O16 0.724922 0.500000 0.079884
O O17 0.698692 0.388776 0.140278
O O18 0.000000 0.863128 0.996994
O O19 0.748247 0.891315 0.029691
O O20 0.500000 0.366534 0.210768
O O21 0.500000 0.923587 0.062359
O O22 0.279386 0.000000 0.094488
#
# Coordination Sequence:
#
# PCOD8189101 Si02
#       8
#     8   8   8   8   8   8   8   8
#     4   9  16  25  38  57  79 101 127 160 195 227
#     4  10  20  30  39  55  78  99 123 161 201 229
#     4   9  17  29  43  56  73 101 134 162 187 221
#     4   8  15  27  39  53  76 104 132 159 188 226
#     4   9  17  28  41  57  78 105 135 162 188 225
#     4   9  17  28  41  57  78 105 134 161 191 227
#     4   9  16  27  42  55  71 101 135 160 186 224
#     4   9  16  25  39  59  81 105 132 161 192 225
#
# _framework density 14.218366
#
# number of rings (size 3 to 8) (size 9 to 14) (size 15 to 20)
#    0.000    3.000    0.000    2.250    0.000    5.250 
#    0.000    1.250    0.000    0.000    0.000    0.000 
#    0.000    1.000    0.000    7.500    0.000    3.000 
#
# Total GULP energy -396521.280371 kJ/mol
# GULP energy per Si atom -12391.290012 kJ/mol
# Density = 1.418600 g / cm^3
# Si number density = 14.218366 Si / 1000 Ang^3
#
#
#
# Elastic Constant Matrix: (Units=GPa)
#
#
# Indices 1 2 3 4 5 6 
#
# 1 54.8445 41.3921 38.6657 0.0000 0.0000 0.0000
# 2 41.3921 116.5312 51.3791 0.0000 0.0000 0.0000
# 3 38.6657 51.3791 71.4312 0.0000 0.0000 0.0000
# 4 0.0000 0.0000 0.0000 23.0285 0.0000 0.0000
# 5 0.0000 0.0000 0.0000 0.0000 19.6510 0.0000
# 6 0.0000 0.0000 0.0000 0.0000 0.0000 19.8135
#
#
#
# Elastic Compliance Matrix: (Units=1/GPa)
#
#
# Indices 1 2 3 4 5 6 
#
# 1 0.031649 -0.005401 -0.013246 0.000000 0.000000 0.000000
# 2 -0.005401 0.013489 -0.006778 0.000000 0.000000 0.000000
# 3 -0.013246 -0.006778 0.026045 0.000000 0.000000 0.000000
# 4 0.000000 0.000000 0.000000 0.043424 0.000000 0.000000
# 5 0.000000 0.000000 0.000000 0.000000 0.050888 0.000000
# 6 0.000000 0.000000 0.000000 0.000000 0.000000 0.050471
#
#
# Mechanical properties :
#
#
# Convention : Reuss Voigt Hill
#
# Bulk Modulus (GPa) = 49.18727 56.18673 52.68700
# Shear Modulus (GPa) = 18.27526 19.92328 19.09927
#
# Velocity S-wave (km/s) = 3.58904 3.74737 3.66906
# Velocity P-wave (km/s) = 7.20029 7.63718 7.42195
#
# Compressibility (1/GPa) = 0.02033046
#
# Stress axis : x y z
#
# Youngs Moduli (GPa) = 31.59701 74.13712 38.39467
#
# Poissons Ratio (x) = 0.40043 0.50859
# Poissons Ratio (y) = 0.17066 0.26025
# Poissons Ratio (z) = 0.41855 0.50253
#
# Static dielectric constant tensor:
#      x y z
#    x 2.823020 0.000000 0.000000 
#    y 0.000000 3.094310 0.000000 
#    z 0.000000 0.000000 2.574580 
# 
# 
# High freq. dielectric constant tensor:
#      x y z
#    x 1.550340 0.000000 0.000000 
#    y 0.000000 1.539820 0.000000 
#    z 0.000000 0.000000 1.501360 
# 
# From -- ./inp_files/25218.got.cif
#   From: 2010.03.12/outbox.cif.g09.slc.cpg/sg44_13_cif.got.tgz:25218.got - 2010.04.14 02:36:11.
