data_PCOD8189156
_publ_section_title
;
Structure prediction by ZEFSAII (Michael W. Deem and Ramdas Pophale) SiO2 
 PCOD8189156
Probable space group: I M M 2
;
_chemical_formula_sum "Si O2"
_cell_formula_units_Z 64
_cell_length_a 19.728856
_cell_length_b 8.967367
_cell_length_c 20.971015
_cell_angle_alpha 90.000000
_cell_angle_beta 90.000000
_cell_angle_gamma 90.000000
_cell_volume 3710.105830
_symmetry_space_group_name_H-M "I M M 2"
_symmetry_group_IT_number 44
_symmetry_cell_setting 'orthorhombic'
loop_
_space_group_symop_operation_xyz
x,y,z
-x,-y,z
-x,y,z
x,-y,z
1/2+x,1/2+y,1/2+z
1/2-x,1/2-y,1/2+z
1/2-x,1/2+y,1/2+z
1/2+x,1/2-y,1/2+z
loop_
_atom_site_type_symbol
_atom_site_label
_atom_site_fract_x
_atom_site_fract_y
_atom_site_fract_z
Si Si1 0.705802 0.323297 0.501100
Si Si2 0.076766 0.674608 0.046068
Si Si3 0.292840 0.324093 0.747700
Si Si4 0.426255 0.176284 0.080494
Si Si5 0.425117 0.669030 0.949522
Si Si6 0.286654 0.326164 0.888380
Si Si7 0.285848 0.822351 0.126405
Si Si8 0.424492 0.671377 0.678942
O O1 0.702835 0.500000 0.498962
O O2 0.629472 0.259238 0.500304
O O3 0.743480 0.266912 0.438289
O O4 0.744809 0.264695 0.564385
O O5 0.090834 0.500000 0.041794
O O6 0.088410 0.725942 0.118259
O O7 0.000000 0.713346 0.024093
O O8 0.283938 0.500000 0.749197
O O9 0.271076 0.263451 0.817190
O O10 0.246030 0.255847 0.691378
O O11 0.371202 0.282878 0.733464
O O12 0.500000 0.238346 0.104047
O O13 0.363952 0.234863 0.123721
O O14 0.427070 0.000000 0.082152
O O15 0.411993 0.222419 0.008335
O O16 0.500000 0.698324 0.919483
O O17 0.420238 0.500000 0.975216
O O18 0.367251 0.699215 0.897556
O O19 0.267767 0.500000 0.895540
O O20 0.282059 0.000000 0.126844
O O21 0.500000 0.694406 0.706789
O O22 0.412828 0.500000 0.657189
#
# Coordination Sequence:
#
# PCOD8189156 Si02
#       8
#     8   8   8   8   8   8   8   8
#     4  11  20  33  54  75  98 129 170 213 251 298
#     4  10  20  33  51  77 106 131 160 204 256 305
#     4   9  17  30  47  69  98 132 167 206 247 290
#     4   9  16  27  46  70  93 120 157 200 243 284
#     4   9  17  28  42  65  97 128 159 194 235 288
#     4  10  20  32  48  70 100 136 170 206 254 302
#     4   9  16  28  48  72  94 122 163 208 246 285
#     4   9  16  28  48  73 100 134 175 208 241 293
#
# _framework density 17.250181000000001
#
# number of rings (size 3 to 8) (size 9 to 14) (size 15 to 20)
#    0.000    2.500    2.500    0.750    0.000    1.250 
#    0.000    3.125    0.000    0.750    0.000    7.000 
#    0.000    0.000    0.000    0.000    0.000    0.000 
#
# Total GULP energy -396598.425612 kJ/mol
# GULP energy per Si atom -12393.700800 kJ/mol
# Density = 1.721092 g / cm^3
# Si number density = 17.250181 Si / 1000 Ang^3
#
#
#
# Elastic Constant Matrix: (Units=GPa)
#
#
# Indices 1 2 3 4 5 6 
#
# 1 133.6462 35.6256 75.7381 0.0000 0.0000 0.0000
# 2 35.6256 35.1987 25.0626 0.0000 0.0000 0.0000
# 3 75.7381 25.0626 119.9198 0.0000 0.0000 0.0000
# 4 0.0000 0.0000 0.0000 18.9895 0.0000 0.0000
# 5 0.0000 0.0000 0.0000 0.0000 23.7283 0.0000
# 6 0.0000 0.0000 0.0000 0.0000 0.0000 20.3900
#
#
#
# Elastic Compliance Matrix: (Units=1/GPa)
#
#
# Indices 1 2 3 4 5 6 
#
# 1 0.013749 -0.009085 -0.006785 0.000000 0.000000 0.000000
# 2 -0.009085 0.039380 -0.002492 0.000000 0.000000 0.000000
# 3 -0.006785 -0.002492 0.013145 0.000000 0.000000 0.000000
# 4 0.000000 0.000000 0.000000 0.052661 0.000000 0.000000
# 5 0.000000 0.000000 0.000000 0.000000 0.042144 0.000000
# 6 0.000000 0.000000 0.000000 0.000000 0.000000 0.049044
#
#
# Mechanical properties :
#
#
# Convention : Reuss Voigt Hill
#
# Bulk Modulus (GPa) = 33.84142 62.40192 48.12167
# Shear Modulus (GPa) = 19.47824 22.77745 21.12785
#
# Velocity S-wave (km/s) = 3.36395 3.63770 3.50350
# Velocity P-wave (km/s) = 5.89481 7.34146 6.65754
#
# Compressibility (1/GPa) = 0.02954958
#
# Stress axis : x y z
#
# Youngs Moduli (GPa) = 72.73138 25.39369 76.07453
#
# Poissons Ratio (x) = 0.23070 0.51616
# Poissons Ratio (y) = 0.66075 0.18961
# Poissons Ratio (z) = 0.49348 0.06329
#
# Static dielectric constant tensor:
#      x y z
#    x 3.684690 0.000000 0.000000 
#    y 0.000000 3.006210 0.000000 
#    z 0.000000 0.000000 3.124230 
# 
# 
# High freq. dielectric constant tensor:
#      x y z
#    x 1.679930 0.000000 0.000000 
#    y 0.000000 1.640540 0.000000 
#    z 0.000000 0.000000 1.634970 
# 
# From -- ./inp_files/20732.got.cif
#   From: 2010.03.12/outbox.cif.g09.slc.cpg/sg44_11_cif.got.tgz:20732.got - 2010.04.14 02:36:11.
