data_PCOD8189654
_publ_section_title
;
Structure prediction by ZEFSAII (Michael W. Deem and Ramdas Pophale) SiO2 
 PCOD8189654
Probable space group: I M M 2
;
_chemical_formula_sum "Si O2"
_cell_formula_units_Z 64
_cell_length_a 24.418372
_cell_length_b 9.074671
_cell_length_c 15.092274
_cell_angle_alpha 90.000000
_cell_angle_beta 90.000000
_cell_angle_gamma 90.000000
_cell_volume 3344.277259
_symmetry_space_group_name_H-M "I M M 2"
_symmetry_group_IT_number 44
_symmetry_cell_setting 'orthorhombic'
loop_
_space_group_symop_operation_xyz
x,y,z
-x,-y,z
-x,y,z
x,-y,z
1/2+x,1/2+y,1/2+z
1/2-x,1/2-y,1/2+z
1/2-x,1/2+y,1/2+z
1/2+x,1/2-y,1/2+z
loop_
_atom_site_type_symbol
_atom_site_label
_atom_site_fract_x
_atom_site_fract_y
_atom_site_fract_z
Si Si1 0.608997 0.326045 0.095630
Si Si2 0.716023 0.166873 0.124100
Si Si3 0.436045 0.829610 0.267996
Si Si4 0.851140 0.327209 0.284331
Si Si5 0.861780 0.328372 0.930178
Si Si6 0.756725 0.667006 0.822576
Si Si7 0.159985 0.826360 0.103121
Si Si8 0.562238 0.831842 0.931361
O O1 0.608288 0.500000 0.098934
O O2 0.671191 0.271933 0.079406
O O3 0.584610 0.265734 0.186492
O O4 0.571648 0.271651 0.015395
O O5 0.711473 0.182840 0.229853
O O6 0.776135 0.216104 0.092543
O O7 0.703673 0.000000 0.094260
O O8 0.500000 0.803905 0.283041
O O9 0.405592 0.777045 0.357079
O O10 0.422188 0.000000 0.247662
O O11 0.848040 0.500000 0.265723
O O12 0.794300 0.276776 0.329285
O O13 0.863285 0.244959 0.192507
O O14 0.899904 0.283493 0.349908
O O15 0.868920 0.500000 0.951494
O O16 0.800196 0.292811 0.898061
O O17 0.873028 0.236741 0.019380
O O18 0.734582 0.500000 0.832061
O O19 0.151750 0.000000 0.110233
O O20 0.500000 0.813325 0.899373
O O21 0.574784 0.000000 0.959623
#
# Coordination Sequence:
#
# PCOD8189654 Si02
#       8
#     8   8   8   8   8   8   8   8
#     4  12  24  35  55  88 121 151 187 235 290 342
#     4   9  18  36  56  78 113 155 194 225 270 339
#     4  10  21  40  63  83 112 157 200 236 279 335
#     4  10  21  38  61  86 111 145 193 243 288 340
#     4  10  20  36  58  86 117 151 194 239 283 336
#     4   9  18  34  56  83 116 150 183 230 286 339
#     4  10  22  38  58  84 118 156 190 234 290 344
#     4  10  23  43  63  82 109 150 197 240 284 340
#
# _framework density 19.137167999999999
#
# number of rings (size 3 to 8) (size 9 to 14) (size 15 to 20)
#    0.000    2.000    1.250    3.000    1.750    6.500 
#    0.000    0.625    0.000    3.750    0.000    0.000 
#    0.000    0.000    0.000    0.000    0.000    0.000 
#
# Total GULP energy -396924.637732 kJ/mol
# GULP energy per Si atom -12403.894929 kJ/mol
# Density = 1.909361 g / cm^3
# Si number density = 19.137168 Si / 1000 Ang^3
#
#
#
# Elastic Constant Matrix: (Units=GPa)
#
#
# Indices 1 2 3 4 5 6 
#
# 1 92.5999 47.5812 57.3435 0.0000 0.0000 0.0000
# 2 47.5812 96.3179 64.2935 0.0000 0.0000 0.0000
# 3 57.3435 64.2935 119.9933 0.0000 0.0000 0.0000
# 4 0.0000 0.0000 0.0000 27.6353 0.0000 0.0000
# 5 0.0000 0.0000 0.0000 0.0000 26.4376 0.0000
# 6 0.0000 0.0000 0.0000 0.0000 0.0000 23.6002
#
#
#
# Elastic Compliance Matrix: (Units=1/GPa)
#
#
# Indices 1 2 3 4 5 6 
#
# 1 0.016501 -0.004496 -0.005477 0.000000 0.000000 0.000000
# 2 -0.004496 0.017388 -0.007168 0.000000 0.000000 0.000000
# 3 -0.005477 -0.007168 0.014792 0.000000 0.000000 0.000000
# 4 0.000000 0.000000 0.000000 0.036186 0.000000 0.000000
# 5 0.000000 0.000000 0.000000 0.000000 0.037825 0.000000
# 6 0.000000 0.000000 0.000000 0.000000 0.000000 0.042372
#
#
# Mechanical properties :
#
#
# Convention : Reuss Voigt Hill
#
# Bulk Modulus (GPa) = 69.44717 71.92753 70.68735
# Shear Modulus (GPa) = 24.49243 24.84746 24.66995
#
# Velocity S-wave (km/s) = 3.58136 3.60722 3.59432
# Velocity P-wave (km/s) = 7.31228 7.41729 7.36498
#
# Compressibility (1/GPa) = 0.01439944
#
# Stress axis : x y z
#
# Youngs Moduli (GPa) = 60.60369 57.51081 67.60452
#
# Poissons Ratio (x) = 0.25854 0.37025
# Poissons Ratio (y) = 0.27245 0.48461
# Poissons Ratio (z) = 0.33191 0.41225
#
# Static dielectric constant tensor:
#      x y z
#    x 3.469140 0.000000 0.000000 
#    y 0.000000 3.400250 0.000000 
#    z 0.000000 0.000000 3.460280 
# 
# 
# High freq. dielectric constant tensor:
#      x y z
#    x 1.736580 0.000000 0.000000 
#    y 0.000000 1.739010 0.000000 
#    z 0.000000 0.000000 1.744980 
# 
# From -- ./inp_files/19494.got.cif
#   From: 2010.03.12/outbox.cif.g09.slc.cpg/sg44_10_cif.got.tgz:19494.got - 2010.04.14 02:36:11.
