data_PCOD8189627
_publ_section_title
;
Structure prediction by ZEFSAII (Michael W. Deem and Ramdas Pophale) SiO2 
 PCOD8189627
Probable space group: I M M 2
;
_chemical_formula_sum "Si O2"
_cell_formula_units_Z 64
_cell_length_a 24.825305
_cell_length_b 8.956276
_cell_length_c 15.166034
_cell_angle_alpha 90.000000
_cell_angle_beta 90.000000
_cell_angle_gamma 90.000000
_cell_volume 3372.050629
_symmetry_space_group_name_H-M "I M M 2"
_symmetry_group_IT_number 44
_symmetry_cell_setting 'orthorhombic'
loop_
_space_group_symop_operation_xyz
x,y,z
-x,-y,z
-x,y,z
x,-y,z
1/2+x,1/2+y,1/2+z
1/2-x,1/2-y,1/2+z
1/2-x,1/2+y,1/2+z
1/2+x,1/2-y,1/2+z
loop_
_atom_site_type_symbol
_atom_site_label
_atom_site_fract_x
_atom_site_fract_y
_atom_site_fract_z
Si Si1 0.278914 0.323634 0.347280
Si Si2 0.327514 0.328889 0.812335
Si Si3 0.384082 0.175673 0.307505
Si Si4 0.940474 0.675604 0.629333
Si Si5 0.265282 0.175100 0.531789
Si Si6 0.141143 0.171811 0.123266
Si Si7 0.938520 0.676348 0.990663
Si Si8 0.356596 0.328035 0.005483
O O1 0.279674 0.500000 0.361166
O O2 0.224270 0.276267 0.298211
O O3 0.329908 0.270144 0.290403
O O4 0.285078 0.238613 0.439225
O O5 0.307071 0.500000 0.821962
O O6 0.367500 0.311324 0.728930
O O7 0.358334 0.283407 0.902009
O O8 0.422805 0.221356 0.227465
O O9 0.412612 0.226250 0.398141
O O10 0.370988 0.000000 0.307790
O O11 0.941634 0.500000 0.620570
O O12 0.900761 0.732838 0.554655
O O13 0.000000 0.742642 0.613232
O O14 0.300276 0.256851 0.605741
O O15 0.202208 0.208450 0.546084
O O16 0.277798 0.000000 0.533844
O O17 0.141791 0.000000 0.094064
O O18 0.093207 0.252984 0.072467
O O19 0.935636 0.500000 0.001076
O O20 0.000000 0.733093 0.993865
O O21 0.370912 0.500000 0.018843
#
# Coordination Sequence:
#
# PCOD8189627 Si02
#       8
#     8   8   8   8   8   8   8   8
#     4  11  21  33  54  86 118 149 191 234 281 336
#     4   9  21  40  58  80 116 156 192 234 291 350
#     4  10  20  36  57  81 115 156 190 229 286 347
#     4  10  22  39  59  84 113 148 194 242 287 339
#     4  10  20  36  56  81 117 155 187 227 285 348
#     4  11  22  36  58  87 116 150 195 243 289 339
#     4  10  21  38  60  83 113 157 199 233 282 349
#     4   9  20  39  60  81 110 149 191 237 289 342
#
# _framework density 18.979548000000001
#
# number of rings (size 3 to 8) (size 9 to 14) (size 15 to 20)
#    0.000    2.000    1.250    3.000    1.750    6.000 
#    0.000    0.625    0.000    6.000    0.000    0.000 
#    0.000    0.000    0.000    0.000    0.000    0.000 
#
# Total GULP energy -396829.756025 kJ/mol
# GULP energy per Si atom -12400.929876 kJ/mol
# Density = 1.893635 g / cm^3
# Si number density = 18.979548 Si / 1000 Ang^3
#
#
#
# Elastic Constant Matrix: (Units=GPa)
#
#
# Indices 1 2 3 4 5 6 
#
# 1 126.5010 37.2336 63.9200 0.0000 0.0000 0.0000
# 2 37.2336 38.2760 27.1587 0.0000 0.0000 0.0000
# 3 63.9200 27.1587 107.1458 0.0000 0.0000 0.0000
# 4 0.0000 0.0000 0.0000 29.3651 0.0000 0.0000
# 5 0.0000 0.0000 0.0000 0.0000 24.2844 0.0000
# 6 0.0000 0.0000 0.0000 0.0000 0.0000 29.5221
#
#
#
# Elastic Compliance Matrix: (Units=1/GPa)
#
#
# Indices 1 2 3 4 5 6 
#
# 1 0.013463 -0.009020 -0.005745 0.000000 0.000000 0.000000
# 2 -0.009020 0.037898 -0.004225 0.000000 0.000000 0.000000
# 3 -0.005745 -0.004225 0.013832 0.000000 0.000000 0.000000
# 4 0.000000 0.000000 0.000000 0.034054 0.000000 0.000000
# 5 0.000000 0.000000 0.000000 0.000000 0.041179 0.000000
# 6 0.000000 0.000000 0.000000 0.000000 0.000000 0.033873
#
#
# Mechanical properties :
#
#
# Convention : Reuss Voigt Hill
#
# Bulk Modulus (GPa) = 36.74847 58.72748 47.73798
# Shear Modulus (GPa) = 22.58866 26.20834 24.39850
#
# Velocity S-wave (km/s) = 3.45361 3.72004 3.58930
# Velocity P-wave (km/s) = 5.94200 7.03287 6.51033
#
# Compressibility (1/GPa) = 0.02721202
#
# Stress axis : x y z
#
# Youngs Moduli (GPa) = 74.27770 26.38643 72.29830
#
# Poissons Ratio (x) = 0.23800 0.41538
# Poissons Ratio (y) = 0.66997 0.30548
# Poissons Ratio (z) = 0.42675 0.11149
#
# Static dielectric constant tensor:
#      x y z
#    x 3.499900 0.000000 0.000000 
#    y 0.000000 3.400510 0.000000 
#    z 0.000000 0.000000 3.495420 
# 
# 
# High freq. dielectric constant tensor:
#      x y z
#    x 1.729230 0.000000 0.000000 
#    y 0.000000 1.733420 0.000000 
#    z 0.000000 0.000000 1.740250 
# 
# From -- ./inp_files/16814.got.cif
#   From: 2010.03.12/outbox.cif.g09.slc.cpg/sg44_9_cif.got.tgz:16814.got - 2010.04.14 02:36:11.
