data_PCOD8189202
_publ_section_title
;
Structure prediction by ZEFSAII (Michael W. Deem and Ramdas Pophale) SiO2 
 PCOD8189202
Probable space group: I M M 2
;
_chemical_formula_sum "Si O2"
_cell_formula_units_Z 46
_cell_length_a 17.618548
_cell_length_b 11.968006
_cell_length_c 12.584735
_cell_angle_alpha 90.000000
_cell_angle_beta 90.000000
_cell_angle_gamma 90.000000
_cell_volume 2653.603230
_symmetry_space_group_name_H-M "I M M 2"
_symmetry_group_IT_number 44
_symmetry_cell_setting 'orthorhombic'
loop_
_space_group_symop_operation_xyz
x,y,z
-x,-y,z
-x,y,z
x,-y,z
1/2+x,1/2+y,1/2+z
1/2-x,1/2-y,1/2+z
1/2-x,1/2+y,1/2+z
1/2+x,1/2-y,1/2+z
loop_
_atom_site_type_symbol
_atom_site_label
_atom_site_fract_x
_atom_site_fract_y
_atom_site_fract_z
Si Si1 0.695755 0.311470 0.457300
Si Si2 0.852423 0.629829 0.357527
Si Si3 0.145964 0.127434 0.740940
Si Si4 0.293726 0.875585 0.625543
Si Si5 0.000000 0.222479 0.392796
Si Si6 0.500000 0.368393 0.124021
Si Si7 0.500000 0.500000 0.750287
Si Si8 0.587134 0.500000 0.546739
O O1 0.783919 0.349683 0.442903
O O2 0.666661 0.290647 0.337628
O O3 0.686536 0.199719 0.525070
O O4 0.638202 0.395183 0.515019
O O5 0.874620 0.500000 0.365021
O O6 0.829517 0.662279 0.237437
O O7 0.925083 0.704723 0.378411
O O8 0.203769 0.129584 0.642905
O O9 0.069487 0.173671 0.693233
O O10 0.141076 0.000000 0.786955
O O11 0.321021 0.000000 0.595754
O O12 0.000000 0.189600 0.513265
O O13 0.000000 0.112238 0.320113
O O14 0.500000 0.500000 0.106666
O O15 0.575214 0.500000 0.675057
O O16 0.500000 0.500000 0.495542
#
# Coordination Sequence:
#
# PCOD8189202 Si02
#       8
#     8   8   8   8   4   4   2   4
#     4  11  18  36  60  82 115 148 195 243 292 345
#     4  10  21  37  58  82 112 158 205 239 278 361
#     4   9  18  32  53  81 106 143 194 231 275 347
#     4   9  19  35  55  80 111 148 191 235 284 348
#     4  12  21  38  56  85 120 155 192 239 310 348
#     4  10  20  32  53  79 112 142 179 236 288 347
#     4  10  24  36  52  94 132 152 188 248 318 364
#     4  10  22  34  57  89 116 148 187 253 299 338
#
# _framework density 17.33492
#
# number of rings (size 3 to 8) (size 9 to 14) (size 15 to 20)
#    0.261    1.739    2.174    3.391    1.217    0.000 
#    1.565    0.000    5.739    2.087    0.000    0.000 
#    0.000    0.000    0.000    0.000    0.000    0.000 
#
# Total GULP energy -284952.434398 kJ/mol
# GULP energy per Si atom -12389.236278 kJ/mol
# Density = 1.729547 g / cm^3
# Si number density = 17.334920 Si / 1000 Ang^3
#
#
#
# Elastic Constant Matrix: (Units=GPa)
#
#
# Indices 1 2 3 4 5 6 
#
# 1 138.5525 50.1630 52.0805 0.0000 0.0000 0.0000
# 2 50.1630 78.0389 69.7094 0.0000 0.0000 0.0000
# 3 52.0805 69.7094 99.3349 0.0000 0.0000 0.0000
# 4 0.0000 0.0000 0.0000 33.2591 0.0000 0.0000
# 5 0.0000 0.0000 0.0000 0.0000 18.9665 0.0000
# 6 0.0000 0.0000 0.0000 0.0000 0.0000 23.2382
#
#
#
# Elastic Compliance Matrix: (Units=1/GPa)
#
#
# Indices 1 2 3 4 5 6 
#
# 1 0.009535 -0.004458 -0.001871 0.000000 0.000000 0.000000
# 2 -0.004458 0.036426 -0.023225 0.000000 0.000000 0.000000
# 3 -0.001871 -0.023225 0.027346 0.000000 0.000000 0.000000
# 4 0.000000 0.000000 0.000000 0.030067 0.000000 0.000000
# 5 0.000000 0.000000 0.000000 0.000000 0.052725 0.000000
# 6 0.000000 0.000000 0.000000 0.000000 0.000000 0.043033
#
#
# Mechanical properties :
#
#
# Convention : Reuss Voigt Hill
#
# Bulk Modulus (GPa) = 70.42454 73.31468 71.86961
# Shear Modulus (GPa) = 19.01358 24.69098 21.85228
#
# Velocity S-wave (km/s) = 3.31545 3.77815 3.55433
# Velocity P-wave (km/s) = 7.44112 7.83693 7.64159
#
# Compressibility (1/GPa) = 0.01419960
#
# Stress axis : x y z
#
# Youngs Moduli (GPa) = 104.88132 27.45320 36.56846
#
# Poissons Ratio (x) = 0.12238 0.06840
# Poissons Ratio (y) = 0.46755 0.84930
# Poissons Ratio (z) = 0.19618 0.63760
#
# Static dielectric constant tensor:
#      x y z
#    x 3.369230 0.000000 0.000000 
#    y 0.000000 3.159430 0.000000 
#    z 0.000000 0.000000 3.222190 
# 
# 
# High freq. dielectric constant tensor:
#      x y z
#    x 1.678250 0.000000 0.000000 
#    y 0.000000 1.650180 0.000000 
#    z 0.000000 0.000000 1.672640 
# 
# From -- ./inp_files/13864.got.cif
#   From: 2010.03.12/outbox.cif.g09.slc.cpg/sg44_7_cif.got.tgz:13864.got - 2010.04.14 02:36:11.
