data_PCOD8189067
_publ_section_title
;
Structure prediction by ZEFSAII (Michael W. Deem and Ramdas Pophale) SiO2 
 PCOD8189067
Probable space group: I M M 2
;
_chemical_formula_sum "Si O2"
_cell_formula_units_Z 48
_cell_length_a 8.856847
_cell_length_b 18.169516
_cell_length_c 14.925170
_cell_angle_alpha 90.000000
_cell_angle_beta 90.000000
_cell_angle_gamma 90.000000
_cell_volume 2401.827360
_symmetry_space_group_name_H-M "I M M 2"
_symmetry_group_IT_number 44
_symmetry_cell_setting 'orthorhombic'
loop_
_space_group_symop_operation_xyz
x,y,z
-x,-y,z
-x,y,z
x,-y,z
1/2+x,1/2+y,1/2+z
1/2-x,1/2-y,1/2+z
1/2-x,1/2+y,1/2+z
1/2+x,1/2-y,1/2+z
loop_
_atom_site_type_symbol
_atom_site_label
_atom_site_fract_x
_atom_site_fract_y
_atom_site_fract_z
Si Si1 0.328521 0.000000 0.763990
Si Si2 0.319647 0.233635 0.340057
Si Si3 0.828764 0.768068 0.529452
Si Si4 0.175249 0.000000 0.949279
Si Si5 0.823976 0.340225 0.191740
Si Si6 0.830768 0.605285 0.576772
Si Si7 0.678921 0.078933 0.271240
O O1 0.297585 0.927006 0.706179
O O2 0.500000 0.000000 0.800345
O O3 0.214933 0.000000 0.845848
O O4 0.500000 0.239220 0.336709
O O5 0.260714 0.249812 0.438938
O O6 0.254687 0.292396 0.269606
O O7 0.257557 0.150657 0.321329
O O8 0.745227 0.826269 0.593298
O O9 0.829423 0.692743 0.584307
O O10 0.000000 0.794416 0.509038
O O11 0.235846 0.074432 0.994257
O O12 0.000000 0.000000 0.960343
O O13 0.000000 0.319688 0.191515
O O14 0.760181 0.576537 0.669583
O O15 0.000000 0.575735 0.563179
O O16 0.500000 0.086977 0.268366
O O17 0.725617 0.000000 0.316752
#
# Coordination Sequence:
#
# PCOD8189067 Si02
#       7
#     4   8   8   4   8   8   8
#     4  10  24  44  62  83 116 163 208 245 301 375
#     4  11  22  39  63  93 123 158 205 253 302 362
#     4  11  23  40  62  90 121 161 206 249 305 366
#     4  12  24  34  54  93 126 151 192 255 313 353
#     4  11  23  42  66  90 120 160 208 260 308 363
#     4  10  19  36  60  82 114 159 200 235 292 373
#     4   9  17  34  60  85 111 152 197 237 284 350
#
# _framework density 19.984784000000001
#
# number of rings (size 3 to 8) (size 9 to 14) (size 15 to 20)
#    0.000    1.500    2.500    3.250    0.000    6.667 
#    1.500    0.000    0.000    0.000    0.000    0.000 
#    0.000    0.000    0.000    0.000    0.000    0.000 
#
# Total GULP energy -297522.629284 kJ/mol
# GULP energy per Si atom -12396.776220 kJ/mol
# Density = 1.993930 g / cm^3
# Si number density = 19.984784 Si / 1000 Ang^3
#
#
#
# Elastic Constant Matrix: (Units=GPa)
#
#
# Indices 1 2 3 4 5 6 
#
# 1 107.6401 36.3008 35.2812 0.0000 0.0000 0.0000
# 2 36.3008 127.8428 26.0745 0.0000 0.0000 0.0000
# 3 35.2812 26.0745 79.6109 0.0000 0.0000 0.0000
# 4 0.0000 0.0000 0.0000 28.2453 0.0000 0.0000
# 5 0.0000 0.0000 0.0000 0.0000 30.0615 0.0000
# 6 0.0000 0.0000 0.0000 0.0000 0.0000 19.6075
#
#
#
# Elastic Compliance Matrix: (Units=1/GPa)
#
#
# Indices 1 2 3 4 5 6 
#
# 1 0.011511 -0.002388 -0.004319 0.000000 0.000000 0.000000
# 2 -0.002388 0.008877 -0.001849 0.000000 0.000000 0.000000
# 3 -0.004319 -0.001849 0.015081 0.000000 0.000000 0.000000
# 4 0.000000 0.000000 0.000000 0.035404 0.000000 0.000000
# 5 0.000000 0.000000 0.000000 0.000000 0.033265 0.000000
# 6 0.000000 0.000000 0.000000 0.000000 0.000000 0.051001
#
#
# Mechanical properties :
#
#
# Convention : Reuss Voigt Hill
#
# Bulk Modulus (GPa) = 54.47618 56.71188 55.59403
# Shear Modulus (GPa) = 28.03139 30.07868 29.05503
#
# Velocity S-wave (km/s) = 3.74924 3.88374 3.81709
# Velocity P-wave (km/s) = 6.78678 6.96781 6.87789
#
# Compressibility (1/GPa) = 0.01835665
#
# Stress axis : x y z
#
# Youngs Moduli (GPa) = 86.87193 112.64730 66.30837
#
# Poissons Ratio (x) = 0.26896 0.28641
# Poissons Ratio (y) = 0.20742 0.12263
# Poissons Ratio (z) = 0.37524 0.20833
#
# Static dielectric constant tensor:
#      x y z
#    x 3.544920 0.000000 0.000000 
#    y 0.000000 3.973870 0.000000 
#    z 0.000000 0.000000 3.498410 
# 
# 
# High freq. dielectric constant tensor:
#      x y z
#    x 1.765870 0.000000 0.000000 
#    y 0.000000 1.795070 0.000000 
#    z 0.000000 0.000000 1.772270 
# 
# From -- ./inp_files/16151.got.cif
#   From: 2010.03.12/outbox.cif.g09.slc.cpg/sg44_9_cif.got.tgz:16151.got - 2010.04.14 02:36:11.
