data_PCOD8189090
_publ_section_title
;
Structure prediction by ZEFSAII (Michael W. Deem and Ramdas Pophale) SiO2 
 PCOD8189090
Probable space group: I M M 2
;
_chemical_formula_sum "Si O2"
_cell_formula_units_Z 40
_cell_length_a 9.369934
_cell_length_b 11.717572
_cell_length_c 20.114417
_cell_angle_alpha 90.000000
_cell_angle_beta 90.000000
_cell_angle_gamma 90.000000
_cell_volume 2208.419697
_symmetry_space_group_name_H-M "I M M 2"
_symmetry_group_IT_number 44
_symmetry_cell_setting 'orthorhombic'
loop_
_space_group_symop_operation_xyz
x,y,z
-x,-y,z
-x,y,z
x,-y,z
1/2+x,1/2+y,1/2+z
1/2-x,1/2-y,1/2+z
1/2-x,1/2+y,1/2+z
1/2+x,1/2-y,1/2+z
loop_
_atom_site_type_symbol
_atom_site_label
_atom_site_fract_x
_atom_site_fract_y
_atom_site_fract_z
Si Si1 0.836053 0.197360 0.176910
Si Si2 0.332959 0.874185 0.784204
Si Si3 0.336833 0.631599 0.531160
Si Si4 0.834386 0.750436 0.415462
Si Si5 0.169350 0.500000 0.744216
Si Si6 0.663900 0.500000 0.878332
O O1 0.801131 0.317588 0.212481
O O2 0.812341 0.205398 0.097965
O O3 0.000000 0.159239 0.192246
O O4 0.724487 0.109464 0.205903
O O5 0.500000 0.887302 0.794276
O O6 0.274200 0.795761 0.844615
O O7 0.261002 0.000000 0.785977
O O8 0.500000 0.638921 0.508120
O O9 0.292858 0.500000 0.544084
O O10 0.242639 0.685457 0.474190
O O11 0.807011 0.886396 0.421577
O O12 0.000000 0.721892 0.422527
O O13 0.227529 0.500000 0.818234
O O14 0.000000 0.500000 0.745672
O O15 0.500000 0.500000 0.851828
#
# Coordination Sequence:
#
# PCOD8189090 Si02
#       6
#     8   8   8   8   4   4
#     4  10  19  37  59  78 110 149 184 219 269 340
#     4   9  17  31  56  85 105 134 183 228 263 314
#     4  10  21  36  55  79 110 148 183 223 276 329
#     4  10  20  35  58  81 107 142 184 229 270 324
#     4  12  22  32  56  90 114 133 176 241 282 313
#     4  10  20  38  60  80 106 151 188 217 272 339
#
# _framework density 18.112501000000002
#
# number of rings (size 3 to 8) (size 9 to 14) (size 15 to 20)
#    0.000    2.000    3.000    1.500    0.000    2.800 
#    1.800    0.000    0.000    0.600    0.000    0.000 
#    0.000    0.000    0.000    0.000    0.000    0.000 
#
# Total GULP energy -247947.997215 kJ/mol
# GULP energy per Si atom -12397.399861 kJ/mol
# Density = 1.807128 g / cm^3
# Si number density = 18.112501 Si / 1000 Ang^3
#
#
#
# Elastic Constant Matrix: (Units=GPa)
#
#
# Indices 1 2 3 4 5 6 
#
# 1 66.4349 30.7267 40.6062 0.0000 0.0000 0.0000
# 2 30.7267 134.4960 63.5020 0.0000 0.0000 0.0000
# 3 40.6062 63.5020 129.1541 0.0000 0.0000 0.0000
# 4 0.0000 0.0000 0.0000 34.5929 0.0000 0.0000
# 5 0.0000 0.0000 0.0000 0.0000 26.2903 0.0000
# 6 0.0000 0.0000 0.0000 0.0000 0.0000 -5.6451
#
#
#
# Elastic Compliance Matrix: (Units=1/GPa)
#
#
# Indices 1 2 3 4 5 6 
#
# 1 0.019031 -0.001983 -0.005008 0.000000 0.000000 0.000000
# 2 -0.001983 0.009890 -0.004239 0.000000 0.000000 0.000000
# 3 -0.005008 -0.004239 0.011402 0.000000 0.000000 0.000000
# 4 0.000000 0.000000 0.000000 0.028908 0.000000 0.000000
# 5 0.000000 0.000000 0.000000 0.000000 0.038037 0.000000
# 6 0.000000 0.000000 0.000000 0.000000 0.000000 -0.177144
#
#
# Mechanical properties :
#
#
# Convention : Reuss Voigt Hill
#
# Bulk Modulus (GPa) = 55.98746 66.63942 61.31344
# Shear Modulus (GPa) = -120.59000 24.06428 -48.26286
#
# Velocity S-wave (km/s) = -8.16841 3.64895 -5.16759
# Velocity P-wave (km/s) = 7.61484 7.39087 1.29630
#
# Compressibility (1/GPa) = 0.01786114
#
# Stress axis : x y z
#
# Youngs Moduli (GPa) = 52.54689 101.11563 87.70767
#
# Poissons Ratio (x) = 0.20052 0.43926
# Poissons Ratio (y) = 0.10420 0.37180
# Poissons Ratio (z) = 0.26317 0.42863
#
# Static dielectric constant tensor:
#      x y z
#    x 3.081900 0.000000 0.000000 
#    y 0.000000 3.636300 0.000000 
#    z 0.000000 0.000000 3.309470 
# 
# 
# High freq. dielectric constant tensor:
#      x y z
#    x 1.672200 0.000000 0.000000 
#    y 0.000000 1.706730 0.000000 
#    z 0.000000 0.000000 1.699780 
# 
# From -- ./inp_files/22775.got.cif
#   From: 2010.03.12/outbox.cif.g09.slc.cpg/sg44_12_cif.got.tgz:22775.got - 2010.04.14 02:36:11.
