data_PCOD8189236
_publ_section_title
;
Structure prediction by ZEFSAII (Michael W. Deem and Ramdas Pophale) SiO2 
 PCOD8189236
Probable space group: I M M 2
;
_chemical_formula_sum "Si O2"
_cell_formula_units_Z 64
_cell_length_a 13.727998
_cell_length_b 9.126681
_cell_length_c 24.363667
_cell_angle_alpha 90.000000
_cell_angle_beta 90.000000
_cell_angle_gamma 90.000000
_cell_volume 3052.549628
_symmetry_space_group_name_H-M "I M M 2"
_symmetry_group_IT_number 44
_symmetry_cell_setting 'orthorhombic'
loop_
_space_group_symop_operation_xyz
x,y,z
-x,-y,z
-x,y,z
x,-y,z
1/2+x,1/2+y,1/2+z
1/2-x,1/2-y,1/2+z
1/2-x,1/2+y,1/2+z
1/2+x,1/2-y,1/2+z
loop_
_atom_site_type_symbol
_atom_site_label
_atom_site_fract_x
_atom_site_fract_y
_atom_site_fract_z
Si Si1 0.887621 0.328892 0.393020
Si Si2 0.390027 0.341670 0.378646
Si Si3 0.108135 0.673676 0.268515
Si Si4 0.612944 0.159854 0.282114
Si Si5 0.895339 0.336352 0.986261
Si Si6 0.285890 0.673849 0.193713
Si Si7 0.889108 0.328981 0.598735
Si Si8 0.683648 0.669231 0.997460
O O1 0.864766 0.500000 0.401279
O O2 0.862927 0.278282 0.330530
O O3 0.822608 0.235104 0.435711
O O4 0.000000 0.296086 0.405820
O O5 0.500000 0.363512 0.358157
O O6 0.336123 0.500000 0.377350
O O7 0.337236 0.232172 0.336114
O O8 0.389297 0.282515 0.439371
O O9 0.105428 0.500000 0.267254
O O10 0.185256 0.729333 0.222535
O O11 0.000000 0.734582 0.253638
O O12 0.500000 0.135457 0.292200
O O13 0.626717 0.270312 0.231803
O O14 0.661211 0.000000 0.270960
O O15 0.895359 0.500000 0.960532
O O16 0.795789 0.317935 0.020762
O O17 0.000000 0.313634 0.018523
O O18 0.288527 0.500000 0.186693
O O19 0.306997 0.747510 0.135025
O O20 0.863434 0.500000 0.597004
O O21 0.884302 0.262492 0.537649
O O22 0.000000 0.305462 0.620406
O O23 0.649818 0.500000 0.996752
#
# Coordination Sequence:
#
# PCOD8189236 Si02
#       8
#     8   8   8   8   8   8   8   8
#     4   9  18  35  59  86 119 159 197 236 290 357
#     4   9  17  29  47  73 105 143 189 236 277 323
#     4   8  17  36  60  87 120 156 194 236 288 354
#     4  10  20  33  49  73 111 155 191 227 280 346
#     4   9  19  36  54  76 113 156 192 230 286 352
#     4  11  22  36  60  90 115 147 194 246 294 341
#     4  11  25  45  65  85 115 157 198 239 297 365
#     4  11  23  37  59  90 118 152 200 252 299 343
#
# _framework density 20.966080000000002
#
# number of rings (size 3 to 8) (size 9 to 14) (size 15 to 20)
#    0.000    2.250    0.000    3.375    1.750    7.500 
#    0.000    1.250    0.000    6.750    0.000    0.000 
#    0.000    0.000    0.000    0.000    0.000    0.000 
#
# Total GULP energy -396439.501613 kJ/mol
# GULP energy per Si atom -12388.734425 kJ/mol
# Density = 2.091836 g / cm^3
# Si number density = 20.966080 Si / 1000 Ang^3
#
#
#
# Elastic Constant Matrix: (Units=GPa)
#
#
# Indices 1 2 3 4 5 6 
#
# 1 108.0756 38.8348 32.0322 0.0000 0.0000 0.0000
# 2 38.8348 116.3293 39.4573 0.0000 0.0000 0.0000
# 3 32.0322 39.4573 84.8884 0.0000 0.0000 0.0000
# 4 0.0000 0.0000 0.0000 29.6389 0.0000 0.0000
# 5 0.0000 0.0000 0.0000 0.0000 26.8604 0.0000
# 6 0.0000 0.0000 0.0000 0.0000 0.0000 17.1802
#
#
#
# Elastic Compliance Matrix: (Units=1/GPa)
#
#
# Indices 1 2 3 4 5 6 
#
# 1 0.011094 -0.002711 -0.002926 0.000000 0.000000 0.000000
# 2 -0.002711 0.010868 -0.004028 0.000000 0.000000 0.000000
# 3 -0.002926 -0.004028 0.014757 0.000000 0.000000 0.000000
# 4 0.000000 0.000000 0.000000 0.033739 0.000000 0.000000
# 5 0.000000 0.000000 0.000000 0.000000 0.037230 0.000000
# 6 0.000000 0.000000 0.000000 0.000000 0.000000 0.058206
#
#
# Mechanical properties :
#
#
# Convention : Reuss Voigt Hill
#
# Bulk Modulus (GPa) = 57.51323 58.88243 58.19783
# Shear Modulus (GPa) = 26.17505 28.00049 27.08777
#
# Velocity S-wave (km/s) = 3.53717 3.65843 3.59831
# Velocity P-wave (km/s) = 6.64629 6.78167 6.71432
#
# Compressibility (1/GPa) = 0.01738730
#
# Stress axis : x y z
#
# Youngs Moduli (GPa) = 90.13666 92.01540 67.76518
#
# Poissons Ratio (x) = 0.24947 0.19829
# Poissons Ratio (y) = 0.24437 0.27299
# Poissons Ratio (z) = 0.26376 0.37068
#
# Static dielectric constant tensor:
#      x y z
#    x 4.120060 0.000000 0.000000 
#    y 0.000000 3.905470 0.000000 
#    z 0.000000 0.000000 3.503640 
# 
# 
# High freq. dielectric constant tensor:
#      x y z
#    x 1.827180 0.000000 0.000000 
#    y 0.000000 1.816880 0.000000 
#    z 0.000000 0.000000 1.790580 
# 
# From -- ./inp_files/25772.got.cif
#   From: 2010.03.12/outbox.cif.g09.slc.cpg/sg44_13_cif.got.tgz:25772.got - 2010.04.14 02:36:11.
