data_PCOD8189750
_publ_section_title
;
Structure prediction by ZEFSAII (Michael W. Deem and Ramdas Pophale) SiO2 
 PCOD8189750
Probable space group: I M M 2
;
_chemical_formula_sum "Si O2"
_cell_formula_units_Z 48
_cell_length_a 14.472585
_cell_length_b 8.608631
_cell_length_c 20.310289
_cell_angle_alpha 90.000000
_cell_angle_beta 90.000000
_cell_angle_gamma 90.000000
_cell_volume 2530.441518
_symmetry_space_group_name_H-M "I M M 2"
_symmetry_group_IT_number 44
_symmetry_cell_setting 'orthorhombic'
loop_
_space_group_symop_operation_xyz
x,y,z
-x,-y,z
-x,y,z
x,-y,z
1/2+x,1/2+y,1/2+z
1/2-x,1/2-y,1/2+z
1/2-x,1/2+y,1/2+z
1/2+x,1/2-y,1/2+z
loop_
_atom_site_type_symbol
_atom_site_label
_atom_site_fract_x
_atom_site_fract_y
_atom_site_fract_z
Si Si1 0.500000 0.684553 0.306630
Si Si2 0.690537 0.816865 0.346460
Si Si3 0.812178 0.317716 0.461360
Si Si4 0.192273 0.817275 0.598923
Si Si5 0.500000 0.684187 0.157929
Si Si6 0.000000 0.183412 0.265553
Si Si7 0.196937 0.817158 0.216371
Si Si8 0.500000 0.315951 0.913006
O O1 0.500000 0.500000 0.308042
O O2 0.588448 0.748248 0.344609
O O3 0.500000 0.750554 0.232142
O O4 0.739670 0.744130 0.409020
O O5 0.745761 0.769848 0.280915
O O6 0.687366 0.000000 0.355335
O O7 0.821884 0.500000 0.453878
O O8 0.776089 0.272677 0.533721
O O9 0.911114 0.239332 0.452256
O O10 0.265929 0.780044 0.655304
O O11 0.091144 0.755256 0.620772
O O12 0.190695 0.000000 0.585303
O O13 0.500000 0.500000 0.161269
O O14 0.091051 0.236699 0.226542
O O15 0.000000 0.254746 0.339180
O O16 0.000000 0.000000 0.274044
O O17 0.204978 0.000000 0.202026
O O18 0.500000 0.500000 0.911490
#
# Coordination Sequence:
#
# PCOD8189750 Si02
#       8
#     4   8   8   8   4   4   8   4
#     4  11  21  38  61  92 126 156 198 252 303 357
#     4  11  22  39  63  90 120 160 205 251 301 360
#     4  12  25  40  59  90 125 162 205 254 305 359
#     4  11  22  39  60  86 121 162 201 246 304 365
#     4   9  19  34  57  87 119 155 192 237 300 362
#     4   9  18  36  61  88 118 155 197 241 296 357
#     4  10  20  37  61  88 118 155 201 250 299 357
#     4  11  20  38  63  91 125 162 197 244 307 368
#
# _framework density 18.969023
#
# number of rings (size 3 to 8) (size 9 to 14) (size 15 to 20)
#    0.000    1.333    3.333    3.500    0.000    1.333 
#    0.000    2.500    0.000    1.000    0.000    0.000 
#    0.000    0.000    0.000    0.000    0.000    0.000 
#
# Total GULP energy -297725.553476 kJ/mol
# GULP energy per Si atom -12405.231395 kJ/mol
# Density = 1.892585 g / cm^3
# Si number density = 18.969023 Si / 1000 Ang^3
#
#
#
# Elastic Constant Matrix: (Units=GPa)
#
#
# Indices 1 2 3 4 5 6 
#
# 1 141.5976 40.0813 60.7342 0.0000 0.0000 0.0000
# 2 40.0813 78.6290 43.6154 0.0000 0.0000 0.0000
# 3 60.7342 43.6154 136.2957 0.0000 0.0000 0.0000
# 4 0.0000 0.0000 0.0000 30.9226 0.0000 0.0000
# 5 0.0000 0.0000 0.0000 0.0000 -199.6575 0.0000
# 6 0.0000 0.0000 0.0000 0.0000 0.0000 27.5862
#
#
#
# Elastic Compliance Matrix: (Units=1/GPa)
#
#
# Indices 1 2 3 4 5 6 
#
# 1 0.009264 -0.002958 -0.003182 0.000000 0.000000 0.000000
# 2 -0.002958 0.016407 -0.003932 0.000000 0.000000 0.000000
# 3 -0.003182 -0.003932 0.010013 0.000000 0.000000 0.000000
# 4 0.000000 0.000000 0.000000 0.032339 0.000000 0.000000
# 5 0.000000 0.000000 0.000000 0.000000 -0.005009 0.000000
# 6 0.000000 0.000000 0.000000 0.000000 0.000000 0.036250
#
#
# Mechanical properties :
#
#
# Convention : Reuss Voigt Hill
#
# Bulk Modulus (GPa) = 64.34645 71.70935 68.02790
# Shear Modulus (GPa) = 40.13225 -14.09032 13.02097
#
# Velocity S-wave (km/s) = 4.60463 -2.72840 2.62283
# Velocity P-wave (km/s) = 7.89086 5.28771 6.71661
#
# Compressibility (1/GPa) = 0.01554087
#
# Stress axis : x y z
#
# Youngs Moduli (GPa) = 107.94303 60.95021 99.86838
#
# Poissons Ratio (x) = 0.18026 0.31776
# Poissons Ratio (y) = 0.31924 0.39272
# Poissons Ratio (z) = 0.34345 0.23968
#
# Static dielectric constant tensor:
#      x y z
#    x 7.753000 0.000000 0.000000 
#    y 0.000000 3.350870 0.000000 
#    z 0.000000 0.000000 3.515750 
# 
# 
# High freq. dielectric constant tensor:
#      x y z
#    x 1.741290 0.000000 0.000000 
#    y 0.000000 1.731110 0.000000 
#    z 0.000000 0.000000 1.740580 
# 
# From -- ./inp_files/20380.got.cif
#   From: 2010.03.12/outbox.cif.g09.slc.cpg/sg44_11_cif.got.tgz:20380.got - 2010.04.14 02:36:11.
