data_PCOD8189980
_publ_section_title
;
Structure prediction by ZEFSAII (Michael W. Deem and Ramdas Pophale) SiO2 
 PCOD8189980
Probable space group: I M M 2
;
_chemical_formula_sum "Si O2"
_cell_formula_units_Z 56
_cell_length_a 18.485188
_cell_length_b 8.945491
_cell_length_c 16.869985
_cell_angle_alpha 90.000000
_cell_angle_beta 90.000000
_cell_angle_gamma 90.000000
_cell_volume 2789.605248
_symmetry_space_group_name_H-M "I M M 2"
_symmetry_group_IT_number 44
_symmetry_cell_setting 'orthorhombic'
loop_
_space_group_symop_operation_xyz
x,y,z
-x,-y,z
-x,y,z
x,-y,z
1/2+x,1/2+y,1/2+z
1/2-x,1/2-y,1/2+z
1/2-x,1/2+y,1/2+z
1/2+x,1/2-y,1/2+z
loop_
_atom_site_type_symbol
_atom_site_label
_atom_site_fract_x
_atom_site_fract_y
_atom_site_fract_z
Si Si1 0.301329 0.171701 0.176440
Si Si2 0.582841 0.328479 0.882290
Si Si3 0.583351 0.829483 0.584002
Si Si4 0.082978 0.328611 0.803245
Si Si5 0.300501 0.328009 0.007649
Si Si6 0.667843 0.827548 0.744510
Si Si7 0.163576 0.175418 0.944913
O O1 0.379187 0.190763 0.217871
O O2 0.241799 0.235248 0.237220
O O3 0.283275 0.000000 0.158581
O O4 0.301049 0.258226 0.094264
O O5 0.500000 0.277402 0.892326
O O6 0.588355 0.500000 0.853922
O O7 0.621230 0.308153 0.967489
O O8 0.621592 0.224878 0.818875
O O9 0.500000 0.790426 0.594250
O O10 0.620341 0.799735 0.667290
O O11 0.616543 0.717046 0.521074
O O12 0.594920 0.000000 0.555376
O O13 0.088425 0.500000 0.832270
O O14 0.121950 0.224924 0.866628
O O15 0.000000 0.277954 0.794071
O O16 0.278537 0.500000 0.017809
O O17 0.241806 0.252444 0.950057
O O18 0.688091 0.000000 0.756301
O O19 0.175664 0.000000 0.941982
#
# Coordination Sequence:
#
# PCOD8189980 Si02
#       7
#     8   8   8   8   8   8   8
#     4  11  23  40  64  93 121 157 206 255 303 357
#     4  10  23  42  63  89 123 162 204 252 304 357
#     4  10  21  37  58  85 121 163 200 241 301 365
#     4  10  23  43  64  87 122 165 203 246 306 368
#     4  11  23  41  64  89 121 164 206 247 304 366
#     4  11  22  38  62  91 123 161 203 246 300 363
#     4  12  24  38  60  91 123 157 204 254 299 354
#
# _framework density 20.074525000000001
#
# number of rings (size 3 to 8) (size 9 to 14) (size 15 to 20)
#    0.000    1.286    1.429    4.286    0.000   10.000 
#    0.000    0.000    0.000    0.000    0.000    0.000 
#    0.000    0.000    0.000    0.000    0.000    0.000 
#
# Total GULP energy -347363.454051 kJ/mol
# GULP energy per Si atom -12405.837645 kJ/mol
# Density = 2.002883 g / cm^3
# Si number density = 20.074525 Si / 1000 Ang^3
#
#
#
# Elastic Constant Matrix: (Units=GPa)
#
#
# Indices 1 2 3 4 5 6 
#
# 1 145.7797 62.2578 59.3258 0.0000 0.0000 0.0000
# 2 62.2578 131.5716 50.1430 0.0000 0.0000 0.0000
# 3 59.3258 50.1430 68.7026 0.0000 0.0000 0.0000
# 4 0.0000 0.0000 0.0000 36.5460 0.0000 0.0000
# 5 0.0000 0.0000 0.0000 0.0000 58.5008 0.0000
# 6 0.0000 0.0000 0.0000 0.0000 0.0000 22.5214
#
#
#
# Elastic Compliance Matrix: (Units=1/GPa)
#
#
# Indices 1 2 3 4 5 6 
#
# 1 0.011017 -0.002199 -0.007908 0.000000 0.000000 0.000000
# 2 -0.002199 0.010968 -0.006106 0.000000 0.000000 0.000000
# 3 -0.007908 -0.006106 0.025841 0.000000 0.000000 0.000000
# 4 0.000000 0.000000 0.000000 0.027363 0.000000 0.000000
# 5 0.000000 0.000000 0.000000 0.000000 0.017094 0.000000
# 6 0.000000 0.000000 0.000000 0.000000 0.000000 0.044402
#
#
# Mechanical properties :
#
#
# Convention : Reuss Voigt Hill
#
# Bulk Modulus (GPa) = 64.93941 76.61191 70.77566
# Shear Modulus (GPa) = 28.69506 35.13543 31.91525
#
# Velocity S-wave (km/s) = 3.78488 4.18814 3.99160
# Velocity P-wave (km/s) = 7.17773 7.85073 7.52176
#
# Compressibility (1/GPa) = 0.01539897
#
# Stress axis : x y z
#
# Youngs Moduli (GPa) = 90.76649 91.17296 38.69799
#
# Poissons Ratio (x) = 0.20051 0.30604
# Poissons Ratio (y) = 0.19962 0.23629
# Poissons Ratio (z) = 0.71782 0.55671
#
# Static dielectric constant tensor:
#      x y z
#    x 3.949050 0.000000 0.000000 
#    y 0.000000 3.691350 0.000000 
#    z 0.000000 0.000000 3.238240 
# 
# 
# High freq. dielectric constant tensor:
#      x y z
#    x 1.796970 0.000000 0.000000 
#    y 0.000000 1.786790 0.000000 
#    z 0.000000 0.000000 1.787460 
# 
# From -- ./inp_files/19191.got.cif
#   From: 2010.03.12/outbox.cif.g09.slc.cpg/sg44_10_cif.got.tgz:19191.got - 2010.04.14 02:36:11.
