data_PCOD8189762
_publ_section_title
;
Structure prediction by ZEFSAII (Michael W. Deem and Ramdas Pophale) SiO2 
 PCOD8189762
Probable space group: I M M 2
;
_chemical_formula_sum "Si O2"
_cell_formula_units_Z 48
_cell_length_a 14.444895
_cell_length_b 8.531240
_cell_length_c 20.217074
_cell_angle_alpha 90.000000
_cell_angle_beta 90.000000
_cell_angle_gamma 90.000000
_cell_volume 2491.407972
_symmetry_space_group_name_H-M "I M M 2"
_symmetry_group_IT_number 44
_symmetry_cell_setting 'orthorhombic'
loop_
_space_group_symop_operation_xyz
x,y,z
-x,-y,z
-x,y,z
x,-y,z
1/2+x,1/2+y,1/2+z
1/2-x,1/2-y,1/2+z
1/2-x,1/2+y,1/2+z
1/2+x,1/2-y,1/2+z
loop_
_atom_site_type_symbol
_atom_site_label
_atom_site_fract_x
_atom_site_fract_y
_atom_site_fract_z
Si Si1 0.000000 0.681014 0.623821
Si Si2 0.803277 0.314751 0.041359
Si Si3 0.000000 0.819350 0.229037
Si Si4 0.316044 0.318083 0.169197
Si Si5 0.000000 0.316445 0.086336
Si Si6 0.500000 0.683914 0.980318
Si Si7 0.311459 0.183166 0.924456
Si Si8 0.697160 0.318021 0.784338
O O1 0.910129 0.718398 0.667638
O O2 0.000000 0.787420 0.558505
O O3 0.000000 0.500000 0.602569
O O4 0.797967 0.500000 0.027248
O O5 0.746475 0.270536 0.106818
O O6 0.907769 0.251205 0.051328
O O7 0.763617 0.219312 0.980232
O O8 0.089585 0.776653 0.272291
O O9 0.000000 0.717663 0.163559
O O10 0.000000 0.000000 0.207653
O O11 0.341938 0.500000 0.167460
O O12 0.261363 0.281423 0.235889
O O13 0.000000 0.500000 0.078508
O O14 0.500000 0.500000 0.966466
O O15 0.589076 0.758057 0.947124
O O16 0.278404 0.272029 0.858884
O O17 0.315830 0.000000 0.910158
O O18 0.717592 0.500000 0.772328
#
# Coordination Sequence:
#
# PCOD8189762 Si02
#       8
#     4   8   4   8   4   4   8   8
#     4  12  24  39  62  93 124 158 206 254 304 367
#     4  10  21  38  62  89 122 161 201 250 306 360
#     4  10  21  35  58  90 123 157 192 243 301 356
#     4  11  22  39  64  91 123 161 204 255 307 361
#     4  10  20  37  62  91 120 156 200 244 292 355
#     4  12  23  39  62  90 125 161 200 253 315 370
#     4  12  25  40  61  90 124 163 207 254 308 371
#     4  11  23  40  61  89 127 166 205 251 306 367
#
# _framework density 19.266214999999999
#
# number of rings (size 3 to 8) (size 9 to 14) (size 15 to 20)
#    0.000    1.000    3.333    4.500    0.000    2.667 
#    0.000    0.833    0.000    1.000    0.000    0.000 
#    0.000    0.000    0.000    0.000    0.000    0.000 
#
# Total GULP energy -297752.696477 kJ/mol
# GULP energy per Si atom -12406.362353 kJ/mol
# Density = 1.922236 g / cm^3
# Si number density = 19.266215 Si / 1000 Ang^3
#
#
#
# Elastic Constant Matrix: (Units=GPa)
#
#
# Indices 1 2 3 4 5 6 
#
# 1 129.8639 32.5712 45.4769 0.0000 0.0000 0.0000
# 2 32.5712 50.1899 9.4848 0.0000 0.0000 0.0000
# 3 45.4769 9.4848 113.5803 0.0000 0.0000 0.0000
# 4 0.0000 0.0000 0.0000 35.0055 0.0000 0.0000
# 5 0.0000 0.0000 0.0000 0.0000 54.1542 0.0000
# 6 0.0000 0.0000 0.0000 0.0000 0.0000 25.1493
#
#
#
# Elastic Compliance Matrix: (Units=1/GPa)
#
#
# Indices 1 2 3 4 5 6 
#
# 1 0.010538 -0.006138 -0.003707 0.000000 0.000000 0.000000
# 2 -0.006138 0.023819 0.000469 0.000000 0.000000 0.000000
# 3 -0.003707 0.000469 0.010249 0.000000 0.000000 0.000000
# 4 0.000000 0.000000 0.000000 0.028567 0.000000 0.000000
# 5 0.000000 0.000000 0.000000 0.000000 0.018466 0.000000
# 6 0.000000 0.000000 0.000000 0.000000 0.000000 0.039763
#
#
# Mechanical properties :
#
#
# Convention : Reuss Voigt Hill
#
# Bulk Modulus (GPa) = 38.67894 52.07777 45.37836
# Shear Modulus (GPa) = 31.49161 36.60188 34.04675
#
# Velocity S-wave (km/s) = 4.04734 4.36339 4.20834
# Velocity P-wave (km/s) = 6.47773 7.24396 6.87153
#
# Compressibility (1/GPa) = 0.02585386
#
# Stress axis : x y z
#
# Youngs Moduli (GPa) = 94.89501 41.98293 97.56699
#
# Poissons Ratio (x) = 0.25770 0.36166
# Poissons Ratio (y) = 0.58249 -0.04572
# Poissons Ratio (z) = 0.35175 -0.01967
#
# Static dielectric constant tensor:
#      x y z
#    x 3.781930 0.000000 0.000000 
#    y 0.000000 3.499230 0.000000 
#    z 0.000000 0.000000 3.440650 
# 
# 
# High freq. dielectric constant tensor:
#      x y z
#    x 1.756090 0.000000 0.000000 
#    y 0.000000 1.754780 0.000000 
#    z 0.000000 0.000000 1.746900 
# 
# From -- ./inp_files/20358.got.cif
#   From: 2010.03.12/outbox.cif.g09.slc.cpg/sg44_11_cif.got.tgz:20358.got - 2010.04.14 02:36:11.
