data_PCOD8189199
_publ_section_title
;
Structure prediction by ZEFSAII (Michael W. Deem and Ramdas Pophale) SiO2 
 PCOD8189199
Probable space group: I M M 2
;
_chemical_formula_sum "Si O2"
_cell_formula_units_Z 64
_cell_length_a 15.359236
_cell_length_b 8.915625
_cell_length_c 23.226296
_cell_angle_alpha 90.000000
_cell_angle_beta 90.000000
_cell_angle_gamma 90.000000
_cell_volume 3180.543673
_symmetry_space_group_name_H-M "I M M 2"
_symmetry_group_IT_number 44
_symmetry_cell_setting 'orthorhombic'
loop_
_space_group_symop_operation_xyz
x,y,z
-x,-y,z
-x,y,z
x,-y,z
1/2+x,1/2+y,1/2+z
1/2-x,1/2-y,1/2+z
1/2-x,1/2+y,1/2+z
1/2+x,1/2-y,1/2+z
loop_
_atom_site_type_symbol
_atom_site_label
_atom_site_fract_x
_atom_site_fract_y
_atom_site_fract_z
Si Si1 0.645107 0.329471 0.696350
Si Si2 0.768081 0.822753 0.528202
Si Si3 0.598656 0.177285 0.815006
Si Si4 0.594246 0.169761 0.586715
Si Si5 0.238208 0.321824 0.409608
Si Si6 0.669260 0.827987 0.139356
Si Si7 0.398505 0.176842 0.353661
Si Si8 0.901611 0.163769 0.740194
O O1 0.618509 0.500000 0.708079
O O2 0.628956 0.237524 0.753722
O O3 0.587320 0.267877 0.644208
O O4 0.744270 0.312001 0.677152
O O5 0.668182 0.776147 0.542515
O O6 0.796378 0.737452 0.470747
O O7 0.828135 0.762848 0.579876
O O8 0.780602 0.000000 0.520574
O O9 0.500000 0.232291 0.829437
O O10 0.666572 0.234223 0.863339
O O11 0.600938 0.000000 0.811739
O O12 0.500000 0.180499 0.555515
O O13 0.615856 0.000000 0.605752
O O14 0.246545 0.500000 0.410294
O O15 0.334258 0.251964 0.399950
O O16 0.597795 0.750793 0.179612
O O17 0.645685 0.000000 0.126019
O O18 0.500000 0.217666 0.366419
O O19 0.363319 0.235680 0.291885
O O20 0.385235 0.000000 0.355331
O O21 0.000000 0.133703 0.756941
O O22 0.853809 0.000000 0.736792
#
# Coordination Sequence:
#
# PCOD8189199 Si02
#       8
#     8   8   8   8   8   8   8   8
#     4  10  20  32  51  82 113 138 170 216 267 318
#     4  10  21  37  56  77 105 142 184 229 274 323
#     4  10  22  39  57  78 107 145 186 226 273 330
#     4   9  18  33  53  77 106 140 174 208 255 319
#     4  11  23  39  59  81 108 145 190 238 283 330
#     4  10  20  35  55  79 109 144 181 221 270 330
#     4  10  21  37  58  85 117 151 185 223 274 339
#     4  10  20  34  54  82 113 141 175 223 276 330
#
# _framework density 20.122344999999999
#
# number of rings (size 3 to 8) (size 9 to 14) (size 15 to 20)
#    0.000    2.000    0.000    3.375    0.000    9.000 
#    0.000    1.875    0.000    2.250    0.000    0.000 
#    0.000    0.000    0.000    0.000    0.000    0.000 
#
# Total GULP energy -396733.567181 kJ/mol
# GULP energy per Si atom -12397.923974 kJ/mol
# Density = 2.007655 g / cm^3
# Si number density = 20.122345 Si / 1000 Ang^3
#
#
#
# Elastic Constant Matrix: (Units=GPa)
#
#
# Indices 1 2 3 4 5 6 
#
# 1 47.5547 26.2604 27.7178 0.0000 0.0000 0.0000
# 2 26.2604 69.6692 26.4877 0.0000 0.0000 0.0000
# 3 27.7178 26.4877 106.1593 0.0000 0.0000 0.0000
# 4 0.0000 0.0000 0.0000 38.8488 0.0000 0.0000
# 5 0.0000 0.0000 0.0000 0.0000 18.6732 0.0000
# 6 0.0000 0.0000 0.0000 0.0000 0.0000 20.8527
#
#
#
# Elastic Compliance Matrix: (Units=1/GPa)
#
#
# Indices 1 2 3 4 5 6 
#
# 1 0.029084 -0.008922 -0.005368 0.000000 0.000000 0.000000
# 2 -0.008922 0.018595 -0.002310 0.000000 0.000000 0.000000
# 3 -0.005368 -0.002310 0.011398 0.000000 0.000000 0.000000
# 4 0.000000 0.000000 0.000000 0.025741 0.000000 0.000000
# 5 0.000000 0.000000 0.000000 0.000000 0.053553 0.000000
# 6 0.000000 0.000000 0.000000 0.000000 0.000000 0.047956
#
#
# Mechanical properties :
#
#
# Convention : Reuss Voigt Hill
#
# Bulk Modulus (GPa) = 38.64417 42.70166 40.67291
# Shear Modulus (GPa) = 21.91542 25.20274 23.55908
#
# Velocity S-wave (km/s) = 3.30375 3.54287 3.42540
# Velocity P-wave (km/s) = 5.81371 6.16466 5.99176
#
# Compressibility (1/GPa) = 0.02587712
#
# Stress axis : x y z
#
# Youngs Moduli (GPa) = 34.38351 53.77868 87.73734
#
# Poissons Ratio (x) = 0.47980 0.47094
# Poissons Ratio (y) = 0.30676 0.20268
# Poissons Ratio (z) = 0.18456 0.12423
#
# Static dielectric constant tensor:
#      x y z
#    x 3.661920 0.000000 0.000000 
#    y 0.000000 3.753560 0.000000 
#    z 0.000000 0.000000 3.538780 
# 
# 
# High freq. dielectric constant tensor:
#      x y z
#    x 1.774950 0.000000 0.000000 
#    y 0.000000 1.793150 0.000000 
#    z 0.000000 0.000000 1.778610 
# 
# From -- ./inp_files/23326.got.cif
#   From: 2010.03.12/outbox.cif.g09.slc.cpg/sg44_12_cif.got.tgz:23326.got - 2010.04.14 02:36:11.
