data_PCOD8189900
_publ_section_title
;
Structure prediction by ZEFSAII (Michael W. Deem and Ramdas Pophale) SiO2 
 PCOD8189900
Probable space group: I M M 2
;
_chemical_formula_sum "Si O2"
_cell_formula_units_Z 64
_cell_length_a 33.488758
_cell_length_b 8.870047
_cell_length_c 11.597008
_cell_angle_alpha 90.000000
_cell_angle_beta 90.000000
_cell_angle_gamma 90.000000
_cell_volume 3444.854782
_symmetry_space_group_name_H-M "I M M 2"
_symmetry_group_IT_number 44
_symmetry_cell_setting 'orthorhombic'
loop_
_space_group_symop_operation_xyz
x,y,z
-x,-y,z
-x,y,z
x,-y,z
1/2+x,1/2+y,1/2+z
1/2-x,1/2-y,1/2+z
1/2-x,1/2+y,1/2+z
1/2+x,1/2-y,1/2+z
loop_
_atom_site_type_symbol
_atom_site_label
_atom_site_fract_x
_atom_site_fract_y
_atom_site_fract_z
Si Si1 0.546382 0.322019 0.404730
Si Si2 0.306274 0.173385 0.358822
Si Si3 0.847708 0.180223 0.256389
Si Si4 0.391541 0.325506 0.978792
Si Si5 0.378603 0.178350 0.520632
Si Si6 0.456182 0.679879 0.145753
Si Si7 0.775473 0.330595 0.379285
Si Si8 0.825781 0.332975 0.600337
O O1 0.500000 0.278360 0.432611
O O2 0.551840 0.500000 0.419976
O O3 0.577191 0.239795 0.490569
O O4 0.557492 0.270022 0.274128
O O5 0.346976 0.225531 0.421912
O O6 0.268707 0.268983 0.398001
O O7 0.309059 0.205209 0.224293
O O8 0.297805 0.000000 0.387971
O O9 0.879119 0.241044 0.354120
O O10 0.862516 0.249901 0.138069
O O11 0.803227 0.234099 0.291926
O O12 0.847155 0.000000 0.248733
O O13 0.399069 0.500000 0.962296
O O14 0.430114 0.251285 0.040564
O O15 0.356663 0.297551 0.070113
O O16 0.381668 0.000000 0.535604
O O17 0.500000 0.743338 0.122224
O O18 0.455362 0.500000 0.143196
O O19 0.774523 0.500000 0.329485
O O20 0.790273 0.327471 0.509769
O O21 0.845947 0.500000 0.598847
#
# Coordination Sequence:
#
# PCOD8189900 Si02
#       8
#     8   8   8   8   8   8   8   8
#     4   9  18  34  57  84 113 145 181 225 280 338
#     4  10  22  37  53  77 108 139 175 224 273 325
#     4  10  21  37  55  75 107 147 185 227 275 325
#     4   9  17  31  53  78 101 133 175 215 261 316
#     4  11  23  37  55  81 111 147 191 234 277 328
#     4   8  14  27  51  82 111 134 165 216 270 322
#     4  10  21  36  55  79 103 135 177 219 272 331
#     4   9  19  35  52  72 100 132 166 209 266 317
#
# _framework density 18.578431999999999
#
# number of rings (size 3 to 8) (size 9 to 14) (size 15 to 20)
#    0.000    2.500    0.000    2.625    1.750    2.750 
#    0.000    0.625    0.000    3.375    0.000    0.000 
#    0.000    0.000    0.000    0.000    0.000    0.000 
#
# Total GULP energy -396559.683193 kJ/mol
# GULP energy per Si atom -12392.490100 kJ/mol
# Density = 1.853615 g / cm^3
# Si number density = 18.578432 Si / 1000 Ang^3
#
#
#
# Elastic Constant Matrix: (Units=GPa)
#
#
# Indices 1 2 3 4 5 6 
#
# 1 118.2845 41.9795 58.1178 0.0000 0.0000 0.0000
# 2 41.9795 53.8771 39.7191 0.0000 0.0000 0.0000
# 3 58.1178 39.7191 97.5882 0.0000 0.0000 0.0000
# 4 0.0000 0.0000 0.0000 22.7722 0.0000 0.0000
# 5 0.0000 0.0000 0.0000 0.0000 25.2911 0.0000
# 6 0.0000 0.0000 0.0000 0.0000 0.0000 24.7174
#
#
#
# Elastic Compliance Matrix: (Units=1/GPa)
#
#
# Indices 1 2 3 4 5 6 
#
# 1 0.013375 -0.006499 -0.005320 0.000000 0.000000 0.000000
# 2 -0.006499 0.029676 -0.008208 0.000000 0.000000 0.000000
# 3 -0.005320 -0.008208 0.016756 0.000000 0.000000 0.000000
# 4 0.000000 0.000000 0.000000 0.043913 0.000000 0.000000
# 5 0.000000 0.000000 0.000000 0.000000 0.039540 0.000000
# 6 0.000000 0.000000 0.000000 0.000000 0.000000 0.040457
#
#
# Mechanical properties :
#
#
# Convention : Reuss Voigt Hill
#
# Bulk Modulus (GPa) = 50.62620 61.04251 55.83436
# Shear Modulus (GPa) = 21.70573 23.21838 22.46205
#
# Velocity S-wave (km/s) = 3.42179 3.53901 3.48090
# Velocity P-wave (km/s) = 6.55139 7.04468 6.80251
#
# Compressibility (1/GPa) = 0.01975262
#
# Stress axis : x y z
#
# Youngs Moduli (GPa) = 74.76816 33.69780 59.68029
#
# Poissons Ratio (x) = 0.21901 0.31750
# Poissons Ratio (y) = 0.48593 0.48983
# Poissons Ratio (z) = 0.39776 0.27658
#
# Static dielectric constant tensor:
#      x y z
#    x 3.579290 0.000000 0.000000 
#    y 0.000000 3.314780 0.000000 
#    z 0.000000 0.000000 3.558010 
# 
# 
# High freq. dielectric constant tensor:
#      x y z
#    x 1.720830 0.000000 0.000000 
#    y 0.000000 1.707360 0.000000 
#    z 0.000000 0.000000 1.722870 
# 
# From -- ./inp_files/11555.got.cif
#   From: 2010.03.12/outbox.cif.g09.slc.cpg/sg44_6_cif.got.tgz:11555.got - 2010.04.14 02:36:11.
