data_PCOD8189265
_publ_section_title
;
Structure prediction by ZEFSAII (Michael W. Deem and Ramdas Pophale) SiO2 
 PCOD8189265
Probable space group: I M M 2
;
_chemical_formula_sum "Si O2"
_cell_formula_units_Z 64
_cell_length_a 33.097401
_cell_length_b 9.280655
_cell_length_c 11.553259
_cell_angle_alpha 90.000000
_cell_angle_beta 90.000000
_cell_angle_gamma 90.000000
_cell_volume 3548.763271
_symmetry_space_group_name_H-M "I M M 2"
_symmetry_group_IT_number 44
_symmetry_cell_setting 'orthorhombic'
loop_
_space_group_symop_operation_xyz
x,y,z
-x,-y,z
-x,y,z
x,-y,z
1/2+x,1/2+y,1/2+z
1/2-x,1/2-y,1/2+z
1/2-x,1/2+y,1/2+z
1/2+x,1/2-y,1/2+z
loop_
_atom_site_type_symbol
_atom_site_label
_atom_site_fract_x
_atom_site_fract_y
_atom_site_fract_z
Si Si1 0.388281 0.663053 0.019550
Si Si2 0.545322 0.336357 0.851496
Si Si3 0.189614 0.164966 0.171931
Si Si4 0.847683 0.831011 0.752636
Si Si5 0.952546 0.670619 0.125013
Si Si6 0.280875 0.164669 0.127880
Si Si7 0.882282 0.829570 0.998868
Si Si8 0.824789 0.667811 0.397230
O O1 0.372452 0.500000 0.004147
O O2 0.380055 0.710885 0.151725
O O3 0.434397 0.679668 0.978384
O O4 0.367749 0.764417 0.925152
O O5 0.500000 0.293983 0.878628
O O6 0.550472 0.500000 0.805163
O O7 0.561512 0.232099 0.749851
O O8 0.233260 0.189202 0.115799
O O9 0.192083 0.266244 0.281369
O O10 0.183122 0.000000 0.209923
O O11 0.153915 0.212381 0.085911
O O12 0.804336 0.757182 0.725874
O O13 0.867340 0.777578 0.872302
O O14 0.839056 0.000000 0.759599
O O15 0.945463 0.500000 0.123027
O O16 0.000000 0.707977 0.100382
O O17 0.923599 0.744960 0.029373
O O18 0.291689 0.000000 0.156275
O O19 0.295440 0.211112 0.001499
O O20 0.891253 0.000000 0.000467
O O21 0.829673 0.500000 0.379624
#
# Coordination Sequence:
#
# PCOD8189265 Si02
#       8
#     8   8   8   8   8   8   8   8
#     4   9  17  32  52  74 102 133 166 207 256 306
#     4   9  17  30  51  77 104 134 167 208 260 315
#     4  10  21  35  51  73 103 135 169 213 262 310
#     4   9  19  35  55  76 102 138 178 217 258 307
#     4  10  21  36  54  78 109 140 173 219 268 314
#     4   9  20  36  52  72 101 136 170 211 263 312
#     4  10  21  36  55  78 105 141 180 220 263 314
#     4  10  20  33  51  74  98 128 168 209 252 302
#
# _framework density 18.034451000000001
#
# number of rings (size 3 to 8) (size 9 to 14) (size 15 to 20)
#    0.000    2.500    0.000    1.500    1.750    6.250 
#    0.000    0.625    0.000    2.250    0.000    1.750 
#    0.000    0.000    0.000    0.000    0.000    0.000 
#
# Total GULP energy -396630.748721 kJ/mol
# GULP energy per Si atom -12394.710898 kJ/mol
# Density = 1.799340 g / cm^3
# Si number density = 18.034451 Si / 1000 Ang^3
#
#
#
# Elastic Constant Matrix: (Units=GPa)
#
#
# Indices 1 2 3 4 5 6 
#
# 1 93.9768 36.5751 48.3320 0.0000 0.0000 0.0000
# 2 36.5751 60.3051 37.4738 0.0000 0.0000 0.0000
# 3 48.3320 37.4738 90.8578 0.0000 0.0000 0.0000
# 4 0.0000 0.0000 0.0000 22.0451 0.0000 0.0000
# 5 0.0000 0.0000 0.0000 0.0000 25.7032 0.0000
# 6 0.0000 0.0000 0.0000 0.0000 0.0000 26.7135
#
#
#
# Elastic Compliance Matrix: (Units=1/GPa)
#
#
# Indices 1 2 3 4 5 6 
#
# 1 0.016105 -0.005976 -0.006103 0.000000 0.000000 0.000000
# 2 -0.005976 0.024514 -0.006932 0.000000 0.000000 0.000000
# 3 -0.006103 -0.006932 0.017112 0.000000 0.000000 0.000000
# 4 0.000000 0.000000 0.000000 0.045362 0.000000 0.000000
# 5 0.000000 0.000000 0.000000 0.000000 0.038906 0.000000
# 6 0.000000 0.000000 0.000000 0.000000 0.000000 0.037434
#
#
# Mechanical properties :
#
#
# Convention : Reuss Voigt Hill
#
# Bulk Modulus (GPa) = 50.73442 54.43351 52.58397
# Shear Modulus (GPa) = 22.31915 23.07626 22.69771
#
# Velocity S-wave (km/s) = 3.52175 3.58098 3.55149
# Velocity P-wave (km/s) = 6.68805 6.88088 6.78515
#
# Compressibility (1/GPa) = 0.01971048
#
# Stress axis : x y z
#
# Youngs Moduli (GPa) = 62.09203 40.79282 58.44013
#
# Poissons Ratio (x) = 0.24376 0.35663
# Poissons Ratio (y) = 0.37104 0.40511
# Poissons Ratio (z) = 0.37892 0.28277
#
# Static dielectric constant tensor:
#      x y z
#    x 3.404520 0.000000 0.000000 
#    y 0.000000 3.352930 0.000000 
#    z 0.000000 0.000000 3.360090 
# 
# 
# High freq. dielectric constant tensor:
#      x y z
#    x 1.699160 0.000000 0.000000 
#    y 0.000000 1.695450 0.000000 
#    z 0.000000 0.000000 1.692730 
# 
# From -- ./inp_files/15091.got.cif
#   From: 2010.03.12/outbox.cif.g09.slc.cpg/sg44_8_cif.got.tgz:15091.got - 2010.04.14 02:36:11.
