data_PCOD8189025
_publ_section_title
;
Structure prediction by ZEFSAII (Michael W. Deem and Ramdas Pophale) SiO2 
 PCOD8189025
Probable space group: I M M 2
;
_chemical_formula_sum "Si O2"
_cell_formula_units_Z 48
_cell_length_a 10.335540
_cell_length_b 8.723855
_cell_length_c 28.227281
_cell_angle_alpha 90.000000
_cell_angle_beta 90.000000
_cell_angle_gamma 90.000000
_cell_volume 2545.134027
_symmetry_space_group_name_H-M "I M M 2"
_symmetry_group_IT_number 44
_symmetry_cell_setting 'orthorhombic'
loop_
_space_group_symop_operation_xyz
x,y,z
-x,-y,z
-x,y,z
x,-y,z
1/2+x,1/2+y,1/2+z
1/2-x,1/2-y,1/2+z
1/2-x,1/2+y,1/2+z
1/2+x,1/2-y,1/2+z
loop_
_atom_site_type_symbol
_atom_site_label
_atom_site_fract_x
_atom_site_fract_y
_atom_site_fract_z
Si Si1 0.000000 0.320210 0.278780
Si Si2 0.000000 0.682216 0.385377
Si Si3 0.744434 0.680220 0.937864
Si Si4 0.500000 0.177677 0.291771
Si Si5 0.652718 0.822721 0.029655
Si Si6 0.857162 0.318426 0.634436
Si Si7 0.253115 0.320846 0.731268
Si Si8 0.000000 0.819109 0.893391
O O1 0.000000 0.253598 0.331913
O O2 0.873135 0.268579 0.251773
O O3 0.000000 0.500000 0.281674
O O4 0.126691 0.743176 0.410643
O O5 0.000000 0.500000 0.388200
O O6 0.741768 0.500000 0.929491
O O7 0.875976 0.747522 0.918042
O O8 0.732596 0.717723 0.993546
O O9 0.374526 0.218161 0.261042
O O10 0.500000 0.282773 0.337861
O O11 0.500000 0.000000 0.307044
O O12 0.500000 0.794095 0.023735
O O13 0.698221 0.773851 0.082639
O O14 0.685300 0.000000 0.019627
O O15 0.871657 0.500000 0.637527
O O16 0.765569 0.262059 0.677107
O O17 0.000000 0.246066 0.640993
O O18 0.284307 0.500000 0.732951
O O19 0.000000 0.000000 0.900741
#
# Coordination Sequence:
#
# PCOD8189025 Si02
#       8
#     4   4   8   4   8   8   8   4
#     4  11  25  39  52  77 116 155 193 233 278 333
#     4  11  23  41  62  83 112 156 201 236 280 345
#     4  12  24  39  60  88 119 148 189 243 293 339
#     4  10  20  36  61  90 115 141 185 241 289 334
#     4   9  17  32  58  87 116 149 188 231 279 339
#     4   8  14  29  56  88 114 142 185 232 274 329
#     4  10  19  35  60  87 115 147 187 232 282 335
#     4  12  26  42  59  80 115 158 197 234 285 352
#
# _framework density 18.859518000000001
#
# number of rings (size 3 to 8) (size 9 to 14) (size 15 to 20)
#    0.000    1.833    1.667    4.750    0.000    4.667 
#    0.000    1.667    0.000    3.000    0.000    0.000 
#    0.000    0.000    0.000    0.000    0.000    0.000 
#
# Total GULP energy -297597.640632 kJ/mol
# GULP energy per Si atom -12399.901693 kJ/mol
# Density = 1.881659 g / cm^3
# Si number density = 18.859518 Si / 1000 Ang^3
#
#
#
# Elastic Constant Matrix: (Units=GPa)
#
#
# Indices 1 2 3 4 5 6 
#
# 1 124.4777 38.2701 64.1449 0.0000 0.0000 0.0000
# 2 38.2701 75.1073 42.3458 0.0000 0.0000 0.0000
# 3 64.1449 42.3458 163.6158 0.0000 0.0000 0.0000
# 4 0.0000 0.0000 0.0000 29.9887 0.0000 0.0000
# 5 0.0000 0.0000 0.0000 0.0000 -3.8217 0.0000
# 6 0.0000 0.0000 0.0000 0.0000 0.0000 35.6288
#
#
#
# Elastic Compliance Matrix: (Units=1/GPa)
#
#
# Indices 1 2 3 4 5 6 
#
# 1 0.010868 -0.003671 -0.003311 0.000000 0.000000 0.000000
# 2 -0.003671 0.016829 -0.002916 0.000000 0.000000 0.000000
# 3 -0.003311 -0.002916 0.008165 0.000000 0.000000 0.000000
# 4 0.000000 0.000000 0.000000 0.033346 0.000000 0.000000
# 5 0.000000 0.000000 0.000000 0.000000 -0.261662 0.000000
# 6 0.000000 0.000000 0.000000 0.000000 0.000000 0.028067
#
#
# Mechanical properties :
#
#
# Convention : Reuss Voigt Hill
#
# Bulk Modulus (GPa) = 62.24493 72.52470 67.38482
# Shear Modulus (GPa) = -35.91038 26.92181 -4.49429
#
# Velocity S-wave (km/s) = -4.36833 3.78231 -1.54538
# Velocity P-wave (km/s) = 2.76280 7.59034 5.71167
#
# Compressibility (1/GPa) = 0.01606556
#
# Stress axis : x y z
#
# Youngs Moduli (GPa) = 92.01048 59.42076 122.47979
#
# Poissons Ratio (x) = 0.21815 0.40550
# Poissons Ratio (y) = 0.33779 0.35719
# Poissons Ratio (z) = 0.30462 0.17329
#
# Static dielectric constant tensor:
#      x y z
#    x 3.391910 0.000000 0.000000 
#    y 0.000000 3.285690 0.000000 
#    z 0.000000 0.000000 3.932950 
# 
# 
# High freq. dielectric constant tensor:
#      x y z
#    x 1.722010 0.000000 0.000000 
#    y 0.000000 1.714070 0.000000 
#    z 0.000000 0.000000 1.755020 
# 
# From -- ./inp_files/26997.got.cif
#   From: 2010.03.12/outbox.cif.g09.slc.cpg/sg44_14_cif.got.tgz:26997.got - 2010.04.14 02:36:11.
