data_PCOD8189495
_publ_section_title
;
Structure prediction by ZEFSAII (Michael W. Deem and Ramdas Pophale) SiO2 
 PCOD8189495
Probable space group: I M M 2
;
_chemical_formula_sum "Si O2"
_cell_formula_units_Z 64
_cell_length_a 8.863468
_cell_length_b 14.199673
_cell_length_c 28.282748
_cell_angle_alpha 90.000000
_cell_angle_beta 90.000000
_cell_angle_gamma 90.000000
_cell_volume 3559.619919
_symmetry_space_group_name_H-M "I M M 2"
_symmetry_group_IT_number 44
_symmetry_cell_setting 'orthorhombic'
loop_
_space_group_symop_operation_xyz
x,y,z
-x,-y,z
-x,y,z
x,-y,z
1/2+x,1/2+y,1/2+z
1/2-x,1/2-y,1/2+z
1/2-x,1/2+y,1/2+z
1/2+x,1/2-y,1/2+z
loop_
_atom_site_type_symbol
_atom_site_label
_atom_site_fract_x
_atom_site_fract_y
_atom_site_fract_z
Si Si1 0.676988 0.251566 0.087570
Si Si2 0.678138 0.750785 0.734111
Si Si3 0.822937 0.392541 0.665629
Si Si4 0.323549 0.393405 0.411815
Si Si5 0.177131 0.259582 0.482870
Si Si6 0.820860 0.107123 0.665508
Si Si7 0.676691 0.240730 0.335103
Si Si8 0.175630 0.108319 0.406437
O O1 0.500000 0.262651 0.081362
O O2 0.718020 0.156053 0.115667
O O3 0.736477 0.340656 0.117920
O O4 0.749993 0.249971 0.035322
O O5 0.500000 0.755843 0.730542
O O6 0.735274 0.656798 0.708233
O O7 0.747974 0.844397 0.711097
O O8 0.727451 0.746882 0.788010
O O9 0.770148 0.500000 0.662620
O O10 0.000000 0.382701 0.676204
O O11 0.500000 0.389329 0.421369
O O12 0.267270 0.500000 0.403508
O O13 0.244481 0.351630 0.458098
O O14 0.280978 0.332739 0.365739
O O15 0.217385 0.164969 0.454063
O O16 0.000000 0.275644 0.486016
O O17 0.000000 0.115665 0.670825
O O18 0.766026 0.000000 0.662927
O O19 0.500000 0.235527 0.323365
O O20 0.725174 0.146967 0.363198
O O21 0.000000 0.121216 0.393683
O O22 0.217610 0.000000 0.415301
#
# Coordination Sequence:
#
# PCOD8189495 Si02
#       8
#     8   8   8   8   8   8   8   8
#     4   8  15  29  50  77 104 129 163 206 247 286
#     4  11  22  35  52  75 104 132 161 204 257 307
#     4   9  18  34  54  74  99 133 173 212 247 290
#     4   9  19  35  52  71  97 129 165 204 244 289
#     4   9  17  30  50  76 104 132 163 201 245 292
#     4   9  18  34  55  76 100 133 172 209 244 289
#     4  10  20  35  54  73  95 127 168 208 247 295
#     4   9  18  32  49  72 103 134 163 200 247 295
#
# _framework density 17.979448000000001
#
# number of rings (size 3 to 8) (size 9 to 14) (size 15 to 20)
#    0.000    2.750    0.000    2.250    0.000    3.500 
#    0.000    7.500    0.000    0.000    0.000    5.250 
#    0.000    0.000    0.000    0.000    0.000    0.000 
#
# Total GULP energy -396795.154954 kJ/mol
# GULP energy per Si atom -12399.848592 kJ/mol
# Density = 1.793853 g / cm^3
# Si number density = 17.979448 Si / 1000 Ang^3
#
#
#
# Elastic Constant Matrix: (Units=GPa)
#
#
# Indices 1 2 3 4 5 6 
#
# 1 40.3999 35.0700 31.9395 0.0000 0.0000 0.0000
# 2 35.0700 157.3245 63.3730 0.0000 0.0000 0.0000
# 3 31.9395 63.3730 138.3765 0.0000 0.0000 0.0000
# 4 0.0000 0.0000 0.0000 12.7216 0.0000 0.0000
# 5 0.0000 0.0000 0.0000 0.0000 23.1139 0.0000
# 6 0.0000 0.0000 0.0000 0.0000 0.0000 19.4492
#
#
#
# Elastic Compliance Matrix: (Units=1/GPa)
#
#
# Indices 1 2 3 4 5 6 
#
# 1 0.033590 -0.005352 -0.005302 0.000000 0.000000 0.000000
# 2 -0.005352 0.008647 -0.002725 0.000000 0.000000 0.000000
# 3 -0.005302 -0.002725 0.009698 0.000000 0.000000 0.000000
# 4 0.000000 0.000000 0.000000 0.078606 0.000000 0.000000
# 5 0.000000 0.000000 0.000000 0.000000 0.043264 0.000000
# 6 0.000000 0.000000 0.000000 0.000000 0.000000 0.051416
#
#
# Mechanical properties :
#
#
# Convention : Reuss Voigt Hill
#
# Bulk Modulus (GPa) = 39.71757 66.31844 53.01800
# Shear Modulus (GPa) = 19.20332 24.77152 21.98742
#
# Velocity S-wave (km/s) = 3.27168 3.71586 3.50082
# Velocity P-wave (km/s) = 6.03410 7.44150 6.77445
#
# Compressibility (1/GPa) = 0.02517778
#
# Stress axis : x y z
#
# Youngs Moduli (GPa) = 29.77066 115.64842 103.11057
#
# Poissons Ratio (x) = 0.61895 0.54670
# Poissons Ratio (y) = 0.15933 0.28095
# Poissons Ratio (z) = 0.15785 0.31511
#
# Static dielectric constant tensor:
#      x y z
#    x 3.135960 0.000000 0.000000 
#    y 0.000000 3.534340 0.000000 
#    z 0.000000 0.000000 3.474310 
# 
# 
# High freq. dielectric constant tensor:
#      x y z
#    x 1.677340 0.000000 0.000000 
#    y 0.000000 1.699590 0.000000 
#    z 0.000000 0.000000 1.699950 
# 
# From -- ./inp_files/27378.got.cif
#   From: 2010.03.12/outbox.cif.g09.slc.cpg/sg44_14_cif.got.tgz:27378.got - 2010.04.14 02:36:11.
