data_PCOD8189706
_publ_section_title
;
Structure prediction by ZEFSAII (Michael W. Deem and Ramdas Pophale) SiO2 
 PCOD8189706
Probable space group: I M M 2
;
_chemical_formula_sum "Si O2"
_cell_formula_units_Z 48
_cell_length_a 23.006225
_cell_length_b 8.890723
_cell_length_c 11.559182
_cell_angle_alpha 90.000000
_cell_angle_beta 90.000000
_cell_angle_gamma 90.000000
_cell_volume 2364.337901
_symmetry_space_group_name_H-M "I M M 2"
_symmetry_group_IT_number 44
_symmetry_cell_setting 'orthorhombic'
loop_
_space_group_symop_operation_xyz
x,y,z
-x,-y,z
-x,y,z
x,-y,z
1/2+x,1/2+y,1/2+z
1/2-x,1/2-y,1/2+z
1/2-x,1/2+y,1/2+z
1/2+x,1/2-y,1/2+z
loop_
_atom_site_type_symbol
_atom_site_label
_atom_site_fract_x
_atom_site_fract_y
_atom_site_fract_z
Si Si1 0.150272 0.325608 0.830930
Si Si2 0.355904 0.673805 0.572736
Si Si3 0.434426 0.331064 0.182622
Si Si4 0.067263 0.678156 0.255326
Si Si5 0.640348 0.328504 0.957215
Si Si6 0.226450 0.673646 0.616592
O O1 0.155904 0.500000 0.863070
O O2 0.087863 0.290139 0.774936
O O3 0.197772 0.271326 0.736618
O O4 0.156522 0.225570 0.943312
O O5 0.374080 0.500000 0.574286
O O6 0.407973 0.767296 0.631512
O O7 0.294645 0.701118 0.637048
O O8 0.500000 0.290187 0.158399
O O9 0.425899 0.500000 0.231862
O O10 0.404600 0.313770 0.060055
O O11 0.069454 0.500000 0.260407
O O12 0.111273 0.742820 0.350466
O O13 0.000000 0.733357 0.270445
O O14 0.651782 0.500000 0.918520
O O15 0.701541 0.260790 0.003444
O O16 0.211435 0.500000 0.594826
#
# Coordination Sequence:
#
# PCOD8189706 Si02
#       6
#     8   8   8   8   8   8
#     4  10  21  38  58  84 118 152 193 243 298 360
#     4  11  24  41  62  88 118 158 204 250 304 365
#     4   9  18  34  57  85 116 152 195 241 290 347
#     4  11  25  43  62  88 124 166 210 254 306 366
#     4  10  20  36  62  93 123 157 199 248 301 358
#     4   9  21  40  61  89 122 155 197 248 304 363
#
# _framework density 20.301667999999999
#
# number of rings (size 3 to 8) (size 9 to 14) (size 15 to 20)
#    0.000    2.000    0.000    2.500    2.333    5.667 
#    0.000    0.000    0.000    0.000    0.000    0.000 
#    0.000    0.000    0.000    0.000    0.000    0.000 
#
# Total GULP energy -297580.160719 kJ/mol
# GULP energy per Si atom -12399.173363 kJ/mol
# Density = 2.025546 g / cm^3
# Si number density = 20.301668 Si / 1000 Ang^3
#
#
#
# Elastic Constant Matrix: (Units=GPa)
#
#
# Indices 1 2 3 4 5 6 
#
# 1 74.6453 36.8858 22.0760 0.0000 0.0000 0.0000
# 2 36.8858 81.5265 35.0852 0.0000 0.0000 0.0000
# 3 22.0760 35.0852 85.3418 0.0000 0.0000 0.0000
# 4 0.0000 0.0000 0.0000 40.4483 0.0000 0.0000
# 5 0.0000 0.0000 0.0000 0.0000 19.1480 0.0000
# 6 0.0000 0.0000 0.0000 0.0000 0.0000 28.8868
#
#
#
# Elastic Compliance Matrix: (Units=1/GPa)
#
#
# Indices 1 2 3 4 5 6 
#
# 1 0.017419 -0.007219 -0.001538 0.000000 0.000000 0.000000
# 2 -0.007219 0.017894 -0.005489 0.000000 0.000000 0.000000
# 3 -0.001538 -0.005489 0.014372 0.000000 0.000000 0.000000
# 4 0.000000 0.000000 0.000000 0.024723 0.000000 0.000000
# 5 0.000000 0.000000 0.000000 0.000000 0.052225 0.000000
# 6 0.000000 0.000000 0.000000 0.000000 0.000000 0.034618
#
#
# Mechanical properties :
#
#
# Convention : Reuss Voigt Hill
#
# Bulk Modulus (GPa) = 47.18588 47.73419 47.46003
# Shear Modulus (GPa) = 25.40548 27.52773 26.46661
#
# Velocity S-wave (km/s) = 3.54135 3.68630 3.61455
# Velocity P-wave (km/s) = 6.32569 6.45615 6.39125
#
# Compressibility (1/GPa) = 0.02119278
#
# Stress axis : x y z
#
# Youngs Moduli (GPa) = 57.40916 55.88324 69.57909
#
# Poissons Ratio (x) = 0.40343 0.10701
# Poissons Ratio (y) = 0.41444 0.38194
# Poissons Ratio (z) = 0.08829 0.30676
#
# Static dielectric constant tensor:
#      x y z
#    x 3.907690 0.000000 0.000000 
#    y 0.000000 3.731480 0.000000 
#    z 0.000000 0.000000 3.676370 
# 
# 
# High freq. dielectric constant tensor:
#      x y z
#    x 1.797410 0.000000 0.000000 
#    y 0.000000 1.794720 0.000000 
#    z 0.000000 0.000000 1.793490 
# 
# From -- ./inp_files/11140.got.cif
#   From: 2010.03.12/outbox.cif.g09.slc.cpg/sg44_6_cif.got.tgz:11140.got - 2010.04.14 02:36:11.
