data_PCOD8189526
_publ_section_title
;
Structure prediction by ZEFSAII (Michael W. Deem and Ramdas Pophale) SiO2 
 PCOD8189526
Probable space group: I M M 2
;
_chemical_formula_sum "Si O2"
_cell_formula_units_Z 56
_cell_length_a 22.283246
_cell_length_b 8.760168
_cell_length_c 14.381316
_cell_angle_alpha 90.000000
_cell_angle_beta 90.000000
_cell_angle_gamma 90.000000
_cell_volume 2807.304481
_symmetry_space_group_name_H-M "I M M 2"
_symmetry_group_IT_number 44
_symmetry_cell_setting 'orthorhombic'
loop_
_space_group_symop_operation_xyz
x,y,z
-x,-y,z
-x,y,z
x,-y,z
1/2+x,1/2+y,1/2+z
1/2-x,1/2-y,1/2+z
1/2-x,1/2+y,1/2+z
1/2+x,1/2-y,1/2+z
loop_
_atom_site_type_symbol
_atom_site_label
_atom_site_fract_x
_atom_site_fract_y
_atom_site_fract_z
Si Si1 0.000000 0.679039 0.401670
Si Si2 0.500000 0.181131 0.110923
Si Si3 0.352320 0.325020 0.400597
Si Si4 0.883139 0.679243 0.720482
Si Si5 0.216211 0.821231 0.600574
Si Si6 0.787851 0.676573 0.407365
Si Si7 0.158827 0.824310 0.106053
Si Si8 0.609755 0.674760 0.798838
O O1 0.058584 0.725847 0.345441
O O2 0.000000 0.500000 0.411382
O O3 0.000000 0.749268 0.506033
O O4 0.441404 0.239592 0.165520
O O5 0.500000 0.000000 0.109226
O O6 0.367465 0.500000 0.377869
O O7 0.389596 0.218349 0.330099
O O8 0.281706 0.292118 0.389160
O O9 0.371141 0.283014 0.506580
O O10 0.873645 0.500000 0.706464
O O11 0.825509 0.772166 0.685765
O O12 0.194012 0.728741 0.510613
O O13 0.284538 0.782966 0.626751
O O14 0.210238 0.000000 0.581683
O O15 0.804988 0.500000 0.395978
O O16 0.825011 0.775672 0.334279
O O17 0.109582 0.801701 0.187031
O O18 0.181932 0.000000 0.102106
O O19 0.597600 0.500000 0.824848
#
# Coordination Sequence:
#
# PCOD8189526 Si02
#       8
#     4   4   8   8   8   8   8   8
#     4  11  23  41  62  81 108 148 187 227 282 339
#     4   9  22  41  58  77 104 142 183 221 266 325
#     4   9  19  36  56  82 113 144 182 225 271 328
#     4  11  21  36  57  79 108 146 186 228 278 330
#     4  11  21  33  54  85 116 145 184 231 276 329
#     4  10  20  35  55  81 116 152 183 222 278 339
#     4   9  20  38  58  80 112 150 183 223 277 333
#     4  11  22  37  58  84 112 145 189 235 279 331
#
# _framework density 19.947959999999998
#
# number of rings (size 3 to 8) (size 9 to 14) (size 15 to 20)
#    0.000    1.857    0.000    5.357    0.000    7.429 
#    0.000    4.286    0.000    2.571    0.000    0.000 
#    0.000    0.000    0.000    0.000    0.000    0.000 
#
# Total GULP energy -347279.573305 kJ/mol
# GULP energy per Si atom -12402.841904 kJ/mol
# Density = 1.990256 g / cm^3
# Si number density = 19.947960 Si / 1000 Ang^3
#
#
#
# Elastic Constant Matrix: (Units=GPa)
#
#
# Indices 1 2 3 4 5 6 
#
# 1 61.0755 28.7865 57.7183 0.0000 0.0000 0.0000
# 2 28.7865 59.6586 31.2922 0.0000 0.0000 0.0000
# 3 57.7183 31.2922 148.3370 0.0000 0.0000 0.0000
# 4 0.0000 0.0000 0.0000 32.7310 0.0000 0.0000
# 5 0.0000 0.0000 0.0000 0.0000 30.6788 0.0000
# 6 0.0000 0.0000 0.0000 0.0000 0.0000 23.0453
#
#
#
# Elastic Compliance Matrix: (Units=1/GPa)
#
#
# Indices 1 2 3 4 5 6 
#
# 1 0.029925 -0.009369 -0.009668 0.000000 0.000000 0.000000
# 2 -0.009369 0.021781 -0.000949 0.000000 0.000000 0.000000
# 3 -0.009668 -0.000949 0.010703 0.000000 0.000000 0.000000
# 4 0.000000 0.000000 0.000000 0.030552 0.000000 0.000000
# 5 0.000000 0.000000 0.000000 0.000000 0.032596 0.000000
# 6 0.000000 0.000000 0.000000 0.000000 0.000000 0.043393
#
#
# Mechanical properties :
#
#
# Convention : Reuss Voigt Hill
#
# Bulk Modulus (GPa) = 44.56746 56.07391 50.32068
# Shear Modulus (GPa) = 23.10539 27.37598 25.24068
#
# Velocity S-wave (km/s) = 3.40705 3.70857 3.56100
# Velocity P-wave (km/s) = 6.15367 6.81976 6.49526
#
# Compressibility (1/GPa) = 0.02243790
#
# Stress axis : x y z
#
# Youngs Moduli (GPa) = 33.41683 45.91260 93.42877
#
# Poissons Ratio (x) = 0.43014 0.90323
# Poissons Ratio (y) = 0.31307 0.08869
# Poissons Ratio (z) = 0.32306 0.04359
#
# Static dielectric constant tensor:
#      x y z
#    x 3.366980 0.000000 0.000000 
#    y 0.000000 3.512980 0.000000 
#    z 0.000000 0.000000 3.925630 
# 
# 
# High freq. dielectric constant tensor:
#      x y z
#    x 1.749240 0.000000 0.000000 
#    y 0.000000 1.774040 0.000000 
#    z 0.000000 0.000000 1.797190 
# 
# From -- ./inp_files/19218.got.cif
#   From: 2010.03.12/outbox.cif.g09.slc.cpg/sg44_10_cif.got.tgz:19218.got - 2010.04.14 02:36:11.
