data_PCOD8189402
_publ_section_title
;
Structure prediction by ZEFSAII (Michael W. Deem and Ramdas Pophale) SiO2 
 PCOD8189402
Probable space group: I M M 2
;
_chemical_formula_sum "Si O2"
_cell_formula_units_Z 64
_cell_length_a 19.859455
_cell_length_b 9.113800
_cell_length_c 19.558299
_cell_angle_alpha 90.000000
_cell_angle_beta 90.000000
_cell_angle_gamma 90.000000
_cell_volume 3539.956302
_symmetry_space_group_name_H-M "I M M 2"
_symmetry_group_IT_number 44
_symmetry_cell_setting 'orthorhombic'
loop_
_space_group_symop_operation_xyz
x,y,z
-x,-y,z
-x,y,z
x,-y,z
1/2+x,1/2+y,1/2+z
1/2-x,1/2-y,1/2+z
1/2-x,1/2+y,1/2+z
1/2+x,1/2-y,1/2+z
loop_
_atom_site_type_symbol
_atom_site_label
_atom_site_fract_x
_atom_site_fract_y
_atom_site_fract_z
Si Si1 0.679597 0.672086 0.052920
Si Si2 0.922964 0.830123 0.318519
Si Si3 0.815514 0.170455 0.207792
Si Si4 0.181849 0.829583 0.711380
Si Si5 0.922134 0.332144 0.803470
Si Si6 0.421208 0.170215 0.955723
Si Si7 0.815854 0.827659 0.051405
Si Si8 0.921942 0.331576 0.960682
O O1 0.682969 0.500000 0.037543
O O2 0.668163 0.707045 0.132395
O O3 0.748719 0.744793 0.026494
O O4 0.616827 0.742663 0.014604
O O5 0.879445 0.783667 0.253003
O O6 0.899204 0.733196 0.382375
O O7 0.000000 0.797166 0.299078
O O8 0.912326 0.000000 0.337957
O O9 0.750459 0.254082 0.236292
O O10 0.831759 0.213927 0.129861
O O11 0.799206 0.000000 0.214362
O O12 0.119624 0.773421 0.755094
O O13 0.190327 0.000000 0.724443
O O14 0.905962 0.500000 0.784634
O O15 0.903288 0.301477 0.882025
O O16 0.000000 0.297110 0.790583
O O17 0.500000 0.196200 0.968067
O O18 0.401716 0.000000 0.958709
O O19 0.804802 0.000000 0.041471
O O20 0.878823 0.776501 0.007060
O O21 0.906081 0.500000 0.979680
O O22 0.000000 0.296462 0.973998
#
# Coordination Sequence:
#
# PCOD8189402 Si02
#       8
#     8   8   8   8   8   8   8   8
#     4  10  21  37  55  75 103 139 175 210 254 311
#     4   9  18  34  55  77 103 137 174 210 252 305
#     4   9  19  35  54  76 104 138 173 210 254 307
#     4  10  21  35  53  78 105 133 169 214 258 302
#     4   9  19  36  56  76 101 136 174 209 250 305
#     4  10  21  36  54  78 106 134 169 215 261 304
#     4  10  20  34  54  80 107 135 172 218 262 302
#     4   9  19  36  55  76 105 141 178 212 251 306
#
# _framework density 18.079318000000001
#
# number of rings (size 3 to 8) (size 9 to 14) (size 15 to 20)
#    0.000    2.500    0.000    2.250    0.000    6.250 
#    0.000    6.250    0.000    1.500    0.000    0.000 
#    0.000    0.000    0.000    0.000    0.000    0.000 
#
# Total GULP energy -396912.349310 kJ/mol
# GULP energy per Si atom -12403.510916 kJ/mol
# Density = 1.803817 g / cm^3
# Si number density = 18.079318 Si / 1000 Ang^3
#
#
#
# Elastic Constant Matrix: (Units=GPa)
#
#
# Indices 1 2 3 4 5 6 
#
# 1 95.9307 54.8665 64.0208 0.0000 0.0000 0.0000
# 2 54.8665 85.9141 52.9209 0.0000 0.0000 0.0000
# 3 64.0208 52.9209 83.9912 0.0000 0.0000 0.0000
# 4 0.0000 0.0000 0.0000 32.0571 0.0000 0.0000
# 5 0.0000 0.0000 0.0000 0.0000 29.0648 0.0000
# 6 0.0000 0.0000 0.0000 0.0000 0.0000 34.6390
#
#
#
# Elastic Compliance Matrix: (Units=1/GPa)
#
#
# Indices 1 2 3 4 5 6 
#
# 1 0.023193 -0.006410 -0.013640 0.000000 0.000000 0.000000
# 2 -0.006410 0.020794 -0.008216 0.000000 0.000000 0.000000
# 3 -0.013640 -0.008216 0.027479 0.000000 0.000000 0.000000
# 4 0.000000 0.000000 0.000000 0.031194 0.000000 0.000000
# 5 0.000000 0.000000 0.000000 0.000000 0.034406 0.000000
# 6 0.000000 0.000000 0.000000 0.000000 0.000000 0.028869
#
#
# Mechanical properties :
#
#
# Convention : Reuss Voigt Hill
#
# Bulk Modulus (GPa) = 66.95628 67.71694 67.33661
# Shear Modulus (GPa) = 21.98340 25.42070 23.70205
#
# Velocity S-wave (km/s) = 3.49082 3.75382 3.62471
# Velocity P-wave (km/s) = 7.30499 7.50500 7.40567
#
# Compressibility (1/GPa) = 0.01493512
#
# Stress axis : x y z
#
# Youngs Moduli (GPa) = 43.11686 48.09142 36.39095
#
# Poissons Ratio (x) = 0.30825 0.49636
# Poissons Ratio (y) = 0.27636 0.29899
# Poissons Ratio (z) = 0.58810 0.39512
#
# Static dielectric constant tensor:
#      x y z
#    x 3.328170 0.000000 0.000000 
#    y 0.000000 3.357180 0.000000 
#    z 0.000000 0.000000 3.323540 
# 
# 
# High freq. dielectric constant tensor:
#      x y z
#    x 1.703310 0.000000 0.000000 
#    y 0.000000 1.705620 0.000000 
#    z 0.000000 0.000000 1.698360 
# 
# From -- ./inp_files/20769.got.cif
#   From: 2010.03.12/outbox.cif.g09.slc.cpg/sg44_11_cif.got.tgz:20769.got - 2010.04.14 02:36:11.
