data_PCOD8189792
_publ_section_title
;
Structure prediction by ZEFSAII (Michael W. Deem and Ramdas Pophale) SiO2 
 PCOD8189792
Probable space group: I M M 2
;
_chemical_formula_sum "Si O2"
_cell_formula_units_Z 48
_cell_length_a 16.940615
_cell_length_b 15.360215
_cell_length_c 9.066695
_cell_angle_alpha 90.000000
_cell_angle_beta 90.000000
_cell_angle_gamma 90.000000
_cell_volume 2359.258203
_symmetry_space_group_name_H-M "I M M 2"
_symmetry_group_IT_number 44
_symmetry_cell_setting 'orthorhombic'
loop_
_space_group_symop_operation_xyz
x,y,z
-x,-y,z
-x,y,z
x,-y,z
1/2+x,1/2+y,1/2+z
1/2-x,1/2-y,1/2+z
1/2-x,1/2+y,1/2+z
1/2+x,1/2-y,1/2+z
loop_
_atom_site_type_symbol
_atom_site_label
_atom_site_fract_x
_atom_site_fract_y
_atom_site_fract_z
Si Si1 0.590485 0.667170 0.619040
Si Si2 0.179127 0.500000 0.279373
Si Si3 0.816142 0.500000 0.614761
Si Si4 0.592466 0.823374 0.105904
Si Si5 0.652529 0.500000 0.774969
Si Si6 0.648221 0.667775 0.295215
Si Si7 0.164309 0.685854 0.300428
Si Si8 0.338582 0.500000 0.121925
O O1 0.500000 0.694083 0.634131
O O2 0.607215 0.584353 0.719206
O O3 0.612385 0.645046 0.452871
O O4 0.642699 0.748439 0.671469
O O5 0.215809 0.500000 0.446280
O O6 0.128653 0.589082 0.262694
O O7 0.245772 0.500000 0.155475
O O8 0.868283 0.584901 0.647295
O O9 0.742899 0.500000 0.724629
O O10 0.500000 0.837987 0.085093
O O11 0.609285 0.756130 0.236746
O O12 0.629116 0.782753 0.956223
O O13 0.647505 0.500000 0.949620
O O14 0.741740 0.678626 0.309969
O O15 0.623575 0.587376 0.190512
#
# Coordination Sequence:
#
# PCOD8189792 Si02
#       8
#     8   4   4   8   4   8   8   4
#     4  12  25  41  60  90 127 162 201 257 315 362
#     4   8  18  37  60  90 118 151 199 250 298 349
#     4  10  21  39  65  90 121 163 205 250 304 369
#     4  11  22  38  60  92 126 160 204 259 310 357
#     4  12  23  40  64  90 118 160 209 254 306 372
#     4  11  22  41  63  88 121 164 208 252 305 370
#     4  10  20  38  64  90 120 160 208 253 299 366
#     4  10  22  38  63  90 113 148 205 260 298 350
#
# _framework density 20.345378
#
# number of rings (size 3 to 8) (size 9 to 14) (size 15 to 20)
#    0.000    1.333    0.000    8.000    0.000    4.000 
#    0.000    5.000    0.000    0.000    0.000    1.167 
#    0.000    0.000    0.000    0.000    0.000    0.000 
#
# Total GULP energy -297665.904664 kJ/mol
# GULP energy per Si atom -12402.746028 kJ/mol
# Density = 2.029907 g / cm^3
# Si number density = 20.345378 Si / 1000 Ang^3
#
#
#
# Elastic Constant Matrix: (Units=GPa)
#
#
# Indices 1 2 3 4 5 6 
#
# 1 73.0810 21.5174 16.4476 0.0000 0.0000 0.0000
# 2 21.5174 137.7277 57.7721 0.0000 0.0000 0.0000
# 3 16.4476 57.7721 141.0468 0.0000 0.0000 0.0000
# 4 0.0000 0.0000 0.0000 35.7549 0.0000 0.0000
# 5 0.0000 0.0000 0.0000 0.0000 23.7895 0.0000
# 6 0.0000 0.0000 0.0000 0.0000 0.0000 24.8457
#
#
#
# Elastic Compliance Matrix: (Units=1/GPa)
#
#
# Indices 1 2 3 4 5 6 
#
# 1 0.014441 -0.001871 -0.000918 0.000000 0.000000 0.000000
# 2 -0.001871 0.009009 -0.003472 0.000000 0.000000 0.000000
# 3 -0.000918 -0.003472 0.008619 0.000000 0.000000 0.000000
# 4 0.000000 0.000000 0.000000 0.027968 0.000000 0.000000
# 5 0.000000 0.000000 0.000000 0.000000 0.042035 0.000000
# 6 0.000000 0.000000 0.000000 0.000000 0.000000 0.040248
#
#
# Mechanical properties :
#
#
# Convention : Reuss Voigt Hill
#
# Bulk Modulus (GPa) = 51.15683 60.36997 55.76340
# Shear Modulus (GPa) = 30.98688 33.95259 32.46974
#
# Velocity S-wave (km/s) = 3.90685 4.08954 3.99924
# Velocity P-wave (km/s) = 6.74908 7.21361 6.98521
#
# Compressibility (1/GPa) = 0.01954773
#
# Stress axis : x y z
#
# Youngs Moduli (GPa) = 69.24778 110.99459 116.02334
#
# Poissons Ratio (x) = 0.20770 0.10645
# Poissons Ratio (y) = 0.12958 0.40283
# Poissons Ratio (z) = 0.06354 0.38538
#
# Static dielectric constant tensor:
#      x y z
#    x 3.546750 0.000000 0.000000 
#    y 0.000000 4.108900 0.000000 
#    z 0.000000 0.000000 3.628470 
# 
# 
# High freq. dielectric constant tensor:
#      x y z
#    x 1.782570 0.000000 0.000000 
#    y 0.000000 1.817580 0.000000 
#    z 0.000000 0.000000 1.794670 
# 
# From -- ./inp_files/8147.got.cif
#   From: 2010.03.12/outbox.cif.g09.slc.cpg/sg44_5_cif.got.tgz:8147.got - 2010.04.14 02:36:11.
