data_PCOD8189133
_publ_section_title
;
Structure prediction by ZEFSAII (Michael W. Deem and Ramdas Pophale) SiO2 
 PCOD8189133
Probable space group: I M M 2
;
_chemical_formula_sum "Si O2"
_cell_formula_units_Z 64
_cell_length_a 9.107020
_cell_length_b 14.578358
_cell_length_c 28.271892
_cell_angle_alpha 90.000000
_cell_angle_beta 90.000000
_cell_angle_gamma 90.000000
_cell_volume 3753.528990
_symmetry_space_group_name_H-M "I M M 2"
_symmetry_group_IT_number 44
_symmetry_cell_setting 'orthorhombic'
loop_
_space_group_symop_operation_xyz
x,y,z
-x,-y,z
-x,y,z
x,-y,z
1/2+x,1/2+y,1/2+z
1/2-x,1/2-y,1/2+z
1/2-x,1/2+y,1/2+z
1/2+x,1/2-y,1/2+z
loop_
_atom_site_type_symbol
_atom_site_label
_atom_site_fract_x
_atom_site_fract_y
_atom_site_fract_z
Si Si1 0.325174 0.708641 0.420880
Si Si2 0.675037 0.727535 0.700677
Si Si3 0.830989 0.101986 0.741117
Si Si4 0.674515 0.602946 0.616073
Si Si5 0.674262 0.602353 0.511187
Si Si6 0.340176 0.649467 0.797177
Si Si7 0.329615 0.901037 0.383898
Si Si8 0.836978 0.353318 0.332837
O O1 0.500000 0.699867 0.415866
O O2 0.268919 0.674814 0.472208
O O3 0.270784 0.814813 0.414618
O O4 0.251623 0.641960 0.382149
O O5 0.500000 0.743756 0.700998
O O6 0.751969 0.826453 0.705913
O O7 0.733862 0.678001 0.653287
O O8 0.721074 0.659944 0.743821
O O9 0.754630 0.095758 0.792363
O O10 0.000000 0.132069 0.747884
O O11 0.820383 0.000000 0.718521
O O12 0.500000 0.602417 0.618400
O O13 0.731555 0.500000 0.628133
O O14 0.729381 0.631767 0.563543
O O15 0.500000 0.600950 0.511167
O O16 0.732401 0.500000 0.499183
O O17 0.500000 0.601335 0.796214
O O18 0.234297 0.592195 0.830872
O O19 0.355762 0.749207 0.818754
O O20 0.500000 0.886344 0.376676
O O21 0.295487 0.000000 0.408809
O O22 0.000000 0.397646 0.338433
#
# Coordination Sequence:
#
# PCOD8189133 Si02
#       8
#     8   8   8   8   8   8   8   8
#     4   9  16  27  44  64  88 118 150 185 224 267
#     4   9  17  29  47  69  91 116 147 185 228 269
#     4  10  20  32  46  65  91 124 157 185 217 263
#     4   8  14  26  45  69  94 117 145 185 231 276
#     4   8  14  25  43  67  90 112 143 183 225 269
#     4   8  15  26  39  58  82 108 139 174 212 254
#     4   9  17  27  38  55  82 116 148 176 211 255
#     4   9  17  29  44  63  88 116 147 184 222 258
#
# _framework density 17.050619999999999
#
# number of rings (size 3 to 8) (size 9 to 14) (size 15 to 20)
#    0.000    3.250    0.000    2.250    0.000    5.250 
#    0.000    2.500    0.000    1.875    0.000    5.250 
#    0.000    0.000    0.000    0.000    0.000    0.000 
#
# Total GULP energy -396440.974095 kJ/mol
# GULP energy per Si atom -12388.780440 kJ/mol
# Density = 1.701181 g / cm^3
# Si number density = 17.050620 Si / 1000 Ang^3
#
#
#
# Elastic Constant Matrix: (Units=GPa)
#
#
# Indices 1 2 3 4 5 6 
#
# 1 43.1626 28.6906 26.7638 0.0000 0.0000 0.0000
# 2 28.6906 102.6371 68.7629 0.0000 0.0000 0.0000
# 3 26.7638 68.7629 133.7712 0.0000 0.0000 0.0000
# 4 0.0000 0.0000 0.0000 23.3055 0.0000 0.0000
# 5 0.0000 0.0000 0.0000 0.0000 16.6199 0.0000
# 6 0.0000 0.0000 0.0000 0.0000 0.0000 11.7346
#
#
#
# Elastic Compliance Matrix: (Units=1/GPa)
#
#
# Indices 1 2 3 4 5 6 
#
# 1 0.028991 -0.006434 -0.002493 0.000000 0.000000 0.000000
# 2 -0.006434 0.016289 -0.007086 0.000000 0.000000 0.000000
# 3 -0.002493 -0.007086 0.011617 0.000000 0.000000 0.000000
# 4 0.000000 0.000000 0.000000 0.042908 0.000000 0.000000
# 5 0.000000 0.000000 0.000000 0.000000 0.060169 0.000000
# 6 0.000000 0.000000 0.000000 0.000000 0.000000 0.085218
#
#
# Mechanical properties :
#
#
# Convention : Reuss Voigt Hill
#
# Bulk Modulus (GPa) = 40.20760 58.66727 49.43743
# Shear Modulus (GPa) = 17.51276 20.68890 19.10083
#
# Velocity S-wave (km/s) = 3.20832 3.48714 3.35063
# Velocity P-wave (km/s) = 6.11203 7.12011 6.63524
#
# Compressibility (1/GPa) = 0.02487092
#
# Stress axis : x y z
#
# Youngs Moduli (GPa) = 34.49399 61.39254 86.08405
#
# Poissons Ratio (x) = 0.39497 0.21462
# Poissons Ratio (y) = 0.22192 0.60997
# Poissons Ratio (z) = 0.08600 0.43501
#
# Static dielectric constant tensor:
#      x y z
#    x 3.110060 0.000000 0.000000 
#    y 0.000000 3.277610 0.000000 
#    z 0.000000 0.000000 3.390480 
# 
# 
# High freq. dielectric constant tensor:
#      x y z
#    x 1.631960 0.000000 0.000000 
#    y 0.000000 1.653170 0.000000 
#    z 0.000000 0.000000 1.637600 
# 
# From -- ./inp_files/27302.got.cif
#   From: 2010.03.12/outbox.cif.g09.slc.cpg/sg44_14_cif.got.tgz:27302.got - 2010.04.14 02:36:11.
