data_PCOD8189532
_publ_section_title
;
Structure prediction by ZEFSAII (Michael W. Deem and Ramdas Pophale) SiO2 
 PCOD8189532
Probable space group: I M M 2
;
_chemical_formula_sum "Si O2"
_cell_formula_units_Z 40
_cell_length_a 11.851266
_cell_length_b 8.970853
_cell_length_c 20.124391
_cell_angle_alpha 90.000000
_cell_angle_beta 90.000000
_cell_angle_gamma 90.000000
_cell_volume 2139.544052
_symmetry_space_group_name_H-M "I M M 2"
_symmetry_group_IT_number 44
_symmetry_cell_setting 'orthorhombic'
loop_
_space_group_symop_operation_xyz
x,y,z
-x,-y,z
-x,y,z
x,-y,z
1/2+x,1/2+y,1/2+z
1/2-x,1/2-y,1/2+z
1/2-x,1/2+y,1/2+z
1/2+x,1/2-y,1/2+z
loop_
_atom_site_type_symbol
_atom_site_label
_atom_site_fract_x
_atom_site_fract_y
_atom_site_fract_z
Si Si1 0.626937 0.823415 0.894460
Si Si2 0.630901 0.825805 0.633052
Si Si3 0.786699 0.676149 0.535023
Si Si4 0.244839 0.821191 0.765714
Si Si5 0.000000 0.835855 0.749914
Si Si6 0.500000 0.334304 0.093845
O O1 0.500000 0.757991 0.901834
O O2 0.684580 0.758509 0.828099
O O3 0.619172 0.000000 0.889095
O O4 0.702787 0.776996 0.957702
O O5 0.500000 0.790936 0.643454
O O6 0.672567 0.741597 0.566744
O O7 0.696626 0.764918 0.697938
O O8 0.653957 0.000000 0.622901
O O9 0.787833 0.500000 0.543203
O O10 0.891012 0.742937 0.574171
O O11 0.116852 0.755295 0.771865
O O12 0.241790 0.000000 0.765007
O O13 0.000000 0.852069 0.671707
O O14 0.000000 0.000000 0.782685
O O15 0.500000 0.500000 0.061409
#
# Coordination Sequence:
#
# PCOD8189532 Si02
#       6
#     8   8   8   8   4   4
#     4   9  17  30  48  73 105 137 172 216 263 311
#     4  10  20  35  56  80 104 138 183 225 267 316
#     4  11  21  34  53  81 112 141 174 219 275 324
#     4   9  16  29  50  77 103 132 175 227 265 300
#     4   9  16  27  49  79 103 124 169 224 264 301
#     4  11  19  33  57  83 107 136 177 224 264 313
#
# _framework density 18.695571999999999
#
# number of rings (size 3 to 8) (size 9 to 14) (size 15 to 20)
#    0.000    2.200    3.000    1.500    0.000    2.800 
#    1.800    0.000    0.000    2.400    0.000    0.000 
#    0.000    0.000    0.000    0.000    0.000    0.000 
#
# Total GULP energy -247914.292487 kJ/mol
# GULP energy per Si atom -12395.714624 kJ/mol
# Density = 1.865302 g / cm^3
# Si number density = 18.695572 Si / 1000 Ang^3
#
#
#
# Elastic Constant Matrix: (Units=GPa)
#
#
# Indices 1 2 3 4 5 6 
#
# 1 140.4898 30.6841 72.1667 0.0000 0.0000 0.0000
# 2 30.6841 35.7234 25.4534 0.0000 0.0000 0.0000
# 3 72.1667 25.4534 132.6904 0.0000 0.0000 0.0000
# 4 0.0000 0.0000 0.0000 19.8644 0.0000 0.0000
# 5 0.0000 0.0000 0.0000 0.0000 -7.8748 0.0000
# 6 0.0000 0.0000 0.0000 0.0000 0.0000 36.9980
#
#
#
# Elastic Compliance Matrix: (Units=1/GPa)
#
#
# Indices 1 2 3 4 5 6 
#
# 1 0.010864 -0.005933 -0.004771 0.000000 0.000000 0.000000
# 2 -0.005933 0.035664 -0.003615 0.000000 0.000000 0.000000
# 3 -0.004771 -0.003615 0.010824 0.000000 0.000000 0.000000
# 4 0.000000 0.000000 0.000000 0.050341 0.000000 0.000000
# 5 0.000000 0.000000 0.000000 0.000000 -0.126988 0.000000
# 6 0.000000 0.000000 0.000000 0.000000 0.000000 0.027028
#
#
# Mechanical properties :
#
#
# Convention : Reuss Voigt Hill
#
# Bulk Modulus (GPa) = 34.82291 62.83465 48.82878
# Shear Modulus (GPa) = 108.83000 21.83748 65.33374
#
# Velocity S-wave (km/s) = 7.63793 3.42139 5.91794
# Velocity P-wave (km/s) = 9.82093 7.02070 8.53642
#
# Compressibility (1/GPa) = 0.02871673
#
# Stress axis : x y z
#
# Youngs Moduli (GPa) = 92.04436 28.03945 92.38347
#
# Poissons Ratio (x) = 0.16634 0.44074
# Poissons Ratio (y) = 0.54605 0.33394
# Poissons Ratio (z) = 0.43913 0.10136
#
# Static dielectric constant tensor:
#      x y z
#    x 3.968570 0.000000 0.000000 
#    y 0.000000 3.032330 0.000000 
#    z 0.000000 0.000000 3.576080 
# 
# 
# High freq. dielectric constant tensor:
#      x y z
#    x 1.737190 0.000000 0.000000 
#    y 0.000000 1.671610 0.000000 
#    z 0.000000 0.000000 1.727190 
# 
# From -- ./inp_files/22766.got.cif
#   From: 2010.03.12/outbox.cif.g09.slc.cpg/sg44_12_cif.got.tgz:22766.got - 2010.04.14 02:36:11.
