data_PCOD8189262
_publ_section_title
;
Structure prediction by ZEFSAII (Michael W. Deem and Ramdas Pophale) SiO2 
 PCOD8189262
Probable space group: I M M 2
;
_chemical_formula_sum "Si O2"
_cell_formula_units_Z 56
_cell_length_a 9.045066
_cell_length_b 20.001333
_cell_length_c 15.843847
_cell_angle_alpha 90.000000
_cell_angle_beta 90.000000
_cell_angle_gamma 90.000000
_cell_volume 2866.363867
_symmetry_space_group_name_H-M "I M M 2"
_symmetry_group_IT_number 44
_symmetry_cell_setting 'orthorhombic'
loop_
_space_group_symop_operation_xyz
x,y,z
-x,-y,z
-x,y,z
x,-y,z
1/2+x,1/2+y,1/2+z
1/2-x,1/2-y,1/2+z
1/2-x,1/2+y,1/2+z
1/2+x,1/2-y,1/2+z
loop_
_atom_site_type_symbol
_atom_site_label
_atom_site_fract_x
_atom_site_fract_y
_atom_site_fract_z
Si Si1 0.830593 0.078687 0.353750
Si Si2 0.659189 0.073026 0.510461
Si Si3 0.832634 0.104290 0.661258
Si Si4 0.176663 0.696044 0.777687
Si Si5 0.830766 0.576313 0.330296
Si Si6 0.827218 0.289347 0.418031
Si Si7 0.167335 0.746106 0.601349
O O1 0.777799 0.105011 0.446303
O O2 0.728269 0.119665 0.289586
O O3 0.000000 0.100307 0.344284
O O4 0.811300 0.000000 0.337245
O O5 0.500000 0.111940 0.513159
O O6 0.727325 0.060399 0.602699
O O7 0.626734 0.000000 0.473225
O O8 0.775813 0.100273 0.755912
O O9 0.820283 0.175854 0.617887
O O10 0.000000 0.077611 0.660218
O O11 0.244400 0.746816 0.846278
O O12 0.239227 0.712055 0.683943
O O13 0.000000 0.703103 0.782490
O O14 0.792219 0.500000 0.359752
O O15 0.804894 0.630542 0.404417
O O16 0.000000 0.579363 0.298782
O O17 0.758437 0.272664 0.511043
O O18 0.000000 0.269897 0.413243
O O19 0.000000 0.721019 0.595302
#
# Coordination Sequence:
#
# PCOD8189262 Si02
#       7
#     8   8   8   8   8   8   8
#     4  10  21  37  56  80 112 150 190 231 284 350
#     4  10  20  33  50  77 112 146 184 229 279 338
#     4  11  20  33  53  79 113 150 190 236 292 354
#     4  11  21  37  59  85 116 147 188 243 297 349
#     4  10  21  36  55  81 114 152 199 252 302 357
#     4  10  20  38  61  83 113 156 200 246 301 356
#     4   9  20  36  55  81 112 144 187 240 291 348
#
# _framework density 19.536947999999999
#
# number of rings (size 3 to 8) (size 9 to 14) (size 15 to 20)
#    0.000    1.857    1.429    3.000    0.000    4.857 
#    0.000    2.857    0.000    2.571    0.000    0.000 
#    0.000    0.000    0.000    0.000    0.000    0.000 
#
# Total GULP energy -346913.428179 kJ/mol
# GULP energy per Si atom -12389.765292 kJ/mol
# Density = 1.949248 g / cm^3
# Si number density = 19.536948 Si / 1000 Ang^3
#
#
#
# Elastic Constant Matrix: (Units=GPa)
#
#
# Indices 1 2 3 4 5 6 
#
# 1 88.7822 31.1139 42.4791 0.0000 0.0000 0.0000
# 2 31.1139 93.9257 52.6122 0.0000 0.0000 0.0000
# 3 42.4791 52.6122 136.1914 -0.0001 0.0000 0.0000
# 4 0.0000 0.0000 -0.0001 29.9761 0.0000 0.0000
# 5 0.0000 0.0000 0.0000 0.0000 27.1952 0.0000
# 6 0.0000 0.0000 0.0000 0.0000 0.0000 25.2488
#
#
#
# Elastic Compliance Matrix: (Units=1/GPa)
#
#
# Indices 1 2 3 4 5 6 
#
# 1 0.013775 -0.002752 -0.003233 0.000000 0.000000 0.000000
# 2 -0.002752 0.014137 -0.004603 0.000000 0.000000 0.000000
# 3 -0.003233 -0.004603 0.010129 0.000000 0.000000 0.000000
# 4 0.000000 0.000000 0.000000 0.033360 0.000000 0.000000
# 5 0.000000 0.000000 0.000000 0.000000 0.036771 0.000000
# 6 0.000000 0.000000 0.000000 0.000000 0.000000 0.039606
#
#
# Mechanical properties :
#
#
# Convention : Reuss Voigt Hill
#
# Bulk Modulus (GPa) = 59.29590 63.47884 61.38737
# Shear Modulus (GPa) = 28.64090 29.33029 28.98559
#
# Velocity S-wave (km/s) = 3.83297 3.87883 3.85597
# Velocity P-wave (km/s) = 7.07145 7.25415 7.16338
#
# Compressibility (1/GPa) = 0.01686457
#
# Stress axis : x y z
#
# Youngs Moduli (GPa) = 72.59526 70.73872 98.72423
#
# Poissons Ratio (x) = 0.19467 0.31922
# Poissons Ratio (y) = 0.19978 0.45440
# Poissons Ratio (z) = 0.23473 0.32559
#
# Static dielectric constant tensor:
#      x y z
#    x 3.653620 0.000000 0.000000 
#    y 0.000000 3.604400 0.000000 
#    z 0.000000 0.000000 3.659210 
# 
# 
# High freq. dielectric constant tensor:
#      x y z
#    x 1.755370 0.000000 0.000000 
#    y 0.000000 1.760960 0.000000 
#    z 0.000000 0.000000 1.749510 
# 
# From -- ./inp_files/16453.got.cif
#   From: 2010.03.12/outbox.cif.g09.slc.cpg/sg44_9_cif.got.tgz:16453.got - 2010.04.14 02:36:11.
