data_PCOD8189813
_publ_section_title
;
Structure prediction by ZEFSAII (Michael W. Deem and Ramdas Pophale) SiO2 
 PCOD8189813
Probable space group: I M M 2
;
_chemical_formula_sum "Si O2"
_cell_formula_units_Z 44
_cell_length_a 7.643184
_cell_length_b 16.217425
_cell_length_c 16.890424
_cell_angle_alpha 90.000000
_cell_angle_beta 90.000000
_cell_angle_gamma 90.000000
_cell_volume 2093.614728
_symmetry_space_group_name_H-M "I M M 2"
_symmetry_group_IT_number 44
_symmetry_cell_setting 'orthorhombic'
loop_
_space_group_symop_operation_xyz
x,y,z
-x,-y,z
-x,y,z
x,-y,z
1/2+x,1/2+y,1/2+z
1/2-x,1/2-y,1/2+z
1/2-x,1/2+y,1/2+z
1/2+x,1/2-y,1/2+z
loop_
_atom_site_type_symbol
_atom_site_label
_atom_site_fract_x
_atom_site_fract_y
_atom_site_fract_z
Si Si1 0.000000 0.594173 0.097930
Si Si2 0.500000 0.095709 0.912973
Si Si3 0.192028 0.098043 0.496090
Si Si4 0.500000 0.183508 0.746354
Si Si5 0.197281 0.096831 0.320084
Si Si6 0.800084 0.905585 0.036711
Si Si7 0.305709 0.798524 0.186244
O O1 0.827318 0.636486 0.059381
O O2 0.000000 0.500000 0.071448
O O3 0.000000 0.601473 0.192101
O O4 0.500000 0.156433 0.837443
O O5 0.500000 0.000000 0.886069
O O6 0.327053 0.116149 0.963779
O O7 0.255579 0.123236 0.408299
O O8 0.000000 0.135700 0.513615
O O9 0.180420 0.000000 0.502762
O O10 0.675616 0.230025 0.720331
O O11 0.326567 0.134115 0.255663
O O12 0.000000 0.130216 0.304015
O O13 0.200969 0.000000 0.311377
O O14 0.767068 0.842891 0.108180
O O15 0.000000 0.895703 0.007555
O O16 0.764570 0.000000 0.064928
O O17 0.500000 0.762006 0.170247
#
# Coordination Sequence:
#
# PCOD8189813 Si02
#       7
#     4   4   8   4   8   8   8
#     4  10  21  40  65  85 108 157 214 260 299 354
#     4  10  23  46  73  95 122 174 231 279 323 379
#     4   8  16  32  55  87 118 145 190 240 290 355
#     4  12  27  46  57  90 134 167 209 267 323 387
#     4   9  17  33  58  88 127 166 198 244 301 368
#     4  10  20  40  72 102 126 162 221 282 329 382
#     4  12  24  39  59  92 134 171 207 253 328 398
#
# _framework density 21.016283000000001
#
# number of rings (size 3 to 8) (size 9 to 14) (size 15 to 20)
#    0.000    2.000    2.727    1.909    1.273    4.000 
#    3.273    0.000    0.000    5.455    0.000    0.000 
#    0.000    0.000    0.000    0.000    0.000    0.000 
#
# Total GULP energy -272678.424847 kJ/mol
# GULP energy per Si atom -12394.473857 kJ/mol
# Density = 2.096845 g / cm^3
# Si number density = 21.016283 Si / 1000 Ang^3
#
#
#
# Elastic Constant Matrix: (Units=GPa)
#
#
# Indices 1 2 3 4 5 6 
#
# 1 157.6521 36.9176 66.4846 0.0000 0.0000 0.0000
# 2 36.9176 46.5657 45.6673 0.0000 0.0000 0.0000
# 3 66.4846 45.6673 148.5454 0.0000 0.0000 0.0000
# 4 0.0000 0.0000 0.0000 26.2206 0.0000 0.0000
# 5 0.0000 0.0000 0.0000 0.0000 9.4438 0.0000
# 6 0.0000 0.0000 0.0000 0.0000 0.0000 19.1640
#
#
#
# Elastic Compliance Matrix: (Units=1/GPa)
#
#
# Indices 1 2 3 4 5 6 
#
# 1 0.008365 -0.004238 -0.002441 0.000000 0.000000 0.000000
# 2 -0.004238 0.032891 -0.008215 0.000000 0.000000 0.000000
# 3 -0.002441 -0.008215 0.010350 0.000000 0.000000 0.000000
# 4 0.000000 0.000000 0.000000 0.038138 0.000000 0.000000
# 5 0.000000 0.000000 0.000000 0.000000 0.105890 0.000000
# 6 0.000000 0.000000 0.000000 0.000000 0.000000 0.052181
#
#
# Mechanical properties :
#
#
# Convention : Reuss Voigt Hill
#
# Bulk Modulus (GPa) = 45.83274 72.32247 59.07761
# Shear Modulus (GPa) = 17.55150 24.54525 21.04837
#
# Velocity S-wave (km/s) = 2.89301 3.42119 3.16812
# Velocity P-wave (km/s) = 5.74586 7.07766 6.44625
#
# Compressibility (1/GPa) = 0.02181846
#
# Stress axis : x y z
#
# Youngs Moduli (GPa) = 119.54737 30.40311 96.61783
#
# Poissons Ratio (x) = 0.12884 0.23585
# Poissons Ratio (y) = 0.50662 0.79372
# Poissons Ratio (z) = 0.29182 0.24976
#
# Static dielectric constant tensor:
#      x y z
#    x 4.241190 0.000000 0.000000 
#    y 0.000000 3.499270 0.000000 
#    z 0.000000 0.000000 3.835800 
# 
# 
# High freq. dielectric constant tensor:
#      x y z
#    x 1.834520 0.000000 0.000000 
#    y 0.000000 1.797290 0.000000 
#    z 0.000000 0.000000 1.822070 
# 
# From -- ./inp_files/16044.got.cif
#   From: 2010.03.12/outbox.cif.g09.slc.cpg/sg44_9_cif.got.tgz:16044.got - 2010.04.14 02:36:11.
