data_PCOD8189617
_publ_section_title
;
Structure prediction by ZEFSAII (Michael W. Deem and Ramdas Pophale) SiO2 
 PCOD8189617
Probable space group: I M M 2
;
_chemical_formula_sum "Si O2"
_cell_formula_units_Z 64
_cell_length_a 27.131852
_cell_length_b 8.979379
_cell_length_c 13.174372
_cell_angle_alpha 90.000000
_cell_angle_beta 90.000000
_cell_angle_gamma 90.000000
_cell_volume 3209.635126
_symmetry_space_group_name_H-M "I M M 2"
_symmetry_group_IT_number 44
_symmetry_cell_setting 'orthorhombic'
loop_
_space_group_symop_operation_xyz
x,y,z
-x,-y,z
-x,y,z
x,-y,z
1/2+x,1/2+y,1/2+z
1/2-x,1/2-y,1/2+z
1/2-x,1/2+y,1/2+z
1/2+x,1/2-y,1/2+z
loop_
_atom_site_type_symbol
_atom_site_label
_atom_site_fract_x
_atom_site_fract_y
_atom_site_fract_z
Si Si1 0.876444 0.322546 0.629830
Si Si2 0.443794 0.170836 0.312077
Si Si3 0.592782 0.323768 0.510919
Si Si4 0.268149 0.171399 0.140343
Si Si5 0.443040 0.825518 0.717360
Si Si6 0.777638 0.827054 0.337621
Si Si7 0.876221 0.323945 0.403512
Si Si8 0.201727 0.827743 0.954523
O O1 0.877032 0.500000 0.634370
O O2 0.911712 0.260528 0.719247
O O3 0.821972 0.251269 0.648494
O O4 0.894692 0.274351 0.516171
O O5 0.500000 0.182983 0.276620
O O6 0.437493 0.263650 0.415158
O O7 0.429055 0.000000 0.334724
O O8 0.586586 0.500000 0.516903
O O9 0.573448 0.257076 0.615705
O O10 0.649365 0.274523 0.496345
O O11 0.224726 0.215158 0.218756
O O12 0.279881 0.000000 0.157406
O O13 0.245366 0.204610 0.032600
O O14 0.500000 0.790717 0.739201
O O15 0.412718 0.764412 0.815190
O O16 0.433895 0.000000 0.701053
O O17 0.821169 0.735791 0.388602
O O18 0.721325 0.777546 0.365361
O O19 0.786324 0.000000 0.360679
O O20 0.872850 0.500000 0.397404
O O21 0.199231 0.000000 0.921305
#
# Coordination Sequence:
#
# PCOD8189617 Si02
#       8
#     8   8   8   8   8   8   8   8
#     4   9  17  33  58  82 109 149 191 233 285 342
#     4  10  21  37  59  86 114 147 192 245 295 347
#     4  11  23  38  59  86 117 153 195 244 297 357
#     4   9  17  31  52  75 105 143 180 220 271 328
#     4  10  22  39  60  87 117 152 198 251 299 346
#     4  11  21  33  54  84 115 148 188 233 279 337
#     4  10  20  37  60  83 116 157 194 238 291 348
#     4  10  20  36  55  77 108 147 187 225 275 337
#
# _framework density 19.939961
#
# number of rings (size 3 to 8) (size 9 to 14) (size 15 to 20)
#    0.000    2.000    1.250    2.625    0.000    6.000 
#    0.000    4.375    0.000    0.000    0.000    1.750 
#    0.000    0.000    0.000    0.000    0.000    0.000 
#
# Total GULP energy -396563.655761 kJ/mol
# GULP energy per Si atom -12392.614243 kJ/mol
# Density = 1.989458 g / cm^3
# Si number density = 19.939961 Si / 1000 Ang^3
#
#
#
# Elastic Constant Matrix: (Units=GPa)
#
#
# Indices 1 2 3 4 5 6 
#
# 1 103.1156 20.7101 39.4220 0.0000 0.0000 0.0000
# 2 20.7101 27.8199 25.8161 0.0000 0.0000 0.0000
# 3 39.4220 25.8161 127.7734 0.0000 0.0000 0.0000
# 4 0.0000 0.0000 0.0000 15.1396 0.0000 0.0000
# 5 0.0000 0.0000 0.0000 0.0000 54.3272 0.0000
# 6 0.0000 0.0000 0.0000 0.0000 0.0000 25.2954
#
#
#
# Elastic Compliance Matrix: (Units=1/GPa)
#
#
# Indices 1 2 3 4 5 6 
#
# 1 0.011938 -0.006731 -0.002323 0.000000 0.000000 0.000000
# 2 -0.006731 0.048036 -0.007629 0.000000 0.000000 0.000000
# 3 -0.002323 -0.007629 0.010084 0.000000 0.000000 0.000000
# 4 0.000000 0.000000 0.000000 0.066052 0.000000 0.000000
# 5 0.000000 0.000000 0.000000 0.000000 0.018407 0.000000
# 6 0.000000 0.000000 0.000000 0.000000 0.000000 0.039533
#
#
# Mechanical properties :
#
#
# Convention : Reuss Voigt Hill
#
# Bulk Modulus (GPa) = 27.25386 47.84502 37.54944
# Shear Modulus (GPa) = 20.86408 30.46984 25.66696
#
# Velocity S-wave (km/s) = 3.23823 3.91331 3.59167
# Velocity P-wave (km/s) = 5.26110 6.66823 6.00602
#
# Compressibility (1/GPa) = 0.03669204
#
# Stress axis : x y z
#
# Youngs Moduli (GPa) = 83.76659 20.81790 99.16235
#
# Poissons Ratio (x) = 0.14013 0.23038
# Poissons Ratio (y) = 0.56384 0.75647
# Poissons Ratio (z) = 0.19461 0.15881
#
# Static dielectric constant tensor:
#      x y z
#    x 3.754760 0.000000 0.000000 
#    y 0.000000 3.312150 0.000000 
#    z 0.000000 0.000000 3.829510 
# 
# 
# High freq. dielectric constant tensor:
#      x y z
#    x 1.784700 0.000000 0.000000 
#    y 0.000000 1.741360 0.000000 
#    z 0.000000 0.000000 1.795270 
# 
# From -- ./inp_files/15062.got.cif
#   From: 2010.03.12/outbox.cif.g09.slc.cpg/sg44_8_cif.got.tgz:15062.got - 2010.04.14 02:36:11.
