data_PCOD8189924
_publ_section_title
;
Structure prediction by ZEFSAII (Michael W. Deem and Ramdas Pophale) SiO2 
 PCOD8189924
Probable space group: I M M 2
;
_chemical_formula_sum "Si O2"
_cell_formula_units_Z 56
_cell_length_a 8.856670
_cell_length_b 21.158367
_cell_length_c 14.098558
_cell_angle_alpha 90.000000
_cell_angle_beta 90.000000
_cell_angle_gamma 90.000000
_cell_volume 2641.966487
_symmetry_space_group_name_H-M "I M M 2"
_symmetry_group_IT_number 44
_symmetry_cell_setting 'orthorhombic'
loop_
_space_group_symop_operation_xyz
x,y,z
-x,-y,z
-x,y,z
x,-y,z
1/2+x,1/2+y,1/2+z
1/2-x,1/2-y,1/2+z
1/2-x,1/2+y,1/2+z
1/2+x,1/2-y,1/2+z
loop_
_atom_site_type_symbol
_atom_site_label
_atom_site_fract_x
_atom_site_fract_y
_atom_site_fract_z
Si Si1 0.662931 0.568969 0.996100
Si Si2 0.678373 0.115746 0.008129
Si Si3 0.166326 0.835494 0.661571
Si Si4 0.321465 0.247577 0.512156
Si Si5 0.177303 0.071071 0.821465
Si Si6 0.673232 0.145956 0.358280
Si Si7 0.175067 0.928087 0.196556
O O1 0.500000 0.572234 0.940300
O O2 0.698255 0.500000 0.033743
O O3 0.802184 0.588010 0.929898
O O4 0.645559 0.609220 0.088379
O O5 0.500000 0.121760 0.010872
O O6 0.748194 0.185010 0.002059
O O7 0.733786 0.078110 0.099730
O O8 0.730297 0.075688 0.918163
O O9 0.271630 0.782333 0.613741
O O10 0.235303 0.871310 0.753508
O O11 0.000000 0.805928 0.684570
O O12 0.500000 0.252671 0.514354
O O13 0.270746 0.207584 0.418056
O O14 0.000000 0.081034 0.840828
O O15 0.205936 0.000000 0.780263
O O16 0.500000 0.152135 0.328022
O O17 0.770170 0.128740 0.265633
O O18 0.000000 0.916537 0.175435
O O19 0.202359 0.000000 0.236399
#
# Coordination Sequence:
#
# PCOD8189924 Si02
#       7
#     8   8   8   8   8   8   8
#     4   9  16  28  49  79 115 154 194 235 284 344
#     4  12  26  42  62  86 115 155 201 251 299 345
#     4   9  18  34  58  87 119 154 194 240 287 342
#     4  10  22  41  62  87 121 159 198 240 292 352
#     4  10  21  39  63  90 121 158 197 238 290 350
#     4  10  21  36  57  86 119 154 193 240 292 346
#     4  11  24  42  64  89 118 155 197 242 296 355
#
# _framework density 21.196332999999999
#
# number of rings (size 3 to 8) (size 9 to 14) (size 15 to 20)
#    0.000    1.857    0.000    3.857    0.000   10.286 
#    0.000    1.429    0.000    2.571    0.000    0.000 
#    0.000    0.000    0.000    0.000    0.000    0.000 
#
# Total GULP energy -346953.253983 kJ/mol
# GULP energy per Si atom -12391.187642 kJ/mol
# Density = 2.114809 g / cm^3
# Si number density = 21.196333 Si / 1000 Ang^3
#
#
#
# Elastic Constant Matrix: (Units=GPa)
#
#
# Indices 1 2 3 4 5 6 
#
# 1 75.5473 37.0596 26.7579 0.0003 0.0000 0.0000
# 2 37.0596 88.3937 16.2184 0.0000 0.0000 0.0001
# 3 26.7579 16.2184 89.9630 -0.0004 0.0000 0.0000
# 4 0.0003 0.0000 -0.0004 32.0853 -0.0001 0.0001
# 5 0.0000 0.0000 0.0000 -0.0001 32.4973 0.0000
# 6 0.0000 0.0001 0.0000 0.0001 0.0000 33.6192
#
#
#
# Elastic Compliance Matrix: (Units=1/GPa)
#
#
# Indices 1 2 3 4 5 6 
#
# 1 0.018041 -0.006804 -0.004139 0.000000 0.000000 0.000000
# 2 -0.006804 0.014266 -0.000548 0.000000 0.000000 0.000000
# 3 -0.004139 -0.000548 0.012446 0.000000 0.000000 0.000000
# 4 0.000000 0.000000 0.000000 0.031167 0.000000 0.000000
# 5 0.000000 0.000000 0.000000 0.000000 0.030772 0.000000
# 6 0.000000 0.000000 0.000000 0.000000 0.000000 0.029745
#
#
# Mechanical properties :
#
#
# Convention : Reuss Voigt Hill
#
# Bulk Modulus (GPa) = 45.93584 45.99731 45.96657
# Shear Modulus (GPa) = 29.99841 31.23157 30.61499
#
# Velocity S-wave (km/s) = 3.76608 3.84271 3.80459
# Velocity P-wave (km/s) = 6.37415 6.43710 6.40570
#
# Compressibility (1/GPa) = 0.02176950
#
# Stress axis : x y z
#
# Youngs Moduli (GPa) = 55.43066 70.09538 80.34946
#
# Poissons Ratio (x) = 0.47694 0.33258
# Poissons Ratio (y) = 0.37716 0.04404
# Poissons Ratio (z) = 0.22944 0.03842
#
# Static dielectric constant tensor:
#      x y z
#    x 3.860390 0.000000 0.000000 
#    y 0.000000 4.037040 0.000000 
#    z 0.000000 0.000000 4.037520 
# 
# 
# High freq. dielectric constant tensor:
#      x y z
#    x 1.821710 0.000000 0.000000 
#    y 0.000000 1.837320 0.000000 
#    z 0.000000 0.000000 1.829770 
# 
# From -- ./inp_files/16461.got.cif
#   From: 2010.03.12/outbox.cif.g09.slc.cpg/sg44_9_cif.got.tgz:16461.got - 2010.04.14 02:36:11.
