data_PCOD8189731
_publ_section_title
;
Structure prediction by ZEFSAII (Michael W. Deem and Ramdas Pophale) SiO2 
 PCOD8189731
Probable space group: I M M 2
;
_chemical_formula_sum "Si O2"
_cell_formula_units_Z 64
_cell_length_a 24.840306
_cell_length_b 9.029658
_cell_length_c 14.946852
_cell_angle_alpha 90.000000
_cell_angle_beta 90.000000
_cell_angle_gamma 90.000000
_cell_volume 3352.570949
_symmetry_space_group_name_H-M "I M M 2"
_symmetry_group_IT_number 44
_symmetry_cell_setting 'orthorhombic'
loop_
_space_group_symop_operation_xyz
x,y,z
-x,-y,z
-x,y,z
x,-y,z
1/2+x,1/2+y,1/2+z
1/2-x,1/2-y,1/2+z
1/2-x,1/2+y,1/2+z
1/2+x,1/2-y,1/2+z
loop_
_atom_site_type_symbol
_atom_site_label
_atom_site_fract_x
_atom_site_fract_y
_atom_site_fract_z
Si Si1 0.438048 0.825371 0.044400
Si Si2 0.937805 0.169955 0.185446
Si Si3 0.260089 0.334013 0.094130
Si Si4 0.355886 0.823707 0.558719
Si Si5 0.164382 0.170608 0.878523
Si Si6 0.609665 0.672326 0.872597
Si Si7 0.228879 0.165544 0.387217
Si Si8 0.364896 0.327065 0.183459
O O1 0.500000 0.776412 0.040413
O O2 0.412933 0.756789 0.134168
O O3 0.431321 0.000000 0.049187
O O4 0.408335 0.768818 0.956214
O O5 0.905355 0.273818 0.118511
O O6 0.926813 0.215301 0.287800
O O7 0.000000 0.195793 0.164223
O O8 0.920701 0.000000 0.169504
O O9 0.253710 0.500000 0.130081
O O10 0.200498 0.259909 0.100118
O O11 0.306784 0.257304 0.153339
O O12 0.280318 0.328705 0.992949
O O13 0.362693 0.763481 0.457991
O O14 0.353770 0.000000 0.551875
O O15 0.225349 0.221048 0.856195
O O16 0.128437 0.194552 0.789834
O O17 0.165972 0.000000 0.907096
O O18 0.603580 0.500000 0.898408
O O19 0.671326 0.709273 0.844798
O O20 0.246340 0.000000 0.357929
O O21 0.367112 0.500000 0.156473
#
# Coordination Sequence:
#
# PCOD8189731 Si02
#       8
#     8   8   8   8   8   8   8   8
#     4  11  24  39  56  84 120 153 191 241 288 335
#     4  10  22  39  59  85 115 148 195 248 288 334
#     4   8  15  31  53  79 110 143 181 226 271 326
#     4  10  21  38  60  82 114 154 190 237 293 344
#     4  10  21  35  57  86 117 150 190 239 288 341
#     4  10  20  37  60  85 115 155 194 229 279 342
#     4   9  17  32  54  81 116 152 186 225 273 337
#     4  10  20  37  59  83 113 153 196 234 281 342
#
# _framework density 19.089828000000001
#
# number of rings (size 3 to 8) (size 9 to 14) (size 15 to 20)
#    0.000    2.250    1.250    2.250    1.750    3.750 
#    0.000    1.250    0.000    0.750    0.000    0.000 
#    0.000    0.000    0.000    0.000    0.000    0.000 
#
# Total GULP energy -396755.899754 kJ/mol
# GULP energy per Si atom -12398.621867 kJ/mol
# Density = 1.904638 g / cm^3
# Si number density = 19.089828 Si / 1000 Ang^3
#
#
#
# Elastic Constant Matrix: (Units=GPa)
#
#
# Indices 1 2 3 4 5 6 
#
# 1 83.8256 38.1915 39.9919 0.0000 0.0000 0.0000
# 2 38.1915 73.7341 40.6848 0.0000 0.0000 0.0000
# 3 39.9919 40.6848 76.6396 0.0000 0.0000 0.0000
# 4 0.0000 0.0000 0.0000 24.5980 0.0000 0.0000
# 5 0.0000 0.0000 0.0000 0.0000 31.2985 0.0000
# 6 0.0000 0.0000 0.0000 0.0000 0.0000 30.9395
#
#
#
# Elastic Compliance Matrix: (Units=1/GPa)
#
#
# Indices 1 2 3 4 5 6 
#
# 1 0.017410 -0.005664 -0.006078 0.000000 0.000000 0.000000
# 2 -0.005664 0.021023 -0.008205 0.000000 0.000000 0.000000
# 3 -0.006078 -0.008205 0.020575 0.000000 0.000000 0.000000
# 4 0.000000 0.000000 0.000000 0.040654 0.000000 0.000000
# 5 0.000000 0.000000 0.000000 0.000000 0.031950 0.000000
# 6 0.000000 0.000000 0.000000 0.000000 0.000000 0.032321
#
#
# Mechanical properties :
#
#
# Convention : Reuss Voigt Hill
#
# Bulk Modulus (GPa) = 52.31546 52.43730 52.37638
# Shear Modulus (GPa) = 23.78706 25.05595 24.42150
#
# Velocity S-wave (km/s) = 3.53379 3.62681 3.58060
# Velocity P-wave (km/s) = 6.64188 6.71317 6.67762
#
# Compressibility (1/GPa) = 0.01911481
#
# Stress axis : x y z
#
# Youngs Moduli (GPa) = 57.43902 47.56665 48.60204
#
# Poissons Ratio (x) = 0.26941 0.29540
# Poissons Ratio (y) = 0.32533 0.39877
# Poissons Ratio (z) = 0.34911 0.39027
#
# Static dielectric constant tensor:
#      x y z
#    x 3.528100 0.000000 0.000000 
#    y 0.000000 3.351970 0.000000 
#    z 0.000000 0.000000 3.369210 
# 
# 
# High freq. dielectric constant tensor:
#      x y z
#    x 1.738530 0.000000 0.000000 
#    y 0.000000 1.727010 0.000000 
#    z 0.000000 0.000000 1.739900 
# 
# From -- ./inp_files/19504.got.cif
#   From: 2010.03.12/outbox.cif.g09.slc.cpg/sg44_10_cif.got.tgz:19504.got - 2010.04.14 02:36:11.
