data_PCOD8189285
_publ_section_title
;
Structure prediction by ZEFSAII (Michael W. Deem and Ramdas Pophale) SiO2 
 PCOD8189285
Probable space group: I M M 2
;
_chemical_formula_sum "Si O2"
_cell_formula_units_Z 48
_cell_length_a 18.891697
_cell_length_b 8.801716
_cell_length_c 15.379886
_cell_angle_alpha 90.000000
_cell_angle_beta 90.000000
_cell_angle_gamma 90.000000
_cell_volume 2557.357474
_symmetry_space_group_name_H-M "I M M 2"
_symmetry_group_IT_number 44
_symmetry_cell_setting 'orthorhombic'
loop_
_space_group_symop_operation_xyz
x,y,z
-x,-y,z
-x,y,z
x,-y,z
1/2+x,1/2+y,1/2+z
1/2-x,1/2-y,1/2+z
1/2-x,1/2+y,1/2+z
1/2+x,1/2-y,1/2+z
loop_
_atom_site_type_symbol
_atom_site_label
_atom_site_fract_x
_atom_site_fract_y
_atom_site_fract_z
Si Si1 0.674280 0.179933 0.539800
Si Si2 0.079073 0.680515 0.195399
Si Si3 0.672128 0.180072 0.044821
Si Si4 0.420965 0.819556 0.887749
Si Si5 0.418667 0.677624 0.194772
Si Si6 0.081041 0.324494 0.875762
O O1 0.632332 0.245292 0.623343
O O2 0.749547 0.257619 0.539871
O O3 0.631377 0.227689 0.454014
O O4 0.683598 0.000000 0.545427
O O5 0.077160 0.500000 0.189459
O O6 0.104689 0.732334 0.291633
O O7 0.000000 0.743366 0.177667
O O8 0.632800 0.232660 0.131326
O O9 0.674049 0.000000 0.043817
O O10 0.631088 0.246952 0.960774
O O11 0.500000 0.756832 0.905590
O O12 0.422159 0.000000 0.892561
O O13 0.500000 0.722369 0.174528
O O14 0.405526 0.500000 0.183017
O O15 0.398988 0.723404 0.292817
O O16 0.093291 0.500000 0.851509
O O17 0.000000 0.297108 0.904853
#
# Coordination Sequence:
#
# PCOD8189285 Si02
#       6
#     8   8   8   8   8   8
#     4  10  20  33  51  78 110 141 172 210 257 309
#     4   8  14  28  52  78 100 126 166 213 256 300
#     4  11  22  34  50  75 108 144 177 211 258 317
#     4   8  15  29  50  74  96 122 163 212 254 294
#     4  10  21  37  57  79 102 133 177 228 277 320
#     4   9  18  34  56  80 106 139 179 221 266 317
#
# _framework density 18.769375
#
# number of rings (size 3 to 8) (size 9 to 14) (size 15 to 20)
#    0.000    2.667    0.000    3.000    0.000    5.667 
#    0.000    1.667    0.000    2.500    0.000    4.667 
#    0.000    0.000    0.000    0.000    0.000    0.000 
#
# Total GULP energy -297567.104078 kJ/mol
# GULP energy per Si atom -12398.629337 kJ/mol
# Density = 1.872666 g / cm^3
# Si number density = 18.769375 Si / 1000 Ang^3
#
#
#
# Elastic Constant Matrix: (Units=GPa)
#
#
# Indices 1 2 3 4 5 6 
#
# 1 147.1055 34.2609 103.8637 0.0000 0.0000 0.0000
# 2 34.2609 28.6414 32.0708 0.0000 0.0000 0.0000
# 3 103.8637 32.0708 154.7268 0.0000 0.0000 0.0000
# 4 0.0000 0.0000 0.0000 17.9980 0.0000 0.0000
# 5 0.0000 0.0000 0.0000 0.0000 18.3132 0.0000
# 6 0.0000 0.0000 0.0000 0.0000 0.0000 27.4953
#
#
#
# Elastic Compliance Matrix: (Units=1/GPa)
#
#
# Indices 1 2 3 4 5 6 
#
# 1 0.014283 -0.008269 -0.007874 0.000000 0.000000 0.000000
# 2 -0.008269 0.050254 -0.004866 0.000000 0.000000 0.000000
# 3 -0.007874 -0.004866 0.012757 0.000000 0.000000 0.000000
# 4 0.000000 0.000000 0.000000 0.055562 0.000000 0.000000
# 5 0.000000 0.000000 0.000000 0.000000 0.054606 0.000000
# 6 0.000000 0.000000 0.000000 0.000000 0.000000 0.036370
#
#
# Mechanical properties :
#
#
# Convention : Reuss Voigt Hill
#
# Bulk Modulus (GPa) = 28.34691 74.54049 51.44370
# Shear Modulus (GPa) = 18.01110 23.44652 20.72881
#
# Velocity S-wave (km/s) = 3.10110 3.53822 3.32685
# Velocity P-wave (km/s) = 5.28753 7.51612 6.49808
#
# Compressibility (1/GPa) = 0.03527721
#
# Stress axis : x y z
#
# Youngs Moduli (GPa) = 70.01364 19.89901 78.38806
#
# Poissons Ratio (x) = 0.16454 0.61722
# Poissons Ratio (y) = 0.57892 0.38142
# Poissons Ratio (z) = 0.55128 0.09682
#
# Static dielectric constant tensor:
#      x y z
#    x 3.488950 0.000000 0.000000 
#    y 0.000000 3.076320 0.000000 
#    z 0.000000 0.000000 3.758370 
# 
# 
# High freq. dielectric constant tensor:
#      x y z
#    x 1.728480 0.000000 0.000000 
#    y 0.000000 1.692970 0.000000 
#    z 0.000000 0.000000 1.744920 
# 
# From -- ./inp_files/16063.got.cif
#   From: 2010.03.12/outbox.cif.g09.slc.cpg/sg44_9_cif.got.tgz:16063.got - 2010.04.14 02:36:11.
