data_PCOD8189678
_publ_section_title
;
Structure prediction by ZEFSAII (Michael W. Deem and Ramdas Pophale) SiO2 
 PCOD8189678
Probable space group: I M M 2
;
_chemical_formula_sum "Si O2"
_cell_formula_units_Z 40
_cell_length_a 7.619378
_cell_length_b 9.260156
_cell_length_c 29.254205
_cell_angle_alpha 90.000000
_cell_angle_beta 90.000000
_cell_angle_gamma 90.000000
_cell_volume 2064.078086
_symmetry_space_group_name_H-M "I M M 2"
_symmetry_group_IT_number 44
_symmetry_cell_setting 'orthorhombic'
loop_
_space_group_symop_operation_xyz
x,y,z
-x,-y,z
-x,y,z
x,-y,z
1/2+x,1/2+y,1/2+z
1/2-x,1/2-y,1/2+z
1/2-x,1/2+y,1/2+z
1/2+x,1/2-y,1/2+z
loop_
_atom_site_type_symbol
_atom_site_label
_atom_site_fract_x
_atom_site_fract_y
_atom_site_fract_z
Si Si1 0.305120 0.828313 0.159290
Si Si2 0.500000 0.671699 0.726418
Si Si3 0.197716 0.333473 0.874542
Si Si4 0.500000 0.827149 0.822376
Si Si5 0.702306 0.333876 0.974403
Si Si6 0.208712 0.340057 0.559598
O O1 0.500000 0.768645 0.171376
O O2 0.171332 0.779096 0.198301
O O3 0.241012 0.772208 0.109230
O O4 0.311898 0.000000 0.155868
O O5 0.500000 0.500000 0.736577
O O6 0.500000 0.763082 0.772003
O O7 0.260122 0.500000 0.868242
O O8 0.325485 0.227820 0.847437
O O9 0.197509 0.291979 0.928029
O O10 0.000000 0.313305 0.855728
O O11 0.500000 0.000000 0.821252
O O12 0.500000 0.292024 0.966854
O O13 0.725928 0.500000 0.986129
O O14 0.786770 0.251607 0.017629
O O15 0.288181 0.500000 0.554857
O O16 0.000000 0.343818 0.556529
#
# Coordination Sequence:
#
# PCOD8189678 Si02
#       6
#     8   4   8   4   8   8
#     4   8  15  30  52  78 107 139 180 231 274 319
#     4  10  20  36  60  82 102 140 196 238 279 338
#     4  10  21  40  64  85 110 150 200 244 282 340
#     4  12  26  42  60  84 120 152 184 242 311 360
#     4   9  16  29  51  79 111 145 183 228 277 329
#     4   8  14  26  46  73 107 146 182 218 270 329
#
# _framework density 19.379111000000002
#
# number of rings (size 3 to 8) (size 9 to 14) (size 15 to 20)
#    0.000    2.800    1.000    2.100    0.000    2.000 
#    1.800    3.000    0.000    1.200    0.000    0.000 
#    0.000    0.000    0.000    0.000    0.000    0.000 
#
# Total GULP energy -247893.792438 kJ/mol
# GULP energy per Si atom -12394.689622 kJ/mol
# Density = 1.933500 g / cm^3
# Si number density = 19.379111 Si / 1000 Ang^3
#
#
#
# Elastic Constant Matrix: (Units=GPa)
#
#
# Indices 1 2 3 4 5 6 
#
# 1 95.9335 41.5285 60.9218 0.0000 0.0000 0.0000
# 2 41.5285 80.4549 66.0774 0.0000 0.0000 0.0000
# 3 60.9218 66.0774 144.7454 0.0000 0.0000 0.0000
# 4 0.0000 0.0000 0.0000 34.0888 0.0000 0.0000
# 5 0.0000 0.0000 0.0000 0.0000 -53.7916 0.0000
# 6 0.0000 0.0000 0.0000 0.0000 0.0000 12.3751
#
#
#
# Elastic Compliance Matrix: (Units=1/GPa)
#
#
# Indices 1 2 3 4 5 6 
#
# 1 0.015026 -0.004099 -0.004453 0.000000 0.000000 0.000000
# 2 -0.004099 0.021003 -0.007863 0.000000 0.000000 0.000000
# 3 -0.004453 -0.007863 0.012372 0.000000 0.000000 0.000000
# 4 0.000000 0.000000 0.000000 0.029335 0.000000 0.000000
# 5 0.000000 0.000000 0.000000 0.000000 -0.018590 0.000000
# 6 0.000000 0.000000 0.000000 0.000000 0.000000 0.080807
#
#
# Mechanical properties :
#
#
# Convention : Reuss Voigt Hill
#
# Bulk Modulus (GPa) = 64.21854 73.13214 68.67534
# Shear Modulus (GPa) = 28.09411 8.70821 18.40116
#
# Velocity S-wave (km/s) = 3.81164 2.12211 3.08480
# Velocity P-wave (km/s) = 7.25130 6.61997 6.94282
#
# Compressibility (1/GPa) = 0.01557183
#
# Stress axis : x y z
#
# Youngs Moduli (GPa) = 66.55065 47.61326 80.82470
#
# Poissons Ratio (x) = 0.19515 0.35994
# Poissons Ratio (y) = 0.27276 0.63551
# Poissons Ratio (z) = 0.29637 0.37437
#
# Static dielectric constant tensor:
#      x y z
#    x 3.715360 0.000000 0.000000 
#    y 0.000000 3.318600 0.000000 
#    z 0.000000 0.000000 3.748270 
# 
# 
# High freq. dielectric constant tensor:
#      x y z
#    x 1.749660 0.000000 0.000000 
#    y 0.000000 1.712200 0.000000 
#    z 0.000000 0.000000 1.761290 
# 
# From -- ./inp_files/25978.got.cif
#   From: 2010.03.12/outbox.cif.g09.slc.cpg/sg44_13_cif.got.tgz:25978.got - 2010.04.14 02:36:11.
