data_PCOD8189176
_publ_section_title
;
Structure prediction by ZEFSAII (Michael W. Deem and Ramdas Pophale) SiO2 
 PCOD8189176
Probable space group: I M M 2
;
_chemical_formula_sum "Si O2"
_cell_formula_units_Z 48
_cell_length_a 8.951851
_cell_length_b 7.654244
_cell_length_c 34.573314
_cell_angle_alpha 90.000000
_cell_angle_beta 90.000000
_cell_angle_gamma 90.000000
_cell_volume 2368.951437
_symmetry_space_group_name_H-M "I M M 2"
_symmetry_group_IT_number 44
_symmetry_cell_setting 'orthorhombic'
loop_
_space_group_symop_operation_xyz
x,y,z
-x,-y,z
-x,y,z
x,-y,z
1/2+x,1/2+y,1/2+z
1/2-x,1/2-y,1/2+z
1/2-x,1/2+y,1/2+z
1/2+x,1/2-y,1/2+z
loop_
_atom_site_type_symbol
_atom_site_label
_atom_site_fract_x
_atom_site_fract_y
_atom_site_fract_z
Si Si1 0.168304 0.294988 0.014760
Si Si2 0.177727 0.000000 0.886407
Si Si3 0.322337 0.000000 0.803678
Si Si4 0.834638 0.792628 0.162880
Si Si5 0.322412 0.693830 0.747546
Si Si6 0.175825 0.796777 0.436159
Si Si7 0.662506 0.200441 0.090386
O O1 0.170905 0.500000 0.020202
O O2 0.232720 0.211588 0.053273
O O3 0.000000 0.226065 0.008051
O O4 0.268991 0.238478 0.978477
O O5 0.241445 0.823355 0.905197
O O6 0.228568 0.000000 0.842415
O O7 0.000000 0.000000 0.889761
O O8 0.270532 0.170588 0.779991
O O9 0.500000 0.000000 0.811944
O O10 0.763846 0.746771 0.205000
O O11 0.736247 0.709801 0.128213
O O12 0.000000 0.710855 0.159006
O O13 0.845620 0.000000 0.158869
O O14 0.500000 0.688612 0.744791
O O15 0.261844 0.500000 0.758423
O O16 0.000000 0.763450 0.433448
O O17 0.215328 0.000000 0.427896
O O18 0.500000 0.287823 0.082369
O O19 0.639091 0.000000 0.100505
#
# Coordination Sequence:
#
# PCOD8189176 Si02
#       7
#     8   4   4   8   8   8   8
#     4  10  21  37  56  80 111 147 188 234 287 347
#     4  12  26  42  62  90 126 162 196 242 296 362
#     4  10  20  36  58  86 114 144 192 246 290 350
#     4   8  14  28  49  72 102 141 185 232 283 338
#     4   8  15  30  54  81 109 144 185 235 294 347
#     4  10  22  42  67  91 117 153 197 247 300 356
#     4  10  20  32  49  76 110 149 191 235 280 335
#
# _framework density 20.262131
#
# number of rings (size 3 to 8) (size 9 to 14) (size 15 to 20)
#    0.000    2.500    0.000    3.250    1.167    3.667 
#    1.500    2.500    0.000    1.000    0.000    0.000 
#    0.000    0.000    0.000    0.000    0.000    0.000 
#
# Total GULP energy -297506.315105 kJ/mol
# GULP energy per Si atom -12396.096463 kJ/mol
# Density = 2.021601 g / cm^3
# Si number density = 20.262131 Si / 1000 Ang^3
#
#
#
# Elastic Constant Matrix: (Units=GPa)
#
#
# Indices 1 2 3 4 5 6 
#
# 1 116.1791 40.3111 63.6643 0.0000 0.0000 0.0000
# 2 40.3111 78.6437 63.4630 0.0000 0.0000 0.0000
# 3 63.6643 63.4630 172.9431 -0.0001 0.0000 0.0000
# 4 0.0000 0.0000 -0.0001 78.5904 0.0000 0.0000
# 5 0.0000 0.0000 0.0000 0.0000 36.0494 0.0000
# 6 0.0000 0.0000 0.0000 0.0000 0.0000 17.6084
#
#
#
# Elastic Compliance Matrix: (Units=1/GPa)
#
#
# Indices 1 2 3 4 5 6 
#
# 1 0.011422 -0.003497 -0.002921 0.000000 0.000000 0.000000
# 2 -0.003497 0.019136 -0.005735 0.000000 0.000000 0.000000
# 3 -0.002921 -0.005735 0.008962 0.000000 0.000000 0.000000
# 4 0.000000 0.000000 0.000000 0.012724 0.000000 0.000000
# 5 0.000000 0.000000 0.000000 0.000000 0.027740 0.000000
# 6 0.000000 0.000000 0.000000 0.000000 0.000000 0.056791
#
#
# Mechanical properties :
#
#
# Convention : Reuss Voigt Hill
#
# Bulk Modulus (GPa) = 65.73178 78.07142 71.90160
# Shear Modulus (GPa) = 30.09300 39.80481 34.94890
#
# Velocity S-wave (km/s) = 3.85799 4.43707 4.15762
# Velocity P-wave (km/s) = 7.23578 8.05385 7.65575
#
# Compressibility (1/GPa) = 0.01521334
#
# Stress axis : x y z
#
# Youngs Moduli (GPa) = 87.55333 52.25802 111.58194
#
# Poissons Ratio (x) = 0.18275 0.32596
# Poissons Ratio (y) = 0.30618 0.63989
# Poissons Ratio (z) = 0.25577 0.29968
#
# Static dielectric constant tensor:
#      x y z
#    x 3.799780 0.000000 0.000000 
#    y 0.000000 3.525070 0.000000 
#    z 0.000000 0.000000 3.771580 
# 
# 
# High freq. dielectric constant tensor:
#      x y z
#    x 1.774450 0.000000 0.000000 
#    y 0.000000 1.782070 0.000000 
#    z 0.000000 0.000000 1.795790 
# 
# From -- ./inp_files/26924.got.cif
#   From: 2010.03.12/outbox.cif.g09.slc.cpg/sg44_14_cif.got.tgz:26924.got - 2010.04.14 02:36:11.
