data_PCOD8189839
_publ_section_title
;
Structure prediction by ZEFSAII (Michael W. Deem and Ramdas Pophale) SiO2 
 PCOD8189839
Probable space group: I M M 2
;
_chemical_formula_sum "Si O2"
_cell_formula_units_Z 48
_cell_length_a 9.293200
_cell_length_b 9.426490
_cell_length_c 30.875050
_cell_angle_alpha 90.000000
_cell_angle_beta 90.000000
_cell_angle_gamma 90.000000
_cell_volume 2704.724061
_symmetry_space_group_name_H-M "I M M 2"
_symmetry_group_IT_number 44
_symmetry_cell_setting 'orthorhombic'
loop_
_space_group_symop_operation_xyz
x,y,z
-x,-y,z
-x,y,z
x,-y,z
1/2+x,1/2+y,1/2+z
1/2-x,1/2-y,1/2+z
1/2-x,1/2+y,1/2+z
1/2+x,1/2-y,1/2+z
loop_
_atom_site_type_symbol
_atom_site_label
_atom_site_fract_x
_atom_site_fract_y
_atom_site_fract_z
Si Si1 0.832516 0.664411 0.113970
Si Si2 0.166837 0.334028 0.280811
Si Si3 0.162565 0.168728 0.697812
Si Si4 0.170833 0.843190 0.361169
Si Si5 0.168633 0.164032 0.457920
Si Si6 0.168748 0.163947 0.029784
O O1 0.798486 0.500000 0.104171
O O2 0.743774 0.722411 0.154958
O O3 0.781273 0.755638 0.073080
O O4 0.000000 0.686829 0.124380
O O5 0.190715 0.500000 0.286440
O O6 0.255278 0.272786 0.240099
O O7 0.229020 0.263058 0.324505
O O8 0.000000 0.296693 0.273080
O O9 0.000000 0.227291 0.697646
O O10 0.165694 0.000000 0.698672
O O11 0.219631 0.795969 0.409206
O O12 0.000000 0.846182 0.360629
O O13 0.231094 0.000000 0.350907
O O14 0.252872 0.268029 0.489162
O O15 0.000000 0.190842 0.463992
O O16 0.206086 0.000000 0.467947
O O17 0.000000 0.183358 0.022618
O O18 0.212719 0.000000 0.033913
#
# Coordination Sequence:
#
# PCOD8189839 Si02
#       6
#     8   8   8   8   8   8
#     4   9  17  31  51  70  89 120 162 201 235 278
#     4   9  16  27  46  70  93 120 156 193 228 272
#     4   9  17  29  46  69  95 121 152 193 237 279
#     4   8  15  29  48  70  95 122 155 195 234 274
#     4   9  18  33  53  75  98 127 165 205 243 287
#     4  10  21  35  50  72 102 131 160 198 245 295
#
# _framework density 17.746727
#
# number of rings (size 3 to 8) (size 9 to 14) (size 15 to 20)
#    0.000    3.000    0.000    2.000    0.000    4.667 
#    0.000    5.000    0.000    8.500    0.000    0.000 
#    0.000    0.000    0.000    0.000    0.000    0.000 
#
# Total GULP energy -297556.275926 kJ/mol
# GULP energy per Si atom -12398.178164 kJ/mol
# Density = 1.770633 g / cm^3
# Si number density = 17.746727 Si / 1000 Ang^3
#
#
#
# Elastic Constant Matrix: (Units=GPa)
#
#
# Indices 1 2 3 4 5 6 
#
# 1 59.4998 38.7984 66.1541 0.0000 0.0000 0.0000
# 2 38.7984 76.5429 78.8166 0.0000 0.0000 0.0000
# 3 66.1541 78.8166 184.9473 0.0000 0.0000 0.0000
# 4 0.0000 0.0000 0.0000 31.1038 0.0000 0.0000
# 5 0.0000 0.0000 0.0000 0.0000 30.4645 0.0000
# 6 0.0000 0.0000 0.0000 0.0000 0.0000 18.3482
#
#
#
# Elastic Compliance Matrix: (Units=1/GPa)
#
#
# Indices 1 2 3 4 5 6 
#
# 1 0.030104 -0.007433 -0.007600 0.000000 0.000000 0.000000
# 2 -0.007433 0.025116 -0.008044 0.000000 0.000000 0.000000
# 3 -0.007600 -0.008044 0.011554 0.000000 0.000000 0.000000
# 4 0.000000 0.000000 0.000000 0.032150 0.000000 0.000000
# 5 0.000000 0.000000 0.000000 0.000000 0.032825 0.000000
# 6 0.000000 0.000000 0.000000 0.000000 0.000000 0.054501
#
#
# Mechanical properties :
#
#
# Convention : Reuss Voigt Hill
#
# Bulk Modulus (GPa) = 48.50224 76.50313 62.50269
# Shear Modulus (GPa) = 20.89613 25.13136 23.01375
#
# Velocity S-wave (km/s) = 3.43514 3.76721 3.60500
# Velocity P-wave (km/s) = 6.56682 7.88190 7.25422
#
# Compressibility (1/GPa) = 0.02061761
#
# Stress axis : x y z
#
# Youngs Moduli (GPa) = 33.21818 39.81556 86.55251
#
# Poissons Ratio (x) = 0.29596 0.65782
# Poissons Ratio (y) = 0.24692 0.69627
# Poissons Ratio (z) = 0.25246 0.32029
#
# Static dielectric constant tensor:
#      x y z
#    x 3.120840 0.000000 0.000000 
#    y 0.000000 3.175750 0.000000 
#    z 0.000000 0.000000 3.546880 
# 
# 
# High freq. dielectric constant tensor:
#      x y z
#    x 1.664290 0.000000 0.000000 
#    y 0.000000 1.664140 0.000000 
#    z 0.000000 0.000000 1.701640 
# 
# From -- ./inp_files/24787.got.cif
#   From: 2010.03.12/outbox.cif.g09.slc.cpg/sg44_13_cif.got.tgz:24787.got - 2010.04.14 02:36:11.
