data_PCOD8189973
_publ_section_title
;
Structure prediction by ZEFSAII (Michael W. Deem and Ramdas Pophale) SiO2 
 PCOD8189973
Probable space group: I M M 2
;
_chemical_formula_sum "Si O2"
_cell_formula_units_Z 40
_cell_length_a 9.205554
_cell_length_b 16.902059
_cell_length_c 12.743204
_cell_angle_alpha 90.000000
_cell_angle_beta 90.000000
_cell_angle_gamma 90.000000
_cell_volume 1982.751006
_symmetry_space_group_name_H-M "I M M 2"
_symmetry_group_IT_number 44
_symmetry_cell_setting 'orthorhombic'
loop_
_space_group_symop_operation_xyz
x,y,z
-x,-y,z
-x,y,z
x,-y,z
1/2+x,1/2+y,1/2+z
1/2-x,1/2-y,1/2+z
1/2-x,1/2+y,1/2+z
1/2+x,1/2-y,1/2+z
loop_
_atom_site_type_symbol
_atom_site_label
_atom_site_fract_x
_atom_site_fract_y
_atom_site_fract_z
Si Si1 0.327586 0.833812 0.182700
Si Si2 0.670841 0.174941 0.611542
Si Si3 0.658864 0.408793 0.508490
Si Si4 0.160141 0.593078 0.320098
Si Si5 0.327786 0.909875 0.400857
O O1 0.500000 0.827786 0.173708
O O2 0.255425 0.753859 0.141607
O O3 0.266734 0.901521 0.106530
O O4 0.278431 0.858709 0.299789
O O5 0.500000 0.193264 0.603267
O O6 0.708484 0.112334 0.702254
O O7 0.729934 0.136722 0.503428
O O8 0.500000 0.369073 0.528017
O O9 0.635869 0.500000 0.485344
O O10 0.729730 0.368469 0.404743
O O11 0.156263 0.500000 0.334181
O O12 0.000000 0.628765 0.341891
O O13 0.500000 0.915987 0.405071
O O14 0.264624 0.000000 0.396720
#
# Coordination Sequence:
#
# PCOD8189973 Si02
#       5
#     8   8   8   8   8
#     4  11  23  37  57  86 119 154 194 241 293 353
#     4  10  21  37  59  87 118 152 192 241 293 348
#     4  10  21  37  58  83 113 150 192 239 291 346
#     4   9  18  34  58  86 115 149 190 236 286 344
#     4   9  19  38  63  87 113 153 202 246 290 347
#
# _framework density 20.173991999999998
#
# number of rings (size 3 to 8) (size 9 to 14) (size 15 to 20)
#    0.000    2.200    0.000    2.400    2.800    5.200 
#    0.000    1.000    0.000    4.200    0.000    0.000 
#    0.000    0.000    0.000    0.000    0.000    0.000 
#
# Total GULP energy -247900.470022 kJ/mol
# GULP energy per Si atom -12395.023501 kJ/mol
# Density = 2.012808 g / cm^3
# Si number density = 20.173992 Si / 1000 Ang^3
#
#
#
# Elastic Constant Matrix: (Units=GPa)
#
#
# Indices 1 2 3 4 5 6 
#
# 1 78.7427 31.5879 64.6376 0.0000 0.0000 0.0000
# 2 31.5879 82.0419 53.8890 0.0000 0.0000 0.0000
# 3 64.6376 53.8890 197.1517 -0.0001 0.0000 0.0000
# 4 0.0000 0.0000 -0.0001 35.0925 0.0000 0.0000
# 5 0.0000 0.0000 0.0000 0.0000 22.3916 0.0000
# 6 0.0000 0.0000 0.0000 0.0000 0.0000 27.3284
#
#
#
# Elastic Compliance Matrix: (Units=1/GPa)
#
#
# Indices 1 2 3 4 5 6 
#
# 1 0.018291 -0.003782 -0.004963 0.000000 0.000000 0.000000
# 2 -0.003782 0.015638 -0.003034 0.000000 0.000000 0.000000
# 3 -0.004963 -0.003034 0.007529 0.000000 0.000000 0.000000
# 4 0.000000 0.000000 0.000000 0.028496 0.000000 0.000000
# 5 0.000000 0.000000 0.000000 0.000000 0.044660 0.000000
# 6 0.000000 0.000000 0.000000 0.000000 0.000000 0.036592
#
#
# Mechanical properties :
#
#
# Convention : Reuss Voigt Hill
#
# Bulk Modulus (GPa) = 55.87104 73.12947 64.50026
# Shear Modulus (GPa) = 27.66536 30.81730 29.24133
#
# Velocity S-wave (km/s) = 3.70718 3.91266 3.81130
# Velocity P-wave (km/s) = 6.78814 7.53259 7.17004
#
# Compressibility (1/GPa) = 0.01789836
#
# Stress axis : x y z
#
# Youngs Moduli (GPa) = 54.67218 63.94518 132.82358
#
# Poissons Ratio (x) = 0.24187 0.65919
# Poissons Ratio (y) = 0.20680 0.40305
# Poissons Ratio (z) = 0.27133 0.19404
#
# Static dielectric constant tensor:
#      x y z
#    x 3.896160 0.000000 0.000000 
#    y 0.000000 3.584850 0.000000 
#    z 0.000000 0.000000 4.117950 
# 
# 
# High freq. dielectric constant tensor:
#      x y z
#    x 1.766410 0.000000 0.000000 
#    y 0.000000 1.780130 0.000000 
#    z 0.000000 0.000000 1.804150 
# 
# From -- ./inp_files/10830.got.cif
#   From: 2010.03.12/outbox.cif.g09.slc.cpg/sg44_6_cif.got.tgz:10830.got - 2010.04.14 02:36:11.
