data_PCOD8189969
_publ_section_title
;
Structure prediction by ZEFSAII (Michael W. Deem and Ramdas Pophale) SiO2 
 PCOD8189969
Probable space group: I M M 2
;
_chemical_formula_sum "Si O2"
_cell_formula_units_Z 64
_cell_length_a 9.332990
_cell_length_b 18.705963
_cell_length_c 18.422253
_cell_angle_alpha 90.000000
_cell_angle_beta 90.000000
_cell_angle_gamma 90.000000
_cell_volume 3216.204193
_symmetry_space_group_name_H-M "I M M 2"
_symmetry_group_IT_number 44
_symmetry_cell_setting 'orthorhombic'
loop_
_space_group_symop_operation_xyz
x,y,z
-x,-y,z
-x,y,z
x,-y,z
1/2+x,1/2+y,1/2+z
1/2-x,1/2-y,1/2+z
1/2-x,1/2+y,1/2+z
1/2+x,1/2-y,1/2+z
loop_
_atom_site_type_symbol
_atom_site_label
_atom_site_fract_x
_atom_site_fract_y
_atom_site_fract_z
Si Si1 0.342457 0.421774 0.590790
Si Si2 0.831289 0.704399 0.648232
Si Si3 0.835393 0.419262 0.197654
Si Si4 0.167712 0.583475 0.937778
Si Si5 0.833787 0.324462 0.333430
Si Si6 0.845671 0.921795 0.920892
Si Si7 0.333215 0.810492 0.312641
Si Si8 0.328528 0.647461 0.073419
O O1 0.500000 0.398326 0.620459
O O2 0.301923 0.500000 0.623672
O O3 0.221755 0.364660 0.606701
O O4 0.349434 0.428984 0.505836
O O5 0.773492 0.692306 0.730213
O O6 0.777101 0.775806 0.606430
O O7 0.000000 0.705075 0.648131
O O8 0.819365 0.500000 0.227631
O O9 0.786513 0.362193 0.258274
O O10 0.731475 0.411754 0.128708
O O11 0.000000 0.404835 0.174508
O O12 0.214841 0.500000 0.937641
O O13 0.196860 0.615936 0.856912
O O14 0.000000 0.590429 0.957666
O O15 0.258694 0.630278 0.995236
O O16 0.791220 0.376113 0.398622
O O17 0.750609 0.252441 0.352208
O O18 0.000000 0.308254 0.335633
O O19 0.000000 0.889512 0.894181
O O20 0.827276 0.000000 0.885896
O O21 0.500000 0.792603 0.313326
O O22 0.500000 0.642428 0.066873
#
# Coordination Sequence:
#
# PCOD8189969 Si02
#       8
#     8   8   8   8   8   8   8   8
#     4   9  20  38  59  85 116 152 196 241 289 351
#     4  10  22  39  60  88 121 154 195 250 304 358
#     4  10  21  37  57  83 117 157 199 241 292 358
#     4  10  23  43  66  90 117 157 208 255 302 361
#     4  11  22  35  55  85 120 155 194 243 296 348
#     4   9  19  36  56  80 114 155 195 233 278 341
#     4  10  22  42  63  85 116 155 200 245 294 355
#     4  11  23  39  60  90 125 156 195 248 305 360
#
# _framework density 19.899234
#
# number of rings (size 3 to 8) (size 9 to 14) (size 15 to 20)
#    0.000    2.000    1.250    2.250    1.750    6.500 
#    0.000    2.500    0.000    0.000    0.000    0.000 
#    0.000    0.000    0.000    0.000    0.000    0.000 
#
# Total GULP energy -396586.492115 kJ/mol
# GULP energy per Si atom -12393.327879 kJ/mol
# Density = 1.985394 g / cm^3
# Si number density = 19.899234 Si / 1000 Ang^3
#
#
#
# Elastic Constant Matrix: (Units=GPa)
#
#
# Indices 1 2 3 4 5 6 
#
# 1 43.2523 39.4067 36.5223 0.0000 0.0000 0.0000
# 2 39.4067 121.7823 54.2254 0.0000 0.0000 0.0000
# 3 36.5223 54.2254 79.3349 0.0000 0.0000 0.0000
# 4 0.0000 0.0000 0.0000 32.6149 0.0000 0.0000
# 5 0.0000 0.0000 0.0000 0.0000 31.7013 0.0000
# 6 0.0000 0.0000 0.0000 0.0000 0.0000 16.2723
#
#
#
# Elastic Compliance Matrix: (Units=1/GPa)
#
#
# Indices 1 2 3 4 5 6 
#
# 1 0.041707 -0.007111 -0.014340 0.000000 0.000000 0.000000
# 2 -0.007111 0.013016 -0.005623 0.000000 0.000000 0.000000
# 3 -0.014340 -0.005623 0.023050 0.000000 0.000000 0.000000
# 4 0.000000 0.000000 0.000000 0.030661 0.000000 0.000000
# 5 0.000000 0.000000 0.000000 0.000000 0.031544 0.000000
# 6 0.000000 0.000000 0.000000 0.000000 0.000000 0.061454
#
#
# Mechanical properties :
#
#
# Convention : Reuss Voigt Hill
#
# Bulk Modulus (GPa) = 42.32706 56.07536 49.20121
# Shear Modulus (GPa) = 18.97856 23.73205 21.35530
#
# Velocity S-wave (km/s) = 3.09161 3.45717 3.27948
# Velocity P-wave (km/s) = 5.83617 6.64657 6.25451
#
# Compressibility (1/GPa) = 0.02362555
#
# Stress axis : x y z
#
# Youngs Moduli (GPa) = 23.97652 76.82855 43.38453
#
# Poissons Ratio (x) = 0.54630 0.62214
# Poissons Ratio (y) = 0.17049 0.24395
# Poissons Ratio (z) = 0.34383 0.43201
#
# Static dielectric constant tensor:
#      x y z
#    x 3.627120 0.000000 0.000000 
#    y 0.000000 3.868370 0.000000 
#    z 0.000000 0.000000 3.589880 
# 
# 
# High freq. dielectric constant tensor:
#      x y z
#    x 1.771220 0.000000 0.000000 
#    y 0.000000 1.781260 0.000000 
#    z 0.000000 0.000000 1.767790 
# 
# From -- ./inp_files/23290.got.cif
#   From: 2010.03.12/outbox.cif.g09.slc.cpg/sg44_12_cif.got.tgz:23290.got - 2010.04.14 02:36:11.
