data_PCOD8189426
_publ_section_title
;
Structure prediction by ZEFSAII (Michael W. Deem and Ramdas Pophale) SiO2 
 PCOD8189426
Probable space group: I M M 2
;
_chemical_formula_sum "Si O2"
_cell_formula_units_Z 56
_cell_length_a 8.784884
_cell_length_b 21.049974
_cell_length_c 14.150328
_cell_angle_alpha 90.000000
_cell_angle_beta 90.000000
_cell_angle_gamma 90.000000
_cell_volume 2616.701008
_symmetry_space_group_name_H-M "I M M 2"
_symmetry_group_IT_number 44
_symmetry_cell_setting 'orthorhombic'
loop_
_space_group_symop_operation_xyz
x,y,z
-x,-y,z
-x,y,z
x,-y,z
1/2+x,1/2+y,1/2+z
1/2-x,1/2-y,1/2+z
1/2-x,1/2+y,1/2+z
1/2+x,1/2-y,1/2+z
loop_
_atom_site_type_symbol
_atom_site_label
_atom_site_fract_x
_atom_site_fract_y
_atom_site_fract_z
Si Si1 0.681898 0.861772 0.865260
Si Si2 0.167330 0.000000 0.097812
Si Si3 0.668636 0.109034 0.199070
Si Si4 0.168828 0.713323 0.548729
Si Si5 0.672100 0.926362 0.569584
Si Si6 0.172676 0.926774 0.377216
Si Si7 0.330541 0.500000 0.377547
Si Si8 0.820962 0.823087 0.677046
O O1 0.500000 0.867009 0.868903
O O2 0.736473 0.816967 0.778388
O O3 0.743975 0.934014 0.851709
O O4 0.745821 0.825540 0.961123
O O5 0.261973 0.061053 0.124647
O O6 0.000000 0.000000 0.147170
O O7 0.147131 0.000000 0.987874
O O8 0.500000 0.086578 0.230320
O O9 0.661427 0.174855 0.145866
O O10 0.775239 0.116629 0.290316
O O11 0.245938 0.777726 0.591422
O O12 0.000000 0.730432 0.512504
O O13 0.500000 0.902867 0.586546
O O14 0.718133 0.910216 0.463093
O O15 0.787023 0.894074 0.642325
O O16 0.689338 0.000000 0.590673
O O17 0.000000 0.910700 0.405745
O O18 0.190375 0.000000 0.345219
O O19 0.500000 0.500000 0.330591
O O20 0.000000 0.811257 0.692065
#
# Coordination Sequence:
#
# PCOD8189426 Si02
#       8
#     8   4   8   8   8   8   4   8
#     4  11  23  43  68  96 129 171 221 268 322 388
#     4  11  21  33  53  88 127 160 205 261 323 380
#     4  11  20  34  58  87 122 167 212 256 314 376
#     4   9  22  42  63  89 125 167 213 263 315 378
#     4  10  22  41  63  88 118 157 209 261 314 380
#     4  10  20  34  54  85 123 158 198 251 306 361
#     4  11  23  39  63  98 133 168 213 273 335 384
#     4  11  24  44  66  92 127 165 209 263 322 382
#
# _framework density 21.400991999999999
#
# number of rings (size 3 to 8) (size 9 to 14) (size 15 to 20)
#    0.000    1.571    2.143    2.571    1.000    3.143 
#    0.000    8.571    0.000    0.000    0.000    0.000 
#    0.000    0.000    0.000    0.000    0.000    0.000 
#
# Total GULP energy -346980.238426 kJ/mol
# GULP energy per Si atom -12392.151372 kJ/mol
# Density = 2.135228 g / cm^3
# Si number density = 21.400992 Si / 1000 Ang^3
#
#
#
# Elastic Constant Matrix: (Units=GPa)
#
#
# Indices 1 2 3 4 5 6 
#
# 1 84.8364 37.7389 21.5304 0.0000 0.0000 0.0000
# 2 37.7389 76.9223 53.7067 0.0000 0.0000 0.0000
# 3 21.5304 53.7067 98.7562 0.0001 -0.0001 0.0000
# 4 0.0000 0.0000 0.0001 44.2907 0.0000 0.0000
# 5 0.0000 0.0000 -0.0001 0.0000 35.2742 0.0000
# 6 0.0000 0.0000 0.0000 0.0000 0.0000 26.7723
#
#
#
# Elastic Compliance Matrix: (Units=1/GPa)
#
#
# Indices 1 2 3 4 5 6 
#
# 1 0.015165 -0.008273 0.001193 0.000000 0.000000 0.000000
# 2 -0.008273 0.025471 -0.012048 0.000000 0.000000 0.000000
# 3 0.001193 -0.012048 0.016418 0.000000 0.000000 0.000000
# 4 0.000000 0.000000 0.000000 0.022578 0.000000 0.000000
# 5 0.000000 0.000000 0.000000 0.000000 0.028349 0.000000
# 6 0.000000 0.000000 0.000000 0.000000 0.000000 0.037352
#
#
# Mechanical properties :
#
#
# Convention : Reuss Voigt Hill
#
# Bulk Modulus (GPa) = 53.19913 54.05188 53.62550
# Shear Modulus (GPa) = 26.33584 31.10338 28.71961
#
# Velocity S-wave (km/s) = 3.51178 3.81643 3.66727
# Velocity P-wave (km/s) = 6.43084 6.68818 6.56077
#
# Compressibility (1/GPa) = 0.01879730
#
# Stress axis : x y z
#
# Youngs Moduli (GPa) = 65.94231 39.26054 60.90845
#
# Poissons Ratio (x) = 0.32480 -0.07266
# Poissons Ratio (y) = 0.54553 0.73384
# Poissons Ratio (z) = -0.07866 0.47302
#
# Static dielectric constant tensor:
#      x y z
#    x 3.977950 0.000000 0.000000 
#    y 0.000000 3.830170 0.000000 
#    z 0.000000 0.000000 3.946060 
# 
# 
# High freq. dielectric constant tensor:
#      x y z
#    x 1.831210 0.000000 0.000000 
#    y 0.000000 1.830470 0.000000 
#    z 0.000000 0.000000 1.849490 
# 
# From -- ./inp_files/16540.got.cif
#   From: 2010.03.12/outbox.cif.g09.slc.cpg/sg44_9_cif.got.tgz:16540.got - 2010.04.14 02:36:11.
