data_PCOD8189069
_publ_section_title
;
Structure prediction by ZEFSAII (Michael W. Deem and Ramdas Pophale) SiO2 
 PCOD8189069
Probable space group: I M M 2
;
_chemical_formula_sum "Si O2"
_cell_formula_units_Z 64
_cell_length_a 8.925443
_cell_length_b 24.556950
_cell_length_c 14.955146
_cell_angle_alpha 90.000000
_cell_angle_beta 90.000000
_cell_angle_gamma 90.000000
_cell_volume 3277.893688
_symmetry_space_group_name_H-M "I M M 2"
_symmetry_group_IT_number 44
_symmetry_cell_setting 'orthorhombic'
loop_
_space_group_symop_operation_xyz
x,y,z
-x,-y,z
-x,y,z
x,-y,z
1/2+x,1/2+y,1/2+z
1/2-x,1/2-y,1/2+z
1/2-x,1/2+y,1/2+z
1/2+x,1/2-y,1/2+z
loop_
_atom_site_type_symbol
_atom_site_label
_atom_site_fract_x
_atom_site_fract_y
_atom_site_fract_z
Si Si1 0.824255 0.350180 0.525200
Si Si2 0.825603 0.603048 0.233125
Si Si3 0.169639 0.274890 0.197715
Si Si4 0.174159 0.666734 0.728204
Si Si5 0.676696 0.359493 0.900067
Si Si6 0.827238 0.260485 0.992190
Si Si7 0.828453 0.062929 0.906575
Si Si8 0.827886 0.563984 0.039768
O O1 0.783202 0.354694 0.629789
O O2 0.740218 0.299484 0.480274
O O3 0.771604 0.404947 0.477729
O O4 0.000000 0.341655 0.510934
O O5 0.797852 0.667518 0.244338
O O6 0.729325 0.571980 0.306402
O O7 0.769126 0.582453 0.136767
O O8 0.000000 0.588426 0.246032
O O9 0.281952 0.230351 0.237442
O O10 0.000000 0.255248 0.216519
O O11 0.194320 0.282668 0.092206
O O12 0.264798 0.630052 0.799169
O O13 0.000000 0.660650 0.748600
O O14 0.500000 0.358472 0.901714
O O15 0.738823 0.300836 0.928081
O O16 0.731826 0.407675 0.963323
O O17 0.000000 0.259363 0.963540
O O18 0.000000 0.082316 0.912960
O O19 0.812326 0.000000 0.931453
O O20 0.807910 0.500000 0.028657
O O21 0.000000 0.582430 0.028462
#
# Coordination Sequence:
#
# PCOD8189069 Si02
#       8
#     8   8   8   8   8   8   8   8
#     4  10  22  41  64  90 117 150 198 252 305 357
#     4  10  20  37  61  89 120 157 200 245 295 353
#     4   9  18  34  57  86 120 155 193 237 290 351
#     4  10  22  39  60  86 120 157 198 247 302 358
#     4  12  24  37  58  88 124 161 201 246 295 353
#     4  10  19  36  60  86 120 157 194 238 292 353
#     4  11  25  42  60  86 120 159 203 248 298 356
#     4  10  21  40  64  88 119 160 204 248 297 353
#
# _framework density 19.524733000000001
#
# number of rings (size 3 to 8) (size 9 to 14) (size 15 to 20)
#    0.000    1.750    1.250    3.000    1.750    4.750 
#    0.000    0.625    0.000    0.750    0.000    0.000 
#    0.000    0.000    0.000    0.000    0.000    0.000 
#
# Total GULP energy -396973.458072 kJ/mol
# GULP energy per Si atom -12405.420565 kJ/mol
# Density = 1.948029 g / cm^3
# Si number density = 19.524733 Si / 1000 Ang^3
#
#
#
# Elastic Constant Matrix: (Units=GPa)
#
#
# Indices 1 2 3 4 5 6 
#
# 1 108.1000 42.4315 55.2335 -0.0001 0.0000 0.0000
# 2 42.4315 80.1241 46.4958 -0.0001 0.0000 0.0000
# 3 55.2335 46.4958 103.4597 -0.0005 0.0001 0.0001
# 4 -0.0001 -0.0001 -0.0005 29.9737 0.0000 0.0000
# 5 0.0000 0.0000 0.0001 0.0000 30.7328 0.0000
# 6 0.0000 0.0000 0.0001 0.0000 0.0000 29.9671
#
#
#
# Elastic Compliance Matrix: (Units=1/GPa)
#
#
# Indices 1 2 3 4 5 6 
#
# 1 0.013628 -0.004052 -0.005455 0.000000 0.000000 0.000000
# 2 -0.004052 0.018088 -0.005966 0.000000 0.000000 0.000000
# 3 -0.005455 -0.005966 0.015259 0.000000 0.000000 0.000000
# 4 0.000000 0.000000 0.000000 0.033363 0.000000 0.000000
# 5 0.000000 0.000000 0.000000 0.000000 0.032538 0.000000
# 6 0.000000 0.000000 0.000000 0.000000 0.000000 0.033370
#
#
# Mechanical properties :
#
#
# Convention : Reuss Voigt Hill
#
# Bulk Modulus (GPa) = 62.38116 64.44505 63.41311
# Shear Modulus (GPa) = 27.39204 27.96960 27.68082
#
# Velocity S-wave (km/s) = 3.74965 3.78897 3.76936
# Velocity P-wave (km/s) = 7.12500 7.22636 7.17586
#
# Compressibility (1/GPa) = 0.01603048
#
# Stress axis : x y z
#
# Youngs Moduli (GPa) = 73.37757 55.28410 65.53572
#
# Poissons Ratio (x) = 0.22400 0.35748
# Poissons Ratio (y) = 0.29731 0.39099
# Poissons Ratio (z) = 0.40025 0.32983
#
# Static dielectric constant tensor:
#      x y z
#    x 3.567740 0.000000 0.000000 
#    y 0.000000 3.446880 0.000000 
#    z 0.000000 0.000000 3.640330 
# 
# 
# High freq. dielectric constant tensor:
#      x y z
#    x 1.763460 0.000000 0.000000 
#    y 0.000000 1.750840 0.000000 
#    z 0.000000 0.000000 1.766560 
# 
# From -- ./inp_files/16815.got.cif
#   From: 2010.03.12/outbox.cif.g09.slc.cpg/sg44_9_cif.got.tgz:16815.got - 2010.04.14 02:36:11.
