data_PCOD8189688
_publ_section_title
;
Structure prediction by ZEFSAII (Michael W. Deem and Ramdas Pophale) SiO2 
 PCOD8189688
Probable space group: I M M 2
;
_chemical_formula_sum "Si O2"
_cell_formula_units_Z 64
_cell_length_a 28.034024
_cell_length_b 8.771720
_cell_length_c 12.627964
_cell_angle_alpha 90.000000
_cell_angle_beta 90.000000
_cell_angle_gamma 90.000000
_cell_volume 3105.299806
_symmetry_space_group_name_H-M "I M M 2"
_symmetry_group_IT_number 44
_symmetry_cell_setting 'orthorhombic'
loop_
_space_group_symop_operation_xyz
x,y,z
-x,-y,z
-x,y,z
x,-y,z
1/2+x,1/2+y,1/2+z
1/2-x,1/2-y,1/2+z
1/2-x,1/2+y,1/2+z
1/2+x,1/2-y,1/2+z
loop_
_atom_site_type_symbol
_atom_site_label
_atom_site_fract_x
_atom_site_fract_y
_atom_site_fract_z
Si Si1 0.052999 0.671196 0.119480
Si Si2 0.444735 0.679928 0.998136
Si Si3 0.400225 0.179108 0.205632
Si Si4 0.074452 0.169456 0.912144
Si Si5 0.705169 0.821123 0.276259
Si Si6 0.682024 0.669884 0.483103
Si Si7 0.201945 0.678544 0.197779
Si Si8 0.385663 0.321781 0.792450
O O1 0.074722 0.500000 0.124066
O O2 0.085318 0.786065 0.185884
O O3 0.000000 0.671437 0.168142
O O4 0.048655 0.726393 0.998629
O O5 0.500000 0.730704 0.988864
O O6 0.440861 0.500000 0.014776
O O7 0.418748 0.763443 0.093576
O O8 0.416735 0.731910 0.892575
O O9 0.432406 0.256512 0.296589
O O10 0.344589 0.223825 0.219810
O O11 0.407548 0.000000 0.213737
O O12 0.129608 0.161181 0.937806
O O13 0.051893 0.000000 0.911542
O O14 0.713856 0.740799 0.389662
O O15 0.747680 0.764228 0.202223
O O16 0.708030 0.000000 0.294889
O O17 0.700649 0.500000 0.512897
O O18 0.680782 0.780846 0.583339
O O19 0.209988 0.500000 0.209961
O O20 0.165062 0.734744 0.288636
O O21 0.374769 0.500000 0.795461
#
# Coordination Sequence:
#
# PCOD8189688 Si02
#       8
#     8   8   8   8   8   8   8   8
#     4  11  23  37  57  88 123 156 196 249 307 368
#     4  10  23  43  66  91 123 167 216 265 319 384
#     4  10  22  40  64  91 123 161 205 260 317 373
#     4  10  20  36  61  87 116 156 198 246 304 366
#     4  10  22  40  61  89 124 163 209 261 316 378
#     4  10  20  37  60  86 117 154 198 250 309 370
#     4  12  24  38  61  91 125 165 209 259 318 380
#     4  11  23  41  63  88 121 163 211 263 316 376
#
# _framework density 20.609926000000002
#
# number of rings (size 3 to 8) (size 9 to 14) (size 15 to 20)
#    0.000    1.500    1.250    3.750    0.000    6.750 
#    0.000    2.500    0.000    0.000    0.000    0.000 
#    0.000    0.000    0.000    0.000    0.000    0.000 
#
# Total GULP energy -396883.818187 kJ/mol
# GULP energy per Si atom -12402.619318 kJ/mol
# Density = 2.056302 g / cm^3
# Si number density = 20.609926 Si / 1000 Ang^3
#
#
#
# Elastic Constant Matrix: (Units=GPa)
#
#
# Indices 1 2 3 4 5 6 
#
# 1 82.6907 35.5768 34.6394 0.0000 0.0000 0.0000
# 2 35.5768 78.6293 32.9639 0.0000 0.0000 0.0000
# 3 34.6394 32.9639 111.9532 0.0000 0.0000 0.0000
# 4 0.0000 0.0000 0.0000 34.7893 0.0000 0.0000
# 5 0.0000 0.0000 0.0000 0.0000 24.1606 0.0000
# 6 0.0000 0.0000 0.0000 0.0000 0.0000 28.2918
#
#
#
# Elastic Compliance Matrix: (Units=1/GPa)
#
#
# Indices 1 2 3 4 5 6 
#
# 1 0.015967 -0.005879 -0.003209 0.000000 0.000000 0.000000
# 2 -0.005879 0.016674 -0.003090 0.000000 0.000000 0.000000
# 3 -0.003209 -0.003090 0.010835 0.000000 0.000000 0.000000
# 4 0.000000 0.000000 0.000000 0.028744 0.000000 0.000000
# 5 0.000000 0.000000 0.000000 0.000000 0.041390 0.000000
# 6 0.000000 0.000000 0.000000 0.000000 0.000000 0.035346
#
#
# Mechanical properties :
#
#
# Convention : Reuss Voigt Hill
#
# Bulk Modulus (GPa) = 52.30579 53.29261 52.79920
# Shear Modulus (GPa) = 27.82630 28.78789 28.30709
#
# Velocity S-wave (km/s) = 3.67841 3.74143 3.71005
# Velocity P-wave (km/s) = 6.59356 6.67670 6.63526
#
# Compressibility (1/GPa) = 0.01911834
#
# Stress axis : x y z
#
# Youngs Moduli (GPa) = 62.62903 59.97524 92.29140
#
# Poissons Ratio (x) = 0.35260 0.29619
# Poissons Ratio (y) = 0.36820 0.28522
# Poissons Ratio (z) = 0.20100 0.18535
#
# Static dielectric constant tensor:
#      x y z
#    x 3.779770 0.000000 0.000000 
#    y 0.000000 3.882900 0.000000 
#    z 0.000000 0.000000 3.729340 
# 
# 
# High freq. dielectric constant tensor:
#      x y z
#    x 1.805440 0.000000 0.000000 
#    y 0.000000 1.815430 0.000000 
#    z 0.000000 0.000000 1.803920 
# 
# From -- ./inp_files/15092.got.cif
#   From: 2010.03.12/outbox.cif.g09.slc.cpg/sg44_8_cif.got.tgz:15092.got - 2010.04.14 02:36:11.
