data_PCOD8189801
_publ_section_title
;
Structure prediction by ZEFSAII (Michael W. Deem and Ramdas Pophale) SiO2 
 PCOD8189801
Probable space group: I M M 2
;
_chemical_formula_sum "Si O2"
_cell_formula_units_Z 56
_cell_length_a 20.225361
_cell_length_b 14.967570
_cell_length_c 9.610982
_cell_angle_alpha 90.000000
_cell_angle_beta 90.000000
_cell_angle_gamma 90.000000
_cell_volume 2909.479783
_symmetry_space_group_name_H-M "I M M 2"
_symmetry_group_IT_number 44
_symmetry_cell_setting 'orthorhombic'
loop_
_space_group_symop_operation_xyz
x,y,z
-x,-y,z
-x,y,z
x,-y,z
1/2+x,1/2+y,1/2+z
1/2-x,1/2-y,1/2+z
1/2-x,1/2+y,1/2+z
1/2+x,1/2-y,1/2+z
loop_
_atom_site_type_symbol
_atom_site_label
_atom_site_fract_x
_atom_site_fract_y
_atom_site_fract_z
Si Si1 0.135136 0.822428 0.402330
Si Si2 0.425201 0.800229 0.681709
Si Si3 0.768686 0.602008 0.827201
Si Si4 0.823598 0.232005 0.693212
Si Si5 0.576898 0.500000 0.889560
Si Si6 0.078473 0.000000 0.074606
Si Si7 0.576186 0.323919 0.422569
Si Si8 0.205496 0.399120 0.151114
O O1 0.082893 0.773331 0.303054
O O2 0.197086 0.853543 0.310540
O O3 0.156221 0.761986 0.532087
O O4 0.103136 0.912187 0.467739
O O5 0.500000 0.839636 0.694241
O O6 0.415444 0.756926 0.530555
O O7 0.368907 0.875286 0.701352
O O8 0.770136 0.500000 0.771426
O O9 0.815270 0.664472 0.734339
O O10 0.792134 0.605423 0.985588
O O11 0.882432 0.191643 0.783973
O O12 0.758064 0.170752 0.716146
O O13 0.500000 0.500000 0.894860
O O14 0.605229 0.500000 0.731901
O O15 0.104518 0.087148 0.995049
O O16 0.000000 0.000000 0.080676
O O17 0.500000 0.335346 0.378401
O O18 0.221581 0.500000 0.201952
#
# Coordination Sequence:
#
# PCOD8189801 Si02
#       8
#     8   8   8   8   4   4   8   8
#     4  11  22  36  58  91 123 157 195 243 302 370
#     4  11  21  38  62  85 117 161 204 248 295 349
#     4  10  20  39  63  85 116 156 199 248 298 355
#     4  11  23  38  63  88 126 155 195 254 309 348
#     4  11  20  35  57  87 123 163 199 230 296 377
#     4   9  18  33  55  85 121 157 201 242 280 357
#     4  10  21  36  58  88 121 161 205 247 295 351
#     4  10  22  39  62  90 119 155 204 248 292 354
#
# _framework density 19.247426999999998
#
# number of rings (size 3 to 8) (size 9 to 14) (size 15 to 20)
#    0.000    1.571    5.000    0.429    2.000    1.429 
#    0.000    1.429    0.000    0.429    0.000    0.000 
#    0.000    0.000    0.000    0.000    0.000    0.000 
#
# Total GULP energy -347160.140076 kJ/mol
# GULP energy per Si atom -12398.576431 kJ/mol
# Density = 1.920362 g / cm^3
# Si number density = 19.247427 Si / 1000 Ang^3
#
#
#
# Elastic Constant Matrix: (Units=GPa)
#
#
# Indices 1 2 3 4 5 6 
#
# 1 96.0937 25.1647 28.2896 0.0000 0.0000 0.0000
# 2 25.1647 99.0480 28.6695 0.0000 0.0000 0.0000
# 3 28.2896 28.6695 40.4538 0.0000 0.0000 0.0000
# 4 0.0000 0.0000 0.0000 35.5513 0.0000 0.0000
# 5 0.0000 0.0000 0.0000 0.0000 30.3913 0.0000
# 6 0.0000 0.0000 0.0000 0.0000 0.0000 28.1202
#
#
#
# Elastic Compliance Matrix: (Units=1/GPa)
#
#
# Indices 1 2 3 4 5 6 
#
# 1 0.013162 -0.000855 -0.008598 0.000000 0.000000 0.000000
# 2 -0.000855 0.012757 -0.008443 0.000000 0.000000 0.000000
# 3 -0.008598 -0.008443 0.036716 0.000000 0.000000 0.000000
# 4 0.000000 0.000000 0.000000 0.028128 0.000000 0.000000
# 5 0.000000 0.000000 0.000000 0.000000 0.032904 0.000000
# 6 0.000000 0.000000 0.000000 0.000000 0.000000 0.035562
#
#
# Mechanical properties :
#
#
# Convention : Reuss Voigt Hill
#
# Bulk Modulus (GPa) = 37.25461 44.42702 40.84081
# Shear Modulus (GPa) = 24.51360 29.04400 26.77880
#
# Velocity S-wave (km/s) = 3.57263 3.88877 3.73405
# Velocity P-wave (km/s) = 6.03456 6.57994 6.31314
#
# Compressibility (1/GPa) = 0.02684232
#
# Stress axis : x y z
#
# Youngs Moduli (GPa) = 75.97822 78.38696 27.23634
#
# Poissons Ratio (x) = 0.06704 0.23418
# Poissons Ratio (y) = 0.06498 0.22995
# Poissons Ratio (z) = 0.65325 0.66182
#
# Static dielectric constant tensor:
#      x y z
#    x 3.509810 0.000000 0.000000 
#    y 0.000000 3.431640 0.000000 
#    z 0.000000 0.000000 3.303460 
# 
# 
# High freq. dielectric constant tensor:
#      x y z
#    x 1.748740 0.000000 0.000000 
#    y 0.000000 1.744610 0.000000 
#    z 0.000000 0.000000 1.729720 
# 
# From -- ./inp_files/7419.got.cif
#   From: 2010.03.12/outbox.cif.g09.slc.cpg/sg44_4_cif.got.tgz:7419.got - 2010.04.14 02:36:11.
