data_PCOD8189117
_publ_section_title
;
Structure prediction by ZEFSAII (Michael W. Deem and Ramdas Pophale) SiO2 
 PCOD8189117
Probable space group: I M M 2
;
_chemical_formula_sum "Si O2"
_cell_formula_units_Z 64
_cell_length_a 9.743726
_cell_length_b 13.572206
_cell_length_c 24.877130
_cell_angle_alpha 90.000000
_cell_angle_beta 90.000000
_cell_angle_gamma 90.000000
_cell_volume 3289.847609
_symmetry_space_group_name_H-M "I M M 2"
_symmetry_group_IT_number 44
_symmetry_cell_setting 'orthorhombic'
loop_
_space_group_symop_operation_xyz
x,y,z
-x,-y,z
-x,y,z
x,-y,z
1/2+x,1/2+y,1/2+z
1/2-x,1/2-y,1/2+z
1/2-x,1/2+y,1/2+z
1/2+x,1/2-y,1/2+z
loop_
_atom_site_type_symbol
_atom_site_label
_atom_site_fract_x
_atom_site_fract_y
_atom_site_fract_z
Si Si1 0.658932 0.612093 0.126370
Si Si2 0.650084 0.385366 0.630908
Si Si3 0.158963 0.385156 0.228670
Si Si4 0.338825 0.107527 0.945710
Si Si5 0.159597 0.710784 0.550777
Si Si6 0.843422 0.609657 0.840177
Si Si7 0.147422 0.611821 0.715097
Si Si8 0.338590 0.212844 0.840530
O O1 0.500000 0.621393 0.142876
O O2 0.695579 0.500000 0.109793
O O3 0.748995 0.645886 0.177581
O O4 0.692898 0.680116 0.074202
O O5 0.500000 0.334435 0.625479
O O6 0.626810 0.500000 0.639747
O O7 0.745067 0.368776 0.579705
O O8 0.729196 0.336388 0.682218
O O9 0.180141 0.500000 0.242169
O O10 0.208262 0.324058 0.281418
O O11 0.000000 0.363167 0.215503
O O12 0.500000 0.096338 0.946932
O O13 0.293694 0.133324 0.885099
O O14 0.273799 0.000000 0.960344
O O15 0.299556 0.194808 0.988103
O O16 0.000000 0.685147 0.560883
O O17 0.809864 0.500000 0.862356
O O18 0.818984 0.612047 0.777016
O O19 0.736937 0.688910 0.862131
O O20 0.000000 0.637838 0.854858
O O21 0.136166 0.500000 0.694270
O O22 0.000000 0.664272 0.703237
O O23 0.500000 0.233848 0.841183
#
# Coordination Sequence:
#
# PCOD8189117 Si02
#       8
#     8   8   8   8   8   8   8   8
#     4   9  19  35  53  76 107 138 173 222 271 316
#     4  10  20  31  45  71 106 138 169 213 267 316
#     4   9  18  33  53  78 109 143 176 214 267 330
#     4   9  18  35  58  82 109 140 178 225 271 321
#     4  10  20  34  55  78 101 139 184 220 264 320
#     4   9  19  35  52  72 104 145 183 219 263 317
#     4   8  15  29  47  66  93 133 176 211 248 304
#     4  10  20  33  54  83 109 139 182 228 274 319
#
# _framework density 19.453787999999999
#
# number of rings (size 3 to 8) (size 9 to 14) (size 15 to 20)
#    0.000    2.750    0.000    1.875    1.750    4.500 
#    0.000    2.500    0.000    4.125    0.000    1.750 
#    0.000    0.000    0.000    0.000    0.000    0.000 
#
# Total GULP energy -396467.442727 kJ/mol
# GULP energy per Si atom -12389.607585 kJ/mol
# Density = 1.940951 g / cm^3
# Si number density = 19.453788 Si / 1000 Ang^3
#
#
#
# Elastic Constant Matrix: (Units=GPa)
#
#
# Indices 1 2 3 4 5 6 
#
# 1 71.5665 34.5375 28.2133 0.0000 0.0000 0.0000
# 2 34.5375 102.3870 46.2709 0.0000 0.0000 0.0000
# 3 28.2133 46.2709 95.8841 0.0000 0.0000 0.0000
# 4 0.0000 0.0000 0.0000 21.7672 0.0000 0.0000
# 5 0.0000 0.0000 0.0000 0.0000 16.2091 0.0000
# 6 0.0000 0.0000 0.0000 0.0000 0.0000 24.7933
#
#
#
# Elastic Compliance Matrix: (Units=1/GPa)
#
#
# Indices 1 2 3 4 5 6 
#
# 1 0.017302 -0.004522 -0.002909 0.000000 0.000000 0.000000
# 2 -0.004522 0.013673 -0.005268 0.000000 0.000000 0.000000
# 3 -0.002909 -0.005268 0.013827 0.000000 0.000000 0.000000
# 4 0.000000 0.000000 0.000000 0.045941 0.000000 0.000000
# 5 0.000000 0.000000 0.000000 0.000000 0.061694 0.000000
# 6 0.000000 0.000000 0.000000 0.000000 0.000000 0.040333
#
#
# Mechanical properties :
#
#
# Convention : Reuss Voigt Hill
#
# Bulk Modulus (GPa) = 51.53218 54.20900 52.87059
# Shear Modulus (GPa) = 22.25840 23.27499 22.76670
#
# Velocity S-wave (km/s) = 3.38622 3.46269 3.42467
# Velocity P-wave (km/s) = 6.46805 6.62669 6.54785
#
# Compressibility (1/GPa) = 0.01940535
#
# Stress axis : x y z
#
# Youngs Moduli (GPa) = 57.79699 73.13863 72.32148
#
# Poissons Ratio (x) = 0.33071 0.21038
# Poissons Ratio (y) = 0.26134 0.38096
# Poissons Ratio (z) = 0.16813 0.38526
#
# Static dielectric constant tensor:
#      x y z
#    x 3.615790 0.000000 0.000000 
#    y 0.000000 3.821430 0.000000 
#    z 0.000000 0.000000 3.487750 
# 
# 
# High freq. dielectric constant tensor:
#      x y z
#    x 1.743840 0.000000 0.000000 
#    y 0.000000 1.757080 0.000000 
#    z 0.000000 0.000000 1.735080 
# 
# From -- ./inp_files/25184.got.cif
#   From: 2010.03.12/outbox.cif.g09.slc.cpg/sg44_13_cif.got.tgz:25184.got - 2010.04.14 02:36:11.
