data_PCOD8189315
_publ_section_title
;
Structure prediction by ZEFSAII (Michael W. Deem and Ramdas Pophale) SiO2 
 PCOD8189315
Probable space group: I M M 2
;
_chemical_formula_sum "Si O2"
_cell_formula_units_Z 64
_cell_length_a 9.262148
_cell_length_b 28.619732
_cell_length_c 12.614129
_cell_angle_alpha 90.000000
_cell_angle_beta 90.000000
_cell_angle_gamma 90.000000
_cell_volume 3343.755756
_symmetry_space_group_name_H-M "I M M 2"
_symmetry_group_IT_number 44
_symmetry_cell_setting 'orthorhombic'
loop_
_space_group_symop_operation_xyz
x,y,z
-x,-y,z
-x,y,z
x,-y,z
1/2+x,1/2+y,1/2+z
1/2-x,1/2-y,1/2+z
1/2-x,1/2+y,1/2+z
1/2+x,1/2-y,1/2+z
loop_
_atom_site_type_symbol
_atom_site_label
_atom_site_fract_x
_atom_site_fract_y
_atom_site_fract_z
Si Si1 0.163576 0.709031 0.902040
Si Si2 0.329092 0.445634 0.629928
Si Si3 0.169204 0.608678 0.816508
Si Si4 0.341214 0.167723 0.627228
Si Si5 0.663848 0.448957 0.978613
Si Si6 0.835158 0.084603 0.692663
Si Si7 0.328404 0.607614 0.418045
Si Si8 0.335637 0.800647 0.859303
O O1 0.201456 0.663898 0.828927
O O2 0.274430 0.750025 0.883064
O O3 0.000000 0.724837 0.876363
O O4 0.181785 0.699704 0.026127
O O5 0.500000 0.441998 0.646364
O O6 0.279919 0.500000 0.635243
O O7 0.254133 0.414334 0.719364
O O8 0.280571 0.424013 0.517206
O O9 0.220779 0.585094 0.925753
O O10 0.000000 0.599204 0.801951
O O11 0.500000 0.143941 0.622667
O O12 0.219716 0.128978 0.627972
O O13 0.326075 0.197882 0.732941
O O14 0.500000 0.430197 0.960622
O O15 0.680333 0.500000 0.926232
O O16 0.692280 0.456000 0.106276
O O17 0.769616 0.079946 0.811657
O O18 0.000000 0.092747 0.717345
O O19 0.500000 0.615154 0.420512
O O20 0.253990 0.658518 0.418713
O O21 0.500000 0.804392 0.900078
#
# Coordination Sequence:
#
# PCOD8189315 Si02
#       8
#     8   8   8   8   8   8   8   8
#     4  10  21  37  56  78 109 148 190 235 287 346
#     4  10  22  40  61  84 115 158 202 244 292 349
#     4  11  23  38  57  81 111 149 194 242 289 341
#     4   9  18  35  54  73 104 142 176 219 277 334
#     4  10  20  33  52  81 114 143 176 224 279 335
#     4   9  17  31  54  81 106 137 178 223 272 327
#     4   9  19  37  59  82 113 151 189 232 286 342
#     4  10  21  35  56  85 112 144 188 237 287 342
#
# _framework density 19.140153999999999
#
# number of rings (size 3 to 8) (size 9 to 14) (size 15 to 20)
#    0.000    2.250    1.250    1.125    0.000    6.000 
#    0.000    6.250    0.000    0.000    0.000    5.250 
#    0.000    0.000    0.000    0.000    0.000    0.000 
#
# Total GULP energy -396485.898607 kJ/mol
# GULP energy per Si atom -12390.184331 kJ/mol
# Density = 1.909659 g / cm^3
# Si number density = 19.140154 Si / 1000 Ang^3
#
#
#
# Elastic Constant Matrix: (Units=GPa)
#
#
# Indices 1 2 3 4 5 6 
#
# 1 37.0909 37.2209 38.3945 0.0001 0.0001 0.0000
# 2 37.2209 94.9883 45.0545 0.0001 0.0000 0.0000
# 3 38.3945 45.0545 113.2441 0.0011 0.0001 0.0001
# 4 0.0001 0.0001 0.0011 19.6383 0.0001 0.0000
# 5 0.0001 0.0000 0.0001 0.0001 25.4681 0.0002
# 6 0.0000 0.0000 0.0001 0.0000 0.0002 25.8949
#
#
#
# Elastic Compliance Matrix: (Units=1/GPa)
#
#
# Indices 1 2 3 4 5 6 
#
# 1 0.056104 -0.015977 -0.012665 0.000000 0.000000 0.000000
# 2 -0.015977 0.017526 -0.001556 0.000000 0.000000 0.000000
# 3 -0.012665 -0.001556 0.013744 -0.000001 0.000000 0.000000
# 4 0.000000 0.000000 -0.000001 0.050921 0.000000 0.000000
# 5 0.000000 0.000000 0.000000 0.000000 0.039265 0.000000
# 6 0.000000 0.000000 0.000000 0.000000 0.000000 0.038618
#
#
# Mechanical properties :
#
#
# Convention : Reuss Voigt Hill
#
# Bulk Modulus (GPa) = 37.06778 54.07366 45.57072
# Shear Modulus (GPa) = 17.50910 22.51048 20.00979
#
# Velocity S-wave (km/s) = 3.02782 3.43313 3.23683
# Velocity P-wave (km/s) = 5.62425 6.63536 6.15061
#
# Compressibility (1/GPa) = 0.02697760
#
# Stress axis : x y z
#
# Youngs Moduli (GPa) = 17.82403 57.05758 72.76129
#
# Poissons Ratio (x) = 0.91160 0.92154
# Poissons Ratio (y) = 0.28477 0.11322
# Poissons Ratio (z) = 0.22574 0.08878
#
# Static dielectric constant tensor:
#      x y z
#    x 3.519020 0.000000 0.000000 
#    y 0.000000 3.506290 0.000000 
#    z 0.000000 0.000000 3.831330 
# 
# 
# High freq. dielectric constant tensor:
#      x y z
#    x 1.739170 0.000000 0.000000 
#    y 0.000000 1.733640 0.000000 
#    z 0.000000 0.000000 1.756820 
# 
# From -- ./inp_files/11519.got.cif
#   From: 2010.03.12/outbox.cif.g09.slc.cpg/sg44_6_cif.got.tgz:11519.got - 2010.04.14 02:36:11.
