data_PCOD8189385
_publ_section_title
;
Structure prediction by ZEFSAII (Michael W. Deem and Ramdas Pophale) SiO2 
 PCOD8189385
Probable space group: I M M 2
;
_chemical_formula_sum "Si O2"
_cell_formula_units_Z 64
_cell_length_a 33.747235
_cell_length_b 8.813640
_cell_length_c 11.748133
_cell_angle_alpha 90.000000
_cell_angle_beta 90.000000
_cell_angle_gamma 90.000000
_cell_volume 3494.317455
_symmetry_space_group_name_H-M "I M M 2"
_symmetry_group_IT_number 44
_symmetry_cell_setting 'orthorhombic'
loop_
_space_group_symop_operation_xyz
x,y,z
-x,-y,z
-x,y,z
x,-y,z
1/2+x,1/2+y,1/2+z
1/2-x,1/2-y,1/2+z
1/2-x,1/2+y,1/2+z
1/2+x,1/2-y,1/2+z
loop_
_atom_site_type_symbol
_atom_site_label
_atom_site_fract_x
_atom_site_fract_y
_atom_site_fract_z
Si Si1 0.816246 0.674134 0.865620
Si Si2 0.371475 0.323733 0.936117
Si Si3 0.811033 0.824465 0.625901
Si Si4 0.828267 0.680037 0.226945
Si Si5 0.957070 0.822046 0.107913
Si Si6 0.231567 0.820780 0.069311
Si Si7 0.614942 0.170205 0.527927
Si Si8 0.043736 0.819997 0.363972
O O1 0.804381 0.500000 0.837563
O O2 0.815815 0.778596 0.756031
O O3 0.786805 0.737515 0.960568
O O4 0.861123 0.682245 0.911057
O O5 0.370537 0.500000 0.900568
O O6 0.343382 0.233671 0.849006
O O7 0.417542 0.264500 0.936065
O O8 0.352790 0.297467 0.060785
O O9 0.777820 0.720004 0.567966
O O10 0.798252 0.000000 0.618500
O O11 0.821498 0.500000 0.226239
O O12 0.787094 0.760012 0.188699
O O13 0.859623 0.735017 0.132704
O O14 0.925187 0.764788 0.017178
O O15 0.949219 0.759834 0.235557
O O16 0.000000 0.766154 0.065397
O O17 0.955166 0.000000 0.111962
O O18 0.225418 0.000000 0.058544
O O19 0.602698 0.000000 0.556269
O O20 0.000000 0.759987 0.407953
O O21 0.041819 0.000000 0.366231
#
# Coordination Sequence:
#
# PCOD8189385 Si02
#       8
#     8   8   8   8   8   8   8   8
#     4  10  22  41  59  78 106 141 185 227 273 329
#     4  10  20  34  55  82 112 147 186 227 274 330
#     4  11  24  39  56  81 110 143 187 231 274 329
#     4  10  20  34  53  79 111 142 179 222 268 327
#     4   9  16  26  46  77 109 140 175 216 265 325
#     4  11  23  39  60  81 106 143 181 226 282 327
#     4   9  18  32  51  75 103 139 175 219 267 319
#     4   8  14  27  49  78 111 144 179 223 273 325
#
# _framework density 18.315452000000001
#
# number of rings (size 3 to 8) (size 9 to 14) (size 15 to 20)
#    0.000    2.250    1.250    3.750    1.750    3.750 
#    0.000    0.000    0.000    1.125    0.000    1.750 
#    0.000    0.000    0.000    0.000    0.000    0.000 
#
# Total GULP energy -396643.199749 kJ/mol
# GULP energy per Si atom -12395.099992 kJ/mol
# Density = 1.827377 g / cm^3
# Si number density = 18.315452 Si / 1000 Ang^3
#
#
#
# Elastic Constant Matrix: (Units=GPa)
#
#
# Indices 1 2 3 4 5 6 
#
# 1 126.3917 28.2211 32.4202 0.0000 0.0000 0.0000
# 2 28.2211 51.8838 12.3416 0.0000 0.0000 0.0000
# 3 32.4202 12.3416 69.6654 0.0000 0.0000 0.0000
# 4 0.0000 0.0000 0.0000 25.3640 0.0000 0.0000
# 5 0.0000 0.0000 0.0000 0.0000 23.3694 0.0000
# 6 0.0000 0.0000 0.0000 0.0000 0.0000 26.5096
#
#
#
# Elastic Compliance Matrix: (Units=1/GPa)
#
#
# Indices 1 2 3 4 5 6 
#
# 1 0.009887 -0.004472 -0.003809 0.000000 0.000000 0.000000
# 2 -0.004472 0.022144 -0.001842 0.000000 0.000000 0.000000
# 3 -0.003809 -0.001842 0.016453 0.000000 0.000000 0.000000
# 4 0.000000 0.000000 0.000000 0.039426 0.000000 0.000000
# 5 0.000000 0.000000 0.000000 0.000000 0.042791 0.000000
# 6 0.000000 0.000000 0.000000 0.000000 0.000000 0.037722
#
#
# Mechanical properties :
#
#
# Convention : Reuss Voigt Hill
#
# Bulk Modulus (GPa) = 35.41174 43.76741 39.58957
# Shear Modulus (GPa) = 25.24188 26.71245 25.97716
#
# Velocity S-wave (km/s) = 3.71640 3.82313 3.77014
# Velocity P-wave (km/s) = 6.14751 6.59065 6.37293
#
# Compressibility (1/GPa) = 0.02823922
#
# Stress axis : x y z
#
# Youngs Moduli (GPa) = 101.13792 45.15807 60.77816
#
# Poissons Ratio (x) = 0.20195 0.23151
# Poissons Ratio (y) = 0.45229 0.11195
# Poissons Ratio (z) = 0.38524 0.08318
#
# Static dielectric constant tensor:
#      x y z
#    x 3.778540 0.000000 0.000000 
#    y 0.000000 3.247150 0.000000 
#    z 0.000000 0.000000 3.142390 
# 
# 
# High freq. dielectric constant tensor:
#      x y z
#    x 1.718750 0.000000 0.000000 
#    y 0.000000 1.702160 0.000000 
#    z 0.000000 0.000000 1.677970 
# 
# From -- ./inp_files/15101.got.cif
#   From: 2010.03.12/outbox.cif.g09.slc.cpg/sg44_8_cif.got.tgz:15101.got - 2010.04.14 02:36:11.
