data_PCOD8189502
_publ_section_title
;
Structure prediction by ZEFSAII (Michael W. Deem and Ramdas Pophale) SiO2 
 PCOD8189502
Probable space group: I M M 2
;
_chemical_formula_sum "Si O2"
_cell_formula_units_Z 64
_cell_length_a 8.896284
_cell_length_b 33.340348
_cell_length_c 11.574782
_cell_angle_alpha 90.000000
_cell_angle_beta 90.000000
_cell_angle_gamma 90.000000
_cell_volume 3433.140582
_symmetry_space_group_name_H-M "I M M 2"
_symmetry_group_IT_number 44
_symmetry_cell_setting 'orthorhombic'
loop_
_space_group_symop_operation_xyz
x,y,z
-x,-y,z
-x,y,z
x,-y,z
1/2+x,1/2+y,1/2+z
1/2-x,1/2-y,1/2+z
1/2-x,1/2+y,1/2+z
1/2+x,1/2-y,1/2+z
loop_
_atom_site_type_symbol
_atom_site_label
_atom_site_fract_x
_atom_site_fract_y
_atom_site_fract_z
Si Si1 0.672340 0.150002 0.768430
Si Si2 0.677857 0.375756 0.032839
Si Si3 0.326228 0.278229 0.401729
Si Si4 0.830551 0.612162 0.501948
Si Si5 0.677439 0.454444 0.903557
Si Si6 0.675806 0.811863 0.364216
Si Si7 0.670186 0.678364 0.629614
Si Si8 0.327604 0.044392 0.170066
O O1 0.500000 0.156873 0.732003
O O2 0.763849 0.134903 0.659119
O O3 0.732018 0.192026 0.819960
O O4 0.688663 0.114696 0.863781
O O5 0.500000 0.373064 0.033036
O O6 0.730266 0.421086 0.997415
O O7 0.737452 0.343307 0.942679
O O8 0.500000 0.282807 0.365394
O O9 0.266880 0.233146 0.387523
O O10 0.303688 0.286042 0.538049
O O11 0.700694 0.637907 0.560349
O O12 0.802338 0.567799 0.550303
O O13 0.000000 0.627059 0.534367
O O14 0.500000 0.455687 0.898136
O O15 0.738341 0.500000 0.931756
O O16 0.735221 0.438756 0.779197
O O17 0.500000 0.816518 0.388868
O O18 0.709666 0.819818 0.230898
O O19 0.500000 0.678386 0.677837
O O20 0.500000 0.045767 0.209129
O O21 0.271510 0.000000 0.141391
#
# Coordination Sequence:
#
# PCOD8189502 Si02
#       8
#     8   8   8   8   8   8   8   8
#     4  10  21  37  57  79 108 146 186 228 275 327
#     4  11  23  38  57  82 110 146 189 232 281 334
#     4   9  21  39  56  77 106 142 181 222 271 324
#     4   9  18  34  54  76 104 140 178 217 267 324
#     4   9  19  36  56  79 110 146 184 228 278 331
#     4  11  23  37  55  81 110 141 179 226 276 327
#     4  10  20  35  54  77 104 136 176 219 266 317
#     4   9  17  30  52  81 110 138 172 220 274 328
#
# _framework density 18.641822000000001
#
# number of rings (size 3 to 8) (size 9 to 14) (size 15 to 20)
#    0.000    2.250    0.000    2.250    1.750    5.500 
#    0.000    0.625    0.000    0.750    0.000    0.000 
#    0.000    0.000    0.000    0.000    0.000    0.000 
#
# Total GULP energy -396680.631544 kJ/mol
# GULP energy per Si atom -12396.269736 kJ/mol
# Density = 1.859939 g / cm^3
# Si number density = 18.641822 Si / 1000 Ang^3
#
#
#
# Elastic Constant Matrix: (Units=GPa)
#
#
# Indices 1 2 3 4 5 6 
#
# 1 52.7186 41.9442 37.9675 -0.0014 -0.0002 -0.0001
# 2 41.9442 110.3840 66.4847 0.0000 0.0000 0.0001
# 3 37.9675 66.4847 116.5756 -0.0029 0.0000 0.0001
# 4 -0.0014 0.0000 -0.0029 15.7566 -0.0002 0.0000
# 5 -0.0002 0.0000 0.0000 -0.0002 31.7340 -0.0001
# 6 -0.0001 0.0001 0.0001 0.0000 -0.0001 24.4151
#
#
#
# Elastic Compliance Matrix: (Units=1/GPa)
#
#
# Indices 1 2 3 4 5 6 
#
# 1 0.028842 -0.008076 -0.004788 0.000002 0.000000 0.000000
# 2 -0.008076 0.016061 -0.006529 -0.000002 0.000000 0.000000
# 3 -0.004788 -0.006529 0.013861 0.000002 0.000000 0.000000
# 4 0.000002 -0.000002 0.000002 0.063466 0.000000 0.000000
# 5 0.000000 0.000000 0.000000 0.000000 0.031512 0.000000
# 6 0.000000 0.000000 0.000000 0.000000 0.000000 0.040958
#
#
# Mechanical properties :
#
#
# Convention : Reuss Voigt Hill
#
# Bulk Modulus (GPa) = 50.05523 63.60789 56.83156
# Shear Modulus (GPa) = 20.82075 23.26660 22.04367
#
# Velocity S-wave (km/s) = 3.34561 3.53666 3.44246
# Velocity P-wave (km/s) = 6.46788 7.13249 6.80830
#
# Compressibility (1/GPa) = 0.01997793
#
# Stress axis : x y z
#
# Youngs Moduli (GPa) = 34.67155 62.26392 72.14339
#
# Poissons Ratio (x) = 0.50283 0.34541
# Poissons Ratio (y) = 0.28000 0.47105
# Poissons Ratio (z) = 0.16600 0.40655
#
# Static dielectric constant tensor:
#      x y z
#    x 3.437670 0.000000 0.000000 
#    y 0.000000 3.668140 0.000000 
#    z 0.000000 0.000000 3.461250 
# 
# 
# High freq. dielectric constant tensor:
#      x y z
#    x 1.726840 0.000000 0.000000 
#    y 0.000000 1.723550 0.000000 
#    z 0.000000 0.000000 1.719100 
# 
# From -- ./inp_files/11466.got.cif
#   From: 2010.03.12/outbox.cif.g09.slc.cpg/sg44_6_cif.got.tgz:11466.got - 2010.04.14 02:36:11.
