data_PCOD8189206
_publ_section_title
;
Structure prediction by ZEFSAII (Michael W. Deem and Ramdas Pophale) SiO2 
 PCOD8189206
Probable space group: I M M 2
;
_chemical_formula_sum "Si O2"
_cell_formula_units_Z 64
_cell_length_a 8.878231
_cell_length_b 18.473523
_cell_length_c 26.054933
_cell_angle_alpha 90.000000
_cell_angle_beta 90.000000
_cell_angle_gamma 90.000000
_cell_volume 4273.327001
_symmetry_space_group_name_H-M "I M M 2"
_symmetry_group_IT_number 44
_symmetry_cell_setting 'orthorhombic'
loop_
_space_group_symop_operation_xyz
x,y,z
-x,-y,z
-x,y,z
x,-y,z
1/2+x,1/2+y,1/2+z
1/2-x,1/2-y,1/2+z
1/2-x,1/2+y,1/2+z
1/2+x,1/2-y,1/2+z
loop_
_atom_site_type_symbol
_atom_site_label
_atom_site_fract_x
_atom_site_fract_y
_atom_site_fract_z
Si Si1 0.176841 0.583140 0.911830
Si Si2 0.176556 0.082171 0.709789
Si Si3 0.676845 0.657686 0.816544
Si Si4 0.323444 0.082171 0.221040
Si Si5 0.333872 0.286171 0.270732
Si Si6 0.666128 0.786171 0.160097
Si Si7 0.323159 0.416860 0.018998
Si Si8 0.823155 0.342314 0.114284
O O1 0.215806 0.500000 0.898529
O O2 0.244636 0.634268 0.868680
O O3 0.000000 0.595829 0.915413
O O4 0.249995 0.606151 0.965415
O O5 0.219368 0.130998 0.759780
O O6 0.268897 0.106046 0.660006
O O7 0.000000 0.091626 0.696627
O O8 0.217882 0.000000 0.723632
O O9 0.500000 0.650233 0.822644
O O10 0.731108 0.606046 0.770824
O O11 0.718540 0.741997 0.806341
O O12 0.500000 0.091625 0.234201
O O13 0.280631 0.130998 0.171049
O O14 0.282116 0.000000 0.207197
O O15 0.500000 0.284672 0.296409
O O16 0.342217 0.250000 0.215415
O O17 0.500000 0.784672 0.134420
O O18 0.781461 0.741996 0.124488
O O19 0.500000 0.404172 0.015412
O O20 0.284195 0.500000 0.032300
O O21 0.255372 0.365732 0.062150
O O22 0.000000 0.349768 0.108182
#
# Coordination Sequence:
#
# PCOD8189206 Si02
#       8
#     8   8   8   8   8   8   8   8
#     4  10  20  33  47  62  82 108 139 175 211 245
#     4   9  17  29  44  61  82 110 143 176 210 248
#     4  11  20  28  41  61  85 113 143 172 205 246
#     4   9  17  29  44  61  82 110 143 176 210 248
#     4   8  15  28  43  58  79 108 140 173 208 245
#     4   8  15  28  43  58  79 108 140 173 208 245
#     4  10  20  33  47  62  82 108 139 175 211 245
#     4  11  20  28  41  61  85 113 143 172 205 246
#
# _framework density 14.976621
#
# number of rings (size 3 to 8) (size 9 to 14) (size 15 to 20)
#    0.000    2.500    0.000    5.250    0.000    9.500 
#    0.000    0.000    0.000    0.000    0.000    0.000 
#    0.000    1.000    0.000    2.750    0.000    4.000 
#
# Total GULP energy -396685.996339 kJ/mol
# GULP energy per Si atom -12396.437386 kJ/mol
# Density = 1.494253 g / cm^3
# Si number density = 14.976621 Si / 1000 Ang^3
#
#
#
# Elastic Constant Matrix: (Units=GPa)
#
#
# Indices 1 2 3 4 5 6 
#
# 1 70.9505 33.1260 39.1350 0.0000 0.0000 0.0000
# 2 33.1260 112.3856 49.5038 0.0000 0.0000 0.0000
# 3 39.1350 49.5038 76.0836 0.0000 0.0000 0.0000
# 4 0.0000 0.0000 0.0000 -10.4585 0.0000 0.0000
# 5 0.0000 0.0000 0.0000 0.0000 24.1660 0.0000
# 6 0.0000 0.0000 0.0000 0.0000 0.0000 16.8069
#
#
#
# Elastic Compliance Matrix: (Units=1/GPa)
#
#
# Indices 1 2 3 4 5 6 
#
# 1 0.019965 -0.001908 -0.009028 0.000000 0.000000 0.000000
# 2 -0.001908 0.012655 -0.007252 0.000000 0.000000 0.000000
# 3 -0.009028 -0.007252 0.022506 0.000000 0.000000 0.000000
# 4 0.000000 0.000000 0.000000 -0.095616 0.000000 0.000000
# 5 0.000000 0.000000 0.000000 0.000000 0.041381 0.000000
# 6 0.000000 0.000000 0.000000 0.000000 0.000000 0.059499
#
#
# Mechanical properties :
#
#
# Convention : Reuss Voigt Hill
#
# Bulk Modulus (GPa) = 53.33644 55.88327 54.60985
# Shear Modulus (GPa) = 48.53623 15.27986 31.90804
#
# Velocity S-wave (km/s) = 5.69898 3.19760 4.62077
# Velocity P-wave (km/s) = 8.88791 7.14335 8.06295
#
# Compressibility (1/GPa) = 0.01874891
#
# Stress axis : x y z
#
# Youngs Moduli (GPa) = 50.08827 79.02054 44.43292
#
# Poissons Ratio (x) = 0.15078 0.40113
# Poissons Ratio (y) = 0.09557 0.32225
# Poissons Ratio (z) = 0.45218 0.57309
#
# Static dielectric constant tensor:
#      x y z
#    x 2.918760 0.000000 0.000000 
#    y 0.000000 3.364190 0.000000 
#    z 0.000000 0.000000 2.762820 
# 
# 
# High freq. dielectric constant tensor:
#      x y z
#    x 1.579090 0.000000 0.000000 
#    y 0.000000 1.568780 0.000000 
#    z 0.000000 0.000000 1.536560 
# 
# From -- ./inp_files/23411.got.cif
#   From: 2010.03.12/outbox.cif.g09.slc.cpg/sg44_12_cif.got.tgz:23411.got - 2010.04.14 02:36:11.
