data_PCOD8189677
_publ_section_title
;
Structure prediction by ZEFSAII (Michael W. Deem and Ramdas Pophale) SiO2 
 PCOD8189677
Probable space group: I M M 2
;
_chemical_formula_sum "Si O2"
_cell_formula_units_Z 64
_cell_length_a 8.943367
_cell_length_b 24.706345
_cell_length_c 15.044274
_cell_angle_alpha 90.000000
_cell_angle_beta 90.000000
_cell_angle_gamma 90.000000
_cell_volume 3324.151349
_symmetry_space_group_name_H-M "I M M 2"
_symmetry_group_IT_number 44
_symmetry_cell_setting 'orthorhombic'
loop_
_space_group_symop_operation_xyz
x,y,z
-x,-y,z
-x,y,z
x,-y,z
1/2+x,1/2+y,1/2+z
1/2-x,1/2-y,1/2+z
1/2-x,1/2+y,1/2+z
1/2+x,1/2-y,1/2+z
loop_
_atom_site_type_symbol
_atom_site_label
_atom_site_fract_x
_atom_site_fract_y
_atom_site_fract_z
Si Si1 0.324970 0.856037 0.443320
Si Si2 0.823798 0.643621 0.584422
Si Si3 0.826098 0.895044 0.759364
Si Si4 0.830604 0.237342 0.990256
Si Si5 0.323211 0.061156 0.934766
Si Si6 0.169521 0.775108 0.785442
Si Si7 0.170631 0.937430 0.569861
Si Si8 0.823746 0.834293 0.260270
O O1 0.500000 0.857594 0.421682
O O2 0.284122 0.800383 0.494131
O O3 0.279481 0.905803 0.504397
O O4 0.238823 0.859995 0.350435
O O5 0.781536 0.703891 0.551906
O O6 0.763174 0.599342 0.514080
O O7 0.744294 0.631922 0.678254
O O8 0.000000 0.639761 0.597398
O O9 0.734802 0.919172 0.840320
O O10 0.786524 0.832099 0.741017
O O11 0.780609 0.927763 0.671444
O O12 0.000000 0.901497 0.782696
O O13 0.814177 0.216004 0.890380
O O14 0.000000 0.228781 0.024733
O O15 0.500000 0.064613 0.931077
O O16 0.268363 0.000000 0.953336
O O17 0.279482 0.728830 0.750154
O O18 0.000000 0.757427 0.761897
O O19 0.000000 0.917736 0.556021
O O20 0.188465 0.000000 0.546720
O O21 0.000000 0.839938 0.259841
#
# Coordination Sequence:
#
# PCOD8189677 Si02
#       8
#     8   8   8   8   8   8   8   8
#     4  10  22  41  62  85 115 152 197 246 299 352
#     4  11  22  36  57  84 117 157 197 240 291 347
#     4  10  20  36  59  87 119 156 195 236 285 343
#     4   9  18  34  55  83 116 147 186 239 287 343
#     4  10  22  39  58  84 119 157 198 242 287 342
#     4   9  18  34  55  84 120 154 190 233 282 343
#     4  10  22  39  59  87 120 155 200 247 292 347
#     4  11  23  38  59  85 118 154 192 243 300 353
#
# _framework density 19.253034
#
# number of rings (size 3 to 8) (size 9 to 14) (size 15 to 20)
#    0.000    2.000    1.250    3.000    1.750    5.000 
#    0.000    0.625    0.000    2.250    0.000    0.000 
#    0.000    0.000    0.000    0.000    0.000    0.000 
#
# Total GULP energy -396904.849211 kJ/mol
# GULP energy per Si atom -12403.276538 kJ/mol
# Density = 1.920921 g / cm^3
# Si number density = 19.253034 Si / 1000 Ang^3
#
#
#
# Elastic Constant Matrix: (Units=GPa)
#
#
# Indices 1 2 3 4 5 6 
#
# 1 75.9274 31.7870 44.4485 0.0000 0.0000 0.0000
# 2 31.7870 88.3069 50.7419 0.0001 0.0000 0.0000
# 3 44.4485 50.7419 103.3056 0.0008 -0.0002 0.0000
# 4 0.0000 0.0001 0.0008 29.5122 -0.0001 0.0000
# 5 0.0000 0.0000 -0.0002 -0.0001 35.3101 0.0000
# 6 0.0000 0.0000 0.0000 0.0000 0.0000 27.0179
#
#
#
# Elastic Compliance Matrix: (Units=1/GPa)
#
#
# Indices 1 2 3 4 5 6 
#
# 1 0.018103 -0.002843 -0.006393 0.000000 0.000000 0.000000
# 2 -0.002843 0.016224 -0.006745 0.000000 0.000000 0.000000
# 3 -0.006393 -0.006745 0.015744 0.000000 0.000000 0.000000
# 4 0.000000 0.000000 0.000000 0.033884 0.000000 0.000000
# 5 0.000000 0.000000 0.000000 0.000000 0.028321 0.000000
# 6 0.000000 0.000000 0.000000 0.000000 0.000000 0.037013
#
#
# Mechanical properties :
#
#
# Convention : Reuss Voigt Hill
#
# Bulk Modulus (GPa) = 55.22408 57.94386 56.58397
# Shear Modulus (GPa) = 26.69715 27.73885 27.21800
#
# Velocity S-wave (km/s) = 3.72781 3.79984 3.76400
# Velocity P-wave (km/s) = 6.87563 7.02944 6.95296
#
# Compressibility (1/GPa) = 0.01810804
#
# Stress axis : x y z
#
# Youngs Moduli (GPa) = 55.23939 61.63881 63.51745
#
# Poissons Ratio (x) = 0.17525 0.40604
# Poissons Ratio (y) = 0.15706 0.42845
# Poissons Ratio (z) = 0.35312 0.41578
#
# Static dielectric constant tensor:
#      x y z
#    x 3.414650 0.000000 0.000000 
#    y 0.000000 3.560000 0.000000 
#    z 0.000000 0.000000 3.501720 
# 
# 
# High freq. dielectric constant tensor:
#      x y z
#    x 1.744360 0.000000 0.000000 
#    y 0.000000 1.741810 0.000000 
#    z 0.000000 0.000000 1.751570 
# 
# From -- ./inp_files/16846.got.cif
#   From: 2010.03.12/outbox.cif.g09.slc.cpg/sg44_9_cif.got.tgz:16846.got - 2010.04.14 02:36:11.
