data_PCOD8189014
_publ_section_title
;
Structure prediction by ZEFSAII (Michael W. Deem and Ramdas Pophale) SiO2 
 PCOD8189014
Probable space group: I M M 2
;
_chemical_formula_sum "Si O2"
_cell_formula_units_Z 40
_cell_length_a 25.877073
_cell_length_b 8.453175
_cell_length_c 9.120988
_cell_angle_alpha 90.000000
_cell_angle_beta 90.000000
_cell_angle_gamma 90.000000
_cell_volume 1995.156169
_symmetry_space_group_name_H-M "I M M 2"
_symmetry_group_IT_number 44
_symmetry_cell_setting 'orthorhombic'
loop_
_space_group_symop_operation_xyz
x,y,z
-x,-y,z
-x,y,z
x,-y,z
1/2+x,1/2+y,1/2+z
1/2-x,1/2-y,1/2+z
1/2-x,1/2+y,1/2+z
1/2+x,1/2-y,1/2+z
loop_
_atom_site_type_symbol
_atom_site_label
_atom_site_fract_x
_atom_site_fract_y
_atom_site_fract_z
Si Si1 0.390282 0.813347 0.711790
Si Si2 0.799961 0.316634 0.714140
Si Si3 0.108876 0.184436 0.531064
Si Si4 0.500000 0.171712 0.684145
Si Si5 0.299329 0.317583 0.530096
Si Si6 0.000000 0.324757 0.530739
O O1 0.445144 0.744538 0.644764
O O2 0.345799 0.785801 0.594668
O O3 0.396652 0.000000 0.743947
O O4 0.377453 0.726620 0.863451
O O5 0.796905 0.500000 0.757131
O O6 0.853904 0.282704 0.636186
O O7 0.753912 0.266291 0.605889
O O8 0.794002 0.212339 0.858572
O O9 0.050746 0.228424 0.578900
O O10 0.118322 0.000000 0.555599
O O11 0.500000 0.000000 0.607550
O O12 0.500000 0.155553 0.858246
O O13 0.311926 0.500000 0.559383
O O14 0.000000 0.500000 0.603407
#
# Coordination Sequence:
#
# PCOD8189014 Si02
#       6
#     8   8   8   4   8   4
#     4  10  19  35  59  85 116 153 192 232 281 341
#     4  11  24  41  60  82 112 151 190 232 289 350
#     4  11  21  35  58  88 119 150 191 240 283 328
#     4   7  14  29  52  81 110 145 186 224 264 324
#     4  11  24  40  59  85 114 145 189 242 290 339
#     4   9  17  33  56  83 116 153 192 230 278 338
#
# _framework density 20.048556000000001
#
# number of rings (size 3 to 8) (size 9 to 14) (size 15 to 20)
#    0.000    1.800    0.000    6.300    0.000    6.400 
#    0.000    2.500    0.000    1.200    0.000    0.000 
#    0.000    0.000    0.000    0.000    0.000    0.000 
#
# Total GULP energy -247976.917000 kJ/mol
# GULP energy per Si atom -12398.845850 kJ/mol
# Density = 2.000292 g / cm^3
# Si number density = 20.048556 Si / 1000 Ang^3
#
#
#
# Elastic Constant Matrix: (Units=GPa)
#
#
# Indices 1 2 3 4 5 6 
#
# 1 154.8929 20.8774 49.6050 0.0000 0.0000 0.0000
# 2 20.8774 58.8032 3.8581 0.0000 0.0000 0.0000
# 3 49.6050 3.8581 79.6470 0.0000 0.0000 0.0000
# 4 0.0000 0.0000 0.0000 29.0532 0.0000 0.0000
# 5 0.0000 0.0000 0.0000 0.0000 30.7794 0.0000
# 6 0.0000 0.0000 0.0000 0.0000 0.0000 29.7423
#
#
#
# Elastic Compliance Matrix: (Units=1/GPa)
#
#
# Indices 1 2 3 4 5 6 
#
# 1 0.008462 -0.002667 -0.005141 0.000000 0.000000 0.000000
# 2 -0.002667 0.017901 0.000794 0.000000 0.000000 0.000000
# 3 -0.005141 0.000794 0.015719 0.000000 0.000000 0.000000
# 4 0.000000 0.000000 0.000000 0.034420 0.000000 0.000000
# 5 0.000000 0.000000 0.000000 0.000000 0.032489 0.000000
# 6 0.000000 0.000000 0.000000 0.000000 0.000000 0.033622
#
#
# Mechanical properties :
#
#
# Convention : Reuss Voigt Hill
#
# Bulk Modulus (GPa) = 35.64645 49.11380 42.38012
# Shear Modulus (GPa) = 30.12195 32.51514 31.31854
#
# Velocity S-wave (km/s) = 3.88035 4.03155 3.95667
# Velocity P-wave (km/s) = 6.15588 6.79866 6.48524
#
# Compressibility (1/GPa) = 0.02805329
#
# Stress axis : x y z
#
# Youngs Moduli (GPa) = 118.17560 55.86373 63.61800
#
# Poissons Ratio (x) = 0.14899 0.32706
# Poissons Ratio (y) = 0.31518 -0.05051
# Poissons Ratio (z) = 0.60754 -0.04435
#
# Static dielectric constant tensor:
#      x y z
#    x 4.102390 0.000000 0.000000 
#    y 0.000000 3.533200 0.000000 
#    z 0.000000 0.000000 3.277060 
# 
# 
# High freq. dielectric constant tensor:
#      x y z
#    x 1.807720 0.000000 0.000000 
#    y 0.000000 1.780410 0.000000 
#    z 0.000000 0.000000 1.751760 
# 
# From -- ./inp_files/9629.got.cif
#   From: 2010.03.12/outbox.cif.g09.slc.cpg/sg44_5_cif.got.tgz:9629.got - 2010.04.14 02:36:11.
