data_PCOD8189769
_publ_section_title
;
Structure prediction by ZEFSAII (Michael W. Deem and Ramdas Pophale) SiO2 
 PCOD8189769
Probable space group: I M M 2
;
_chemical_formula_sum "Si O2"
_cell_formula_units_Z 48
_cell_length_a 27.712770
_cell_length_b 8.720435
_cell_length_c 9.747264
_cell_angle_alpha 90.000000
_cell_angle_beta 90.000000
_cell_angle_gamma 90.000000
_cell_volume 2355.596040
_symmetry_space_group_name_H-M "I M M 2"
_symmetry_group_IT_number 44
_symmetry_cell_setting 'orthorhombic'
loop_
_space_group_symop_operation_xyz
x,y,z
-x,-y,z
-x,y,z
x,-y,z
1/2+x,1/2+y,1/2+z
1/2-x,1/2-y,1/2+z
1/2-x,1/2+y,1/2+z
1/2+x,1/2-y,1/2+z
loop_
_atom_site_type_symbol
_atom_site_label
_atom_site_fract_x
_atom_site_fract_y
_atom_site_fract_z
Si Si1 0.609111 0.674185 0.516770
Si Si2 0.387413 0.177858 0.007908
Si Si3 0.709878 0.320639 0.927450
Si Si4 0.445578 0.681680 0.252380
Si Si5 0.445518 0.673262 0.784750
Si Si6 0.796025 0.678309 0.130588
O O1 0.627971 0.500000 0.496574
O O2 0.587225 0.744193 0.377073
O O3 0.565237 0.678236 0.623823
O O4 0.652541 0.777964 0.568967
O O5 0.420499 0.269186 0.112928
O O6 0.388534 0.000000 0.044071
O O7 0.332674 0.235192 0.008355
O O8 0.409295 0.209824 0.858114
O O9 0.698190 0.500000 0.925939
O O10 0.715987 0.267367 0.770603
O O11 0.757633 0.281019 0.012826
O O12 0.500000 0.749411 0.258693
O O13 0.448133 0.500000 0.260845
O O14 0.500000 0.727468 0.810419
O O15 0.437692 0.500000 0.840807
O O16 0.795605 0.500000 0.167822
#
# Coordination Sequence:
#
# PCOD8189769 Si02
#       6
#     8   8   8   8   8   8
#     4  10  21  39  65  93 125 164 207 255 308 369
#     4  12  25  40  61  91 127 165 211 261 313 366
#     4  11  25  45  67  93 126 165 208 253 312 380
#     4  10  22  41  64  92 127 170 216 257 307 375
#     4  10  20  37  63  92 122 161 206 253 309 374
#     4  11  25  43  66  97 127 160 206 258 314 374
#
# _framework density 20.377009999999999
#
# number of rings (size 3 to 8) (size 9 to 14) (size 15 to 20)
#    0.000    1.333    1.667    3.500    2.333    8.000 
#    0.000    0.000    0.000    3.000    0.000    0.000 
#    0.000    0.000    0.000    0.000    0.000    0.000 
#
# Total GULP energy -297693.414641 kJ/mol
# GULP energy per Si atom -12403.892277 kJ/mol
# Density = 2.033063 g / cm^3
# Si number density = 20.377010 Si / 1000 Ang^3
#
#
#
# Elastic Constant Matrix: (Units=GPa)
#
#
# Indices 1 2 3 4 5 6 
#
# 1 114.3420 23.1695 40.8424 0.0000 0.0000 0.0000
# 2 23.1695 35.1013 17.7685 0.0000 0.0000 0.0000
# 3 40.8424 17.7685 104.3621 0.0000 0.0000 0.0000
# 4 0.0000 0.0000 0.0000 24.5175 0.0000 0.0000
# 5 0.0000 0.0000 0.0000 0.0000 39.6782 0.0000
# 6 0.0000 0.0000 0.0000 0.0000 0.0000 24.7261
#
#
#
# Elastic Compliance Matrix: (Units=1/GPa)
#
#
# Indices 1 2 3 4 5 6 
#
# 1 0.011091 -0.005607 -0.003386 0.000000 0.000000 0.000000
# 2 -0.005607 0.034011 -0.003596 0.000000 0.000000 0.000000
# 3 -0.003386 -0.003596 0.011519 0.000000 0.000000 0.000000
# 4 0.000000 0.000000 0.000000 0.040787 0.000000 0.000000
# 5 0.000000 0.000000 0.000000 0.000000 0.025203 0.000000
# 6 0.000000 0.000000 0.000000 0.000000 0.000000 0.040443
#
#
# Mechanical properties :
#
#
# Convention : Reuss Voigt Hill
#
# Bulk Modulus (GPa) = 31.80387 46.37402 39.08894
# Shear Modulus (GPa) = 25.16179 29.25267 27.20723
#
# Velocity S-wave (km/s) = 3.51780 3.79301 3.65799
# Velocity P-wave (km/s) = 5.66935 6.47996 6.08816
#
# Compressibility (1/GPa) = 0.03144271
#
# Stress axis : x y z
#
# Youngs Moduli (GPa) = 90.16042 29.40264 86.80994
#
# Poissons Ratio (x) = 0.16486 0.29394
# Poissons Ratio (y) = 0.50554 0.31219
# Poissons Ratio (z) = 0.30528 0.10574
#
# Static dielectric constant tensor:
#      x y z
#    x 3.768940 0.000000 0.000000 
#    y 0.000000 3.567330 0.000000 
#    z 0.000000 0.000000 3.773370 
# 
# 
# High freq. dielectric constant tensor:
#      x y z
#    x 1.808680 0.000000 0.000000 
#    y 0.000000 1.785090 0.000000 
#    z 0.000000 0.000000 1.807180 
# 
# From -- ./inp_files/4938.got.cif
#   From: 2010.03.12/outbox.cif.g09.slc.cpg/sg44_3_cif.got.tgz:4938.got - 2010.04.14 02:36:11.
