data_PCOD8189490
_publ_section_title
;
Structure prediction by ZEFSAII (Michael W. Deem and Ramdas Pophale) SiO2 
 PCOD8189490
Probable space group: I M M 2
;
_chemical_formula_sum "Si O2"
_cell_formula_units_Z 56
_cell_length_a 22.180544
_cell_length_b 9.432191
_cell_length_c 14.467335
_cell_angle_alpha 90.000000
_cell_angle_beta 90.000000
_cell_angle_gamma 90.000000
_cell_volume 3026.727467
_symmetry_space_group_name_H-M "I M M 2"
_symmetry_group_IT_number 44
_symmetry_cell_setting 'orthorhombic'
loop_
_space_group_symop_operation_xyz
x,y,z
-x,-y,z
-x,y,z
x,-y,z
1/2+x,1/2+y,1/2+z
1/2-x,1/2-y,1/2+z
1/2-x,1/2+y,1/2+z
1/2+x,1/2-y,1/2+z
loop_
_atom_site_type_symbol
_atom_site_label
_atom_site_fract_x
_atom_site_fract_y
_atom_site_fract_z
Si Si1 0.284720 0.338723 0.047290
Si Si2 0.000000 0.668821 0.361854
Si Si3 0.216928 0.333971 0.373130
Si Si4 0.395226 0.336849 0.173273
Si Si5 0.000000 0.669555 0.574714
Si Si6 0.388157 0.168119 0.746068
Si Si7 0.146069 0.665285 0.049604
Si Si8 0.646024 0.335241 0.372355
O O1 0.288917 0.500000 0.012963
O O2 0.327551 0.313460 0.135352
O O3 0.215916 0.300707 0.072488
O O4 0.308130 0.240179 0.965006
O O5 0.942200 0.731676 0.307700
O O6 0.000000 0.500000 0.359421
O O7 0.000000 0.719833 0.467986
O O8 0.210572 0.500000 0.390200
O O9 0.175632 0.282635 0.288401
O O10 0.285275 0.288903 0.351499
O O11 0.415609 0.500000 0.157946
O O12 0.440938 0.231485 0.123574
O O13 0.394052 0.300684 0.282441
O O14 0.000000 0.500000 0.584049
O O15 0.391561 0.218143 0.639246
O O16 0.391960 0.000000 0.747784
O O17 0.136076 0.500000 0.030236
O O18 0.121420 0.748598 0.960276
O O19 0.642810 0.500000 0.397574
#
# Coordination Sequence:
#
# PCOD8189490 Si02
#       8
#     8   4   8   8   4   8   8   8
#     4   9  17  29  47  73 101 128 162 203 246 293
#     4   9  18  31  48  73 100 124 155 197 240 285
#     4   9  16  28  48  73 100 131 165 201 244 292
#     4  10  20  35  53  71  97 135 171 202 246 304
#     4  11  23  37  54  77 100 122 159 209 252 293
#     4   9  16  28  47  69  96 130 163 194 235 287
#     4   9  17  30  49  73 100 129 163 205 247 286
#     4   9  18  32  50  72  98 129 165 202 242 293
#
# _framework density 18.501830999999999
#
# number of rings (size 3 to 8) (size 9 to 14) (size 15 to 20)
#    0.000    2.714    0.000    1.929    0.000    5.714 
#    0.000    1.429    0.000    9.429    0.000    0.000 
#    0.000    0.000    0.000    0.000    0.000    0.000 
#
# Total GULP energy -347123.712531 kJ/mol
# GULP energy per Si atom -12397.275448 kJ/mol
# Density = 1.845972 g / cm^3
# Si number density = 18.501831 Si / 1000 Ang^3
#
#
#
# Elastic Constant Matrix: (Units=GPa)
#
#
# Indices 1 2 3 4 5 6 
#
# 1 64.2430 26.5334 56.3299 0.0000 0.0000 0.0000
# 2 26.5334 44.9628 50.7067 0.0000 0.0000 0.0000
# 3 56.3299 50.7067 166.8059 0.0000 0.0000 0.0000
# 4 0.0000 0.0000 0.0000 30.6201 0.0000 0.0000
# 5 0.0000 0.0000 0.0000 0.0000 30.1084 0.0000
# 6 0.0000 0.0000 0.0000 0.0000 0.0000 21.1610
#
#
#
# Elastic Compliance Matrix: (Units=1/GPa)
#
#
# Indices 1 2 3 4 5 6 
#
# 1 0.023683 -0.007542 -0.005705 0.000000 0.000000 0.000000
# 2 -0.007542 0.036244 -0.008471 0.000000 0.000000 0.000000
# 3 -0.005705 -0.008471 0.010497 0.000000 0.000000 0.000000
# 4 0.000000 0.000000 0.000000 0.032658 0.000000 0.000000
# 5 0.000000 0.000000 0.000000 0.000000 0.033213 0.000000
# 6 0.000000 0.000000 0.000000 0.000000 0.000000 0.047257
#
#
# Mechanical properties :
#
#
# Convention : Reuss Voigt Hill
#
# Bulk Modulus (GPa) = 37.05321 60.35018 48.70170
# Shear Modulus (GPa) = 21.18783 25.87401 23.53092
#
# Velocity S-wave (km/s) = 3.38771 3.74365 3.57012
# Velocity P-wave (km/s) = 5.94747 7.16770 6.58590
#
# Compressibility (1/GPa) = 0.02698822
#
# Stress axis : x y z
#
# Youngs Moduli (GPa) = 42.22391 27.59054 95.26891
#
# Poissons Ratio (x) = 0.20809 0.54352
# Poissons Ratio (y) = 0.31845 0.80701
# Poissons Ratio (z) = 0.24089 0.23372
#
# Static dielectric constant tensor:
#      x y z
#    x 3.354540 0.000000 0.000000 
#    y 0.000000 3.176970 0.000000 
#    z 0.000000 0.000000 3.626190 
# 
# 
# High freq. dielectric constant tensor:
#      x y z
#    x 1.703060 0.000000 0.000000 
#    y 0.000000 1.686260 0.000000 
#    z 0.000000 0.000000 1.728050 
# 
# From -- ./inp_files/19221.got.cif
#   From: 2010.03.12/outbox.cif.g09.slc.cpg/sg44_10_cif.got.tgz:19221.got - 2010.04.14 02:36:11.
