data_PCOD8189024
_publ_section_title
;
Structure prediction by ZEFSAII (Michael W. Deem and Ramdas Pophale) SiO2 
 PCOD8189024
Probable space group: I M M 2
;
_chemical_formula_sum "Si O2"
_cell_formula_units_Z 64
_cell_length_a 14.153492
_cell_length_b 24.031766
_cell_length_c 10.077175
_cell_angle_alpha 90.000000
_cell_angle_beta 90.000000
_cell_angle_gamma 90.000000
_cell_volume 3427.583874
_symmetry_space_group_name_H-M "I M M 2"
_symmetry_group_IT_number 44
_symmetry_cell_setting 'orthorhombic'
loop_
_space_group_symop_operation_xyz
x,y,z
-x,-y,z
-x,y,z
x,-y,z
1/2+x,1/2+y,1/2+z
1/2-x,1/2-y,1/2+z
1/2-x,1/2+y,1/2+z
1/2+x,1/2-y,1/2+z
loop_
_atom_site_type_symbol
_atom_site_label
_atom_site_fract_x
_atom_site_fract_y
_atom_site_fract_z
Si Si1 0.659649 0.732327 0.016910
Si Si2 0.396406 0.146824 0.978336
Si Si3 0.304286 0.755275 0.301917
Si Si4 0.302346 0.632365 0.362403
Si Si5 0.222726 0.935445 0.356640
Si Si6 0.609448 0.435931 0.597228
Si Si7 0.606408 0.386235 0.090585
Si Si8 0.104956 0.366796 0.779464
O O1 0.725081 0.744628 0.147705
O O2 0.597280 0.678232 0.047167
O O3 0.596549 0.786235 0.987790
O O4 0.719241 0.718086 0.885663
O O5 0.500000 0.126767 0.925576
O O6 0.311629 0.127379 0.881579
O O7 0.377448 0.120943 0.123586
O O8 0.334394 0.697014 0.369456
O O9 0.387988 0.800481 0.307154
O O10 0.358872 0.601308 0.475432
O O11 0.331054 0.605844 0.222562
O O12 0.166459 0.916687 0.226136
O O13 0.156719 0.923798 0.481668
O O14 0.320288 0.901317 0.365967
O O15 0.248725 0.000000 0.352871
O O16 0.500000 0.425783 0.627395
O O17 0.629927 0.500000 0.561924
O O18 0.500000 0.408299 0.114579
O O19 0.000000 0.385654 0.821372
#
# Coordination Sequence:
#
# PCOD8189024 Si02
#       8
#     8   8   8   8   8   8   8   8
#     4   9  17  31  52  79 113 148 187 223 271 332
#     4   9  17  32  57  86 114 149 186 225 276 333
#     4   9  18  31  55  82 115 147 182 224 274 336
#     4  10  20  35  58  87 117 148 186 231 280 340
#     4  11  23  40  58  80 110 147 196 241 280 332
#     4  10  21  38  59  82 111 146 188 239 286 327
#     4  11  22  35  55  81 114 152 188 228 284 344
#     4  10  19  35  60  86 112 147 188 231 282 333
#
# _framework density 18.672046000000002
#
# number of rings (size 3 to 8) (size 9 to 14) (size 15 to 20)
#    0.000    2.125    2.500    1.125    0.000    5.000 
#    0.000    0.625    0.000    1.125    0.000    0.000 
#    0.000    0.000    0.000    0.000    0.000    0.000 
#
# Total GULP energy -396672.568171 kJ/mol
# GULP energy per Si atom -12396.017755 kJ/mol
# Density = 1.862955 g / cm^3
# Si number density = 18.672046 Si / 1000 Ang^3
#
#
#
# Elastic Constant Matrix: (Units=GPa)
#
#
# Indices 1 2 3 4 5 6 
#
# 1 131.0654 34.3127 50.4651 -0.0004 0.0000 0.0000
# 2 34.3127 53.9255 29.0937 0.0002 0.0001 -0.0002
# 3 50.4651 29.0937 91.8002 0.0024 0.0000 -0.0005
# 4 -0.0004 0.0002 0.0024 28.5362 0.0001 -0.0002
# 5 0.0000 0.0001 0.0000 0.0001 27.4424 0.0001
# 6 0.0000 -0.0002 -0.0005 -0.0002 0.0001 20.0494
#
#
#
# Elastic Compliance Matrix: (Units=1/GPa)
#
#
# Indices 1 2 3 4 5 6 
#
# 1 0.010437 -0.004277 -0.004382 0.000001 0.000000 0.000000
# 2 -0.004277 0.024121 -0.005294 0.000000 0.000000 0.000000
# 3 -0.004382 -0.005294 0.014980 -0.000001 0.000000 0.000000
# 4 0.000001 0.000000 -0.000001 0.035043 0.000000 0.000000
# 5 0.000000 0.000000 0.000000 0.000000 0.036440 0.000000
# 6 0.000000 0.000000 0.000000 0.000000 0.000000 0.049877
#
#
# Mechanical properties :
#
#
# Convention : Reuss Voigt Hill
#
# Bulk Modulus (GPa) = 46.22508 56.05937 51.14223
# Shear Modulus (GPa) = 24.27027 26.06689 25.16858
#
# Velocity S-wave (km/s) = 3.60921 3.74041 3.67540
# Velocity P-wave (km/s) = 6.49450 6.98159 6.74245
#
# Compressibility (1/GPa) = 0.02163328
#
# Stress axis : x y z
#
# Youngs Moduli (GPa) = 95.81657 41.45699 66.75678
#
# Poissons Ratio (x) = 0.17730 0.29252
# Poissons Ratio (y) = 0.40978 0.35339
# Poissons Ratio (z) = 0.41986 0.21946
#
# Static dielectric constant tensor:
#      x y z
#    x 3.334480 0.000000 0.000000 
#    y 0.000000 3.315690 0.000000 
#    z 0.000000 0.000000 3.493700 
# 
# 
# High freq. dielectric constant tensor:
#      x y z
#    x 1.715950 0.000000 0.000000 
#    y 0.000000 1.714840 0.000000 
#    z 0.000000 0.000000 1.718660 
# 
# From -- ./inp_files/7549.got.cif
#   From: 2010.03.12/outbox.cif.g09.slc.cpg/sg44_4_cif.got.tgz:7549.got - 2010.04.14 02:36:11.
