data_PCOD8189790
_publ_section_title
;
Structure prediction by ZEFSAII (Michael W. Deem and Ramdas Pophale) SiO2 
 PCOD8189790
Probable space group: I M M 2
;
_chemical_formula_sum "Si O2"
_cell_formula_units_Z 48
_cell_length_a 19.629242
_cell_length_b 7.797858
_cell_length_c 15.326612
_cell_angle_alpha 90.000000
_cell_angle_beta 90.000000
_cell_angle_gamma 90.000000
_cell_volume 2345.983832
_symmetry_space_group_name_H-M "I M M 2"
_symmetry_group_IT_number 44
_symmetry_cell_setting 'orthorhombic'
loop_
_space_group_symop_operation_xyz
x,y,z
-x,-y,z
-x,y,z
x,-y,z
1/2+x,1/2+y,1/2+z
1/2-x,1/2-y,1/2+z
1/2-x,1/2+y,1/2+z
1/2+x,1/2-y,1/2+z
loop_
_atom_site_type_symbol
_atom_site_label
_atom_site_fract_x
_atom_site_fract_y
_atom_site_fract_z
Si Si1 0.886069 0.808821 0.884870
Si Si2 0.285989 0.803981 0.110331
Si Si3 0.918898 0.500000 0.195974
Si Si4 0.922883 0.500000 0.005754
Si Si5 0.671690 0.695239 0.745261
Si Si6 0.923812 0.798613 0.692937
Si Si7 0.230058 0.693040 0.417465
O O1 0.907786 0.675022 0.956944
O O2 0.915593 0.742504 0.793195
O O3 0.805709 0.813307 0.880787
O O4 0.914534 0.000000 0.906957
O O5 0.234681 0.732535 0.184974
O O6 0.365465 0.788324 0.135228
O O7 0.266169 0.000000 0.099304
O O8 0.274114 0.720178 0.014216
O O9 0.891607 0.675733 0.238519
O O10 0.000000 0.500000 0.205705
O O11 0.886311 0.500000 0.098846
O O12 0.000000 0.500000 0.032296
O O13 0.651304 0.500000 0.718940
O O14 0.690604 0.691663 0.847575
O O15 0.000000 0.743438 0.661494
O O16 0.913340 0.000000 0.684268
O O17 0.199467 0.500000 0.419262
#
# Coordination Sequence:
#
# PCOD8189790 Si02
#       7
#     8   8   4   4   8   8   8
#     4  10  21  38  59  90 128 164 204 263 320 377
#     4  10  22  37  60  96 127 161 211 262 313 377
#     4  11  26  46  66  91 126 170 214 264 324 381
#     4  11  24  38  60  91 123 168 216 254 313 387
#     4  11  23  42  67  97 127 161 212 268 318 374
#     4  10  21  36  56  86 127 171 208 253 319 384
#     4  10  20  38  63  91 124 162 210 262 317 372
#
# _framework density 20.460498999999999
#
# number of rings (size 3 to 8) (size 9 to 14) (size 15 to 20)
#    0.000    1.667    2.500    1.500    3.500    4.333 
#    0.000    2.500    0.000    0.000    0.000    0.000 
#    0.000    0.000    0.000    0.000    0.000    0.000 
#
# Total GULP energy -297461.102091 kJ/mol
# GULP energy per Si atom -12394.212587 kJ/mol
# Density = 2.041393 g / cm^3
# Si number density = 20.460499 Si / 1000 Ang^3
#
#
#
# Elastic Constant Matrix: (Units=GPa)
#
#
# Indices 1 2 3 4 5 6 
#
# 1 105.4235 30.8103 37.6154 0.0000 0.0000 0.0000
# 2 30.8103 82.8035 32.5415 0.0000 0.0000 0.0000
# 3 37.6154 32.5415 121.4209 0.0000 0.0000 0.0000
# 4 0.0000 0.0000 0.0000 25.9741 0.0000 0.0000
# 5 0.0000 0.0000 0.0000 0.0000 20.1348 0.0000
# 6 0.0000 0.0000 0.0000 0.0000 0.0000 29.0217
#
#
#
# Elastic Compliance Matrix: (Units=1/GPa)
#
#
# Indices 1 2 3 4 5 6 
#
# 1 0.011367 -0.003181 -0.002669 0.000000 0.000000 0.000000
# 2 -0.003181 0.014389 -0.002871 0.000000 0.000000 0.000000
# 3 -0.002669 -0.002871 0.009832 0.000000 0.000000 0.000000
# 4 0.000000 0.000000 0.000000 0.038500 0.000000 0.000000
# 5 0.000000 0.000000 0.000000 0.000000 0.049665 0.000000
# 6 0.000000 0.000000 0.000000 0.000000 0.000000 0.034457
#
#
# Mechanical properties :
#
#
# Convention : Reuss Voigt Hill
#
# Bulk Modulus (GPa) = 55.10645 56.84248 55.97447
# Shear Modulus (GPa) = 27.51780 28.93816 28.22798
#
# Velocity S-wave (km/s) = 3.67130 3.76485 3.71837
# Velocity P-wave (km/s) = 6.70543 6.83672 6.77139
#
# Compressibility (1/GPa) = 0.01814669
#
# Stress axis : x y z
#
# Youngs Moduli (GPa) = 87.97021 69.49979 101.70786
#
# Poissons Ratio (x) = 0.22106 0.27147
# Poissons Ratio (y) = 0.27981 0.29199
# Poissons Ratio (z) = 0.23480 0.19952
#
# Static dielectric constant tensor:
#      x y z
#    x 5.486970 0.000000 0.000000 
#    y 0.000000 3.541870 0.000000 
#    z 0.000000 0.000000 3.814320 
# 
# 
# High freq. dielectric constant tensor:
#      x y z
#    x 1.785960 0.000000 0.000000 
#    y 0.000000 1.795800 0.000000 
#    z 0.000000 0.000000 1.799240 
# 
# From -- ./inp_files/16113.got.cif
#   From: 2010.03.12/outbox.cif.g09.slc.cpg/sg44_9_cif.got.tgz:16113.got - 2010.04.14 02:36:11.
