data_PCOD8189271
_publ_section_title
;
Structure prediction by ZEFSAII (Michael W. Deem and Ramdas Pophale) SiO2 
 PCOD8189271
Probable space group: I M M 2
;
_chemical_formula_sum "Si O2"
_cell_formula_units_Z 46
_cell_length_a 11.562334
_cell_length_b 7.655785
_cell_length_c 29.243560
_cell_angle_alpha 90.000000
_cell_angle_beta 90.000000
_cell_angle_gamma 90.000000
_cell_volume 2588.603178
_symmetry_space_group_name_H-M "I M M 2"
_symmetry_group_IT_number 44
_symmetry_cell_setting 'orthorhombic'
loop_
_space_group_symop_operation_xyz
x,y,z
-x,-y,z
-x,y,z
x,-y,z
1/2+x,1/2+y,1/2+z
1/2-x,1/2-y,1/2+z
1/2-x,1/2+y,1/2+z
1/2+x,1/2-y,1/2+z
loop_
_atom_site_type_symbol
_atom_site_label
_atom_site_fract_x
_atom_site_fract_y
_atom_site_fract_z
Si Si1 0.500000 0.000000 0.063470
Si Si2 0.637230 0.305075 0.274595
Si Si3 0.363106 0.796187 0.555208
Si Si4 0.757473 0.500000 0.610580
Si Si5 0.500000 0.697974 0.992709
Si Si6 0.375070 0.300495 0.372587
Si Si7 0.138286 0.500000 0.707355
Si Si8 0.749186 0.300029 0.961257
O O1 0.387100 0.000000 0.093319
O O2 0.500000 0.822734 0.035461
O O3 0.500000 0.311895 0.276958
O O4 0.686886 0.500000 0.263658
O O5 0.678984 0.229557 0.324615
O O6 0.675566 0.172089 0.235317
O O7 0.500000 0.770582 0.553539
O O8 0.310223 0.675026 0.594941
O O9 0.309884 0.726943 0.507170
O O10 0.330067 0.000000 0.564036
O O11 0.774140 0.500000 0.664788
O O12 0.500000 0.500000 0.011814
O O13 0.387690 0.733665 0.962157
O O14 0.500000 0.211248 0.384168
O O15 0.398247 0.500000 0.361394
O O16 0.290731 0.290847 0.415450
O O17 0.000000 0.500000 0.695524
O O18 0.783426 0.500000 0.957154
#
# Coordination Sequence:
#
# PCOD8189271 Si02
#       8
#     2   8   8   4   4   8   4   8
#     4  12  22  36  58  74 114 154 184 222 280 322
#     4   8  16  32  49  71 106 140 172 219 273 323
#     4  10  22  39  56  79 113 147 182 227 275 325
#     4  12  23  36  57  86 110 143 192 227 275 337
#     4  10  22  38  50  72 110 152 184 222 266 320
#     4   9  18  30  48  77 109 139 174 216 269 325
#     4  10  20  33  53  80 108 140 179 225 274 327
#     4  10  20  33  51  75 106 143 182 218 262 321
#
# _framework density 17.770201
#
# number of rings (size 3 to 8) (size 9 to 14) (size 15 to 20)
#    0.000    2.261    2.174    1.826    3.652    1.739 
#    0.000    0.000    0.000    0.000    4.522    0.000 
#    0.000    0.000    0.000    0.000    0.000    0.000 
#
# Total GULP energy -285015.463153 kJ/mol
# GULP energy per Si atom -12391.976659 kJ/mol
# Density = 1.772976 g / cm^3
# Si number density = 17.770201 Si / 1000 Ang^3
#
#
#
# Elastic Constant Matrix: (Units=GPa)
#
#
# Indices 1 2 3 4 5 6 
#
# 1 92.6216 35.5882 51.9017 0.0000 0.0000 0.0000
# 2 35.5882 86.7995 60.7973 0.0000 0.0000 0.0000
# 3 51.9017 60.7973 151.9474 0.0000 0.0000 0.0000
# 4 0.0000 0.0000 0.0000 39.4624 0.0000 0.0000
# 5 0.0000 0.0000 0.0000 0.0000 27.3406 0.0000
# 6 0.0000 0.0000 0.0000 0.0000 0.0000 24.5479
#
#
#
# Elastic Compliance Matrix: (Units=1/GPa)
#
#
# Indices 1 2 3 4 5 6 
#
# 1 0.014010 -0.003324 -0.003456 0.000000 0.000000 0.000000
# 2 -0.003324 0.016795 -0.005585 0.000000 0.000000 0.000000
# 3 -0.003456 -0.005585 0.009996 0.000000 0.000000 0.000000
# 4 0.000000 0.000000 0.000000 0.025341 0.000000 0.000000
# 5 0.000000 0.000000 0.000000 0.000000 0.036576 0.000000
# 6 0.000000 0.000000 0.000000 0.000000 0.000000 0.040737
#
#
# Mechanical properties :
#
#
# Convention : Reuss Voigt Hill
#
# Bulk Modulus (GPa) = 62.21535 69.77142 65.99339
# Shear Modulus (GPa) = 28.81166 30.47560 29.64363
#
# Velocity S-wave (km/s) = 4.03096 4.14573 4.08875
# Velocity P-wave (km/s) = 7.53339 7.89078 7.71416
#
# Compressibility (1/GPa) = 0.01607320
#
# Stress axis : x y z
#
# Youngs Moduli (GPa) = 71.37695 59.54011 100.03804
#
# Poissons Ratio (x) = 0.19790 0.34569
# Poissons Ratio (y) = 0.23724 0.55870
# Poissons Ratio (z) = 0.24665 0.33252
#
# Static dielectric constant tensor:
#      x y z
#    x 3.122660 0.000000 0.000000 
#    y 0.000000 3.383200 0.000000 
#    z 0.000000 0.000000 3.335080 
# 
# 
# High freq. dielectric constant tensor:
#      x y z
#    x 1.659420 0.000000 0.000000 
#    y 0.000000 1.695910 0.000000 
#    z 0.000000 0.000000 1.680320 
# 
# From -- ./inp_files/24826.got.cif
#   From: 2010.03.12/outbox.cif.g09.slc.cpg/sg44_13_cif.got.tgz:24826.got - 2010.04.14 02:36:11.
