data_PCOD8189303
_publ_section_title
;
Structure prediction by ZEFSAII (Michael W. Deem and Ramdas Pophale) SiO2 
 PCOD8189303
Probable space group: I M M 2
;
_chemical_formula_sum "Si O2"
_cell_formula_units_Z 48
_cell_length_a 8.969700
_cell_length_b 7.593735
_cell_length_c 34.633551
_cell_angle_alpha 90.000000
_cell_angle_beta 90.000000
_cell_angle_gamma 90.000000
_cell_volume 2359.013236
_symmetry_space_group_name_H-M "I M M 2"
_symmetry_group_IT_number 44
_symmetry_cell_setting 'orthorhombic'
loop_
_space_group_symop_operation_xyz
x,y,z
-x,-y,z
-x,y,z
x,-y,z
1/2+x,1/2+y,1/2+z
1/2-x,1/2-y,1/2+z
1/2-x,1/2+y,1/2+z
1/2+x,1/2-y,1/2+z
loop_
_atom_site_type_symbol
_atom_site_label
_atom_site_fract_x
_atom_site_fract_y
_atom_site_fract_z
Si Si1 0.324394 0.700585 0.467630
Si Si2 0.321915 0.000000 0.611758
Si Si3 0.833829 0.208596 0.240100
Si Si4 0.675155 0.204896 0.161862
Si Si5 0.668659 0.207488 0.889300
Si Si6 0.336515 0.798728 0.313144
Si Si7 0.676321 0.000000 0.524421
O O1 0.500000 0.717594 0.460982
O O2 0.278526 0.500000 0.477651
O O3 0.246426 0.768196 0.428721
O O4 0.267751 0.824319 0.502413
O O5 0.258709 0.177905 0.630354
O O6 0.500000 0.000000 0.614827
O O7 0.262566 0.000000 0.567797
O O8 0.734256 0.264095 0.203670
O O9 0.759382 0.290667 0.278780
O O10 0.000000 0.288453 0.235646
O O11 0.844631 0.000000 0.243303
O O12 0.500000 0.242330 0.160277
O O13 0.711464 0.000000 0.153502
O O14 0.500000 0.277546 0.889480
O O15 0.753348 0.291530 0.853620
O O16 0.676123 0.000000 0.884859
O O17 0.500000 0.707942 0.316199
O O18 0.359067 0.000000 0.301527
O O19 0.500000 0.000000 0.525388
#
# Coordination Sequence:
#
# PCOD8189303 Si02
#       7
#     8   4   8   8   8   8   4
#     4   9  18  35  58  81 109 147 188 233 285 344
#     4  11  23  39  61  93 125 153 195 251 301 359
#     4   9  17  32  55  82 112 147 190 238 288 343
#     4  10  21  39  62  86 118 160 200 242 295 357
#     4  10  21  36  52  75 109 145 185 233 283 337
#     4  10  20  33  52  79 110 146 188 234 281 336
#     4   9  20  37  59  87 115 145 189 239 291 353
#
# _framework density 20.347491999999999
#
# number of rings (size 3 to 8) (size 9 to 14) (size 15 to 20)
#    0.000    2.333    0.000    2.250    1.167    5.667 
#    1.500    3.333    0.000    2.000    0.000    0.000 
#    0.000    0.000    0.000    0.000    0.000    0.000 
#
# Total GULP energy -297590.265970 kJ/mol
# GULP energy per Si atom -12399.594415 kJ/mol
# Density = 2.030118 g / cm^3
# Si number density = 20.347492 Si / 1000 Ang^3
#
#
#
# Elastic Constant Matrix: (Units=GPa)
#
#
# Indices 1 2 3 4 5 6 
#
# 1 130.2177 37.8273 74.5351 0.0000 0.0000 0.0000
# 2 37.8273 72.7859 59.6406 0.0007 0.0000 0.0000
# 3 74.5351 59.6406 189.6164 0.0003 0.0000 0.0000
# 4 0.0000 0.0007 0.0003 -15.6424 -0.0001 0.0000
# 5 0.0000 0.0000 0.0000 -0.0001 33.1799 0.0000
# 6 0.0000 0.0000 0.0000 0.0000 0.0000 20.0550
#
#
#
# Elastic Compliance Matrix: (Units=1/GPa)
#
#
# Indices 1 2 3 4 5 6 
#
# 1 0.010300 -0.002742 -0.003186 0.000000 0.000000 0.000000
# 2 -0.002742 0.019239 -0.004974 0.000001 0.000000 0.000000
# 3 -0.003186 -0.004974 0.008091 0.000000 0.000000 0.000000
# 4 0.000000 0.000001 0.000000 -0.063929 0.000000 0.000000
# 5 0.000000 0.000000 0.000000 0.000000 0.030139 0.000000
# 6 0.000000 0.000000 0.000000 0.000000 0.000000 0.049863
#
#
# Mechanical properties :
#
#
# Convention : Reuss Voigt Hill
#
# Bulk Modulus (GPa) = 63.18705 81.84732 72.51718
# Shear Modulus (GPa) = 61.89539 22.22630 42.06084
#
# Velocity S-wave (km/s) = 5.52134 3.30864 4.55150
# Velocity P-wave (km/s) = 8.47162 7.41001 7.95853
#
# Compressibility (1/GPa) = 0.01582603
#
# Stress axis : x y z
#
# Youngs Moduli (GPa) = 97.08991 51.97695 123.60058
#
# Poissons Ratio (x) = 0.14253 0.39381
# Poissons Ratio (y) = 0.26623 0.61473
# Poissons Ratio (z) = 0.30935 0.25851
#
# Static dielectric constant tensor:
#      x y z
#    x 3.858840 0.000000 0.000000 
#    y 0.000000 3.618440 0.000000 
#    z 0.000000 0.000000 3.795600 
# 
# 
# High freq. dielectric constant tensor:
#      x y z
#    x 1.797640 0.000000 0.000000 
#    y 0.000000 1.785690 0.000000 
#    z 0.000000 0.000000 1.794560 
# 
# From -- ./inp_files/26971.got.cif
#   From: 2010.03.12/outbox.cif.g09.slc.cpg/sg44_14_cif.got.tgz:26971.got - 2010.04.14 02:36:11.
