data_PCOD8189531
_publ_section_title
;
Structure prediction by ZEFSAII (Michael W. Deem and Ramdas Pophale) SiO2 
 PCOD8189531
Probable space group: I M M 2
;
_chemical_formula_sum "Si O2"
_cell_formula_units_Z 48
_cell_length_a 29.819431
_cell_length_b 9.892065
_cell_length_c 8.495596
_cell_angle_alpha 90.000000
_cell_angle_beta 90.000000
_cell_angle_gamma 90.000000
_cell_volume 2505.994799
_symmetry_space_group_name_H-M "I M M 2"
_symmetry_group_IT_number 44
_symmetry_cell_setting 'orthorhombic'
loop_
_space_group_symop_operation_xyz
x,y,z
-x,-y,z
-x,y,z
x,-y,z
1/2+x,1/2+y,1/2+z
1/2-x,1/2-y,1/2+z
1/2-x,1/2+y,1/2+z
1/2+x,1/2-y,1/2+z
loop_
_atom_site_type_symbol
_atom_site_label
_atom_site_fract_x
_atom_site_fract_y
_atom_site_fract_z
Si Si1 0.192096 0.749860 0.214840
Si Si2 0.655722 0.156747 0.232841
Si Si3 0.871055 0.851742 0.462147
Si Si4 0.107373 0.352084 0.044059
Si Si5 0.550786 0.654262 0.735357
Si Si6 0.274263 0.347957 0.392483
O O1 0.165161 0.858075 0.320329
O O2 0.155144 0.655135 0.132901
O O3 0.223104 0.663282 0.333298
O O4 0.222076 0.821551 0.079769
O O5 0.615719 0.167358 0.358687
O O6 0.698648 0.237195 0.294738
O O7 0.668719 0.000000 0.200082
O O8 0.638566 0.227346 0.075482
O O9 0.920665 0.825004 0.393778
O O10 0.869255 0.000000 0.544960
O O11 0.087217 0.500000 0.078438
O O12 0.071048 0.242368 0.094358
O O13 0.500000 0.699313 0.771104
O O14 0.553140 0.500000 0.677461
O O15 0.291690 0.500000 0.357535
#
# Coordination Sequence:
#
# PCOD8189531 Si02
#       6
#     8   8   8   8   8   8
#     4  10  21  34  53  80 109 139 180 227 267 307
#     4  10  22  37  54  78 109 142 178 224 267 309
#     4  10  20  35  56  79 108 144 179 216 262 317
#     4   9  19  36  55  77 106 139 176 218 267 317
#     4   9  19  36  58  84 110 136 171 216 263 315
#     4  11  22  36  55  77 105 143 185 223 265 316
#
# _framework density 19.154070000000001
#
# number of rings (size 3 to 8) (size 9 to 14) (size 15 to 20)
#    0.000    2.167    0.000    2.500    0.000   11.667 
#    0.000    0.833    0.000    3.000    0.000    0.000 
#    0.000    0.000    0.000    0.000    0.000    0.000 
#
# Total GULP energy -297523.969616 kJ/mol
# GULP energy per Si atom -12396.832067 kJ/mol
# Density = 1.911047 g / cm^3
# Si number density = 19.154070 Si / 1000 Ang^3
#
#
#
# Elastic Constant Matrix: (Units=GPa)
#
#
# Indices 1 2 3 4 5 6 
#
# 1 107.2271 50.6580 54.7702 0.0000 0.0000 0.0000
# 2 50.6580 139.2172 56.0299 0.0000 0.0000 0.0000
# 3 54.7702 56.0299 98.5138 0.0000 0.0000 0.0000
# 4 0.0000 0.0000 0.0000 29.5230 0.0000 0.0000
# 5 0.0000 0.0000 0.0000 0.0000 20.4543 0.0000
# 6 0.0000 0.0000 0.0000 0.0000 0.0000 21.1690
#
#
#
# Elastic Compliance Matrix: (Units=1/GPa)
#
#
# Indices 1 2 3 4 5 6 
#
# 1 0.013655 -0.002481 -0.006181 0.000000 0.000000 0.000000
# 2 -0.002481 0.009766 -0.004175 0.000000 0.000000 0.000000
# 3 -0.006181 -0.004175 0.015962 0.000000 0.000000 0.000000
# 4 0.000000 0.000000 0.000000 0.033872 0.000000 0.000000
# 5 0.000000 0.000000 0.000000 0.000000 0.048890 0.000000
# 6 0.000000 0.000000 0.000000 0.000000 0.000000 0.047239
#
#
# Mechanical properties :
#
#
# Convention : Reuss Voigt Hill
#
# Bulk Modulus (GPa) = 72.94381 74.20826 73.57604
# Shear Modulus (GPa) = 25.04673 26.46259 25.75466
#
# Velocity S-wave (km/s) = 3.62006 3.72097 3.67086
# Velocity P-wave (km/s) = 7.45912 7.56887 7.51419
#
# Compressibility (1/GPa) = 0.01370918
#
# Stress axis : x y z
#
# Youngs Moduli (GPa) = 73.23197 102.39367 62.65060
#
# Poissons Ratio (x) = 0.25408 0.38721
# Poissons Ratio (y) = 0.18172 0.26157
# Poissons Ratio (z) = 0.45261 0.42749
#
# Static dielectric constant tensor:
#      x y z
#    x 3.413090 0.000000 0.000000 
#    y 0.000000 3.486830 0.000000 
#    z 0.000000 0.000000 3.502630 
# 
# 
# High freq. dielectric constant tensor:
#      x y z
#    x 1.727560 0.000000 0.000000 
#    y 0.000000 1.752210 0.000000 
#    z 0.000000 0.000000 1.740600 
# 
# From -- ./inp_files/4930.got.cif
#   From: 2010.03.12/outbox.cif.g09.slc.cpg/sg44_3_cif.got.tgz:4930.got - 2010.04.14 02:36:11.
