data_PCOD8189567
_publ_section_title
;
Structure prediction by ZEFSAII (Michael W. Deem and Ramdas Pophale) SiO2 
 PCOD8189567
Probable space group: I M M 2
;
_chemical_formula_sum "Si O2"
_cell_formula_units_Z 48
_cell_length_a 9.655415
_cell_length_b 27.537916
_cell_length_c 9.664808
_cell_angle_alpha 90.000000
_cell_angle_beta 90.000000
_cell_angle_gamma 90.000000
_cell_volume 2569.775869
_symmetry_space_group_name_H-M "I M M 2"
_symmetry_group_IT_number 44
_symmetry_cell_setting 'orthorhombic'
loop_
_space_group_symop_operation_xyz
x,y,z
-x,-y,z
-x,y,z
x,-y,z
1/2+x,1/2+y,1/2+z
1/2-x,1/2-y,1/2+z
1/2-x,1/2+y,1/2+z
1/2+x,1/2-y,1/2+z
loop_
_atom_site_type_symbol
_atom_site_label
_atom_site_fract_x
_atom_site_fract_y
_atom_site_fract_z
Si Si1 0.339689 0.609208 0.764870
Si Si2 0.161343 0.785808 0.170340
Si Si3 0.158383 0.598936 0.285076
Si Si4 0.659305 0.056088 0.490951
Si Si5 0.337236 0.204660 0.892162
Si Si6 0.155181 0.945707 0.996466
O O1 0.500000 0.597719 0.795379
O O2 0.308479 0.666415 0.762382
O O3 0.250468 0.580620 0.874676
O O4 0.294159 0.590449 0.614810
O O5 0.202885 0.741940 0.270800
O O6 0.000000 0.783725 0.126231
O O7 0.252097 0.783825 0.031093
O O8 0.205321 0.652663 0.329540
O O9 0.246979 0.559130 0.365095
O O10 0.000000 0.589817 0.324334
O O11 0.184703 0.589414 0.124356
O O12 0.500000 0.058275 0.444437
O O13 0.703510 0.000000 0.516440
O O14 0.500000 0.207695 0.928010
O O15 0.000000 0.932643 0.949068
O O16 0.164023 0.000000 0.055541
#
# Coordination Sequence:
#
# PCOD8189567 Si02
#       6
#     8   8   8   8   8   8
#     4  10  21  38  58  82 115 150 188 233 281 336
#     4  10  22  40  61  87 117 149 187 234 285 338
#     4  10  21  38  58  82 115 149 187 234 282 336
#     4  10  22  38  56  83 117 152 192 235 281 334
#     4  10  22  39  60  88 116 147 189 234 283 340
#     4  10  20  35  57  84 112 145 187 232 280 336
#
# _framework density 18.678671999999999
#
# number of rings (size 3 to 8) (size 9 to 14) (size 15 to 20)
#    0.000    2.000    1.667    1.000    2.333    4.667 
#    0.000    0.000    0.000    0.000    0.000    0.000 
#    0.000    0.000    0.000    0.000    0.000    0.000 
#
# Total GULP energy -297624.270688 kJ/mol
# GULP energy per Si atom -12401.011279 kJ/mol
# Density = 1.863616 g / cm^3
# Si number density = 18.678672 Si / 1000 Ang^3
#
#
#
# Elastic Constant Matrix: (Units=GPa)
#
#
# Indices 1 2 3 4 5 6 
#
# 1 73.2221 43.3708 69.8731 -0.0069 -0.0009 0.0002
# 2 43.3708 100.2459 56.2566 -0.0032 -0.0008 0.0004
# 3 69.8731 56.2566 103.2097 -0.0149 -0.0027 0.0008
# 4 -0.0069 -0.0032 -0.0149 15.3330 -0.0023 0.0022
# 5 -0.0009 -0.0008 -0.0027 -0.0023 37.9615 -0.0002
# 6 0.0002 0.0004 0.0008 0.0022 -0.0002 25.1536
#
#
#
# Elastic Compliance Matrix: (Units=1/GPa)
#
#
# Indices 1 2 3 4 5 6 
#
# 1 0.039190 -0.002977 -0.024909 -0.000007 -0.000001 0.000001
# 2 -0.002977 0.014598 -0.005942 -0.000004 0.000000 0.000000
# 3 -0.024909 -0.005942 0.029791 0.000017 0.000001 -0.000001
# 4 -0.000007 -0.000004 0.000017 0.065219 0.000004 -0.000006
# 5 -0.000001 0.000000 0.000001 0.000004 0.026342 0.000000
# 6 0.000001 0.000000 -0.000001 -0.000006 0.000000 0.039756
#
#
# Mechanical properties :
#
#
# Convention : Reuss Voigt Hill
#
# Bulk Modulus (GPa) = 62.79827 68.40877 65.60352
# Shear Modulus (GPa) = 17.36956 22.83475 20.10216
#
# Velocity S-wave (km/s) = 3.05276 3.50023 3.28412
# Velocity P-wave (km/s) = 6.79110 7.28278 7.04124
#
# Compressibility (1/GPa) = 0.01592400
#
# Stress axis : x y z
#
# Youngs Moduli (GPa) = 25.51645 68.50433 33.56681
#
# Poissons Ratio (x) = 0.20391 0.83613
# Poissons Ratio (y) = 0.07595 0.19944
# Poissons Ratio (z) = 0.63560 0.40702
#
# Static dielectric constant tensor:
#      x y z
#    x 3.420520 0.000020 0.000000 
#    y 0.000020 4.987490 -0.000130 
#    z 0.000000 -0.000130 3.383670 
# 
# 
# High freq. dielectric constant tensor:
#      x y z
#    x 1.722100 0.000000 0.000000 
#    y 0.000000 1.741810 0.000000 
#    z 0.000000 0.000000 1.722610 
# 
# From -- ./inp_files/4869.got.cif
#   From: 2010.03.12/outbox.cif.g09.slc.cpg/sg44_3_cif.got.tgz:4869.got - 2010.04.14 02:36:11.
