data_PCOD8189104
_publ_section_title
;
Structure prediction by ZEFSAII (Michael W. Deem and Ramdas Pophale) SiO2 
 PCOD8189104
Probable space group: I M M 2
;
_chemical_formula_sum "Si O2"
_cell_formula_units_Z 64
_cell_length_a 9.079835
_cell_length_b 26.122714
_cell_length_c 18.561959
_cell_angle_alpha 90.000000
_cell_angle_beta 90.000000
_cell_angle_gamma 90.000000
_cell_volume 4402.709809
_symmetry_space_group_name_H-M "I M M 2"
_symmetry_group_IT_number 44
_symmetry_cell_setting 'orthorhombic'
loop_
_space_group_symop_operation_xyz
x,y,z
-x,-y,z
-x,y,z
x,-y,z
1/2+x,1/2+y,1/2+z
1/2-x,1/2-y,1/2+z
1/2-x,1/2+y,1/2+z
1/2+x,1/2-y,1/2+z
loop_
_atom_site_type_symbol
_atom_site_label
_atom_site_fract_x
_atom_site_fract_y
_atom_site_fract_z
Si Si1 0.832004 0.643785 0.483380
Si Si2 0.829868 0.292229 0.351545
Si Si3 0.672036 0.441466 0.562757
Si Si4 0.173139 0.351306 0.804807
Si Si5 0.327047 0.204920 0.439217
Si Si6 0.325578 0.749051 0.226961
Si Si7 0.674134 0.057548 0.210774
Si Si8 0.827368 0.252187 0.561964
O O1 0.818358 0.655270 0.397531
O O2 0.730657 0.595027 0.499538
O O3 0.778814 0.692571 0.530870
O O4 0.000000 0.630551 0.503777
O O5 0.728634 0.252343 0.393133
O O6 0.760564 0.295967 0.271040
O O7 0.000000 0.274238 0.348407
O O8 0.500000 0.432926 0.573349
O O9 0.708515 0.500000 0.541710
O O10 0.751850 0.425750 0.636396
O O11 0.212465 0.345176 0.890110
O O12 0.231817 0.303442 0.757839
O O13 0.235223 0.404690 0.773288
O O14 0.000000 0.351472 0.794831
O O15 0.500000 0.209625 0.451715
O O16 0.248149 0.205885 0.516857
O O17 0.500000 0.741597 0.236038
O O18 0.277044 0.746242 0.144084
O O19 0.500000 0.062258 0.200163
O O20 0.720232 0.000000 0.232683
O O21 0.000000 0.245481 0.552257
#
# Coordination Sequence:
#
# PCOD8189104 Si02
#       8
#     8   8   8   8   8   8   8   8
#     4   9  17  29  43  56  74 104 135 161 191 227
#     4   9  17  28  40  56  78 100 128 165 195 225
#     4  10  20  30  39  56  81 103 127 164 200 227
#     4   8  14  25  39  55  75 100 131 161 190 226
#     4   9  16  26  39  54  76 105 132 159 195 236
#     4   9  16  26  40  56  78 106 129 155 194 236
#     4   9  16  27  43  58  74 102 137 167 195 229
#     4   9  17  28  41  59  82 104 131 166 196 227
#
# _framework density 14.536502
#
# number of rings (size 3 to 8) (size 9 to 14) (size 15 to 20)
#    0.000    3.000    0.000    3.375    0.000    5.750 
#    0.000    5.625    0.000    0.000    0.000    0.000 
#    0.000    1.000    0.000    9.000    0.000    4.250 
#
# Total GULP energy -396520.544579 kJ/mol
# GULP energy per Si atom -12391.267018 kJ/mol
# Density = 1.450342 g / cm^3
# Si number density = 14.536502 Si / 1000 Ang^3
#
#
#
# Elastic Constant Matrix: (Units=GPa)
#
#
# Indices 1 2 3 4 5 6 
#
# 1 35.9542 26.6470 35.3027 0.0000 0.0000 0.0000
# 2 26.6470 65.3245 49.8710 0.0000 0.0000 0.0000
# 3 35.3027 49.8710 116.8747 -0.0003 -0.0001 0.0000
# 4 0.0000 0.0000 -0.0003 24.4898 0.0000 0.0000
# 5 0.0000 0.0000 -0.0001 0.0000 25.5293 0.0000
# 6 0.0000 0.0000 0.0000 0.0000 0.0000 15.9968
#
#
#
# Elastic Compliance Matrix: (Units=1/GPa)
#
#
# Indices 1 2 3 4 5 6 
#
# 1 0.044955 -0.011823 -0.008534 0.000000 0.000000 0.000000
# 2 -0.011823 0.025814 -0.007444 0.000000 0.000000 0.000000
# 3 -0.008534 -0.007444 0.014310 0.000000 0.000000 0.000000
# 4 0.000000 0.000000 0.000000 0.040833 0.000000 0.000000
# 5 0.000000 0.000000 0.000000 0.000000 0.039171 0.000000
# 6 0.000000 0.000000 0.000000 0.000000 0.000000 0.062512
#
#
# Mechanical properties :
#
#
# Convention : Reuss Voigt Hill
#
# Bulk Modulus (GPa) = 33.92380 49.08829 41.50604
# Shear Modulus (GPa) = 17.06357 20.29203 18.67780
#
# Velocity S-wave (km/s) = 3.42986 3.74028 3.58842
# Velocity P-wave (km/s) = 6.25083 7.24536 6.76639
#
# Compressibility (1/GPa) = 0.02947783
#
# Stress axis : x y z
#
# Youngs Moduli (GPa) = 22.24454 38.73921 69.88014
#
# Poissons Ratio (x) = 0.45800 0.59636
# Poissons Ratio (y) = 0.26299 0.52017
# Poissons Ratio (z) = 0.18984 0.28836
#
# Static dielectric constant tensor:
#      x y z
#    x 2.815460 0.000000 0.000000 
#    y 0.000000 2.798680 0.000000 
#    z 0.000000 0.000000 3.135080 
# 
# 
# High freq. dielectric constant tensor:
#      x y z
#    x 1.554100 0.000000 0.000000 
#    y 0.000000 1.517240 0.000000 
#    z 0.000000 0.000000 1.550410 
# 
# From -- ./inp_files/20892.got.cif
#   From: 2010.03.12/outbox.cif.g09.slc.cpg/sg44_11_cif.got.tgz:20892.got - 2010.04.14 02:36:11.
