data_PCOD8189128
_publ_section_title
;
Structure prediction by ZEFSAII (Michael W. Deem and Ramdas Pophale) SiO2 
 PCOD8189128
Probable space group: I M M 2
;
_chemical_formula_sum "Si O2"
_cell_formula_units_Z 64
_cell_length_a 18.093892
_cell_length_b 17.163941
_cell_length_c 11.699132
_cell_angle_alpha 90.000000
_cell_angle_beta 90.000000
_cell_angle_gamma 90.000000
_cell_volume 3633.311620
_symmetry_space_group_name_H-M "I M M 2"
_symmetry_group_IT_number 44
_symmetry_cell_setting 'orthorhombic'
loop_
_space_group_symop_operation_xyz
x,y,z
-x,-y,z
-x,y,z
x,-y,z
1/2+x,1/2+y,1/2+z
1/2-x,1/2-y,1/2+z
1/2-x,1/2+y,1/2+z
1/2+x,1/2-y,1/2+z
loop_
_atom_site_type_symbol
_atom_site_label
_atom_site_fract_x
_atom_site_fract_y
_atom_site_fract_z
Si Si1 0.188658 0.587947 0.097870
Si Si2 0.715372 0.344090 0.293369
Si Si3 0.582291 0.911771 0.903996
Si Si4 0.176809 0.910067 0.443562
Si Si5 0.230727 0.408921 0.525434
Si Si6 0.583468 0.196436 0.684742
Si Si7 0.793110 0.810803 0.231109
Si Si8 0.414738 0.591375 0.160493
O O1 0.163794 0.500000 0.089378
O O2 0.228588 0.603230 0.219421
O O3 0.113721 0.637962 0.086991
O O4 0.244002 0.610867 0.997313
O O5 0.721635 0.370233 0.424393
O O6 0.735408 0.253161 0.278204
O O7 0.631398 0.358985 0.252635
O O8 0.500000 0.903415 0.957757
O O9 0.643252 0.896274 0.001707
O O10 0.591984 0.847655 0.805622
O O11 0.592445 0.000000 0.854136
O O12 0.169385 0.860036 0.331028
O O13 0.112099 0.887553 0.532458
O O14 0.171271 0.000000 0.410114
O O15 0.250486 0.500000 0.536792
O O16 0.250555 0.366057 0.642892
O O17 0.500000 0.220825 0.657896
O O18 0.635044 0.271733 0.674998
O O19 0.500000 0.614527 0.172832
O O20 0.400816 0.500000 0.183430
#
# Coordination Sequence:
#
# PCOD8189128 Si02
#       8
#     8   8   8   8   8   8   8   8
#     4   9  16  30  54  78 102 132 169 218 269 323
#     4  10  20  32  55  80 110 138 184 229 277 322
#     4   9  17  31  54  84 112 136 172 224 281 339
#     4   9  19  35  55  78 104 138 179 223 268 326
#     4  11  21  36  57  81 111 155 190 224 275 338
#     4  10  20  31  48  77 109 136 169 221 278 322
#     4  11  23  34  53  77 114 144 186 224 273 326
#     4   9  18  34  58  84 108 138 181 235 283 321
#
# _framework density 17.614784
#
# number of rings (size 3 to 8) (size 9 to 14) (size 15 to 20)
#    0.000    2.250    2.500    2.625    5.250    1.250 
#    0.000    2.500    0.000    2.625    0.000    1.750 
#    0.000    0.000    0.000    0.000    0.000    0.000 
#
# Total GULP energy -396690.771554 kJ/mol
# GULP energy per Si atom -12396.586611 kJ/mol
# Density = 1.757469 g / cm^3
# Si number density = 17.614784 Si / 1000 Ang^3
#
#
#
# Elastic Constant Matrix: (Units=GPa)
#
#
# Indices 1 2 3 4 5 6 
#
# 1 114.9208 62.2988 28.8932 0.0000 0.0000 0.0000
# 2 62.2988 57.4674 31.6437 0.0000 0.0000 0.0000
# 3 28.8932 31.6437 48.8785 0.0000 0.0000 0.0000
# 4 0.0000 0.0000 0.0000 25.6555 0.0000 0.0000
# 5 0.0000 0.0000 0.0000 0.0000 18.5225 0.0000
# 6 0.0000 0.0000 0.0000 0.0000 0.0000 19.7456
#
#
#
# Elastic Compliance Matrix: (Units=1/GPa)
#
#
# Indices 1 2 3 4 5 6 
#
# 1 0.021527 -0.025376 0.003703 0.000000 0.000000 0.000000
# 2 -0.025376 0.056953 -0.021871 0.000000 0.000000 0.000000
# 3 0.003703 -0.021871 0.032429 0.000000 0.000000 0.000000
# 4 0.000000 0.000000 0.000000 0.038978 0.000000 0.000000
# 5 0.000000 0.000000 0.000000 0.000000 0.053988 0.000000
# 6 0.000000 0.000000 0.000000 0.000000 0.000000 0.050644
#
#
# Mechanical properties :
#
#
# Convention : Reuss Voigt Hill
#
# Bulk Modulus (GPa) = 41.97827 51.88199 46.93013
# Shear Modulus (GPa) = 14.30421 19.34681 16.82551
#
# Velocity S-wave (km/s) = 2.85275 3.31770 3.09397
# Velocity P-wave (km/s) = 5.89355 6.64784 6.28203
#
# Compressibility (1/GPa) = 0.02382185
#
# Stress axis : x y z
#
# Youngs Moduli (GPa) = 46.45370 17.55827 30.83651
#
# Poissons Ratio (x) = 0.44555 -0.11419
# Poissons Ratio (y) = 1.17879 0.67443
# Poissons Ratio (z) = -0.17202 0.38402
#
# Static dielectric constant tensor:
#      x y z
#    x 3.433780 0.000000 0.000000 
#    y 0.000000 3.279300 0.000000 
#    z 0.000000 0.000000 2.997170 
# 
# 
# High freq. dielectric constant tensor:
#      x y z
#    x 1.679190 0.000000 0.000000 
#    y 0.000000 1.683890 0.000000 
#    z 0.000000 0.000000 1.649040 
# 
# From -- ./inp_files/13415.got.cif
#   From: 2010.03.12/outbox.cif.g09.slc.cpg/sg44_7_cif.got.tgz:13415.got - 2010.04.14 02:36:11.
