data_PCOD8189682
_publ_section_title
;
Structure prediction by ZEFSAII (Michael W. Deem and Ramdas Pophale) SiO2 
 PCOD8189682
Probable space group: I M M 2
;
_chemical_formula_sum "Si O2"
_cell_formula_units_Z 48
_cell_length_a 7.765219
_cell_length_b 9.101940
_cell_length_c 33.711448
_cell_angle_alpha 90.000000
_cell_angle_beta 90.000000
_cell_angle_gamma 90.000000
_cell_volume 2382.676513
_symmetry_space_group_name_H-M "I M M 2"
_symmetry_group_IT_number 44
_symmetry_cell_setting 'orthorhombic'
loop_
_space_group_symop_operation_xyz
x,y,z
-x,-y,z
-x,y,z
x,-y,z
1/2+x,1/2+y,1/2+z
1/2-x,1/2-y,1/2+z
1/2-x,1/2+y,1/2+z
1/2+x,1/2-y,1/2+z
loop_
_atom_site_type_symbol
_atom_site_label
_atom_site_fract_x
_atom_site_fract_y
_atom_site_fract_z
Si Si1 0.804796 0.832496 0.709370
Si Si2 0.694501 0.330179 0.635935
Si Si3 0.303984 0.329100 0.448215
Si Si4 0.695795 0.162411 0.793454
Si Si5 0.701727 0.166818 0.369317
Si Si6 0.500000 0.324894 0.090308
Si Si7 0.500000 0.828480 0.007449
O O1 0.693995 0.727324 0.681173
O O2 0.796900 0.776682 0.754948
O O3 0.000000 0.824681 0.694015
O O4 0.735118 0.000000 0.707025
O O5 0.500000 0.312491 0.619122
O O6 0.751509 0.500000 0.634994
O O7 0.825915 0.235973 0.609877
O O8 0.500000 0.280944 0.459710
O O9 0.297211 0.500000 0.438452
O O10 0.236870 0.248777 0.408849
O O11 0.173360 0.289385 0.483363
O O12 0.500000 0.153095 0.779934
O O13 0.709793 0.268460 0.830649
O O14 0.765961 0.000000 0.805137
O O15 0.500000 0.184398 0.363652
O O16 0.761088 0.000000 0.373624
O O17 0.500000 0.500000 0.093910
O O18 0.500000 0.276410 0.044922
O O19 0.500000 0.000000 0.019875
#
# Coordination Sequence:
#
# PCOD8189682 Si02
#       7
#     8   8   8   8   8   4   4
#     4  10  20  36  60  88 118 157 204 255 311 368
#     4  11  24  42  66  94 126 166 208 255 312 373
#     4   9  19  37  61  87 117 156 199 246 301 362
#     4  10  21  35  53  80 115 156 203 251 299 358
#     4  10  21  36  54  79 113 153 198 249 305 358
#     4  12  26  44  66  96 130 166 208 256 312 376
#     4  10  22  40  64  92 122 156 202 252 304 374
#
# _framework density 20.145412
#
# number of rings (size 3 to 8) (size 9 to 14) (size 15 to 20)
#    0.000    1.833    0.833    2.750    1.167    6.000 
#    0.000    1.667    0.000    0.000    0.000    0.000 
#    0.000    0.000    0.000    0.000    0.000    0.000 
#
# Total GULP energy -297629.390014 kJ/mol
# GULP energy per Si atom -12401.224584 kJ/mol
# Density = 2.009956 g / cm^3
# Si number density = 20.145412 Si / 1000 Ang^3
#
#
#
# Elastic Constant Matrix: (Units=GPa)
#
#
# Indices 1 2 3 4 5 6 
#
# 1 95.9386 51.3573 51.6581 0.0000 0.0000 0.0000
# 2 51.3573 113.7409 72.1845 0.0000 0.0000 0.0000
# 3 51.6581 72.1845 132.0694 0.0000 0.0000 0.0000
# 4 0.0000 0.0000 0.0000 38.6481 0.0000 0.0000
# 5 0.0000 0.0000 0.0000 0.0000 23.9814 0.0000
# 6 0.0000 0.0000 0.0000 0.0000 0.0000 23.7188
#
#
#
# Elastic Compliance Matrix: (Units=1/GPa)
#
#
# Indices 1 2 3 4 5 6 
#
# 1 0.014591 -0.004542 -0.003225 0.000000 0.000000 0.000000
# 2 -0.004542 0.014875 -0.006354 0.000000 0.000000 0.000000
# 3 -0.003225 -0.006354 0.012306 0.000000 0.000000 0.000000
# 4 0.000000 0.000000 0.000000 0.025874 0.000000 0.000000
# 5 0.000000 0.000000 0.000000 0.000000 0.041699 0.000000
# 6 0.000000 0.000000 0.000000 0.000000 0.000000 0.042161
#
#
# Mechanical properties :
#
#
# Convention : Reuss Voigt Hill
#
# Bulk Modulus (GPa) = 73.90224 76.90542 75.40383
# Shear Modulus (GPa) = 27.13607 28.37292 27.75450
#
# Velocity S-wave (km/s) = 3.67415 3.75695 3.71578
# Velocity P-wave (km/s) = 7.40021 7.55497 7.47799
#
# Compressibility (1/GPa) = 0.01353139
#
# Stress axis : x y z
#
# Youngs Moduli (GPa) = 68.53557 67.22756 81.26211
#
# Poissons Ratio (x) = 0.30532 0.26206
# Poissons Ratio (y) = 0.31126 0.51631
# Poissons Ratio (z) = 0.22102 0.42714
#
# Static dielectric constant tensor:
#      x y z
#    x 3.769070 0.000000 0.000000 
#    y 0.000000 3.625600 0.000000 
#    z 0.000000 0.000000 3.558690 
# 
# 
# High freq. dielectric constant tensor:
#      x y z
#    x 1.795500 0.000000 0.000000 
#    y 0.000000 1.779280 0.000000 
#    z 0.000000 0.000000 1.784060 
# 
# From -- ./inp_files/26928.got.cif
#   From: 2010.03.12/outbox.cif.g09.slc.cpg/sg44_14_cif.got.tgz:26928.got - 2010.04.14 02:36:11.
