data_PCOD8189388
_publ_section_title
;
Structure prediction by ZEFSAII (Michael W. Deem and Ramdas Pophale) SiO2 
 PCOD8189388
Probable space group: I M M 2
;
_chemical_formula_sum "Si O2"
_cell_formula_units_Z 56
_cell_length_a 8.648320
_cell_length_b 20.267815
_cell_length_c 15.692279
_cell_angle_alpha 90.000000
_cell_angle_beta 90.000000
_cell_angle_gamma 90.000000
_cell_volume 2750.582676
_symmetry_space_group_name_H-M "I M M 2"
_symmetry_group_IT_number 44
_symmetry_cell_setting 'orthorhombic'
loop_
_space_group_symop_operation_xyz
x,y,z
-x,-y,z
-x,y,z
x,-y,z
1/2+x,1/2+y,1/2+z
1/2-x,1/2-y,1/2+z
1/2-x,1/2+y,1/2+z
1/2+x,1/2-y,1/2+z
loop_
_atom_site_type_symbol
_atom_site_label
_atom_site_fract_x
_atom_site_fract_y
_atom_site_fract_z
Si Si1 0.167224 0.571788 0.217420
Si Si2 0.317566 0.075065 0.054401
Si Si3 0.180794 0.888583 0.875014
Si Si4 0.177250 0.077442 0.552124
Si Si5 0.680320 0.802693 0.472790
Si Si6 0.681433 0.754779 0.811019
Si Si7 0.817753 0.796139 0.124652
O O1 0.126535 0.500000 0.182496
O O2 0.256651 0.560300 0.305832
O O3 0.280749 0.603046 0.147472
O O4 0.000000 0.610381 0.225499
O O5 0.500000 0.075657 0.062366
O O6 0.249630 0.129546 0.118662
O O7 0.256085 0.000000 0.072838
O O8 0.271003 0.098561 0.960995
O O9 0.220634 0.819369 0.831781
O O10 0.000000 0.895948 0.893184
O O11 0.289256 0.120813 0.493632
O O12 0.000000 0.095670 0.534821
O O13 0.206545 0.000000 0.535438
O O14 0.500000 0.790424 0.456694
O O15 0.774558 0.795760 0.385238
O O16 0.739603 0.752092 0.547388
O O17 0.500000 0.769052 0.813615
O O18 0.733361 0.730905 0.717078
O O19 0.000000 0.802246 0.118636
#
# Coordination Sequence:
#
# PCOD8189388 Si02
#       7
#     8   8   8   8   8   8   8
#     4  10  20  34  53  80 116 156 197 243 300 365
#     4  11  24  41  63  91 125 168 216 267 325 386
#     4  12  23  36  57  88 122 159 205 255 315 381
#     4  10  21  37  58  86 120 160 205 252 309 374
#     4  11  22  39  63  92 124 160 206 257 313 378
#     4  11  23  40  63  91 123 160 206 260 317 378
#     4  10  23  42  64  92 126 165 210 261 321 384
#
# _framework density 20.359321999999999
#
# number of rings (size 3 to 8) (size 9 to 14) (size 15 to 20)
#    0.000    1.286    1.429    4.714    0.000    7.429 
#    0.000    0.714    0.000    0.857    0.000    0.000 
#    0.000    0.000    0.000    0.000    0.000    0.000 
#
# Total GULP energy -346962.593156 kJ/mol
# GULP energy per Si atom -12391.521184 kJ/mol
# Density = 2.031298 g / cm^3
# Si number density = 20.359322 Si / 1000 Ang^3
#
#
#
# Elastic Constant Matrix: (Units=GPa)
#
#
# Indices 1 2 3 4 5 6 
#
# 1 31.9330 26.7775 14.6434 0.0000 0.0000 0.0000
# 2 26.7775 110.9890 35.3642 0.0000 0.0000 0.0000
# 3 14.6434 35.3642 96.8396 0.0001 0.0000 0.0000
# 4 0.0000 0.0000 0.0001 27.0438 0.0000 0.0000
# 5 0.0000 0.0000 0.0000 0.0000 30.8794 0.0000
# 6 0.0000 0.0000 0.0000 0.0000 0.0000 30.3170
#
#
#
# Elastic Compliance Matrix: (Units=1/GPa)
#
#
# Indices 1 2 3 4 5 6 
#
# 1 0.039942 -0.008728 -0.002853 0.000000 0.000000 0.000000
# 2 -0.008728 0.012103 -0.003100 0.000000 0.000000 0.000000
# 3 -0.002853 -0.003100 0.011890 0.000000 0.000000 0.000000
# 4 0.000000 0.000000 0.000000 0.036977 0.000000 0.000000
# 5 0.000000 0.000000 0.000000 0.000000 0.032384 0.000000
# 6 0.000000 0.000000 0.000000 0.000000 0.000000 0.032985
#
#
# Mechanical properties :
#
#
# Convention : Reuss Voigt Hill
#
# Bulk Modulus (GPa) = 28.92300 43.70351 36.31326
# Shear Modulus (GPa) = 24.13511 28.51314 26.32412
#
# Velocity S-wave (km/s) = 3.44678 3.74638 3.59970
# Velocity P-wave (km/s) = 5.48430 6.34244 5.92891
#
# Compressibility (1/GPa) = 0.03457456
#
# Stress axis : x y z
#
# Youngs Moduli (GPa) = 25.03617 82.62159 84.10534
#
# Poissons Ratio (x) = 0.72109 0.23992
# Poissons Ratio (y) = 0.21851 0.26075
# Poissons Ratio (z) = 0.07142 0.25615
#
# Static dielectric constant tensor:
#      x y z
#    x 3.924820 0.000000 0.000000 
#    y 0.000000 3.808940 0.000000 
#    z 0.000000 0.000000 3.989140 
# 
# 
# High freq. dielectric constant tensor:
#      x y z
#    x 1.800900 0.000000 0.000000 
#    y 0.000000 1.800380 0.000000 
#    z 0.000000 0.000000 1.785840 
# 
# From -- ./inp_files/16432.got.cif
#   From: 2010.03.12/outbox.cif.g09.slc.cpg/sg44_9_cif.got.tgz:16432.got - 2010.04.14 02:36:11.
