data_PCOD8189455
_publ_section_title
;
Structure prediction by ZEFSAII (Michael W. Deem and Ramdas Pophale) SiO2 
 PCOD8189455
Probable space group: I M M 2
;
_chemical_formula_sum "Si O2"
_cell_formula_units_Z 48
_cell_length_a 9.815614
_cell_length_b 7.733257
_cell_length_c 33.952845
_cell_angle_alpha 90.000000
_cell_angle_beta 90.000000
_cell_angle_gamma 90.000000
_cell_volume 2577.247254
_symmetry_space_group_name_H-M "I M M 2"
_symmetry_group_IT_number 44
_symmetry_cell_setting 'orthorhombic'
loop_
_space_group_symop_operation_xyz
x,y,z
-x,-y,z
-x,y,z
x,-y,z
1/2+x,1/2+y,1/2+z
1/2-x,1/2-y,1/2+z
1/2-x,1/2+y,1/2+z
1/2+x,1/2-y,1/2+z
loop_
_atom_site_type_symbol
_atom_site_label
_atom_site_fract_x
_atom_site_fract_y
_atom_site_fract_z
Si Si1 0.161783 0.308147 0.034040
Si Si2 0.662418 0.500000 0.478139
Si Si3 0.348976 0.204948 0.620884
Si Si4 0.848886 0.794075 0.687122
Si Si5 0.342376 0.298572 0.275167
Si Si6 0.845913 0.807692 0.343393
Si Si7 0.659722 0.000000 0.900528
O O1 0.218462 0.500000 0.023030
O O2 0.210372 0.169728 0.001985
O O3 0.211970 0.250303 0.077631
O O4 0.000000 0.315651 0.035911
O O5 0.500000 0.500000 0.470406
O O6 0.744371 0.500000 0.438067
O O7 0.500000 0.284829 0.626134
O O8 0.252865 0.285805 0.654672
O O9 0.356857 0.000000 0.625366
O O10 0.804151 0.736869 0.731005
O O11 0.000000 0.723042 0.678054
O O12 0.850461 0.000000 0.685206
O O13 0.500000 0.257922 0.284017
O O14 0.311591 0.500000 0.280461
O O15 0.249536 0.194788 0.305338
O O16 0.799463 0.670078 0.375991
O O17 0.000000 0.764865 0.329905
O O18 0.836465 0.000000 0.361962
O O19 0.500000 0.000000 0.912272
#
# Coordination Sequence:
#
# PCOD8189455 Si02
#       7
#     8   4   8   8   8   8   4
#     4   8  15  29  49  74 103 131 164 210 256 295
#     4  10  20  34  56  80 100 130 170 210 254 310
#     4   8  13  23  41  65  93 129 171 208 246 294
#     4   8  14  24  40  67 101 134 168 208 250 295
#     4   9  17  30  50  76 106 139 176 216 260 308
#     4  10  21  37  57  78 101 135 175 212 259 316
#     4  10  22  40  56  76 108 136 160 210 270 314
#
# _framework density 18.624521999999999
#
# number of rings (size 3 to 8) (size 9 to 14) (size 15 to 20)
#    0.000    3.167    0.833    2.000    0.000    2.333 
#    0.000    2.500    1.833    1.000    0.000    0.000 
#    0.000    0.000    0.000    0.000    0.000    0.000 
#
# Total GULP energy -297468.736822 kJ/mol
# GULP energy per Si atom -12394.530701 kJ/mol
# Density = 1.858213 g / cm^3
# Si number density = 18.624522 Si / 1000 Ang^3
#
#
#
# Elastic Constant Matrix: (Units=GPa)
#
#
# Indices 1 2 3 4 5 6 
#
# 1 71.0021 32.7932 73.4584 0.0000 0.0000 0.0000
# 2 32.7932 87.4322 60.9981 0.0000 0.0000 0.0000
# 3 73.4584 60.9981 157.4685 0.0000 0.0000 0.0000
# 4 0.0000 0.0000 0.0000 1.5683 0.0000 0.0000
# 5 0.0000 0.0000 0.0000 0.0000 38.4719 0.0000
# 6 0.0000 0.0000 0.0000 0.0000 0.0000 11.3357
#
#
#
# Elastic Compliance Matrix: (Units=1/GPa)
#
#
# Indices 1 2 3 4 5 6 
#
# 1 0.027443 -0.001866 -0.012079 0.000000 0.000000 0.000000
# 2 -0.001866 0.015800 -0.005250 0.000000 0.000000 0.000000
# 3 -0.012079 -0.005250 0.014019 0.000000 0.000000 0.000000
# 4 0.000000 0.000000 0.000000 0.637653 0.000000 0.000000
# 5 0.000000 0.000000 0.000000 0.000000 0.025993 0.000000
# 6 0.000000 0.000000 0.000000 0.000000 0.000000 0.088217
#
#
# Mechanical properties :
#
#
# Convention : Reuss Voigt Hill
#
# Bulk Modulus (GPa) = 52.98887 72.26691 62.62789
# Shear Modulus (GPa) = 5.85613 20.18537 13.02075
#
# Velocity S-wave (km/s) = 1.77514 3.29569 2.64695
# Velocity P-wave (km/s) = 5.71965 7.30537 6.56059
#
# Compressibility (1/GPa) = 0.01887189
#
# Stress axis : x y z
#
# Youngs Moduli (GPa) = 36.43912 63.29125 71.33119
#
# Poissons Ratio (x) = 0.11809 0.86163
# Poissons Ratio (y) = 0.06799 0.37449
# Poissons Ratio (z) = 0.44016 0.33228
#
# Static dielectric constant tensor:
#      x y z
#    x 3.395960 0.000000 0.000000 
#    y 0.000000 3.440510 0.000000 
#    z 0.000000 0.000000 3.451840 
# 
# 
# High freq. dielectric constant tensor:
#      x y z
#    x 1.698670 0.000000 0.000000 
#    y 0.000000 1.712460 0.000000 
#    z 0.000000 0.000000 1.717310 
# 
# From -- ./inp_files/26909.got.cif
#   From: 2010.03.12/outbox.cif.g09.slc.cpg/sg44_14_cif.got.tgz:26909.got - 2010.04.14 02:36:11.
