data_PCOD8189171
_publ_section_title
;
Structure prediction by ZEFSAII (Michael W. Deem and Ramdas Pophale) SiO2 
 PCOD8189171
Probable space group: I M M 2
;
_chemical_formula_sum "Si O2"
_cell_formula_units_Z 56
_cell_length_a 17.053673
_cell_length_b 8.615423
_cell_length_c 19.956362
_cell_angle_alpha 90.000000
_cell_angle_beta 90.000000
_cell_angle_gamma 90.000000
_cell_volume 2932.080636
_symmetry_space_group_name_H-M "I M M 2"
_symmetry_group_IT_number 44
_symmetry_cell_setting 'orthorhombic'
loop_
_space_group_symop_operation_xyz
x,y,z
-x,-y,z
-x,y,z
x,-y,z
1/2+x,1/2+y,1/2+z
1/2-x,1/2-y,1/2+z
1/2-x,1/2+y,1/2+z
1/2+x,1/2-y,1/2+z
loop_
_atom_site_type_symbol
_atom_site_label
_atom_site_fract_x
_atom_site_fract_y
_atom_site_fract_z
Si Si1 0.659130 0.684064 0.447440
Si Si2 0.774595 0.317114 0.332065
Si Si3 0.000000 0.683586 0.004128
Si Si4 0.912826 0.823196 0.413059
Si Si5 0.659326 0.316113 0.703101
Si Si6 0.917267 0.683671 0.557713
Si Si7 0.250693 0.815718 0.076370
Si Si8 0.000000 0.683447 0.159686
O O1 0.647865 0.500000 0.449862
O O2 0.698519 0.735981 0.376324
O O3 0.575090 0.760255 0.461527
O O4 0.719600 0.742362 0.504528
O O5 0.772271 0.500000 0.323776
O O6 0.855984 0.267387 0.364330
O O7 0.778266 0.238821 0.259132
O O8 0.000000 0.747134 0.081708
O O9 0.000000 0.500000 0.005652
O O10 0.912968 0.730681 0.481308
O O11 0.000000 0.821816 0.381397
O O12 0.884125 0.000000 0.423657
O O13 0.651218 0.500000 0.707493
O O14 0.694097 0.253592 0.633395
O O15 0.573287 0.242067 0.703801
O O16 0.917383 0.500000 0.562115
O O17 0.838509 0.749796 0.592177
O O18 0.000000 0.747467 0.589268
O O19 0.252658 0.000000 0.076728
O O20 0.000000 0.500000 0.157707
#
# Coordination Sequence:
#
# PCOD8189171 Si02
#       8
#     8   8   4   8   8   8   8   4
#     4  10  20  38  62  85 113 153 198 239 290 359
#     4  11  23  39  58  81 112 152 195 236 285 349
#     4  11  23  37  61  95 123 146 191 258 309 347
#     4  10  20  32  48  76 112 145 178 216 265 322
#     4  11  23  38  58  81 116 155 193 239 294 358
#     4   9  16  30  54  81 107 138 182 228 271 326
#     4   9  17  33  56  83 109 144 189 233 284 346
#     4  11  23  39  57  87 125 156 195 242 301 365
#
# _framework density 19.099065
#
# number of rings (size 3 to 8) (size 9 to 14) (size 15 to 20)
#    0.000    1.857    2.857    1.714    1.000    2.571 
#    0.000    1.429    1.571    0.000    0.000    0.000 
#    0.000    0.000    0.000    0.000    0.000    0.000 
#
# Total GULP energy -346921.703981 kJ/mol
# GULP energy per Si atom -12390.060856 kJ/mol
# Density = 1.905559 g / cm^3
# Si number density = 19.099065 Si / 1000 Ang^3
#
#
#
# Elastic Constant Matrix: (Units=GPa)
#
#
# Indices 1 2 3 4 5 6 
#
# 1 140.2731 28.3502 44.4116 0.0000 0.0000 0.0000
# 2 28.3502 45.3867 25.6050 0.0000 0.0000 0.0000
# 3 44.4116 25.6050 90.5319 0.0000 0.0000 0.0000
# 4 0.0000 0.0000 0.0000 18.3724 0.0000 0.0000
# 5 0.0000 0.0000 0.0000 0.0000 29.9905 0.0000
# 6 0.0000 0.0000 0.0000 0.0000 0.0000 22.0791
#
#
#
# Elastic Compliance Matrix: (Units=1/GPa)
#
#
# Indices 1 2 3 4 5 6 
#
# 1 0.008932 -0.003697 -0.003336 0.000000 0.000000 0.000000
# 2 -0.003697 0.027746 -0.006034 0.000000 0.000000 0.000000
# 3 -0.003336 -0.006034 0.014389 0.000000 0.000000 0.000000
# 4 0.000000 0.000000 0.000000 0.054430 0.000000 0.000000
# 5 0.000000 0.000000 0.000000 0.000000 0.033344 0.000000
# 6 0.000000 0.000000 0.000000 0.000000 0.000000 0.045292
#
#
# Mechanical properties :
#
#
# Convention : Reuss Voigt Hill
#
# Bulk Modulus (GPa) = 40.10717 52.54726 46.32722
# Shear Modulus (GPa) = 22.87509 25.94340 24.40924
#
# Velocity S-wave (km/s) = 3.46455 3.68959 3.57884
# Velocity P-wave (km/s) = 6.08681 6.76192 6.43322
#
# Compressibility (1/GPa) = 0.02493320
#
# Stress axis : x y z
#
# Youngs Moduli (GPa) = 111.95082 36.04087 69.49791
#
# Poissons Ratio (x) = 0.13326 0.23186
# Poissons Ratio (y) = 0.41393 0.41932
# Poissons Ratio (z) = 0.37349 0.21746
#
# Static dielectric constant tensor:
#      x y z
#    x 4.055710 0.000000 0.000000 
#    y 0.000000 3.413340 0.000000 
#    z 0.000000 0.000000 3.515080 
# 
# 
# High freq. dielectric constant tensor:
#      x y z
#    x 1.756240 0.000000 0.000000 
#    y 0.000000 1.730500 0.000000 
#    z 0.000000 0.000000 1.719390 
# 
# From -- ./inp_files/24183.got.cif
#   From: 2010.03.12/outbox.cif.g09.slc.cpg/sg44_13_cif.got.tgz:24183.got - 2010.04.14 02:36:11.
