data_PCOD8189423
_publ_section_title
;
Structure prediction by ZEFSAII (Michael W. Deem and Ramdas Pophale) SiO2 
 PCOD8189423
Probable space group: I M M 2
;
_chemical_formula_sum "Si O2"
_cell_formula_units_Z 56
_cell_length_a 8.590618
_cell_length_b 14.283912
_cell_length_c 22.651159
_cell_angle_alpha 90.000000
_cell_angle_beta 90.000000
_cell_angle_gamma 90.000000
_cell_volume 2779.470072
_symmetry_space_group_name_H-M "I M M 2"
_symmetry_group_IT_number 44
_symmetry_cell_setting 'orthorhombic'
loop_
_space_group_symop_operation_xyz
x,y,z
-x,-y,z
-x,y,z
x,-y,z
1/2+x,1/2+y,1/2+z
1/2-x,1/2-y,1/2+z
1/2-x,1/2+y,1/2+z
1/2+x,1/2-y,1/2+z
loop_
_atom_site_type_symbol
_atom_site_label
_atom_site_fract_x
_atom_site_fract_y
_atom_site_fract_z
Si Si1 0.822451 0.392573 0.992820
Si Si2 0.181675 0.106507 0.615677
Si Si3 0.318561 0.294740 0.881711
Si Si4 0.818869 0.391919 0.769387
Si Si5 0.178315 0.608512 0.556411
Si Si6 0.816745 0.399129 0.424070
Si Si7 0.179872 0.785485 0.161420
O O1 0.796499 0.500000 0.976002
O O2 0.778939 0.336105 0.934995
O O3 0.000000 0.371925 0.010734
O O4 0.715308 0.363994 0.048055
O O5 0.272220 0.175956 0.659872
O O6 0.000000 0.115853 0.628004
O O7 0.239934 0.000000 0.627061
O O8 0.500000 0.308693 0.895205
O O9 0.278475 0.342887 0.820578
O O10 0.273642 0.183941 0.878691
O O11 0.767814 0.500000 0.764372
O O12 0.783742 0.340270 0.708537
O O13 0.000000 0.383273 0.784419
O O14 0.190955 0.500000 0.574153
O O15 0.242422 0.624856 0.490120
O O16 0.289430 0.669127 0.597889
O O17 0.000000 0.643057 0.563766
O O18 0.747008 0.500000 0.402643
O O19 0.000000 0.410426 0.429681
O O20 0.000000 0.794068 0.178967
#
# Coordination Sequence:
#
# PCOD8189423 Si02
#       7
#     8   8   8   8   8   8   8
#     4  10  20  34  54  83 119 154 186 226 280 338
#     4  10  21  38  60  85 114 149 189 232 277 331
#     4  11  21  34  57  85 112 147 190 236 285 337
#     4  11  25  44  62  79 106 147 191 235 283 337
#     4   9  17  32  56  84 115 152 190 227 272 331
#     4   8  16  32  54  81 112 145 181 220 266 324
#     4  12  24  37  57  84 114 147 184 232 287 342
#
# _framework density 20.147725000000001
#
# number of rings (size 3 to 8) (size 9 to 14) (size 15 to 20)
#    0.000    1.857    0.000    5.571    0.000    7.714 
#    0.000    1.429    0.000    6.000    0.000    0.000 
#    0.000    0.000    0.000    0.000    0.000    0.000 
#
# Total GULP energy -347224.304778 kJ/mol
# GULP energy per Si atom -12400.868028 kJ/mol
# Density = 2.010187 g / cm^3
# Si number density = 20.147725 Si / 1000 Ang^3
#
#
#
# Elastic Constant Matrix: (Units=GPa)
#
#
# Indices 1 2 3 4 5 6 
#
# 1 53.9058 24.4741 7.4138 0.0000 0.0000 0.0000
# 2 24.4741 128.7298 58.8099 0.0000 0.0000 0.0000
# 3 7.4138 58.8099 61.9165 0.0000 0.0000 0.0000
# 4 0.0000 0.0000 0.0000 35.6506 0.0000 0.0000
# 5 0.0000 0.0000 0.0000 0.0000 29.2982 0.0000
# 6 0.0000 0.0000 0.0000 0.0000 0.0000 26.4460
#
#
#
# Elastic Compliance Matrix: (Units=1/GPa)
#
#
# Indices 1 2 3 4 5 6 
#
# 1 0.020472 -0.004897 0.002200 0.000000 0.000000 0.000000
# 2 -0.004897 0.014894 -0.013561 0.000000 0.000000 0.000000
# 3 0.002200 -0.013561 0.028768 0.000000 0.000000 0.000000
# 4 0.000000 0.000000 0.000000 0.028050 0.000000 0.000000
# 5 0.000000 0.000000 0.000000 0.000000 0.034132 0.000000
# 6 0.000000 0.000000 0.000000 0.000000 0.000000 0.037813
#
#
# Mechanical properties :
#
#
# Convention : Reuss Voigt Hill
#
# Bulk Modulus (GPa) = 31.62716 47.32751 39.47733
# Shear Modulus (GPa) = 24.13320 28.53592 26.33456
#
# Velocity S-wave (km/s) = 3.46470 3.76750 3.61927
# Velocity P-wave (km/s) = 5.63358 6.51665 6.09114
#
# Compressibility (1/GPa) = 0.03161840
#
# Stress axis : x y z
#
# Youngs Moduli (GPa) = 48.84787 67.13898 34.76126
#
# Poissons Ratio (x) = 0.32880 -0.07649
# Poissons Ratio (y) = 0.23922 0.47139
# Poissons Ratio (z) = -0.10748 0.91046
#
# Static dielectric constant tensor:
#      x y z
#    x 3.464790 0.000000 0.000000 
#    y 0.000000 4.118860 0.000000 
#    z 0.000000 0.000000 3.424080 
# 
# 
# High freq. dielectric constant tensor:
#      x y z
#    x 1.774790 0.000000 0.000000 
#    y 0.000000 1.807100 0.000000 
#    z 0.000000 0.000000 1.762910 
# 
# From -- ./inp_files/23050.got.cif
#   From: 2010.03.12/outbox.cif.g09.slc.cpg/sg44_12_cif.got.tgz:23050.got - 2010.04.14 02:36:11.
