data_PCOD8189267
_publ_section_title
;
Structure prediction by ZEFSAII (Michael W. Deem and Ramdas Pophale) SiO2 
 PCOD8189267
Probable space group: I M M 2
;
_chemical_formula_sum "Si O2"
_cell_formula_units_Z 56
_cell_length_a 13.631519
_cell_length_b 14.816773
_cell_length_c 15.414817
_cell_angle_alpha 90.000000
_cell_angle_beta 90.000000
_cell_angle_gamma 90.000000
_cell_volume 3113.409554
_symmetry_space_group_name_H-M "I M M 2"
_symmetry_group_IT_number 44
_symmetry_cell_setting 'orthorhombic'
loop_
_space_group_symop_operation_xyz
x,y,z
-x,-y,z
-x,y,z
x,-y,z
1/2+x,1/2+y,1/2+z
1/2-x,1/2-y,1/2+z
1/2-x,1/2+y,1/2+z
1/2+x,1/2-y,1/2+z
loop_
_atom_site_type_symbol
_atom_site_label
_atom_site_fract_x
_atom_site_fract_y
_atom_site_fract_z
Si Si1 0.112924 0.897967 0.113000
Si Si2 0.387586 0.724064 0.762518
Si Si3 0.736684 0.604500 0.443013
Si Si4 0.390093 0.606691 0.281175
Si Si5 0.615569 0.258765 0.951883
Si Si6 0.810046 0.103778 0.593689
Si Si7 0.891078 0.600764 0.164747
O O1 0.163927 0.834855 0.186768
O O2 0.000000 0.872004 0.098705
O O3 0.125848 0.000000 0.145406
O O4 0.162156 0.881592 0.021335
O O5 0.500000 0.694341 0.760527
O O6 0.347502 0.703157 0.858527
O O7 0.375005 0.830897 0.744229
O O8 0.768237 0.500000 0.432969
O O9 0.681932 0.642208 0.356837
O O10 0.832023 0.663092 0.466950
O O11 0.500000 0.647292 0.291744
O O12 0.395756 0.500000 0.288820
O O13 0.347226 0.635735 0.188071
O O14 0.500000 0.239561 0.952509
O O15 0.641573 0.333445 0.022374
O O16 0.691470 0.115269 0.590840
O O17 0.840802 0.000000 0.575460
O O18 0.879092 0.500000 0.204339
O O19 0.000000 0.613944 0.123301
#
# Coordination Sequence:
#
# PCOD8189267 Si02
#       7
#     8   8   8   8   8   8   8
#     4   9  17  31  52  76 100 125 155 197 248 297
#     4   9  18  31  47  69  98 130 162 197 238 287
#     4  10  20  33  51  75 100 128 163 203 250 300
#     4   9  17  31  52  77 103 129 161 206 256 301
#     4  11  23  35  48  70 100 135 173 207 242 293
#     4  10  20  34  53  76 102 133 167 204 249 299
#     4   9  17  31  53  78 101 127 161 205 257 304
#
# _framework density 17.986711
#
# number of rings (size 3 to 8) (size 9 to 14) (size 15 to 20)
#    0.000    2.429    0.000    2.571    0.000    5.143 
#    0.000    3.571    0.000    0.000    0.000    1.000 
#    0.000    2.286    0.000    0.000    0.000    0.429 
#
# Total GULP energy -347054.721652 kJ/mol
# GULP energy per Si atom -12394.811488 kJ/mol
# Density = 1.794577 g / cm^3
# Si number density = 17.986711 Si / 1000 Ang^3
#
#
#
# Elastic Constant Matrix: (Units=GPa)
#
#
# Indices 1 2 3 4 5 6 
#
# 1 96.6942 42.4505 38.9132 0.0000 0.0000 0.0000
# 2 42.4505 86.6058 65.5878 0.0000 0.0000 0.0000
# 3 38.9132 65.5878 121.6187 0.0000 0.0000 0.0000
# 4 0.0000 0.0000 0.0000 25.8707 0.0000 0.0000
# 5 0.0000 0.0000 0.0000 0.0000 20.0272 0.0000
# 6 0.0000 0.0000 0.0000 0.0000 0.0000 23.5620
#
#
#
# Elastic Compliance Matrix: (Units=1/GPa)
#
#
# Indices 1 2 3 4 5 6 
#
# 1 0.013289 -0.005567 -0.001249 0.000000 0.000000 0.000000
# 2 -0.005567 0.021850 -0.010002 0.000000 0.000000 0.000000
# 3 -0.001249 -0.010002 0.014016 0.000000 0.000000 0.000000
# 4 0.000000 0.000000 0.000000 0.038654 0.000000 0.000000
# 5 0.000000 0.000000 0.000000 0.000000 0.049932 0.000000
# 6 0.000000 0.000000 0.000000 0.000000 0.000000 0.042441
#
#
# Mechanical properties :
#
#
# Convention : Reuss Voigt Hill
#
# Bulk Modulus (GPa) = 64.44463 66.53574 65.49018
# Shear Modulus (GPa) = 22.83168 24.42311 23.62740
#
# Velocity S-wave (km/s) = 3.56668 3.68889 3.62830
# Velocity P-wave (km/s) = 7.27107 7.43073 7.35133
#
# Compressibility (1/GPa) = 0.01551720
#
# Stress axis : x y z
#
# Youngs Moduli (GPa) = 75.25065 45.76567 71.34515
#
# Poissons Ratio (x) = 0.25480 0.08914
# Poissons Ratio (y) = 0.41895 0.71362
# Poissons Ratio (z) = 0.09402 0.45776
#
# Static dielectric constant tensor:
#      x y z
#    x 3.448530 0.000000 0.000000 
#    y 0.000000 3.276020 0.000000 
#    z 0.000000 0.000000 3.385980 
# 
# 
# High freq. dielectric constant tensor:
#      x y z
#    x 1.693780 0.000000 0.000000 
#    y 0.000000 1.681050 0.000000 
#    z 0.000000 0.000000 1.689080 
# 
# From -- ./inp_files/13229.got.cif
#   From: 2010.03.12/outbox.cif.g09.slc.cpg/sg44_7_cif.got.tgz:13229.got - 2010.04.14 02:36:11.
