data_PCOD8189081
_publ_section_title
;
Structure prediction by ZEFSAII (Michael W. Deem and Ramdas Pophale) SiO2 
 PCOD8189081
Probable space group: I M M 2
;
_chemical_formula_sum "Si O2"
_cell_formula_units_Z 56
_cell_length_a 18.411094
_cell_length_b 8.834770
_cell_length_c 16.960498
_cell_angle_alpha 90.000000
_cell_angle_beta 90.000000
_cell_angle_gamma 90.000000
_cell_volume 2758.756968
_symmetry_space_group_name_H-M "I M M 2"
_symmetry_group_IT_number 44
_symmetry_cell_setting 'orthorhombic'
loop_
_space_group_symop_operation_xyz
x,y,z
-x,-y,z
-x,y,z
x,-y,z
1/2+x,1/2+y,1/2+z
1/2-x,1/2-y,1/2+z
1/2-x,1/2+y,1/2+z
1/2+x,1/2-y,1/2+z
loop_
_atom_site_type_symbol
_atom_site_label
_atom_site_fract_x
_atom_site_fract_y
_atom_site_fract_z
Si Si1 0.312987 0.177983 0.200340
Si Si2 0.583663 0.324984 0.899604
Si Si3 0.580585 0.820251 0.613926
Si Si4 0.917230 0.177904 0.812327
Si Si5 0.309665 0.327567 0.033903
Si Si6 0.671709 0.821013 0.761622
Si Si7 0.160052 0.323891 0.957363
O O1 0.389135 0.243178 0.232324
O O2 0.303494 0.220385 0.109108
O O3 0.250198 0.244183 0.256702
O O4 0.312277 0.000000 0.209137
O O5 0.500000 0.272493 0.899702
O O6 0.591419 0.500000 0.874712
O O7 0.629203 0.222683 0.840246
O O8 0.615043 0.300339 0.987717
O O9 0.500000 0.751326 0.619159
O O10 0.626022 0.758509 0.687516
O O11 0.616877 0.764608 0.533569
O O12 0.578515 0.000000 0.616740
O O13 0.866480 0.226335 0.884374
O O14 0.000000 0.229692 0.827666
O O15 0.911861 0.000000 0.800419
O O16 0.302573 0.500000 0.064605
O O17 0.245073 0.293363 0.972159
O O18 0.682191 0.000000 0.758993
O O19 0.144394 0.500000 0.940101
#
# Coordination Sequence:
#
# PCOD8189081 Si02
#       7
#     8   8   8   8   8   8   8
#     4  12  25  41  64  92 122 159 205 257 309 365
#     4  10  22  39  60  90 128 167 207 254 308 364
#     4   9  17  30  53  86 121 159 200 243 295 354
#     4  11  25  43  63  90 125 163 204 252 306 363
#     4  10  21  40  63  88 121 164 209 251 305 367
#     4  11  21  38  62  89 123 162 206 254 304 367
#     4  10  19  36  62  89 122 162 205 251 300 363
#
# _framework density 20.298997
#
# number of rings (size 3 to 8) (size 9 to 14) (size 15 to 20)
#    0.000    1.571    1.429    3.857    0.000    5.429 
#    0.000    1.429    0.000    2.571    0.000    0.000 
#    0.000    0.000    0.000    0.000    0.000    0.000 
#
# Total GULP energy -347324.252855 kJ/mol
# GULP energy per Si atom -12404.437602 kJ/mol
# Density = 2.025280 g / cm^3
# Si number density = 20.298997 Si / 1000 Ang^3
#
#
#
# Elastic Constant Matrix: (Units=GPa)
#
#
# Indices 1 2 3 4 5 6 
#
# 1 114.6693 49.7272 52.0069 0.0000 0.0000 0.0000
# 2 49.7272 90.5470 39.1480 0.0000 0.0000 0.0000
# 3 52.0069 39.1480 83.8173 0.0000 0.0000 0.0000
# 4 0.0000 0.0000 0.0000 36.1680 0.0000 0.0000
# 5 0.0000 0.0000 0.0000 0.0000 31.1404 0.0000
# 6 0.0000 0.0000 0.0000 0.0000 0.0000 26.0122
#
#
#
# Elastic Compliance Matrix: (Units=1/GPa)
#
#
# Indices 1 2 3 4 5 6 
#
# 1 0.013615 -0.004793 -0.006210 0.000000 0.000000 0.000000
# 2 -0.004793 0.015525 -0.004278 0.000000 0.000000 0.000000
# 3 -0.006210 -0.004278 0.017782 0.000000 0.000000 0.000000
# 4 0.000000 0.000000 0.000000 0.027649 0.000000 0.000000
# 5 0.000000 0.000000 0.000000 0.000000 0.032113 0.000000
# 6 0.000000 0.000000 0.000000 0.000000 0.000000 0.038444
#
#
# Mechanical properties :
#
#
# Convention : Reuss Voigt Hill
#
# Bulk Modulus (GPa) = 61.11480 63.42198 62.26839
# Shear Modulus (GPa) = 27.60276 28.54089 28.07183
#
# Velocity S-wave (km/s) = 3.69156 3.75377 3.72279
# Velocity P-wave (km/s) = 6.95290 7.07809 7.01578
#
# Compressibility (1/GPa) = 0.01636265
#
# Stress axis : x y z
#
# Youngs Moduli (GPa) = 73.44636 64.41022 56.23811
#
# Poissons Ratio (x) = 0.30870 0.34921
# Poissons Ratio (y) = 0.35200 0.24057
# Poissons Ratio (z) = 0.45607 0.27552
#
# Static dielectric constant tensor:
#      x y z
#    x 3.985720 0.000000 0.000000 
#    y 0.000000 3.432790 0.000000 
#    z 0.000000 0.000000 3.645930 
# 
# 
# High freq. dielectric constant tensor:
#      x y z
#    x 1.806500 0.000000 0.000000 
#    y 0.000000 1.772750 0.000000 
#    z 0.000000 0.000000 1.798530 
# 
# From -- ./inp_files/19190.got.cif
#   From: 2010.03.12/outbox.cif.g09.slc.cpg/sg44_10_cif.got.tgz:19190.got - 2010.04.14 02:36:11.
