data_PCOD8189425
_publ_section_title
;
Structure prediction by ZEFSAII (Michael W. Deem and Ramdas Pophale) SiO2 
 PCOD8189425
Probable space group: I M M 2
;
_chemical_formula_sum "Si O2"
_cell_formula_units_Z 64
_cell_length_a 14.369974
_cell_length_b 23.297870
_cell_length_c 9.712055
_cell_angle_alpha 90.000000
_cell_angle_beta 90.000000
_cell_angle_gamma 90.000000
_cell_volume 3251.496817
_symmetry_space_group_name_H-M "I M M 2"
_symmetry_group_IT_number 44
_symmetry_cell_setting 'orthorhombic'
loop_
_space_group_symop_operation_xyz
x,y,z
-x,-y,z
-x,y,z
x,-y,z
1/2+x,1/2+y,1/2+z
1/2-x,1/2-y,1/2+z
1/2-x,1/2+y,1/2+z
1/2+x,1/2-y,1/2+z
loop_
_atom_site_type_symbol
_atom_site_label
_atom_site_fract_x
_atom_site_fract_y
_atom_site_fract_z
Si Si1 0.103830 0.934942 0.564140
Si Si2 0.891866 0.105852 0.270999
Si Si3 0.395261 0.172934 0.827981
Si Si4 0.250474 0.936014 0.085390
Si Si5 0.786167 0.115798 0.801401
Si Si6 0.889333 0.232541 0.832084
Si Si7 0.894249 0.337977 0.641412
Si Si8 0.109685 0.223954 0.144469
O O1 0.124703 0.893311 0.435138
O O2 0.178347 0.927039 0.684700
O O3 0.000000 0.922308 0.621668
O O4 0.110631 0.000000 0.510152
O O5 0.829148 0.056977 0.201281
O O6 0.851150 0.164066 0.201734
O O7 0.000000 0.094910 0.237637
O O8 0.500000 0.155533 0.783378
O O9 0.326055 0.121230 0.788889
O O10 0.355155 0.227274 0.746979
O O11 0.390601 0.188966 0.988789
O O12 0.333280 0.895794 0.143692
O O13 0.290282 0.000000 0.055045
O O14 0.196852 0.910592 0.951966
O O15 0.839153 0.175800 0.776122
O O16 0.857030 0.288874 0.746392
O O17 0.000000 0.224086 0.817839
O O18 0.856961 0.239108 0.990621
O O19 0.000000 0.355063 0.680844
O O20 0.000000 0.220221 0.151128
#
# Coordination Sequence:
#
# PCOD8189425 Si02
#       8
#     8   8   8   8   8   8   8   8
#     4  10  22  39  57  82 116 154 195 237 289 353
#     4  10  21  37  57  82 116 152 189 232 283 352
#     4   9  20  36  54  80 114 152 191 234 286 346
#     4  11  23  39  59  84 115 157 208 249 288 349
#     4  11  22  35  58  85 117 153 192 246 297 352
#     4  10  20  34  54  85 122 151 186 237 299 359
#     4   9  21  39  58  84 117 152 195 247 298 346
#     4   9  18  34  54  79 113 149 184 224 281 350
#
# _framework density 19.683242
#
# number of rings (size 3 to 8) (size 9 to 14) (size 15 to 20)
#    0.000    2.125    1.250    1.125    3.500    2.500 
#    0.000    0.000    0.000    1.125    0.000    0.000 
#    0.000    5.000    0.000    0.000    0.000    0.000 
#
# Total GULP energy -396707.077932 kJ/mol
# GULP energy per Si atom -12397.096185 kJ/mol
# Density = 1.963844 g / cm^3
# Si number density = 19.683242 Si / 1000 Ang^3
#
#
#
# Elastic Constant Matrix: (Units=GPa)
#
#
# Indices 1 2 3 4 5 6 
#
# 1 76.7410 38.6248 44.6324 0.0000 -0.0001 0.0000
# 2 38.6248 95.9877 45.3724 0.0004 -0.0001 -0.0001
# 3 44.6324 45.3724 102.9683 0.0006 0.0005 -0.0001
# 4 0.0000 0.0004 0.0006 29.0200 0.0000 -0.0001
# 5 -0.0001 -0.0001 0.0005 0.0000 27.4445 -0.0001
# 6 0.0000 -0.0001 -0.0001 -0.0001 -0.0001 26.0899
#
#
#
# Elastic Compliance Matrix: (Units=1/GPa)
#
#
# Indices 1 2 3 4 5 6 
#
# 1 0.018988 -0.004737 -0.006143 0.000000 0.000000 0.000000
# 2 -0.004737 0.014340 -0.004266 0.000000 0.000000 0.000000
# 3 -0.006143 -0.004266 0.014254 0.000000 0.000000 0.000000
# 4 0.000000 0.000000 0.000000 0.034459 0.000000 0.000000
# 5 0.000000 0.000000 0.000000 0.000000 0.036437 0.000000
# 6 0.000000 0.000000 0.000000 0.000000 0.000000 0.038329
#
#
# Mechanical properties :
#
#
# Convention : Reuss Voigt Hill
#
# Bulk Modulus (GPa) = 57.83380 59.21738 58.52559
# Shear Modulus (GPa) = 25.92515 26.31537 26.12026
#
# Velocity S-wave (km/s) = 3.63315 3.66039 3.64679
# Velocity P-wave (km/s) = 6.85899 6.92929 6.89423
#
# Compressibility (1/GPa) = 0.01729093
#
# Stress axis : x y z
#
# Youngs Moduli (GPa) = 52.66546 69.73270 70.15438
#
# Poissons Ratio (x) = 0.33031 0.43097
# Poissons Ratio (y) = 0.24946 0.29927
# Poissons Ratio (z) = 0.32353 0.29747
#
# Static dielectric constant tensor:
#      x y z
#    x 3.570590 0.000000 0.000000 
#    y 0.000000 3.485530 0.000000 
#    z 0.000000 0.000000 3.636080 
# 
# 
# High freq. dielectric constant tensor:
#      x y z
#    x 1.767010 0.000000 0.000000 
#    y 0.000000 1.751640 0.000000 
#    z 0.000000 0.000000 1.767230 
# 
# From -- ./inp_files/7538.got.cif
#   From: 2010.03.12/outbox.cif.g09.slc.cpg/sg44_4_cif.got.tgz:7538.got - 2010.04.14 02:36:11.
