data_PCOD8189960
_publ_section_title
;
Structure prediction by ZEFSAII (Michael W. Deem and Ramdas Pophale) SiO2 
 PCOD8189960
Probable space group: I M M 2
;
_chemical_formula_sum "Si O2"
_cell_formula_units_Z 48
_cell_length_a 8.831743
_cell_length_b 29.082673
_cell_length_c 10.042068
_cell_angle_alpha 90.000000
_cell_angle_beta 90.000000
_cell_angle_gamma 90.000000
_cell_volume 2579.312132
_symmetry_space_group_name_H-M "I M M 2"
_symmetry_group_IT_number 44
_symmetry_cell_setting 'orthorhombic'
loop_
_space_group_symop_operation_xyz
x,y,z
-x,-y,z
-x,y,z
x,-y,z
1/2+x,1/2+y,1/2+z
1/2-x,1/2-y,1/2+z
1/2-x,1/2+y,1/2+z
1/2+x,1/2-y,1/2+z
loop_
_atom_site_type_symbol
_atom_site_label
_atom_site_fract_x
_atom_site_fract_y
_atom_site_fract_z
Si Si1 0.327053 0.218559 0.079430
Si Si2 0.321148 0.382683 0.876400
Si Si3 0.174784 0.553976 0.092712
Si Si4 0.823194 0.286878 0.882100
Si Si5 0.325422 0.446019 0.367783
Si Si6 0.175121 0.387046 0.594626
O O1 0.500000 0.233698 0.053866
O O2 0.279693 0.228370 0.232242
O O3 0.303848 0.165129 0.045442
O O4 0.217017 0.246552 0.983487
O O5 0.500000 0.382964 0.876160
O O6 0.264711 0.332780 0.923820
O O7 0.262421 0.395585 0.731031
O O8 0.261971 0.421224 0.975263
O O9 0.195815 0.500000 0.070546
O O10 0.247532 0.569788 0.231464
O O11 0.000000 0.568581 0.092986
O O12 0.000000 0.298333 0.888692
O O13 0.500000 0.431201 0.363437
O O14 0.306256 0.500000 0.391010
O O15 0.241822 0.421002 0.486784
O O16 0.000000 0.398401 0.619191
#
# Coordination Sequence:
#
# PCOD8189960 Si02
#       6
#     8   8   8   8   8   8
#     4   9  20  37  55  79 109 141 180 224 270 321
#     4  11  22  37  58  82 111 145 183 229 277 326
#     4  10  21  38  59  82 110 145 184 226 274 328
#     4  10  21  37  57  81 110 143 181 224 271 327
#     4  10  21  37  57  83 114 146 183 227 273 323
#     4  10  21  38  58  81 112 147 185 228 273 326
#
# _framework density 18.609613
#
# number of rings (size 3 to 8) (size 9 to 14) (size 15 to 20)
#    0.000    2.000    0.000    4.500    0.000    8.000 
#    0.000    3.333    0.000    0.000    0.000    0.000 
#    0.000    0.000    0.000    0.000    0.000    0.000 
#
# Total GULP energy -297714.450550 kJ/mol
# GULP energy per Si atom -12404.768773 kJ/mol
# Density = 1.856726 g / cm^3
# Si number density = 18.609613 Si / 1000 Ang^3
#
#
#
# Elastic Constant Matrix: (Units=GPa)
#
#
# Indices 1 2 3 4 5 6 
#
# 1 149.2534 50.9607 64.2743 0.0002 0.0000 0.0000
# 2 50.9607 56.5643 54.5149 0.0010 0.0000 0.0005
# 3 64.2743 54.5149 105.4258 0.0027 0.0006 0.0018
# 4 0.0002 0.0010 0.0027 41.1930 0.0000 0.0010
# 5 0.0000 0.0000 0.0006 0.0000 39.5984 0.0006
# 6 0.0000 0.0005 0.0018 0.0010 0.0006 39.0742
#
#
#
# Elastic Compliance Matrix: (Units=1/GPa)
#
#
# Indices 1 2 3 4 5 6 
#
# 1 0.010101 -0.006310 -0.002896 0.000000 0.000000 0.000000
# 2 -0.006310 0.039184 -0.016415 0.000000 0.000000 0.000000
# 3 -0.002896 -0.016415 0.019739 -0.000001 0.000000 -0.000001
# 4 0.000000 0.000000 -0.000001 0.024276 0.000000 -0.000001
# 5 0.000000 0.000000 0.000000 0.000000 0.025254 0.000000
# 6 0.000000 0.000000 -0.000001 -0.000001 0.000000 0.025592
#
#
# Mechanical properties :
#
#
# Convention : Reuss Voigt Hill
#
# Bulk Modulus (GPa) = 56.23269 72.30481 64.26875
# Shear Modulus (GPa) = 24.83682 33.40603 29.12142
#
# Velocity S-wave (km/s) = 3.65721 4.24145 3.96012
# Velocity P-wave (km/s) = 6.93659 7.93249 7.45119
#
# Compressibility (1/GPa) = 0.01778325
#
# Stress axis : x y z
#
# Youngs Moduli (GPa) = 98.99555 25.52076 50.66218
#
# Poissons Ratio (x) = 0.16104 0.14670
# Poissons Ratio (y) = 0.62466 0.83160
# Poissons Ratio (z) = 0.28665 0.41891
#
# Static dielectric constant tensor:
#      x y z
#    x 3.586470 0.000000 0.000000 
#    y 0.000000 3.342650 0.000000 
#    z 0.000000 0.000000 3.447410 
# 
# 
# High freq. dielectric constant tensor:
#      x y z
#    x 1.739080 0.000000 0.000000 
#    y 0.000000 1.719510 0.000000 
#    z 0.000000 0.000000 1.729270 
# 
# From -- ./inp_files/4874.got.cif
#   From: 2010.03.12/outbox.cif.g09.slc.cpg/sg44_3_cif.got.tgz:4874.got - 2010.04.14 02:36:11.
