data_PCOD8189103
_publ_section_title
;
Structure prediction by ZEFSAII (Michael W. Deem and Ramdas Pophale) SiO2 
 PCOD8189103
Probable space group: I M M 2
;
_chemical_formula_sum "Si O2"
_cell_formula_units_Z 64
_cell_length_a 9.448827
_cell_length_b 18.344160
_cell_length_c 26.031524
_cell_angle_alpha 90.000000
_cell_angle_beta 90.000000
_cell_angle_gamma 90.000000
_cell_volume 4512.064732
_symmetry_space_group_name_H-M "I M M 2"
_symmetry_group_IT_number 44
_symmetry_cell_setting 'orthorhombic'
loop_
_space_group_symop_operation_xyz
x,y,z
-x,-y,z
-x,y,z
x,-y,z
1/2+x,1/2+y,1/2+z
1/2-x,1/2-y,1/2+z
1/2-x,1/2+y,1/2+z
1/2+x,1/2-y,1/2+z
loop_
_atom_site_type_symbol
_atom_site_label
_atom_site_fract_x
_atom_site_fract_y
_atom_site_fract_z
Si Si1 0.166208 0.917224 0.866070
Si Si2 0.166927 0.158018 0.261746
Si Si3 0.661831 0.415724 0.571303
Si Si4 0.666165 0.915403 0.171717
Si Si5 0.657740 0.284885 0.923877
Si Si6 0.168557 0.080871 0.364687
Si Si7 0.834806 0.834423 0.968591
Si Si8 0.343818 0.199343 0.817553
O O1 0.210217 0.888065 0.922298
O O2 0.237031 0.868687 0.821189
O O3 0.000000 0.912159 0.857786
O O4 0.220353 0.000000 0.861225
O O5 0.258332 0.135165 0.213118
O O6 0.220969 0.108855 0.309291
O O7 0.199605 0.243364 0.273047
O O8 0.000000 0.145823 0.251261
O O9 0.500000 0.397225 0.586870
O O10 0.675488 0.500000 0.556371
O O11 0.766477 0.394547 0.617092
O O12 0.711292 0.370566 0.521811
O O13 0.500000 0.898250 0.170148
O O14 0.695799 0.000000 0.184585
O O15 0.500000 0.289197 0.947479
O O16 0.718969 0.365775 0.910968
O O17 0.757441 0.243557 0.964203
O O18 0.654061 0.242965 0.870366
O O19 0.000000 0.081820 0.363963
O O20 0.229465 0.000000 0.374741
O O21 0.000000 0.818646 0.966566
O O22 0.500000 0.167973 0.806076
#
# Coordination Sequence:
#
# PCOD8189103 Si02
#       8
#     8   8   8   8   8   8   8   8
#     4   9  16  25  38  57  80 105 132 160 191 228
#     4   9  16  27  43  58  74 102 137 165 190 225
#     4   9  17  29  43  56  72  99 134 165 190 221
#     4  10  20  30  39  56  81 103 126 161 200 232
#     4   8  14  24  37  54  76 100 126 157 191 226
#     4   8  13  22  38  58  77 100 132 163 186 216
#     4   9  16  26  40  56  75 101 132 163 192 223
#     4   8  15  26  38  55  77 100 129 162 192 225
#
# _framework density 14.184194
#
# number of rings (size 3 to 8) (size 9 to 14) (size 15 to 20)
#    0.000    3.250    0.000    2.625    0.000    4.000 
#    0.000    1.875    0.000    3.375    0.000    0.000 
#    0.000    1.000    0.000    7.500    0.000    3.875 
#
# Total GULP energy -396632.164686 kJ/mol
# GULP energy per Si atom -12394.755146 kJ/mol
# Density = 1.415191 g / cm^3
# Si number density = 14.184194 Si / 1000 Ang^3
#
#
#
# Elastic Constant Matrix: (Units=GPa)
#
#
# Indices 1 2 3 4 5 6 
#
# 1 56.0738 45.6326 43.8227 0.0000 0.0000 0.0000
# 2 45.6326 108.3098 53.2050 0.0000 0.0000 0.0000
# 3 43.8227 53.2050 77.9928 0.0000 0.0000 0.0000
# 4 0.0000 0.0000 0.0000 25.4549 0.0000 0.0000
# 5 0.0000 0.0000 0.0000 0.0000 20.3198 0.0000
# 6 0.0000 0.0000 0.0000 0.0000 0.0000 21.7712
#
#
#
# Elastic Compliance Matrix: (Units=1/GPa)
#
#
# Indices 1 2 3 4 5 6 
#
# 1 0.035700 -0.007802 -0.014737 0.000000 0.000000 0.000000
# 2 -0.007802 0.015591 -0.006252 0.000000 0.000000 0.000000
# 3 -0.014737 -0.006252 0.025367 0.000000 0.000000 0.000000
# 4 0.000000 0.000000 0.000000 0.039285 0.000000 0.000000
# 5 0.000000 0.000000 0.000000 0.000000 0.049213 0.000000
# 6 0.000000 0.000000 0.000000 0.000000 0.000000 0.045932
#
#
# Mechanical properties :
#
#
# Convention : Reuss Voigt Hill
#
# Bulk Modulus (GPa) = 52.42082 58.63301 55.52692
# Shear Modulus (GPa) = 18.17989 20.15690 19.16840
#
# Velocity S-wave (km/s) = 3.58397 3.77381 3.68012
# Velocity P-wave (km/s) = 7.35961 7.77274 7.56900
#
# Compressibility (1/GPa) = 0.01907639
#
# Stress axis : x y z
#
# Youngs Moduli (GPa) = 28.01137 64.13941 39.42087
#
# Poissons Ratio (x) = 0.50039 0.58094
# Poissons Ratio (y) = 0.21854 0.24647
# Poissons Ratio (z) = 0.41280 0.40102
#
# Static dielectric constant tensor:
#      x y z
#    x 2.738310 0.000000 0.000000 
#    y 0.000000 2.978130 0.000000 
#    z 0.000000 0.000000 2.571080 
# 
# 
# High freq. dielectric constant tensor:
#      x y z
#    x 1.533540 0.000000 0.000000 
#    y 0.000000 1.532940 0.000000 
#    z 0.000000 0.000000 1.509050 
# 
# From -- ./inp_files/25221.got.cif
#   From: 2010.03.12/outbox.cif.g09.slc.cpg/sg44_13_cif.got.tgz:25221.got - 2010.04.14 02:36:11.
