data_PCOD8189710
_publ_section_title
;
Structure prediction by ZEFSAII (Michael W. Deem and Ramdas Pophale) SiO2 
 PCOD8189710
Probable space group: I M M 2
;
_chemical_formula_sum "Si O2"
_cell_formula_units_Z 64
_cell_length_a 14.183693
_cell_length_b 19.697240
_cell_length_c 11.590576
_cell_angle_alpha 90.000000
_cell_angle_beta 90.000000
_cell_angle_gamma 90.000000
_cell_volume 3238.170546
_symmetry_space_group_name_H-M "I M M 2"
_symmetry_group_IT_number 44
_symmetry_cell_setting 'orthorhombic'
loop_
_space_group_symop_operation_xyz
x,y,z
-x,-y,z
-x,y,z
x,-y,z
1/2+x,1/2+y,1/2+z
1/2-x,1/2-y,1/2+z
1/2-x,1/2+y,1/2+z
1/2+x,1/2-y,1/2+z
loop_
_atom_site_type_symbol
_atom_site_label
_atom_site_fract_x
_atom_site_fract_y
_atom_site_fract_z
Si Si1 0.395214 0.364177 0.967700
Si Si2 0.243840 0.831640 0.081361
Si Si3 0.725440 0.924686 0.865618
Si Si4 0.106468 0.076084 0.226273
Si Si5 0.609617 0.223787 0.249528
Si Si6 0.390151 0.921121 0.644018
Si Si7 0.300049 0.193040 0.486926
Si Si8 0.605972 0.619652 0.224674
O O1 0.500000 0.329069 0.961951
O O2 0.383410 0.417520 0.864436
O O3 0.311664 0.309176 0.955949
O O4 0.386325 0.402413 0.090651
O O5 0.174627 0.874948 0.158939
O O6 0.339051 0.818367 0.150536
O O7 0.185312 0.763049 0.055479
O O8 0.274932 0.869493 0.965601
O O9 0.643094 0.906897 0.774745
O O10 0.825841 0.926325 0.800386
O O11 0.709404 0.000000 0.917396
O O12 0.000000 0.092847 0.187956
O O13 0.134148 0.000000 0.192200
O O14 0.500000 0.213018 0.229249
O O15 0.637655 0.193913 0.372766
O O16 0.638583 0.302289 0.238064
O O17 0.500000 0.902711 0.634529
O O18 0.330716 0.872663 0.559793
O O19 0.371717 0.000000 0.610498
O O20 0.500000 0.609472 0.271568
#
# Coordination Sequence:
#
# PCOD8189710 Si02
#       8
#     8   8   8   8   8   8   8   8
#     4  10  20  36  63  95 122 152 197 253 311 369
#     4  12  24  39  63  91 125 166 207 248 301 374
#     4  11  23  40  61  89 124 165 205 249 305 368
#     4  10  23  42  62  89 125 164 205 254 309 364
#     4  11  23  40  61  90 127 162 203 261 311 358
#     4  10  23  43  65  91 122 158 206 261 310 360
#     4  12  22  40  68  91 123 161 207 255 311 365
#     4  10  20  38  60  89 126 159 199 254 313 369
#
# _framework density 19.764246
#
# number of rings (size 3 to 8) (size 9 to 14) (size 15 to 20)
#    0.000    1.250    5.000    0.750    0.000    3.250 
#    0.000    2.500    0.000    1.875    0.000    0.000 
#    0.000    0.000    0.000    0.000    0.000    0.000 
#
# Total GULP energy -396817.869291 kJ/mol
# GULP energy per Si atom -12400.558415 kJ/mol
# Density = 1.971926 g / cm^3
# Si number density = 19.764246 Si / 1000 Ang^3
#
#
#
# Elastic Constant Matrix: (Units=GPa)
#
#
# Indices 1 2 3 4 5 6 
#
# 1 110.3661 51.4962 40.7522 0.0000 0.0000 0.0000
# 2 51.4962 99.5374 55.2777 0.0000 0.0000 0.0000
# 3 40.7522 55.2777 113.2433 0.0000 0.0000 0.0000
# 4 0.0000 0.0000 0.0000 30.4093 0.0000 0.0000
# 5 0.0000 0.0000 0.0000 0.0000 22.1820 0.0000
# 6 0.0000 0.0000 0.0000 0.0000 0.0000 23.4462
#
#
#
# Elastic Compliance Matrix: (Units=1/GPa)
#
#
# Indices 1 2 3 4 5 6 
#
# 1 0.012205 -0.005316 -0.001797 0.000000 0.000000 0.000000
# 2 -0.005316 0.016098 -0.005945 0.000000 0.000000 0.000000
# 3 -0.001797 -0.005945 0.012379 0.000000 0.000000 0.000000
# 4 0.000000 0.000000 0.000000 0.032885 0.000000 0.000000
# 5 0.000000 0.000000 0.000000 0.000000 0.045082 0.000000
# 6 0.000000 0.000000 0.000000 0.000000 0.000000 0.042651
#
#
# Mechanical properties :
#
#
# Convention : Reuss Voigt Hill
#
# Bulk Modulus (GPa) = 68.65398 68.68876 68.67137
# Shear Modulus (GPa) = 26.00491 26.91556 26.46023
#
# Velocity S-wave (km/s) = 3.63127 3.69430 3.66292
# Velocity P-wave (km/s) = 7.23833 7.28194 7.26017
#
# Compressibility (1/GPa) = 0.01456580
#
# Stress axis : x y z
#
# Youngs Moduli (GPa) = 81.93477 62.11798 80.78066
#
# Poissons Ratio (x) = 0.33023 0.14517
# Poissons Ratio (y) = 0.43559 0.48024
# Poissons Ratio (z) = 0.14724 0.36929
#
# Static dielectric constant tensor:
#      x y z
#    x 3.746400 0.000000 0.000000 
#    y 0.000000 3.538610 0.000000 
#    z 0.000000 0.000000 3.652700 
# 
# 
# High freq. dielectric constant tensor:
#      x y z
#    x 1.779210 0.000000 0.000000 
#    y 0.000000 1.760310 0.000000 
#    z 0.000000 0.000000 1.775130 
# 
# From -- ./inp_files/13418.got.cif
#   From: 2010.03.12/outbox.cif.g09.slc.cpg/sg44_7_cif.got.tgz:13418.got - 2010.04.14 02:36:11.
