data_PCOD8189913
_publ_section_title
;
Structure prediction by ZEFSAII (Michael W. Deem and Ramdas Pophale) SiO2 
 PCOD8189913
Probable space group: I M M 2
;
_chemical_formula_sum "Si O2"
_cell_formula_units_Z 48
_cell_length_a 16.265793
_cell_length_b 8.944912
_cell_length_c 18.343329
_cell_angle_alpha 90.000000
_cell_angle_beta 90.000000
_cell_angle_gamma 90.000000
_cell_volume 2668.882592
_symmetry_space_group_name_H-M "I M M 2"
_symmetry_group_IT_number 44
_symmetry_cell_setting 'orthorhombic'
loop_
_space_group_symop_operation_xyz
x,y,z
-x,-y,z
-x,y,z
x,-y,z
1/2+x,1/2+y,1/2+z
1/2-x,1/2-y,1/2+z
1/2-x,1/2+y,1/2+z
1/2+x,1/2-y,1/2+z
loop_
_atom_site_type_symbol
_atom_site_label
_atom_site_fract_x
_atom_site_fract_y
_atom_site_fract_z
Si Si1 0.839188 0.330521 0.992530
Si Si2 0.000000 0.824838 0.971304
Si Si3 0.000000 0.177073 0.805606
Si Si4 0.320886 0.327666 0.079942
Si Si5 0.654740 0.174311 0.232192
Si Si6 0.728614 0.326191 0.860026
Si Si7 0.595264 0.826513 0.945542
O O1 0.868793 0.500000 0.983845
O O2 0.798663 0.274360 0.917046
O O3 0.918630 0.232774 0.012084
O O4 0.773978 0.312685 0.057287
O O5 0.000000 0.764504 0.888480
O O6 0.000000 0.000000 0.975397
O O7 0.920022 0.236015 0.765690
O O8 0.000000 0.000000 0.802175
O O9 0.344259 0.500000 0.095263
O O10 0.331532 0.228173 0.150792
O O11 0.380343 0.266730 0.016961
O O12 0.737675 0.204615 0.278919
O O13 0.632482 0.000000 0.232618
O O14 0.707573 0.500000 0.873438
O O15 0.646369 0.230792 0.875132
O O16 0.500000 0.799870 0.928087
O O17 0.614747 0.000000 0.959610
#
# Coordination Sequence:
#
# PCOD8189913 Si02
#       7
#     8   4   4   8   8   8   8
#     4   9  18  35  55  76 106 144 181 217 267 323
#     4  11  21  31  53  85 111 136 177 226 267 311
#     4  11  23  35  51  83 117 146 177 216 271 325
#     4  10  22  38  56  80 110 146 182 221 273 327
#     4  11  22  37  57  81 112 147 181 222 272 325
#     4   9  19  35  56  80 106 142 182 221 271 322
#     4  10  21  36  56  82 109 141 182 226 271 319
#
# _framework density 17.985054000000002
#
# number of rings (size 3 to 8) (size 9 to 14) (size 15 to 20)
#    0.000    2.000    1.667    3.000    1.167    6.667 
#    0.000    0.000    1.833    0.000    0.000    0.000 
#    0.000    0.000    0.000    0.000    0.000    0.000 
#
# Total GULP energy -297658.123609 kJ/mol
# GULP energy per Si atom -12402.421817 kJ/mol
# Density = 1.794412 g / cm^3
# Si number density = 17.985054 Si / 1000 Ang^3
#
#
#
# Elastic Constant Matrix: (Units=GPa)
#
#
# Indices 1 2 3 4 5 6 
#
# 1 112.2501 48.0269 23.7918 0.0000 0.0000 0.0000
# 2 48.0269 73.1373 25.2976 0.0000 0.0000 0.0000
# 3 23.7918 25.2976 60.3908 0.0000 0.0000 0.0000
# 4 0.0000 0.0000 0.0000 30.1003 0.0000 0.0000
# 5 0.0000 0.0000 0.0000 0.0000 16.1013 0.0000
# 6 0.0000 0.0000 0.0000 0.0000 0.0000 32.0443
#
#
#
# Elastic Compliance Matrix: (Units=1/GPa)
#
#
# Indices 1 2 3 4 5 6 
#
# 1 0.012545 -0.007635 -0.001744 0.000000 0.000000 0.000000
# 2 -0.007635 0.020636 -0.005637 0.000000 0.000000 0.000000
# 3 -0.001744 -0.005637 0.019607 0.000000 0.000000 0.000000
# 4 0.000000 0.000000 0.000000 0.033222 0.000000 0.000000
# 5 0.000000 0.000000 0.000000 0.000000 0.062107 0.000000
# 6 0.000000 0.000000 0.000000 0.000000 0.000000 0.031207
#
#
# Mechanical properties :
#
#
# Convention : Reuss Voigt Hill
#
# Bulk Modulus (GPa) = 43.94190 48.89011 46.41600
# Shear Modulus (GPa) = 23.04787 25.55999 24.30393
#
# Velocity S-wave (km/s) = 3.58369 3.77394 3.68005
# Velocity P-wave (km/s) = 6.45052 6.79948 6.62730
#
# Compressibility (1/GPa) = 0.02275732
#
# Stress axis : x y z
#
# Youngs Moduli (GPa) = 79.71413 48.45924 51.00191
#
# Poissons Ratio (x) = 0.36996 0.08895
# Poissons Ratio (y) = 0.60858 0.28748
# Poissons Ratio (z) = 0.13903 0.27315
#
# Static dielectric constant tensor:
#      x y z
#    x 3.346530 0.000000 0.000000 
#    y 0.000000 3.411380 0.000000 
#    z 0.000000 0.000000 3.255730 
# 
# 
# High freq. dielectric constant tensor:
#      x y z
#    x 1.696700 0.000000 0.000000 
#    y 0.000000 1.707740 0.000000 
#    z 0.000000 0.000000 1.677200 
# 
# From -- ./inp_files/20331.got.cif
#   From: 2010.03.12/outbox.cif.g09.slc.cpg/sg44_11_cif.got.tgz:20331.got - 2010.04.14 02:36:11.
