data_PCOD8189799
_publ_section_title
;
Structure prediction by ZEFSAII (Michael W. Deem and Ramdas Pophale) SiO2 
 PCOD8189799
Probable space group: I M M 2
;
_chemical_formula_sum "Si O2"
_cell_formula_units_Z 48
_cell_length_a 28.313066
_cell_length_b 7.975467
_cell_length_c 10.966184
_cell_angle_alpha 90.000000
_cell_angle_beta 90.000000
_cell_angle_gamma 90.000000
_cell_volume 2476.273171
_symmetry_space_group_name_H-M "I M M 2"
_symmetry_group_IT_number 44
_symmetry_cell_setting 'orthorhombic'
loop_
_space_group_symop_operation_xyz
x,y,z
-x,-y,z
-x,y,z
x,-y,z
1/2+x,1/2+y,1/2+z
1/2-x,1/2-y,1/2+z
1/2-x,1/2+y,1/2+z
1/2+x,1/2-y,1/2+z
loop_
_atom_site_type_symbol
_atom_site_label
_atom_site_fract_x
_atom_site_fract_y
_atom_site_fract_z
Si Si1 0.228502 0.311645 0.149990
Si Si2 0.945169 0.808503 0.929401
Si Si3 0.212983 0.693365 0.422108
Si Si4 0.610551 0.314964 0.907159
Si Si5 0.128793 0.185701 0.130572
Si Si6 0.555680 0.000000 0.270672
Si Si7 0.556103 0.000000 0.002020
O O1 0.247777 0.500000 0.142385
O O2 0.235473 0.241373 0.290823
O O3 0.172901 0.310395 0.118075
O O4 0.254455 0.210048 0.042016
O O5 0.927246 0.673848 0.830888
O O6 0.000000 0.782428 0.962863
O O7 0.936320 0.000000 0.883406
O O8 0.914689 0.761962 0.046615
O O9 0.200967 0.500000 0.399942
O O10 0.164282 0.787145 0.451009
O O11 0.594809 0.500000 0.955497
O O12 0.607130 0.310628 0.763169
O O13 0.574686 0.171772 0.946199
O O14 0.147580 0.000000 0.097001
O O15 0.500000 0.000000 0.265766
O O16 0.577125 0.000000 0.137313
O O17 0.500000 0.000000 0.993107
#
# Coordination Sequence:
#
# PCOD8189799 Si02
#       7
#     8   8   8   8   8   4   4
#     4  10  21  35  57  85 115 154 197 244 296 357
#     4   9  18  34  56  81 111 147 188 239 297 353
#     4  10  20  39  61  84 120 157 198 246 301 356
#     4  10  21  39  62  85 118 159 191 240 304 352
#     4   9  19  35  57  84 114 147 188 241 302 355
#     4   9  20  37  55  77 111 152 193 237 287 338
#     4  11  24  41  59  87 119 156 209 247 286 354
#
# _framework density 19.383967999999999
#
# number of rings (size 3 to 8) (size 9 to 14) (size 15 to 20)
#    0.000    2.333    0.833    1.000    2.333    3.667 
#    3.000    4.167    0.000    0.000    0.000    0.000 
#    0.000    0.000    0.000    0.000    0.000    0.000 
#
# Total GULP energy -297381.918226 kJ/mol
# GULP energy per Si atom -12390.913259 kJ/mol
# Density = 1.933985 g / cm^3
# Si number density = 19.383968 Si / 1000 Ang^3
#
#
#
# Elastic Constant Matrix: (Units=GPa)
#
#
# Indices 1 2 3 4 5 6 
#
# 1 70.6337 40.6785 49.0366 0.0000 0.0000 0.0000
# 2 40.6785 117.8311 41.6439 0.0000 0.0000 0.0000
# 3 49.0366 41.6439 92.0990 0.0000 0.0000 0.0000
# 4 0.0000 0.0000 0.0000 20.9966 0.0000 0.0000
# 5 0.0000 0.0000 0.0000 0.0000 28.2229 0.0000
# 6 0.0000 0.0000 0.0000 0.0000 0.0000 25.0544
#
#
#
# Elastic Compliance Matrix: (Units=1/GPa)
#
#
# Indices 1 2 3 4 5 6 
#
# 1 0.024351 -0.004552 -0.010907 0.000000 0.000000 0.000000
# 2 -0.004552 0.010952 -0.002528 0.000000 0.000000 0.000000
# 3 -0.010907 -0.002528 0.017808 0.000000 0.000000 0.000000
# 4 0.000000 0.000000 0.000000 0.047627 0.000000 0.000000
# 5 0.000000 0.000000 0.000000 0.000000 0.035432 0.000000
# 6 0.000000 0.000000 0.000000 0.000000 0.000000 0.039913
#
#
# Mechanical properties :
#
#
# Convention : Reuss Voigt Hill
#
# Bulk Modulus (GPa) = 58.35512 60.36466 59.35989
# Shear Modulus (GPa) = 22.95991 24.80175 23.88083
#
# Velocity S-wave (km/s) = 3.44536 3.58089 3.51378
# Velocity P-wave (km/s) = 6.78215 6.95026 6.86672
#
# Compressibility (1/GPa) = 0.01713646
#
# Stress axis : x y z
#
# Youngs Moduli (GPa) = 41.06577 91.30963 56.15299
#
# Poissons Ratio (x) = 0.41563 0.61247
# Poissons Ratio (y) = 0.18693 0.14198
# Poissons Ratio (z) = 0.44791 0.23087
#
# Static dielectric constant tensor:
#      x y z
#    x 3.265780 0.000000 0.000000 
#    y 0.000000 3.829770 0.000000 
#    z 0.000000 0.000000 3.700980 
# 
# 
# High freq. dielectric constant tensor:
#      x y z
#    x 1.734940 0.000000 0.000000 
#    y 0.000000 1.767420 0.000000 
#    z 0.000000 0.000000 1.752420 
# 
# From -- ./inp_files/9977.got.cif
#   From: 2010.03.12/outbox.cif.g09.slc.cpg/sg44_5_cif.got.tgz:9977.got - 2010.04.14 02:36:11.
