data_PCOD8189891
_publ_section_title
;
Structure prediction by ZEFSAII (Michael W. Deem and Ramdas Pophale) SiO2 
 PCOD8189891
Probable space group: I M M 2
;
_chemical_formula_sum "Si O2"
_cell_formula_units_Z 56
_cell_length_a 9.609791
_cell_length_b 23.273728
_cell_length_c 13.789791
_cell_angle_alpha 90.000000
_cell_angle_beta 90.000000
_cell_angle_gamma 90.000000
_cell_volume 3084.164833
_symmetry_space_group_name_H-M "I M M 2"
_symmetry_group_IT_number 44
_symmetry_cell_setting 'orthorhombic'
loop_
_space_group_symop_operation_xyz
x,y,z
-x,-y,z
-x,y,z
x,-y,z
1/2+x,1/2+y,1/2+z
1/2-x,1/2-y,1/2+z
1/2-x,1/2+y,1/2+z
1/2+x,1/2-y,1/2+z
loop_
_atom_site_type_symbol
_atom_site_label
_atom_site_fract_x
_atom_site_fract_y
_atom_site_fract_z
Si Si1 0.164614 0.563502 0.432770
Si Si2 0.339060 0.675485 0.965080
Si Si3 0.339250 0.932740 0.147365
Si Si4 0.341280 0.564003 0.079429
Si Si5 0.161398 0.269673 0.125060
Si Si6 0.337611 0.659446 0.746612
Si Si7 0.662322 0.117745 0.738175
O O1 0.223743 0.500000 0.407318
O O2 0.217030 0.582942 0.539132
O O3 0.210833 0.608650 0.349817
O O4 0.000000 0.559292 0.439828
O O5 0.500000 0.690795 0.982209
O O6 0.297244 0.682249 0.853198
O O7 0.304754 0.609984 0.996140
O O8 0.250027 0.720352 0.028048
O O9 0.500000 0.915276 0.160100
O O10 0.248668 0.897613 0.224157
O O11 0.318355 0.000000 0.167980
O O12 0.500000 0.571887 0.113952
O O13 0.315955 0.500000 0.037311
O O14 0.244131 0.572687 0.172187
O O15 0.201858 0.208473 0.169520
O O16 0.197239 0.317436 0.206450
O O17 0.000000 0.272780 0.096492
O O18 0.500000 0.643803 0.743203
O O19 0.500000 0.103520 0.726791
#
# Coordination Sequence:
#
# PCOD8189891 Si02
#       7
#     8   8   8   8   8   8   8
#     4   8  14  26  46  72  99 126 159 199 241 287
#     4   9  19  35  53  73  98 130 167 202 242 298
#     4   9  19  35  53  75 102 131 168 211 250 295
#     4   9  17  29  45  68  99 130 160 199 245 291
#     4   9  19  34  50  73 103 128 159 207 251 289
#     4  10  21  36  54  76 101 131 167 206 251 302
#     4   9  16  28  48  71  96 128 164 202 244 290
#
# _framework density 18.157264999999999
#
# number of rings (size 3 to 8) (size 9 to 14) (size 15 to 20)
#    0.000    3.000    0.000    1.286    0.000    4.000 
#    0.000    5.000    0.000    4.286    0.000    0.000 
#    0.000    0.000    0.000    0.000    0.000    0.000 
#
# Total GULP energy -347137.511494 kJ/mol
# GULP energy per Si atom -12397.768268 kJ/mol
# Density = 1.811594 g / cm^3
# Si number density = 18.157265 Si / 1000 Ang^3
#
#
#
# Elastic Constant Matrix: (Units=GPa)
#
#
# Indices 1 2 3 4 5 6 
#
# 1 55.7729 42.6083 52.7777 0.0000 0.0000 0.0000
# 2 42.6083 78.1251 48.4429 0.0000 0.0000 0.0000
# 3 52.7777 48.4429 118.8442 0.0004 -0.0001 0.0000
# 4 0.0000 0.0000 0.0004 24.0972 0.0000 0.0000
# 5 0.0000 0.0000 -0.0001 0.0000 27.9905 0.0000
# 6 0.0000 0.0000 0.0000 0.0000 0.0000 24.1896
#
#
#
# Elastic Compliance Matrix: (Units=1/GPa)
#
#
# Indices 1 2 3 4 5 6 
#
# 1 0.040466 -0.014622 -0.012010 0.000000 0.000000 0.000000
# 2 -0.014622 0.022413 -0.002642 0.000000 0.000000 0.000000
# 3 -0.012010 -0.002642 0.014825 0.000000 0.000000 0.000000
# 4 0.000000 0.000000 0.000000 0.041499 0.000000 0.000000
# 5 0.000000 0.000000 0.000000 0.000000 0.035726 0.000000
# 6 0.000000 0.000000 0.000000 0.000000 0.000000 0.041340
#
#
# Mechanical properties :
#
#
# Convention : Reuss Voigt Hill
#
# Bulk Modulus (GPa) = 52.20744 60.04448 56.12596
# Shear Modulus (GPa) = 19.14208 22.51635 20.82921
#
# Velocity S-wave (km/s) = 3.25043 3.52529 3.39064
# Velocity P-wave (km/s) = 6.54999 7.05061 6.80491
#
# Compressibility (1/GPa) = 0.01915436
#
# Stress axis : x y z
#
# Youngs Moduli (GPa) = 24.71199 44.61634 67.45308
#
# Poissons Ratio (x) = 0.65240 0.81013
# Poissons Ratio (y) = 0.36135 0.17823
# Poissons Ratio (z) = 0.29680 0.11789
#
# Static dielectric constant tensor:
#      x y z
#    x 3.161840 0.000000 0.000000 
#    y 0.000000 3.284310 0.000000 
#    z 0.000000 0.000000 3.417420 
# 
# 
# High freq. dielectric constant tensor:
#      x y z
#    x 1.683080 0.000000 0.000000 
#    y 0.000000 1.699950 0.000000 
#    z 0.000000 0.000000 1.700440 
# 
# From -- ./inp_files/16469.got.cif
#   From: 2010.03.12/outbox.cif.g09.slc.cpg/sg44_9_cif.got.tgz:16469.got - 2010.04.14 02:36:11.
