data_PCOD8189073
_publ_section_title
;
Structure prediction by ZEFSAII (Michael W. Deem and Ramdas Pophale) SiO2 
 PCOD8189073
Probable space group: I M M 2
;
_chemical_formula_sum "Si O2"
_cell_formula_units_Z 40
_cell_length_a 8.879903
_cell_length_b 9.638535
_cell_length_c 25.645155
_cell_angle_alpha 90.000000
_cell_angle_beta 90.000000
_cell_angle_gamma 90.000000
_cell_volume 2194.949733
_symmetry_space_group_name_H-M "I M M 2"
_symmetry_group_IT_number 44
_symmetry_cell_setting 'orthorhombic'
loop_
_space_group_symop_operation_xyz
x,y,z
-x,-y,z
-x,y,z
x,-y,z
1/2+x,1/2+y,1/2+z
1/2-x,1/2-y,1/2+z
1/2-x,1/2+y,1/2+z
1/2+x,1/2-y,1/2+z
loop_
_atom_site_type_symbol
_atom_site_label
_atom_site_fract_x
_atom_site_fract_y
_atom_site_fract_z
Si Si1 0.820703 0.000000 0.934820
Si Si2 0.823981 0.000000 0.665057
Si Si3 0.177917 0.500000 0.829166
Si Si4 0.829061 0.500000 0.274181
Si Si5 0.828254 0.000000 0.219898
Si Si6 0.678627 0.500000 0.553730
Si Si7 0.323681 0.780965 0.861846
Si Si8 0.674835 0.723979 0.633307
O O1 0.754334 0.862067 0.909036
O O2 0.765854 0.000000 0.994587
O O3 0.000000 0.000000 0.929590
O O4 0.764567 0.865951 0.635167
O O5 0.780056 0.000000 0.725477
O O6 0.000000 0.000000 0.661292
O O7 0.215692 0.500000 0.768149
O O8 0.247571 0.632237 0.857830
O O9 0.000000 0.500000 0.836507
O O10 0.797325 0.363165 0.308059
O O11 0.000000 0.500000 0.253357
O O12 0.798158 0.862960 0.186074
O O13 0.000000 0.000000 0.240977
O O14 0.500000 0.500000 0.558609
O O15 0.736963 0.637240 0.583762
O O16 0.500000 0.766830 0.873976
O O17 0.500000 0.759243 0.626955
#
# Coordination Sequence:
#
# PCOD8189073 Si02
#       8
#     4   4   4   4   4   4   8   8
#     4  10  19  36  61  85 105 126 167 224 272 311
#     4  12  23  31  45  77 114 140 168 213 262 299
#     4  12  23  33  50  79 112 142 174 219 268 303
#     4   9  19  35  54  73  99 143 186 210 241 305
#     4   9  18  33  54  77 103 139 180 214 249 307
#     4   8  17  36  62  83  97 126 173 218 258 309
#     4  10  21  37  55  77 106 142 181 213 254 317
#     4   9  18  35  56  76 101 138 179 210 247 308
#
# _framework density 18.223654
#
# number of rings (size 3 to 8) (size 9 to 14) (size 15 to 20)
#    0.000    2.200    0.000    5.700    0.000    8.000 
#    0.000    4.500    0.000    2.400    0.000    0.000 
#    0.000    0.000    0.000    0.000    0.000    0.000 
#
# Total GULP energy -248043.025041 kJ/mol
# GULP energy per Si atom -12402.151252 kJ/mol
# Density = 1.818218 g / cm^3
# Si number density = 18.223654 Si / 1000 Ang^3
#
#
#
# Elastic Constant Matrix: (Units=GPa)
#
#
# Indices 1 2 3 4 5 6 
#
# 1 115.4826 76.8477 58.9426 0.0000 0.0000 0.0000
# 2 76.8477 173.3787 72.0295 0.0000 0.0000 0.0000
# 3 58.9426 72.0295 126.9938 0.0000 0.0000 0.0000
# 4 0.0000 0.0000 0.0000 9.6439 0.0000 0.0000
# 5 0.0000 0.0000 0.0000 0.0000 23.9959 0.0000
# 6 0.0000 0.0000 0.0000 0.0000 0.0000 24.1403
#
#
#
# Elastic Compliance Matrix: (Units=1/GPa)
#
#
# Indices 1 2 3 4 5 6 
#
# 1 0.013532 -0.004433 -0.003766 0.000000 0.000000 0.000000
# 2 -0.004433 0.008998 -0.003046 0.000000 0.000000 0.000000
# 3 -0.003766 -0.003046 0.011350 0.000000 0.000000 0.000000
# 4 0.000000 0.000000 0.000000 0.103692 0.000000 0.000000
# 5 0.000000 0.000000 0.000000 0.000000 0.041674 0.000000
# 6 0.000000 0.000000 0.000000 0.000000 0.000000 0.041424
#
#
# Mechanical properties :
#
#
# Convention : Reuss Voigt Hill
#
# Bulk Modulus (GPa) = 87.80219 92.38829 90.09524
# Shear Modulus (GPa) = 20.24645 25.42505 22.83575
#
# Velocity S-wave (km/s) = 3.33678 3.73925 3.54373
# Velocity P-wave (km/s) = 7.94546 8.33364 8.14187
#
# Compressibility (1/GPa) = 0.01138924
#
# Stress axis : x y z
#
# Youngs Moduli (GPa) = 73.90164 111.13478 88.10502
#
# Poissons Ratio (x) = 0.49266 0.33181
# Poissons Ratio (y) = 0.32761 0.26837
# Poissons Ratio (z) = 0.27832 0.33852
#
# Static dielectric constant tensor:
#      x y z
#    x 3.248020 0.000000 0.000000 
#    y 0.000000 3.534350 0.000000 
#    z 0.000000 0.000000 3.314560 
# 
# 
# High freq. dielectric constant tensor:
#      x y z
#    x 1.698910 0.000000 0.000000 
#    y 0.000000 1.718120 0.000000 
#    z 0.000000 0.000000 1.691520 
# 
# From -- ./inp_files/26003.got.cif
#   From: 2010.03.12/outbox.cif.g09.slc.cpg/sg44_14_cif.got.tgz:26003.got - 2010.04.14 02:36:11.
