data_PCOD8189666
_publ_section_title
;
Structure prediction by ZEFSAII (Michael W. Deem and Ramdas Pophale) SiO2 
 PCOD8189666
Probable space group: I M M 2
;
_chemical_formula_sum "Si O2"
_cell_formula_units_Z 40
_cell_length_a 9.219765
_cell_length_b 7.752300
_cell_length_c 28.646375
_cell_angle_alpha 90.000000
_cell_angle_beta 90.000000
_cell_angle_gamma 90.000000
_cell_volume 2047.482013
_symmetry_space_group_name_H-M "I M M 2"
_symmetry_group_IT_number 44
_symmetry_cell_setting 'orthorhombic'
loop_
_space_group_symop_operation_xyz
x,y,z
-x,-y,z
-x,y,z
x,-y,z
1/2+x,1/2+y,1/2+z
1/2-x,1/2-y,1/2+z
1/2-x,1/2+y,1/2+z
1/2+x,1/2-y,1/2+z
loop_
_atom_site_type_symbol
_atom_site_label
_atom_site_fract_x
_atom_site_fract_y
_atom_site_fract_z
Si Si1 0.334441 0.799338 0.397060
Si Si2 0.327049 0.500000 0.051199
Si Si3 0.335424 0.801891 0.807173
Si Si4 0.327845 0.500000 0.156799
Si Si5 0.833394 0.308642 0.720093
Si Si6 0.667314 0.695488 0.499927
O O1 0.500000 0.764746 0.382061
O O2 0.231500 0.722343 0.357945
O O3 0.296935 0.703947 0.445121
O O4 0.303691 0.000000 0.404322
O O5 0.500000 0.500000 0.048004
O O6 0.268680 0.500000 0.104278
O O7 0.269152 0.326453 0.027526
O O8 0.500000 0.736016 0.808762
O O9 0.250670 0.691904 0.768879
O O10 0.325622 0.000000 0.792217
O O11 0.500000 0.500000 0.155562
O O12 0.269364 0.670627 0.183353
O O13 0.817819 0.500000 0.698169
O O14 0.000000 0.264260 0.731320
O O15 0.500000 0.748155 0.508397
O O16 0.697563 0.500000 0.517161
#
# Coordination Sequence:
#
# PCOD8189666 Si02
#       6
#     8   4   8   4   8   8
#     4  10  20  36  59  84 112 152 201 245 285 341
#     4  11  23  39  63  93 125 159 197 253 318 365
#     4  11  23  36  52  81 121 158 190 233 293 354
#     4   9  20  39  61  87 117 153 197 247 296 349
#     4  10  20  37  62  86 110 148 198 244 287 343
#     4  10  21  40  64  88 119 160 206 253 297 355
#
# _framework density 19.536190999999999
#
# number of rings (size 3 to 8) (size 9 to 14) (size 15 to 20)
#    0.000    1.800    2.000    2.100    0.000    7.200 
#    0.000    4.000    0.000    0.000    0.000    0.000 
#    0.000    0.000    0.000    0.000    0.000    0.000 
#
# Total GULP energy -248057.989760 kJ/mol
# GULP energy per Si atom -12402.899488 kJ/mol
# Density = 1.949173 g / cm^3
# Si number density = 19.536191 Si / 1000 Ang^3
#
#
#
# Elastic Constant Matrix: (Units=GPa)
#
#
# Indices 1 2 3 4 5 6 
#
# 1 89.6039 46.4500 56.5708 0.0000 0.0000 0.0000
# 2 46.4500 122.8194 55.2168 0.0000 0.0000 0.0000
# 3 56.5708 55.2168 117.4093 0.0000 0.0000 0.0000
# 4 0.0000 0.0000 0.0000 22.2598 0.0000 0.0000
# 5 0.0000 0.0000 0.0000 0.0000 24.1492 0.0000
# 6 0.0000 0.0000 0.0000 0.0000 0.0000 24.1165
#
#
#
# Elastic Compliance Matrix: (Units=1/GPa)
#
#
# Indices 1 2 3 4 5 6 
#
# 1 0.017158 -0.003516 -0.006614 0.000000 0.000000 0.000000
# 2 -0.003516 0.011046 -0.003501 0.000000 0.000000 0.000000
# 3 -0.006614 -0.003501 0.013350 0.000000 0.000000 0.000000
# 4 0.000000 0.000000 0.000000 0.044924 0.000000 0.000000
# 5 0.000000 0.000000 0.000000 0.000000 0.041409 0.000000
# 6 0.000000 0.000000 0.000000 0.000000 0.000000 0.041465
#
#
# Mechanical properties :
#
#
# Convention : Reuss Voigt Hill
#
# Bulk Modulus (GPa) = 69.96168 71.81199 70.88684
# Shear Modulus (GPa) = 24.82891 25.54476 25.18684
#
# Velocity S-wave (km/s) = 3.56886 3.61994 3.59449
# Velocity P-wave (km/s) = 7.27127 7.36955 7.32058
#
# Compressibility (1/GPa) = 0.01429354
#
# Stress axis : x y z
#
# Youngs Moduli (GPa) = 58.28036 90.53452 74.90475
#
# Poissons Ratio (x) = 0.31830 0.49541
# Poissons Ratio (y) = 0.20490 0.26221
# Poissons Ratio (z) = 0.38546 0.31693
#
# Static dielectric constant tensor:
#      x y z
#    x 3.454190 0.000000 0.000000 
#    y 0.000000 3.696530 0.000000 
#    z 0.000000 0.000000 3.537020 
# 
# 
# High freq. dielectric constant tensor:
#      x y z
#    x 1.744900 0.000000 0.000000 
#    y 0.000000 1.778080 0.000000 
#    z 0.000000 0.000000 1.753680 
# 
# From -- ./inp_files/25970.got.cif
#   From: 2010.03.12/outbox.cif.g09.slc.cpg/sg44_13_cif.got.tgz:25970.got - 2010.04.14 02:36:11.
