data_PCOD8189107
_publ_section_title
;
Structure prediction by ZEFSAII (Michael W. Deem and Ramdas Pophale) SiO2 
 PCOD8189107
Probable space group: I M M 2
;
_chemical_formula_sum "Si O2"
_cell_formula_units_Z 48
_cell_length_a 9.091533
_cell_length_b 7.932694
_cell_length_c 34.249121
_cell_angle_alpha 90.000000
_cell_angle_beta 90.000000
_cell_angle_gamma 90.000000
_cell_volume 2470.058569
_symmetry_space_group_name_H-M "I M M 2"
_symmetry_group_IT_number 44
_symmetry_cell_setting 'orthorhombic'
loop_
_space_group_symop_operation_xyz
x,y,z
-x,-y,z
-x,y,z
x,-y,z
1/2+x,1/2+y,1/2+z
1/2-x,1/2-y,1/2+z
1/2-x,1/2+y,1/2+z
1/2+x,1/2-y,1/2+z
loop_
_atom_site_type_symbol
_atom_site_label
_atom_site_fract_x
_atom_site_fract_y
_atom_site_fract_z
Si Si1 0.668620 0.307958 0.879020
Si Si2 0.823788 0.500000 0.663766
Si Si3 0.174205 0.686105 0.298592
Si Si4 0.664984 0.194018 0.530800
Si Si5 0.160971 0.691773 0.458849
Si Si6 0.825933 0.693882 0.119272
Si Si7 0.324152 0.500000 0.746984
O O1 0.500000 0.250736 0.884729
O O2 0.681895 0.500000 0.866372
O O3 0.739906 0.206787 0.842570
O O4 0.744435 0.276914 0.921464
O O5 0.764496 0.671463 0.644173
O O6 0.764875 0.500000 0.707326
O O7 0.000000 0.500000 0.662456
O O8 0.218990 0.500000 0.282672
O O9 0.000000 0.705463 0.301888
O O10 0.230018 0.832394 0.269797
O O11 0.500000 0.262396 0.529249
O O12 0.754931 0.297995 0.499459
O O13 0.725248 0.220644 0.574545
O O14 0.672819 0.000000 0.518774
O O15 0.145077 0.500000 0.447013
O O16 0.000000 0.775083 0.465348
O O17 0.790680 0.500000 0.132105
O O18 0.000000 0.726807 0.124020
O O19 0.500000 0.500000 0.739592
#
# Coordination Sequence:
#
# PCOD8189107 Si02
#       7
#     8   4   8   8   8   8   4
#     4   9  15  26  45  71 106 145 182 225 278 326
#     4  12  26  40  60  90 124 156 188 236 302 370
#     4   9  16  28  50  79 108 139 181 234 284 328
#     4   9  19  36  56  77 103 139 185 233 282 331
#     4  10  20  30  44  74 113 148 184 225 273 331
#     4   9  20  41  66  88 112 150 200 248 292 344
#     4  10  20  36  56  82 110 142 190 240 284 342
#
# _framework density 19.432736999999999
#
# number of rings (size 3 to 8) (size 9 to 14) (size 15 to 20)
#    0.000    2.500    0.833    2.750    1.167    5.000 
#    0.000    3.333    0.000    1.000    0.000    0.000 
#    0.000    0.000    0.000    0.000    0.000    0.000 
#
# Total GULP energy -297393.638567 kJ/mol
# GULP energy per Si atom -12391.401607 kJ/mol
# Density = 1.938851 g / cm^3
# Si number density = 19.432737 Si / 1000 Ang^3
#
#
#
# Elastic Constant Matrix: (Units=GPa)
#
#
# Indices 1 2 3 4 5 6 
#
# 1 50.8924 35.6399 44.3591 0.0000 0.0000 0.0000
# 2 35.6399 127.8655 74.0003 0.0000 0.0000 0.0000
# 3 44.3591 74.0003 148.6514 0.0000 0.0000 0.0000
# 4 0.0000 0.0000 0.0000 31.4350 0.0000 0.0000
# 5 0.0000 0.0000 0.0000 0.0000 21.3610 0.0000
# 6 0.0000 0.0000 0.0000 0.0000 0.0000 17.6871
#
#
#
# Elastic Compliance Matrix: (Units=1/GPa)
#
#
# Indices 1 2 3 4 5 6 
#
# 1 0.028062 -0.004179 -0.006293 0.000000 0.000000 0.000000
# 2 -0.004179 0.011608 -0.004532 0.000000 0.000000 0.000000
# 3 -0.006293 -0.004532 0.010861 0.000000 0.000000 0.000000
# 4 0.000000 0.000000 0.000000 0.031812 0.000000 0.000000
# 5 0.000000 0.000000 0.000000 0.000000 0.046814 0.000000
# 6 0.000000 0.000000 0.000000 0.000000 0.000000 0.056538
#
#
# Mechanical properties :
#
#
# Convention : Reuss Voigt Hill
#
# Bulk Modulus (GPa) = 48.72761 70.60089 59.66425
# Shear Modulus (GPa) = 22.46745 25.65729 24.06237
#
# Velocity S-wave (km/s) = 3.40393 3.63755 3.52268
# Velocity P-wave (km/s) = 6.37012 7.35202 6.87861
#
# Compressibility (1/GPa) = 0.02052225
#
# Stress axis : x y z
#
# Youngs Moduli (GPa) = 35.63600 86.14609 92.07290
#
# Poissons Ratio (x) = 0.36004 0.57944
# Poissons Ratio (y) = 0.14894 0.41723
# Poissons Ratio (z) = 0.22427 0.39037
#
# Static dielectric constant tensor:
#      x y z
#    x 3.072190 0.000000 0.000000 
#    y 0.000000 3.652090 0.000000 
#    z 0.000000 0.000000 3.624750 
# 
# 
# High freq. dielectric constant tensor:
#      x y z
#    x 1.693610 0.000000 0.000000 
#    y 0.000000 1.769360 0.000000 
#    z 0.000000 0.000000 1.767680 
# 
# From -- ./inp_files/26903.got.cif
#   From: 2010.03.12/outbox.cif.g09.slc.cpg/sg44_14_cif.got.tgz:26903.got - 2010.04.14 02:36:11.
