data_PCOD8189696
_publ_section_title
;
Structure prediction by ZEFSAII (Michael W. Deem and Ramdas Pophale) SiO2 
 PCOD8189696
Probable space group: I M M 2
;
_chemical_formula_sum "Si O2"
_cell_formula_units_Z 48
_cell_length_a 9.920650
_cell_length_b 8.949116
_cell_length_c 27.886762
_cell_angle_alpha 90.000000
_cell_angle_beta 90.000000
_cell_angle_gamma 90.000000
_cell_volume 2475.815946
_symmetry_space_group_name_H-M "I M M 2"
_symmetry_group_IT_number 44
_symmetry_cell_setting 'orthorhombic'
loop_
_space_group_symop_operation_xyz
x,y,z
-x,-y,z
-x,y,z
x,-y,z
1/2+x,1/2+y,1/2+z
1/2-x,1/2-y,1/2+z
1/2-x,1/2+y,1/2+z
1/2+x,1/2-y,1/2+z
loop_
_atom_site_type_symbol
_atom_site_label
_atom_site_fract_x
_atom_site_fract_y
_atom_site_fract_z
Si Si1 0.000000 0.323879 0.287550
Si Si2 0.000000 0.827525 0.390876
Si Si3 0.767604 0.675056 0.947198
Si Si4 0.500000 0.163682 0.296410
Si Si5 0.843652 0.823477 0.045355
Si Si6 0.846801 0.322562 0.631910
Si Si7 0.261422 0.330005 0.732838
Si Si8 0.000000 0.826350 0.890212
O O1 0.000000 0.263017 0.341620
O O2 0.870639 0.272737 0.258018
O O3 0.000000 0.500000 0.291419
O O4 0.124141 0.786769 0.424719
O O5 0.000000 0.000000 0.375463
O O6 0.796128 0.500000 0.950362
O O7 0.869781 0.751154 0.911539
O O8 0.781138 0.743542 0.999575
O O9 0.371516 0.177814 0.263683
O O10 0.500000 0.298783 0.333655
O O11 0.500000 0.000000 0.322166
O O12 0.750755 0.768451 0.089230
O O13 0.000000 0.776687 0.053602
O O14 0.833215 0.000000 0.037885
O O15 0.855646 0.500000 0.633793
O O16 0.776256 0.264813 0.680561
O O17 0.000000 0.258560 0.625959
O O18 0.316232 0.500000 0.729189
O O19 0.000000 0.000000 0.902365
#
# Coordination Sequence:
#
# PCOD8189696 Si02
#       8
#     4   4   8   4   8   8   8   4
#     4  12  26  40  57  88 125 160 200 246 303 358
#     4  10  24  44  63  86 116 156 208 250 292 354
#     4  11  23  41  63  86 117 157 200 248 296 353
#     4  10  20  36  61  92 118 148 196 246 296 352
#     4  10  21  36  58  91 125 155 193 242 296 354
#     4   9  18  35  61  93 121 152 198 246 292 349
#     4  10  20  38  64  89 118 158 202 246 290 348
#     4  12  24  38  59  88 119 154 196 242 299 360
#
# _framework density 19.387547999999999
#
# number of rings (size 3 to 8) (size 9 to 14) (size 15 to 20)
#    0.000    1.667    1.667    3.000    2.333    6.000 
#    0.000    0.833    0.000    1.000    0.000    0.000 
#    0.000    0.000    0.000    0.000    0.000    0.000 
#
# Total GULP energy -297605.987952 kJ/mol
# GULP energy per Si atom -12400.249498 kJ/mol
# Density = 1.934342 g / cm^3
# Si number density = 19.387548 Si / 1000 Ang^3
#
#
#
# Elastic Constant Matrix: (Units=GPa)
#
#
# Indices 1 2 3 4 5 6 
#
# 1 165.9261 66.7731 84.5313 0.0000 0.0000 0.0000
# 2 66.7731 65.9593 60.1289 0.0000 0.0000 0.0000
# 3 84.5313 60.1289 168.8837 0.0000 0.0000 0.0000
# 4 0.0000 0.0000 0.0000 28.9405 0.0000 0.0000
# 5 0.0000 0.0000 0.0000 0.0000 26.5443 0.0000
# 6 0.0000 0.0000 0.0000 0.0000 0.0000 19.6584
#
#
#
# Elastic Compliance Matrix: (Units=1/GPa)
#
#
# Indices 1 2 3 4 5 6 
#
# 1 0.010704 -0.008812 -0.002220 0.000000 0.000000 0.000000
# 2 -0.008812 0.029701 -0.006164 0.000000 0.000000 0.000000
# 3 -0.002220 -0.006164 0.009227 0.000000 0.000000 0.000000
# 4 0.000000 0.000000 0.000000 0.034554 0.000000 0.000000
# 5 0.000000 0.000000 0.000000 0.000000 0.037673 0.000000
# 6 0.000000 0.000000 0.000000 0.000000 0.000000 0.050869
#
#
# Mechanical properties :
#
#
# Convention : Reuss Voigt Hill
#
# Bulk Modulus (GPa) = 65.61925 91.51508 78.56717
# Shear Modulus (GPa) = 23.56268 27.65101 25.60685
#
# Velocity S-wave (km/s) = 3.48997 3.78064 3.63821
# Velocity P-wave (km/s) = 7.08233 8.14636 7.63291
#
# Compressibility (1/GPa) = 0.01523943
#
# Stress axis : x y z
#
# Youngs Moduli (GPa) = 93.42152 33.66919 108.37648
#
# Poissons Ratio (x) = 0.29670 0.24063
# Poissons Ratio (y) = 0.82325 0.66801
# Poissons Ratio (z) = 0.20742 0.20753
#
# Static dielectric constant tensor:
#      x y z
#    x 3.704140 0.000000 0.000000 
#    y 0.000000 3.429040 0.000000 
#    z 0.000000 0.000000 3.767500 
# 
# 
# High freq. dielectric constant tensor:
#      x y z
#    x 1.773880 0.000000 0.000000 
#    y 0.000000 1.729540 0.000000 
#    z 0.000000 0.000000 1.770510 
# 
# From -- ./inp_files/26993.got.cif
#   From: 2010.03.12/outbox.cif.g09.slc.cpg/sg44_14_cif.got.tgz:26993.got - 2010.04.14 02:36:11.
