data_PCOD8189506
_publ_section_title
;
Structure prediction by ZEFSAII (Michael W. Deem and Ramdas Pophale) SiO2 
 PCOD8189506
Probable space group: I M M 2
;
_chemical_formula_sum "Si O2"
_cell_formula_units_Z 48
_cell_length_a 8.768541
_cell_length_b 25.275414
_cell_length_c 12.008599
_cell_angle_alpha 90.000000
_cell_angle_beta 90.000000
_cell_angle_gamma 90.000000
_cell_volume 2661.447831
_symmetry_space_group_name_H-M "I M M 2"
_symmetry_group_IT_number 44
_symmetry_cell_setting 'orthorhombic'
loop_
_space_group_symop_operation_xyz
x,y,z
-x,-y,z
-x,y,z
x,-y,z
1/2+x,1/2+y,1/2+z
1/2-x,1/2-y,1/2+z
1/2-x,1/2+y,1/2+z
1/2+x,1/2-y,1/2+z
loop_
_atom_site_type_symbol
_atom_site_label
_atom_site_fract_x
_atom_site_fract_y
_atom_site_fract_z
Si Si1 0.172605 0.822443 0.197960
Si Si2 0.175650 0.938625 0.552967
Si Si3 0.679164 0.248420 0.034561
Si Si4 0.177767 0.348166 0.924147
Si Si5 0.173488 0.849713 0.960030
Si Si6 0.819076 0.941700 0.805250
O O1 0.241777 0.766582 0.153017
O O2 0.274233 0.846026 0.295641
O O3 0.000000 0.813107 0.240635
O O4 0.176285 0.863414 0.092863
O O5 0.282530 0.906012 0.470096
O O6 0.226313 0.926340 0.679620
O O7 0.000000 0.922372 0.534536
O O8 0.199760 0.000000 0.525414
O O9 0.500000 0.247755 0.050673
O O10 0.731255 0.305925 0.997343
O O11 0.730200 0.204557 0.941581
O O12 0.000000 0.336753 0.934534
O O13 0.247763 0.897872 0.890201
O O14 0.000000 0.839150 0.920291
O O15 0.000000 0.944151 0.816035
O O16 0.752654 0.000000 0.835156
#
# Coordination Sequence:
#
# PCOD8189506 Si02
#       6
#     8   8   8   8   8   8
#     4   9  19  36  55  79 110 140 180 229 272 324
#     4   9  19  36  57  81 109 142 185 233 278 328
#     4  10  20  35  54  78 109 144 181 223 272 328
#     4  12  23  36  56  80 111 150 186 224 275 330
#     4   8  16  32  53  79 112 141 175 224 270 320
#     4   8  14  29  56  85 110 140 179 222 267 319
#
# _framework density 18.035297
#
# number of rings (size 3 to 8) (size 9 to 14) (size 15 to 20)
#    1.000    1.667    0.000    4.000    0.000    1.667 
#    0.000    6.667    0.000    4.500    0.000    0.000 
#    0.000    0.000    0.000    0.000    0.000    0.000 
#
# Total GULP energy -297413.864501 kJ/mol
# GULP energy per Si atom -12392.244354 kJ/mol
# Density = 1.799425 g / cm^3
# Si number density = 18.035297 Si / 1000 Ang^3
#
#
#
# Elastic Constant Matrix: (Units=GPa)
#
#
# Indices 1 2 3 4 5 6 
#
# 1 79.8814 27.4878 21.2354 -0.0001 -0.0001 0.0000
# 2 27.4878 85.4143 41.6031 -0.0001 0.0000 0.0000
# 3 21.2354 41.6031 78.4880 -0.0006 0.0001 0.0001
# 4 -0.0001 -0.0001 -0.0006 32.3485 0.0001 0.0001
# 5 -0.0001 0.0000 0.0001 0.0001 21.1804 0.0000
# 6 0.0000 0.0000 0.0001 0.0001 0.0000 24.4292
#
#
#
# Elastic Compliance Matrix: (Units=1/GPa)
#
#
# Indices 1 2 3 4 5 6 
#
# 1 0.014290 -0.003661 -0.001926 0.000000 0.000000 0.000000
# 2 -0.003661 0.016720 -0.007872 0.000000 0.000000 0.000000
# 3 -0.001926 -0.007872 0.017435 0.000000 0.000000 0.000000
# 4 0.000000 0.000000 0.000000 0.030913 0.000000 0.000000
# 5 0.000000 0.000000 0.000000 0.000000 0.047213 0.000000
# 6 0.000000 0.000000 0.000000 0.000000 0.000000 0.040935
#
#
# Mechanical properties :
#
#
# Convention : Reuss Voigt Hill
#
# Bulk Modulus (GPa) = 46.45282 47.15959 46.80621
# Shear Modulus (GPa) = 24.80164 25.82212 25.31188
#
# Velocity S-wave (km/s) = 3.71235 3.78796 3.75035
# Velocity P-wave (km/s) = 6.64740 6.73326 6.69047
#
# Compressibility (1/GPa) = 0.02152722
#
# Stress axis : x y z
#
# Youngs Moduli (GPa) = 69.97786 59.80835 57.35737
#
# Poissons Ratio (x) = 0.21895 0.11046
# Poissons Ratio (y) = 0.25618 0.45153
# Poissons Ratio (z) = 0.13477 0.47082
#
# Static dielectric constant tensor:
#      x y z
#    x 3.136160 0.000000 0.000000 
#    y 0.000000 3.374720 0.000000 
#    z 0.000000 0.000000 3.248550 
# 
# 
# High freq. dielectric constant tensor:
#      x y z
#    x 1.685290 0.000000 0.000000 
#    y 0.000000 1.686120 0.000000 
#    z 0.000000 0.000000 1.688910 
# 
# From -- ./inp_files/11215.got.cif
#   From: 2010.03.12/outbox.cif.g09.slc.cpg/sg44_6_cif.got.tgz:11215.got - 2010.04.14 02:36:11.
