data_PCOD8189422
_publ_section_title
;
Structure prediction by ZEFSAII (Michael W. Deem and Ramdas Pophale) SiO2 
 PCOD8189422
Probable space group: I M M 2
;
_chemical_formula_sum "Si O2"
_cell_formula_units_Z 64
_cell_length_a 24.480587
_cell_length_b 9.175959
_cell_length_c 15.009725
_cell_angle_alpha 90.000000
_cell_angle_beta 90.000000
_cell_angle_gamma 90.000000
_cell_volume 3371.677494
_symmetry_space_group_name_H-M "I M M 2"
_symmetry_group_IT_number 44
_symmetry_cell_setting 'orthorhombic'
loop_
_space_group_symop_operation_xyz
x,y,z
-x,-y,z
-x,y,z
x,-y,z
1/2+x,1/2+y,1/2+z
1/2-x,1/2-y,1/2+z
1/2-x,1/2+y,1/2+z
1/2+x,1/2-y,1/2+z
loop_
_atom_site_type_symbol
_atom_site_label
_atom_site_fract_x
_atom_site_fract_y
_atom_site_fract_z
Si Si1 0.275618 0.831855 0.425920
Si Si2 0.859511 0.333641 0.583605
Si Si3 0.936582 0.167976 0.056386
Si Si4 0.830873 0.669224 0.382578
Si Si5 0.862832 0.833634 0.219227
Si Si6 0.237340 0.834706 0.100735
Si Si7 0.102824 0.331189 0.882412
Si Si8 0.563013 0.332935 0.210388
O O1 0.228376 0.743688 0.376064
O O2 0.284755 0.773701 0.525690
O O3 0.332086 0.810999 0.373003
O O4 0.258141 0.000000 0.430320
O O5 0.876739 0.500000 0.603030
O O6 0.858129 0.301996 0.478205
O O7 0.800001 0.300420 0.626052
O O8 0.903006 0.227122 0.627217
O O9 0.903535 0.223505 0.142726
O O10 0.000000 0.187763 0.077598
O O11 0.921524 0.000000 0.036119
O O12 0.919968 0.262629 0.972362
O O13 0.822911 0.500000 0.363572
O O14 0.870468 0.736967 0.307553
O O15 0.800053 0.817251 0.187375
O O16 0.876647 0.000000 0.243470
O O17 0.234045 0.000000 0.062375
O O18 0.086646 0.500000 0.882592
O O19 0.074305 0.255898 0.799453
O O20 0.500000 0.317049 0.184365
O O21 0.579207 0.500000 0.227401
#
# Coordination Sequence:
#
# PCOD8189422 Si02
#       8
#     8   8   8   8   8   8   8   8
#     4  10  20  34  54  83 117 152 190 229 278 339
#     4   9  20  39  60  83 113 148 190 238 289 344
#     4  10  21  38  60  85 116 156 198 237 282 336
#     4  10  22  38  58  85 118 153 191 237 288 344
#     4  10  20  35  57  85 120 157 191 236 286 335
#     4   9  18  34  56  83 115 151 186 227 283 339
#     4  11  23  37  57  86 118 154 192 232 283 343
#     4  11  25  42  60  84 112 146 193 242 289 344
#
# _framework density 18.981649000000001
#
# number of rings (size 3 to 8) (size 9 to 14) (size 15 to 20)
#    0.000    2.000    1.250    2.625    1.750    7.750 
#    0.000    0.625    0.000    2.250    0.000    0.000 
#    0.000    0.000    0.000    0.000    0.000    0.000 
#
# Total GULP energy -396897.463098 kJ/mol
# GULP energy per Si atom -12403.045722 kJ/mol
# Density = 1.893845 g / cm^3
# Si number density = 18.981649 Si / 1000 Ang^3
#
#
#
# Elastic Constant Matrix: (Units=GPa)
#
#
# Indices 1 2 3 4 5 6 
#
# 1 95.7407 56.9949 53.6353 0.0000 0.0000 0.0000
# 2 56.9949 114.0206 60.3209 0.0000 0.0000 0.0000
# 3 53.6353 60.3209 104.3577 0.0000 0.0000 0.0000
# 4 0.0000 0.0000 0.0000 37.7325 0.0000 0.0000
# 5 0.0000 0.0000 0.0000 0.0000 27.3065 0.0000
# 6 0.0000 0.0000 0.0000 0.0000 0.0000 28.4373
#
#
#
# Elastic Compliance Matrix: (Units=1/GPa)
#
#
# Indices 1 2 3 4 5 6 
#
# 1 0.016768 -0.005506 -0.005435 0.000000 0.000000 0.000000
# 2 -0.005506 0.014442 -0.005518 0.000000 0.000000 0.000000
# 3 -0.005435 -0.005518 0.015565 0.000000 0.000000 0.000000
# 4 0.000000 0.000000 0.000000 0.026502 0.000000 0.000000
# 5 0.000000 0.000000 0.000000 0.000000 0.036621 0.000000
# 6 0.000000 0.000000 0.000000 0.000000 0.000000 0.035165
#
#
# Mechanical properties :
#
#
# Convention : Reuss Voigt Hill
#
# Bulk Modulus (GPa) = 72.16813 72.89125 72.52969
# Shear Modulus (GPa) = 27.38226 28.23978 27.81102
#
# Velocity S-wave (km/s) = 3.80223 3.86131 3.83188
# Velocity P-wave (km/s) = 7.57486 7.63963 7.60731
#
# Compressibility (1/GPa) = 0.01385653
#
# Stress axis : x y z
#
# Youngs Moduli (GPa) = 59.63899 69.24379 64.24591
#
# Poissons Ratio (x) = 0.38127 0.34918
# Poissons Ratio (y) = 0.32838 0.35449
# Poissons Ratio (z) = 0.32415 0.38207
#
# Static dielectric constant tensor:
#      x y z
#    x 3.466610 0.000000 0.000000 
#    y 0.000000 3.569250 0.000000 
#    z 0.000000 0.000000 3.399740 
# 
# 
# High freq. dielectric constant tensor:
#      x y z
#    x 1.731530 0.000000 0.000000 
#    y 0.000000 1.742450 0.000000 
#    z 0.000000 0.000000 1.734220 
# 
# From -- ./inp_files/16820.got.cif
#   From: 2010.03.12/outbox.cif.g09.slc.cpg/sg44_9_cif.got.tgz:16820.got - 2010.04.14 02:36:11.
