data_PCOD8189523
_publ_section_title
;
Structure prediction by ZEFSAII (Michael W. Deem and Ramdas Pophale) SiO2 
 PCOD8189523
Probable space group: I M M 2
;
_chemical_formula_sum "Si O2"
_cell_formula_units_Z 64
_cell_length_a 24.499038
_cell_length_b 8.988354
_cell_length_c 15.344140
_cell_angle_alpha 90.000000
_cell_angle_beta 90.000000
_cell_angle_gamma 90.000000
_cell_volume 3378.872095
_symmetry_space_group_name_H-M "I M M 2"
_symmetry_group_IT_number 44
_symmetry_cell_setting 'orthorhombic'
loop_
_space_group_symop_operation_xyz
x,y,z
-x,-y,z
-x,y,z
x,-y,z
1/2+x,1/2+y,1/2+z
1/2-x,1/2-y,1/2+z
1/2-x,1/2+y,1/2+z
1/2+x,1/2-y,1/2+z
loop_
_atom_site_type_symbol
_atom_site_label
_atom_site_fract_x
_atom_site_fract_y
_atom_site_fract_z
Si Si1 0.278312 0.832355 0.415740
Si Si2 0.860322 0.676613 0.557172
Si Si3 0.936349 0.173384 0.035191
Si Si4 0.843716 0.827836 0.379430
Si Si5 0.859908 0.823338 0.190259
Si Si6 0.240453 0.824860 0.086872
Si Si7 0.104705 0.328172 0.862067
Si Si8 0.563648 0.330697 0.193007
O O1 0.221365 0.803805 0.366394
O O2 0.285474 0.718528 0.494554
O O3 0.329704 0.808968 0.351211
O O4 0.279446 0.000000 0.453645
O O5 0.863216 0.500000 0.557345
O O6 0.868220 0.732579 0.458356
O O7 0.802235 0.737399 0.594644
O O8 0.907612 0.738530 0.617361
O O9 0.906768 0.230016 0.123697
O O10 0.000000 0.201849 0.048983
O O11 0.923730 0.000000 0.017031
O O12 0.914805 0.269765 0.955261
O O13 0.871448 0.770107 0.289348
O O14 0.857361 0.000000 0.397881
O O15 0.800267 0.761531 0.160591
O O16 0.857178 0.000000 0.190364
O O17 0.243222 0.000000 0.091471
O O18 0.087698 0.500000 0.852919
O O19 0.075280 0.235896 0.787491
O O20 0.500000 0.321137 0.173734
O O21 0.584453 0.500000 0.191305
#
# Coordination Sequence:
#
# PCOD8189523 Si02
#       8
#     8   8   8   8   8   8   8   8
#     4   9  18  31  50  78 112 147 182 220 270 332
#     4  10  21  37  59  85 113 143 182 235 290 337
#     4  10  20  35  55  79 110 149 193 235 274 326
#     4   9  18  34  56  79 113 153 187 226 276 334
#     4   9  17  31  54  80 108 148 192 233 270 316
#     4   9  17  31  54  80 110 147 185 223 271 328
#     4  11  22  35  55  84 116 148 183 229 284 336
#     4  11  25  43  61  81 107 145 193 236 278 338
#
# _framework density 18.941231999999999
#
# number of rings (size 3 to 8) (size 9 to 14) (size 15 to 20)
#    0.000    2.250    1.250    1.500    1.750    3.750 
#    0.000    1.875    0.000    2.250    0.000    0.000 
#    0.000    0.000    0.000    0.000    0.000    0.000 
#
# Total GULP energy -396707.545658 kJ/mol
# GULP energy per Si atom -12397.110802 kJ/mol
# Density = 1.889812 g / cm^3
# Si number density = 18.941232 Si / 1000 Ang^3
#
#
#
# Elastic Constant Matrix: (Units=GPa)
#
#
# Indices 1 2 3 4 5 6 
#
# 1 77.0411 30.9145 53.2586 0.0000 0.0000 0.0000
# 2 30.9145 53.7126 35.8641 0.0000 0.0000 0.0000
# 3 53.2586 35.8641 129.3364 0.0000 0.0000 0.0000
# 4 0.0000 0.0000 0.0000 21.9563 0.0000 0.0000
# 5 0.0000 0.0000 0.0000 0.0000 29.5435 0.0000
# 6 0.0000 0.0000 0.0000 0.0000 0.0000 23.1079
#
#
#
# Elastic Compliance Matrix: (Units=1/GPa)
#
#
# Indices 1 2 3 4 5 6 
#
# 1 0.020344 -0.007505 -0.006296 0.000000 0.000000 0.000000
# 2 -0.007505 0.025617 -0.004013 0.000000 0.000000 0.000000
# 3 -0.006296 -0.004013 0.011437 0.000000 0.000000 0.000000
# 4 0.000000 0.000000 0.000000 0.045545 0.000000 0.000000
# 5 0.000000 0.000000 0.000000 0.000000 0.033848 0.000000
# 6 0.000000 0.000000 0.000000 0.000000 0.000000 0.043275
#
#
# Mechanical properties :
#
#
# Convention : Reuss Voigt Hill
#
# Bulk Modulus (GPa) = 45.93571 55.57385 50.75478
# Shear Modulus (GPa) = 22.42635 24.25841 23.34238
#
# Velocity S-wave (km/s) = 3.44466 3.58260 3.51430
# Velocity P-wave (km/s) = 6.33445 6.82035 6.58188
#
# Compressibility (1/GPa) = 0.02176956
#
# Stress axis : x y z
#
# Youngs Moduli (GPa) = 49.15355 39.03713 87.43375
#
# Poissons Ratio (x) = 0.29298 0.55051
# Poissons Ratio (y) = 0.36891 0.35085
# Poissons Ratio (z) = 0.30949 0.15665
#
# Static dielectric constant tensor:
#      x y z
#    x 3.610310 0.000000 0.000000 
#    y 0.000000 3.378390 0.000000 
#    z 0.000000 0.000000 3.543250 
# 
# 
# High freq. dielectric constant tensor:
#      x y z
#    x 1.733770 0.000000 0.000000 
#    y 0.000000 1.721550 0.000000 
#    z 0.000000 0.000000 1.733420 
# 
# From -- ./inp_files/16843.got.cif
#   From: 2010.03.12/outbox.cif.g09.slc.cpg/sg44_9_cif.got.tgz:16843.got - 2010.04.14 02:36:11.
