data_PCOD8189394
_publ_section_title
;
Structure prediction by ZEFSAII (Michael W. Deem and Ramdas Pophale) SiO2 
 PCOD8189394
Probable space group: I M M 2
;
_chemical_formula_sum "Si O2"
_cell_formula_units_Z 64
_cell_length_a 18.326008
_cell_length_b 9.103751
_cell_length_c 20.638171
_cell_angle_alpha 90.000000
_cell_angle_beta 90.000000
_cell_angle_gamma 90.000000
_cell_volume 3443.177796
_symmetry_space_group_name_H-M "I M M 2"
_symmetry_group_IT_number 44
_symmetry_cell_setting 'orthorhombic'
loop_
_space_group_symop_operation_xyz
x,y,z
-x,-y,z
-x,y,z
x,-y,z
1/2+x,1/2+y,1/2+z
1/2-x,1/2-y,1/2+z
1/2-x,1/2+y,1/2+z
1/2+x,1/2-y,1/2+z
loop_
_atom_site_type_symbol
_atom_site_label
_atom_site_fract_x
_atom_site_fract_y
_atom_site_fract_z
Si Si1 0.301769 0.165640 0.273270
Si Si2 0.322214 0.166395 0.134150
Si Si3 0.156764 0.669302 0.269628
Si Si4 0.655425 0.172266 0.913778
Si Si5 0.916408 0.829473 0.529971
Si Si6 0.083099 0.670745 0.024453
Si Si7 0.808408 0.668298 0.914911
Si Si8 0.650574 0.670385 0.644065
O O1 0.351326 0.186733 0.208709
O O2 0.241629 0.291554 0.273429
O O3 0.343185 0.181068 0.342103
O O4 0.266515 0.000000 0.268288
O O5 0.364983 0.275951 0.088017
O O6 0.236181 0.204582 0.133346
O O7 0.335601 0.000000 0.109935
O O8 0.147295 0.500000 0.251132
O O9 0.124040 0.702589 0.341227
O O10 0.120841 0.765024 0.212468
O O11 0.735603 0.238169 0.923873
O O12 0.661115 0.000000 0.927595
O O13 0.599492 0.244218 0.963699
O O14 0.000000 0.800394 0.549734
O O15 0.900627 0.000000 0.518339
O O16 0.096742 0.500000 0.037893
O O17 0.103594 0.757729 0.088247
O O18 0.000000 0.703313 0.005832
O O19 0.131373 0.728044 0.964440
O O20 0.787927 0.500000 0.930072
O O21 0.633901 0.500000 0.644221
#
# Coordination Sequence:
#
# PCOD8189394 Si02
#       8
#     8   8   8   8   8   8   8   8
#     4   8  15  29  50  78 106 130 163 207 252 298
#     4   9  18  33  54  79 104 130 164 209 256 302
#     4   9  17  30  51  79 105 129 161 204 254 303
#     4  10  20  34  55  81 104 129 165 208 254 305
#     4  11  24  38  51  71 101 137 175 212 251 299
#     4  10  21  35  50  72 104 140 176 212 250 295
#     4   9  17  32  55  79 104 135 169 208 253 298
#     4  10  20  34  54  79 104 132 169 210 252 301
#
# _framework density 18.587482000000001
#
# number of rings (size 3 to 8) (size 9 to 14) (size 15 to 20)
#    0.000    2.500    0.000    3.000    0.000    7.750 
#    0.000    1.250    0.000    3.000    0.000    0.000 
#    0.000    0.000    0.000    0.000    0.000    0.000 
#
# Total GULP energy -396617.490408 kJ/mol
# GULP energy per Si atom -12394.296575 kJ/mol
# Density = 1.854518 g / cm^3
# Si number density = 18.587482 Si / 1000 Ang^3
#
#
#
# Elastic Constant Matrix: (Units=GPa)
#
#
# Indices 1 2 3 4 5 6 
#
# 1 33.9436 26.9383 15.9953 0.0000 0.0000 0.0000
# 2 26.9383 68.4661 36.2754 0.0000 0.0000 0.0000
# 3 15.9953 36.2754 109.3733 0.0000 0.0000 0.0000
# 4 0.0000 0.0000 0.0000 30.8626 0.0000 0.0000
# 5 0.0000 0.0000 0.0000 0.0000 2.6127 0.0000
# 6 0.0000 0.0000 0.0000 0.0000 0.0000 20.7228
#
#
#
# Elastic Compliance Matrix: (Units=1/GPa)
#
#
# Indices 1 2 3 4 5 6 
#
# 1 0.042897 -0.016444 -0.000820 0.000000 0.000000 0.000000
# 2 -0.016444 0.024023 -0.005563 0.000000 0.000000 0.000000
# 3 -0.000820 -0.005563 0.011108 0.000000 0.000000 0.000000
# 4 0.000000 0.000000 0.000000 0.032402 0.000000 0.000000
# 5 0.000000 0.000000 0.000000 0.000000 0.382741 0.000000
# 6 0.000000 0.000000 0.000000 0.000000 0.000000 0.048256
#
#
# Mechanical properties :
#
#
# Convention : Reuss Voigt Hill
#
# Bulk Modulus (GPa) = 30.88759 41.13345 36.01052
# Shear Modulus (GPa) = 8.36301 19.67790 14.02046
#
# Velocity S-wave (km/s) = 2.12345 3.25724 2.74942
# Velocity P-wave (km/s) = 4.76083 6.02693 5.43090
#
# Compressibility (1/GPa) = 0.03237546
#
# Stress axis : x y z
#
# Youngs Moduli (GPa) = 23.31165 41.62681 90.02636
#
# Poissons Ratio (x) = 0.68450 0.07379
# Poissons Ratio (y) = 0.38333 0.50080
# Poissons Ratio (z) = 0.01911 0.23156
#
# Static dielectric constant tensor:
#      x y z
#    x 3.018590 0.000000 0.000000 
#    y 0.000000 3.448210 0.000000 
#    z 0.000000 0.000000 3.912100 
# 
# 
# High freq. dielectric constant tensor:
#      x y z
#    x 1.673010 0.000000 0.000000 
#    y 0.000000 1.726630 0.000000 
#    z 0.000000 0.000000 1.746030 
# 
# From -- ./inp_files/23275.got.cif
#   From: 2010.03.12/outbox.cif.g09.slc.cpg/sg44_12_cif.got.tgz:23275.got - 2010.04.14 02:36:11.
