data_PCOD8189823
_publ_section_title
;
Structure prediction by ZEFSAII (Michael W. Deem and Ramdas Pophale) SiO2 
 PCOD8189823
Probable space group: I M M 2
;
_chemical_formula_sum "Si O2"
_cell_formula_units_Z 40
_cell_length_a 9.308454
_cell_length_b 7.616910
_cell_length_c 29.161934
_cell_angle_alpha 90.000000
_cell_angle_beta 90.000000
_cell_angle_gamma 90.000000
_cell_volume 2067.629423
_symmetry_space_group_name_H-M "I M M 2"
_symmetry_group_IT_number 44
_symmetry_cell_setting 'orthorhombic'
loop_
_space_group_symop_operation_xyz
x,y,z
-x,-y,z
-x,y,z
x,-y,z
1/2+x,1/2+y,1/2+z
1/2-x,1/2-y,1/2+z
1/2-x,1/2+y,1/2+z
1/2+x,1/2-y,1/2+z
loop_
_atom_site_type_symbol
_atom_site_label
_atom_site_fract_x
_atom_site_fract_y
_atom_site_fract_z
Si Si1 0.158874 0.294273 0.615420
Si Si2 0.668360 0.702624 0.945176
Si Si3 0.830332 0.500000 0.377309
Si Si4 0.671833 0.000000 0.773608
Si Si5 0.343206 0.799402 0.531260
Si Si6 0.167479 0.703257 0.719802
O O1 0.155199 0.500000 0.607703
O O2 0.272171 0.211596 0.581030
O O3 0.205069 0.250173 0.667237
O O4 0.000000 0.216246 0.605748
O O5 0.500000 0.724948 0.954004
O O6 0.706942 0.500000 0.933955
O O7 0.722490 0.823340 0.903137
O O8 0.744254 0.779047 0.990974
O O9 0.771007 0.500000 0.325798
O O10 0.000000 0.500000 0.375611
O O11 0.732819 0.176122 0.750961
O O12 0.500000 0.000000 0.769741
O O13 0.500000 0.705962 0.532144
O O14 0.365076 0.000000 0.518864
O O15 0.202890 0.500000 0.730373
O O16 0.000000 0.741811 0.729440
#
# Coordination Sequence:
#
# PCOD8189823 Si02
#       6
#     8   8   4   4   8   8
#     4   9  19  35  55  78 104 142 190 231 268 320
#     4   9  18  35  57  77 103 143 189 232 271 321
#     4   9  20  37  57  83 109 141 189 237 280 339
#     4  11  23  37  59  91 121 149 187 241 306 355
#     4  10  21  34  49  77 115 146 175 219 279 338
#     4   9  20  40  61  82 113 153 198 243 283 337
#
# _framework density 19.345825000000001
#
# number of rings (size 3 to 8) (size 9 to 14) (size 15 to 20)
#    0.000    2.600    0.000    2.100    2.800    3.600 
#    0.000    6.000    0.000    2.400    0.000    0.000 
#    0.000    0.000    0.000    0.000    0.000    0.000 
#
# Total GULP energy -247927.923593 kJ/mol
# GULP energy per Si atom -12396.396180 kJ/mol
# Density = 1.930179 g / cm^3
# Si number density = 19.345825 Si / 1000 Ang^3
#
#
#
# Elastic Constant Matrix: (Units=GPa)
#
#
# Indices 1 2 3 4 5 6 
#
# 1 99.3870 46.7442 74.2564 0.0000 0.0000 0.0000
# 2 46.7442 88.8225 64.9997 0.0000 0.0000 0.0000
# 3 74.2564 64.9997 157.0117 0.0000 0.0000 0.0000
# 4 0.0000 0.0000 0.0000 31.8857 0.0000 0.0000
# 5 0.0000 0.0000 0.0000 0.0000 27.2221 0.0000
# 6 0.0000 0.0000 0.0000 0.0000 0.0000 22.4075
#
#
#
# Elastic Compliance Matrix: (Units=1/GPa)
#
#
# Indices 1 2 3 4 5 6 
#
# 1 0.016630 -0.004299 -0.006085 0.000000 0.000000 0.000000
# 2 -0.004299 0.017263 -0.005113 0.000000 0.000000 0.000000
# 3 -0.006085 -0.005113 0.011364 0.000000 0.000000 0.000000
# 4 0.000000 0.000000 0.000000 0.031362 0.000000 0.000000
# 5 0.000000 0.000000 0.000000 0.000000 0.036735 0.000000
# 6 0.000000 0.000000 0.000000 0.000000 0.000000 0.044628
#
#
# Mechanical properties :
#
#
# Convention : Reuss Voigt Hill
#
# Bulk Modulus (GPa) = 70.11811 79.69128 74.90470
# Shear Modulus (GPa) = 25.80913 26.91780 26.36347
#
# Velocity S-wave (km/s) = 3.65649 3.73420 3.69555
# Velocity P-wave (km/s) = 7.35865 7.73788 7.55065
#
# Compressibility (1/GPa) = 0.01426165
#
# Stress axis : x y z
#
# Youngs Moduli (GPa) = 60.13196 57.92888 87.99857
#
# Poissons Ratio (x) = 0.24901 0.53551
# Poissons Ratio (y) = 0.25848 0.44997
# Poissons Ratio (z) = 0.36593 0.29621
#
# Static dielectric constant tensor:
#      x y z
#    x 3.849850 0.000000 0.000000 
#    y 0.000000 3.528210 0.000000 
#    z 0.000000 0.000000 3.704680 
# 
# 
# High freq. dielectric constant tensor:
#      x y z
#    x 1.740370 0.000000 0.000000 
#    y 0.000000 1.755140 0.000000 
#    z 0.000000 0.000000 1.750020 
# 
# From -- ./inp_files/25943.got.cif
#   From: 2010.03.12/outbox.cif.g09.slc.cpg/sg44_13_cif.got.tgz:25943.got - 2010.04.14 02:36:11.
