data_PCOD8189807
_publ_section_title
;
Structure prediction by ZEFSAII (Michael W. Deem and Ramdas Pophale) SiO2 
 PCOD8189807
Probable space group: I M M 2
;
_chemical_formula_sum "Si O2"
_cell_formula_units_Z 40
_cell_length_a 7.552272
_cell_length_b 11.824413
_cell_length_c 22.192502
_cell_angle_alpha 90.000000
_cell_angle_beta 90.000000
_cell_angle_gamma 90.000000
_cell_volume 1981.816687
_symmetry_space_group_name_H-M "I M M 2"
_symmetry_group_IT_number 44
_symmetry_cell_setting 'orthorhombic'
loop_
_space_group_symop_operation_xyz
x,y,z
-x,-y,z
-x,y,z
x,-y,z
1/2+x,1/2+y,1/2+z
1/2-x,1/2-y,1/2+z
1/2-x,1/2+y,1/2+z
1/2+x,1/2-y,1/2+z
loop_
_atom_site_type_symbol
_atom_site_label
_atom_site_fract_x
_atom_site_fract_y
_atom_site_fract_z
Si Si1 0.000000 0.131017 0.824700
Si Si2 0.500000 0.368869 0.183649
Si Si3 0.793497 0.127387 0.500272
Si Si4 0.207065 0.791883 0.366128
Si Si5 0.200016 0.242153 0.113875
Si Si6 0.791399 0.000000 0.151036
Si Si7 0.709869 0.500000 0.786118
O O1 0.000000 0.154712 0.754003
O O2 0.821736 0.180936 0.853807
O O3 0.000000 0.000000 0.840382
O O4 0.500000 0.500000 0.167344
O O5 0.321996 0.317733 0.156113
O O6 0.752749 0.165597 0.432999
O O7 0.698267 0.213468 0.545543
O O8 0.000000 0.130990 0.514872
O O9 0.721029 0.000000 0.509520
O O10 0.275702 0.888343 0.320528
O O11 0.000000 0.763290 0.357237
O O12 0.000000 0.248323 0.139687
O O13 0.270992 0.112361 0.115481
O O14 0.710679 0.000000 0.218693
O O15 0.000000 0.000000 0.156692
O O16 0.500000 0.500000 0.787206
#
# Coordination Sequence:
#
# PCOD8189807 Si02
#       7
#     4   4   8   8   8   4   4
#     4  11  26  43  61  91 127 168 217 255 307 384
#     4  11  24  43  63  91 127 164 213 267 313 366
#     4  10  20  39  64  91 127 160 205 263 315 369
#     4  10  21  40  65  94 122 161 205 266 326 367
#     4  11  23  40  62  92 127 171 207 254 314 375
#     4   9  20  37  59  89 124 163 207 247 305 382
#     4   9  16  35  65  93 120 151 203 265 317 370
#
# _framework density 20.183503000000002
#
# number of rings (size 3 to 8) (size 9 to 14) (size 15 to 20)
#    0.000    1.800    2.000    1.800    1.400    5.200 
#    1.800    4.000    0.000    0.000    0.000    0.000 
#    0.000    0.000    0.000    0.000    0.000    0.000 
#
# Total GULP energy -248035.786317 kJ/mol
# GULP energy per Si atom -12401.789316 kJ/mol
# Density = 2.013756 g / cm^3
# Si number density = 20.183503 Si / 1000 Ang^3
#
#
#
# Elastic Constant Matrix: (Units=GPa)
#
#
# Indices 1 2 3 4 5 6 
#
# 1 88.6755 58.5668 33.4708 0.0000 0.0000 0.0000
# 2 58.5668 172.0263 90.2390 0.0000 0.0000 0.0000
# 3 33.4708 90.2390 114.5174 0.0000 0.0000 0.0000
# 4 0.0000 0.0000 0.0000 40.5881 0.0000 0.0000
# 5 0.0000 0.0000 0.0000 0.0000 19.3330 0.0000
# 6 0.0000 0.0000 0.0000 0.0000 0.0000 33.3551
#
#
#
# Elastic Compliance Matrix: (Units=1/GPa)
#
#
# Indices 1 2 3 4 5 6 
#
# 1 0.014572 -0.004648 -0.000596 0.000000 0.000000 0.000000
# 2 -0.004648 0.011392 -0.007618 0.000000 0.000000 0.000000
# 3 -0.000596 -0.007618 0.014910 0.000000 0.000000 0.000000
# 4 0.000000 0.000000 0.000000 0.024638 0.000000 0.000000
# 5 0.000000 0.000000 0.000000 0.000000 0.051725 0.000000
# 6 0.000000 0.000000 0.000000 0.000000 0.000000 0.029980
#
#
# Mechanical properties :
#
#
# Convention : Reuss Voigt Hill
#
# Bulk Modulus (GPa) = 66.01435 82.19692 74.10564
# Shear Modulus (GPa) = 28.09127 31.51810 29.80469
#
# Velocity S-wave (km/s) = 3.73472 3.95597 3.84694
# Velocity P-wave (km/s) = 7.16768 7.85363 7.51848
#
# Compressibility (1/GPa) = 0.01514822
#
# Stress axis : x y z
#
# Youngs Moduli (GPa) = 68.62390 87.78272 67.07128
#
# Poissons Ratio (x) = 0.40805 0.03999
# Poissons Ratio (y) = 0.31899 0.51095
# Poissons Ratio (z) = 0.04091 0.66873
#
# Static dielectric constant tensor:
#      x y z
#    x 3.615290 0.000000 0.000000 
#    y 0.000000 3.899260 0.000000 
#    z 0.000000 0.000000 3.767750 
# 
# 
# High freq. dielectric constant tensor:
#      x y z
#    x 1.786240 0.000000 0.000000 
#    y 0.000000 1.790290 0.000000 
#    z 0.000000 0.000000 1.791890 
# 
# From -- ./inp_files/22838.got.cif
#   From: 2010.03.12/outbox.cif.g09.slc.cpg/sg44_12_cif.got.tgz:22838.got - 2010.04.14 02:36:11.
