data_PCOD8189436
_publ_section_title
;
Structure prediction by ZEFSAII (Michael W. Deem and Ramdas Pophale) SiO2 
 PCOD8189436
Probable space group: I M M 2
;
_chemical_formula_sum "Si O2"
_cell_formula_units_Z 64
_cell_length_a 13.481295
_cell_length_b 26.059300
_cell_length_c 9.590978
_cell_angle_alpha 90.000000
_cell_angle_beta 90.000000
_cell_angle_gamma 90.000000
_cell_volume 3369.436317
_symmetry_space_group_name_H-M "I M M 2"
_symmetry_group_IT_number 44
_symmetry_cell_setting 'orthorhombic'
loop_
_space_group_symop_operation_xyz
x,y,z
-x,-y,z
-x,y,z
x,-y,z
1/2+x,1/2+y,1/2+z
1/2-x,1/2-y,1/2+z
1/2-x,1/2+y,1/2+z
1/2+x,1/2-y,1/2+z
loop_
_atom_site_type_symbol
_atom_site_label
_atom_site_fract_x
_atom_site_fract_y
_atom_site_fract_z
Si Si1 0.711836 0.059844 0.688980
Si Si2 0.112220 0.343824 0.576823
Si Si3 0.112715 0.349169 0.052818
Si Si4 0.887981 0.278733 0.310877
Si Si5 0.752873 0.183730 0.304372
Si Si6 0.393274 0.441870 0.014671
Si Si7 0.223791 0.557752 0.515628
Si Si8 0.114686 0.906882 0.214272
O O1 0.623881 0.095975 0.632058
O O2 0.808767 0.082766 0.610437
O O3 0.689058 0.000000 0.652388
O O4 0.730608 0.067470 0.851542
O O5 0.126053 0.324659 0.419983
O O6 0.175383 0.307575 0.679161
O O7 0.146667 0.403109 0.586199
O O8 0.000000 0.341157 0.628240
O O9 0.129499 0.302186 0.158665
O O10 0.000000 0.347642 0.994120
O O11 0.193227 0.342332 0.931094
O O12 0.804404 0.236867 0.346399
O O13 0.000000 0.255984 0.323402
O O14 0.841898 0.148800 0.248123
O O15 0.500000 0.413748 0.039361
O O16 0.402767 0.500000 0.063637
O O17 0.367156 0.441216 0.851118
O O18 0.186637 0.500000 0.546068
O O19 0.331841 0.566576 0.582937
O O20 0.000000 0.901580 0.173631
#
# Coordination Sequence:
#
# PCOD8189436 Si02
#       8
#     8   8   8   8   8   8   8   8
#     4  10  20  36  56  82 113 148 189 232 280 333
#     4  10  21  38  57  82 114 146 185 229 277 332
#     4  11  22  38  59  86 117 149 187 232 281 332
#     4  10  21  38  61  84 110 146 187 231 281 334
#     4  11  21  37  59  84 113 148 186 230 281 331
#     4   9  17  31  52  77 108 145 181 221 273 330
#     4  10  21  35  56  82 111 149 191 233 278 332
#     4  10  20  34  55  82 113 147 187 230 277 332
#
# _framework density 18.994274000000001
#
# number of rings (size 3 to 8) (size 9 to 14) (size 15 to 20)
#    0.000    1.875    2.500    1.875    0.000    1.750 
#    0.000    2.500    0.000    3.000    0.000    0.000 
#    0.000    0.000    0.000    0.000    0.000    0.000 
#
# Total GULP energy -396711.430699 kJ/mol
# GULP energy per Si atom -12397.232209 kJ/mol
# Density = 1.895104 g / cm^3
# Si number density = 18.994274 Si / 1000 Ang^3
#
#
#
# Elastic Constant Matrix: (Units=GPa)
#
#
# Indices 1 2 3 4 5 6 
#
# 1 106.2331 46.6177 33.6573 -0.0004 -0.0001 -0.0003
# 2 46.6177 83.0089 19.3994 0.0051 0.0003 0.0000
# 3 33.6573 19.3994 69.7801 0.0108 0.0008 -0.0001
# 4 -0.0004 0.0051 0.0108 25.5679 0.0003 0.0002
# 5 -0.0001 0.0003 0.0008 0.0003 24.3154 0.0000
# 6 -0.0003 0.0000 -0.0001 0.0002 0.0000 24.7384
#
#
#
# Elastic Compliance Matrix: (Units=1/GPa)
#
#
# Indices 1 2 3 4 5 6 
#
# 1 0.013867 -0.006657 -0.004838 0.000004 0.000000 0.000000
# 2 -0.006657 0.016080 -0.001259 -0.000003 0.000000 0.000000
# 3 -0.004838 -0.001259 0.017014 -0.000007 -0.000001 0.000000
# 4 0.000004 -0.000003 -0.000007 0.039112 -0.000001 0.000000
# 5 0.000000 0.000000 -0.000001 -0.000001 0.041126 0.000000
# 6 0.000000 0.000000 0.000000 0.000000 0.000000 0.040423
#
#
# Mechanical properties :
#
#
# Convention : Reuss Voigt Hill
#
# Bulk Modulus (GPa) = 46.61437 50.93010 48.77224
# Shear Modulus (GPa) = 24.96475 25.54752 25.25614
#
# Velocity S-wave (km/s) = 3.62930 3.67142 3.65042
# Velocity P-wave (km/s) = 6.49284 6.69657 6.59549
#
# Compressibility (1/GPa) = 0.02145261
#
# Stress axis : x y z
#
# Youngs Moduli (GPa) = 72.11138 62.18932 58.77390
#
# Poissons Ratio (x) = 0.41401 0.28435
# Poissons Ratio (y) = 0.48007 0.07401
# Poissons Ratio (z) = 0.34887 0.07831
#
# Static dielectric constant tensor:
#      x y z
#    x 3.639290 0.000000 0.000000 
#    y 0.000000 3.301010 0.000000 
#    z 0.000000 0.000000 3.438590 
# 
# 
# High freq. dielectric constant tensor:
#      x y z
#    x 1.742680 0.000000 0.000000 
#    y 0.000000 1.726730 0.000000 
#    z 0.000000 0.000000 1.739430 
# 
# From -- ./inp_files/7570.got.cif
#   From: 2010.03.12/outbox.cif.g09.slc.cpg/sg44_4_cif.got.tgz:7570.got - 2010.04.14 02:36:11.
