data_PCOD8189873
_publ_section_title
;
Structure prediction by ZEFSAII (Michael W. Deem and Ramdas Pophale) SiO2 
 PCOD8189873
Probable space group: I M M 2
;
_chemical_formula_sum "Si O2"
_cell_formula_units_Z 40
_cell_length_a 8.972251
_cell_length_b 26.179057
_cell_length_c 9.197742
_cell_angle_alpha 90.000000
_cell_angle_beta 90.000000
_cell_angle_gamma 90.000000
_cell_volume 2160.412277
_symmetry_space_group_name_H-M "I M M 2"
_symmetry_group_IT_number 44
_symmetry_cell_setting 'orthorhombic'
loop_
_space_group_symop_operation_xyz
x,y,z
-x,-y,z
-x,y,z
x,-y,z
1/2+x,1/2+y,1/2+z
1/2-x,1/2-y,1/2+z
1/2-x,1/2+y,1/2+z
1/2+x,1/2-y,1/2+z
loop_
_atom_site_type_symbol
_atom_site_label
_atom_site_fract_x
_atom_site_fract_y
_atom_site_fract_z
Si Si1 0.325508 0.703543 0.844350
Si Si2 0.662593 0.500000 0.664575
Si Si3 0.662469 0.500000 0.320543
Si Si4 0.821905 0.890421 0.151960
Si Si5 0.321641 0.610182 0.324267
Si Si6 0.826210 0.699058 0.149069
O O1 0.500000 0.699013 0.880329
O O2 0.266202 0.653203 0.760941
O O3 0.289793 0.751912 0.745275
O O4 0.232604 0.710565 0.989357
O O5 0.500000 0.500000 0.740037
O O6 0.642026 0.500000 0.492631
O O7 0.743745 0.553941 0.705375
O O8 0.500000 0.500000 0.246227
O O9 0.741358 0.446349 0.277048
O O10 0.000000 0.893926 0.150033
O O11 0.767528 0.877009 0.988447
O O12 0.500000 0.611072 0.315372
O O13 0.255868 0.650147 0.212628
O O14 0.000000 0.687474 0.142591
#
# Coordination Sequence:
#
# PCOD8189873 Si02
#       6
#     8   4   4   8   8   8
#     4  10  21  36  52  71  98 132 168 206 252 306
#     4   7  10  20  43  75 102 120 152 205 250 281
#     4   7  12  24  48  79 102 128 168 205 240 289
#     4   8  14  27  50  77 100 125 161 205 248 290
#     4   9  16  31  55  79 104 133 167 208 250 293
#     4  11  23  36  51  74 101 131 169 210 256 306
#
# _framework density 18.514983999999998
#
# number of rings (size 3 to 8) (size 9 to 14) (size 15 to 20)
#    0.000    3.000    0.000    4.200    0.000    3.200 
#    0.000    2.500    0.000    3.600    0.000    1.400 
#    0.000    0.000    0.000    0.000    0.000    0.000 
#
# Total GULP energy -247778.970468 kJ/mol
# GULP energy per Si atom -12388.948523 kJ/mol
# Density = 1.847284 g / cm^3
# Si number density = 18.514984 Si / 1000 Ang^3
#
#
#
# Elastic Constant Matrix: (Units=GPa)
#
#
# Indices 1 2 3 4 5 6 
#
# 1 31.9711 38.9460 31.2939 -0.0018 -0.0011 0.0007
# 2 38.9460 160.2715 55.8013 0.0006 0.0025 -0.0008
# 3 31.2939 55.8013 91.6866 -0.0114 -0.0073 0.0035
# 4 -0.0018 0.0006 -0.0114 31.9464 -0.0008 0.0007
# 5 -0.0011 0.0025 -0.0073 -0.0008 22.4293 -0.0004
# 6 0.0007 -0.0008 0.0035 0.0007 -0.0004 16.9541
#
#
#
# Elastic Compliance Matrix: (Units=1/GPa)
#
#
# Indices 1 2 3 4 5 6 
#
# 1 0.055082 -0.008678 -0.013519 -0.000002 -0.000001 0.000000
# 2 -0.008678 0.009284 -0.002688 -0.000002 -0.000002 0.000001
# 3 -0.013519 -0.002688 0.017157 0.000005 0.000005 -0.000003
# 4 -0.000002 -0.000002 0.000005 0.031302 0.000001 -0.000001
# 5 -0.000001 -0.000002 0.000005 0.000001 0.044585 0.000001
# 6 0.000000 0.000001 -0.000003 -0.000001 0.000001 0.058983
#
#
# Mechanical properties :
#
#
# Convention : Reuss Voigt Hill
#
# Bulk Modulus (GPa) = 31.49337 59.55686 45.52512
# Shear Modulus (GPa) = 18.06696 24.79181 21.42939
#
# Velocity S-wave (km/s) = 3.12717 3.66322 3.40576
# Velocity P-wave (km/s) = 5.48503 7.08018 6.33303
#
# Compressibility (1/GPa) = 0.03175272
#
# Stress axis : x y z
#
# Youngs Moduli (GPa) = 18.15473 107.70907 58.28508
#
# Poissons Ratio (x) = 0.93472 0.78793
# Poissons Ratio (y) = 0.15755 0.15670
# Poissons Ratio (z) = 0.24543 0.28958
#
# Static dielectric constant tensor:
#      x y z
#    x 2.931790 0.000000 0.000000 
#    y 0.000000 4.062120 0.000000 
#    z 0.000000 0.000000 3.196000 
# 
# 
# High freq. dielectric constant tensor:
#      x y z
#    x 1.664100 0.000000 0.000000 
#    y 0.000000 1.749400 0.000000 
#    z 0.000000 0.000000 1.696880 
# 
# From -- ./inp_files/4623.got.cif
#   From: 2010.03.12/outbox.cif.g09.slc.cpg/sg44_3_cif.got.tgz:4623.got - 2010.04.14 02:36:11.
