data_PCOD8189001
_publ_section_title
;
Structure prediction by ZEFSAII (Michael W. Deem and Ramdas Pophale) SiO2 
 PCOD8189001
Probable space group: I M M 2
;
_chemical_formula_sum "Si O2"
_cell_formula_units_Z 48
_cell_length_a 8.815696
_cell_length_b 14.487346
_cell_length_c 20.374870
_cell_angle_alpha 90.000000
_cell_angle_beta 90.000000
_cell_angle_gamma 90.000000
_cell_volume 2602.197675
_symmetry_space_group_name_H-M "I M M 2"
_symmetry_group_IT_number 44
_symmetry_cell_setting 'orthorhombic'
loop_
_space_group_symop_operation_xyz
x,y,z
-x,-y,z
-x,y,z
x,-y,z
1/2+x,1/2+y,1/2+z
1/2-x,1/2-y,1/2+z
1/2-x,1/2+y,1/2+z
1/2+x,1/2-y,1/2+z
loop_
_atom_site_type_symbol
_atom_site_label
_atom_site_fract_x
_atom_site_fract_y
_atom_site_fract_z
Si Si1 0.821381 0.686764 0.279370
Si Si2 0.325471 0.318337 0.895474
Si Si3 0.326340 0.676726 0.043203
Si Si4 0.320874 0.000000 0.200628
Si Si5 0.677400 0.801172 0.163459
Si Si6 0.321416 0.000000 0.347216
Si Si7 0.820600 0.000000 0.741402
Si Si8 0.677333 0.000000 0.598606
O O1 0.771179 0.738537 0.345974
O O2 0.772535 0.746012 0.216890
O O3 0.738105 0.589053 0.280003
O O4 0.000000 0.669716 0.276131
O O5 0.500000 0.342556 0.881733
O O6 0.230251 0.410366 0.885994
O O7 0.299025 0.284612 0.970003
O O8 0.500000 0.644160 0.052716
O O9 0.286897 0.760379 0.092020
O O10 0.219218 0.589872 0.056746
O O11 0.267389 0.907774 0.162754
O O12 0.251123 0.000000 0.273918
O O13 0.500000 0.000000 0.205722
O O14 0.500000 0.792640 0.181706
O O15 0.500000 0.000000 0.343863
O O16 0.765311 0.000000 0.666834
O O17 0.000000 0.000000 0.740710
O O18 0.500000 0.000000 0.613820
#
# Coordination Sequence:
#
# PCOD8189001 Si02
#       8
#     8   8   8   4   8   4   4   4
#     4  11  22  37  58  84 115 147 189 239 284 332
#     4  10  22  38  55  82 119 155 188 232 287 342
#     4  10  21  37  57  81 114 156 193 226 281 345
#     4   9  18  32  53  84 111 134 185 242 276 324
#     4  10  19  35  58  81 110 148 192 235 277 332
#     4  11  20  32  55  85 114 147 188 233 279 338
#     4  12  24  39  60  85 113 149 191 236 289 347
#     4  12  23  35  56  88 120 148 186 239 292 337
#
# _framework density 18.445947
#
# number of rings (size 3 to 8) (size 9 to 14) (size 15 to 20)
#    0.000    1.500    3.333    2.750    0.000    3.333 
#    0.000    1.250    0.000    4.000    0.000    0.000 
#    0.000    0.000    0.000    0.000    0.000    0.000 
#
# Total GULP energy -297670.538866 kJ/mol
# GULP energy per Si atom -12402.939119 kJ/mol
# Density = 1.840396 g / cm^3
# Si number density = 18.445947 Si / 1000 Ang^3
#
#
#
# Elastic Constant Matrix: (Units=GPa)
#
#
# Indices 1 2 3 4 5 6 
#
# 1 77.1396 46.9119 40.9994 0.0000 0.0000 0.0000
# 2 46.9119 150.9810 73.4001 0.0000 0.0000 0.0000
# 3 40.9994 73.4001 145.5955 0.0000 0.0000 0.0000
# 4 0.0000 0.0000 0.0000 44.3948 0.0000 0.0000
# 5 0.0000 0.0000 0.0000 0.0000 24.1826 0.0000
# 6 0.0000 0.0000 0.0000 0.0000 0.0000 21.8122
#
#
#
# Elastic Compliance Matrix: (Units=1/GPa)
#
#
# Indices 1 2 3 4 5 6 
#
# 1 0.016792 -0.003866 -0.002779 0.000000 0.000000 0.000000
# 2 -0.003866 0.009664 -0.003783 0.000000 0.000000 0.000000
# 3 -0.002779 -0.003783 0.009558 0.000000 0.000000 0.000000
# 4 0.000000 0.000000 0.000000 0.022525 0.000000 0.000000
# 5 0.000000 0.000000 0.000000 0.000000 0.041352 0.000000
# 6 0.000000 0.000000 0.000000 0.000000 0.000000 0.045846
#
#
# Mechanical properties :
#
#
# Convention : Reuss Voigt Hill
#
# Bulk Modulus (GPa) = 65.97899 77.37098 71.67498
# Shear Modulus (GPa) = 29.12951 32.23823 30.68387
#
# Velocity S-wave (km/s) = 3.97820 4.18510 4.08296
# Velocity P-wave (km/s) = 7.54639 8.08636 7.82103
#
# Compressibility (1/GPa) = 0.01515634
#
# Stress axis : x y z
#
# Youngs Moduli (GPa) = 59.55202 103.47830 104.62126
#
# Poissons Ratio (x) = 0.40007 0.29079
# Poissons Ratio (y) = 0.23024 0.39580
# Poissons Ratio (z) = 0.16552 0.39148
#
# Static dielectric constant tensor:
#      x y z
#    x 3.343080 0.000000 0.000000 
#    y 0.000000 3.566300 0.000000 
#    z 0.000000 0.000000 3.494770 
# 
# 
# High freq. dielectric constant tensor:
#      x y z
#    x 1.709210 0.000000 0.000000 
#    y 0.000000 1.717180 0.000000 
#    z 0.000000 0.000000 1.715240 
# 
# From -- ./inp_files/20362.got.cif
#   From: 2010.03.12/outbox.cif.g09.slc.cpg/sg44_11_cif.got.tgz:20362.got - 2010.04.14 02:36:11.
