data_PCOD8189702
_publ_section_title
;
Structure prediction by ZEFSAII (Michael W. Deem and Ramdas Pophale) SiO2 
 PCOD8189702
Probable space group: I M M 2
;
_chemical_formula_sum "Si O2"
_cell_formula_units_Z 26
_cell_length_a 7.764499
_cell_length_b 7.900832
_cell_length_c 21.643076
_cell_angle_alpha 90.000000
_cell_angle_beta 90.000000
_cell_angle_gamma 90.000000
_cell_volume 1327.716187
_symmetry_space_group_name_H-M "I M M 2"
_symmetry_group_IT_number 44
_symmetry_cell_setting 'orthorhombic'
loop_
_space_group_symop_operation_xyz
x,y,z
-x,-y,z
-x,y,z
x,-y,z
1/2+x,1/2+y,1/2+z
1/2-x,1/2-y,1/2+z
1/2-x,1/2+y,1/2+z
1/2+x,1/2-y,1/2+z
loop_
_atom_site_type_symbol
_atom_site_label
_atom_site_fract_x
_atom_site_fract_y
_atom_site_fract_z
Si Si1 0.798846 0.189864 0.662970
Si Si2 0.500000 0.000000 0.989858
Si Si3 0.808035 0.694009 0.795473
Si Si4 0.688922 0.500000 0.583407
Si Si5 0.000000 0.685922 0.371349
O O1 0.749926 0.201576 0.735273
O O2 0.699027 0.330527 0.624327
O O3 0.000000 0.226617 0.654118
O O4 0.750273 0.000000 0.640281
O O5 0.670404 0.000000 0.030268
O O6 0.500000 0.832032 0.946182
O O7 0.810029 0.500000 0.775196
O O8 0.673235 0.718773 0.850865
O O9 0.000000 0.750152 0.817612
O O10 0.500000 0.500000 0.552451
O O11 0.000000 0.500000 0.340415
#
# Coordination Sequence:
#
# PCOD8189702 Si02
#       5
#     8   2   8   4   4
#     4  10  20  37  64  97 136 169 205 271 337 388
#     4  10  26  48  62  86 134 186 224 264 310 398
#     4  10  20  36  61  96 134 165 207 269 331 389
#     4  12  24  42  68  94 128 178 224 269 322 394
#     4  10  23  39  62  88 121 177 216 264 311 391
#
# _framework density 19.582498000000001
#
# number of rings (size 3 to 8) (size 9 to 14) (size 15 to 20)
#    0.462    1.231    3.077    1.385    2.154    3.692 
#    0.000    3.077    0.000    0.000    0.000    0.000 
#    0.000    0.000    0.000    0.000    0.000    0.000 
#
# Total GULP energy -161160.765479 kJ/mol
# GULP energy per Si atom -12396.981960 kJ/mol
# Density = 1.953793 g / cm^3
# Si number density = 19.582498 Si / 1000 Ang^3
#
#
#
# Elastic Constant Matrix: (Units=GPa)
#
#
# Indices 1 2 3 4 5 6 
#
# 1 149.4659 33.9767 73.7497 0.0000 0.0000 0.0000
# 2 33.9767 106.7201 34.6392 0.0000 0.0000 0.0000
# 3 73.7497 34.6392 102.1810 0.0000 0.0000 0.0000
# 4 0.0000 0.0000 0.0000 27.5908 0.0000 0.0000
# 5 0.0000 0.0000 0.0000 0.0000 18.0660 0.0000
# 6 0.0000 0.0000 0.0000 0.0000 0.0000 16.8156
#
#
#
# Elastic Compliance Matrix: (Units=1/GPa)
#
#
# Indices 1 2 3 4 5 6 
#
# 1 0.010483 -0.000991 -0.007231 0.000000 0.000000 0.000000
# 2 -0.000991 0.010622 -0.002886 0.000000 0.000000 0.000000
# 3 -0.007231 -0.002886 0.015984 0.000000 0.000000 0.000000
# 4 0.000000 0.000000 0.000000 0.036244 0.000000 0.000000
# 5 0.000000 0.000000 0.000000 0.000000 0.055353 0.000000
# 6 0.000000 0.000000 0.000000 0.000000 0.000000 0.059468
#
#
# Mechanical properties :
#
#
# Convention : Reuss Voigt Hill
#
# Bulk Modulus (GPa) = 67.22711 71.45534 69.34123
# Shear Modulus (GPa) = 23.22045 26.89458 25.05752
#
# Velocity S-wave (km/s) = 3.44725 3.70996 3.58101
# Velocity P-wave (km/s) = 7.08868 7.41083 7.25154
#
# Compressibility (1/GPa) = 0.01487495
#
# Stress axis : x y z
#
# Youngs Moduli (GPa) = 95.38844 94.14040 62.56399
#
# Poissons Ratio (x) = 0.09327 0.45238
# Poissons Ratio (y) = 0.09450 0.18056
# Poissons Ratio (z) = 0.68972 0.27168
#
# Static dielectric constant tensor:
#      x y z
#    x 3.560960 0.000000 0.000000 
#    y 0.000000 3.625320 0.000000 
#    z 0.000000 0.000000 3.200210 
# 
# 
# High freq. dielectric constant tensor:
#      x y z
#    x 1.770270 0.000000 0.000000 
#    y 0.000000 1.770010 0.000000 
#    z 0.000000 0.000000 1.726230 
# 
# From -- ./inp_files/19909.got.cif
#   From: 2010.03.12/outbox.cif.g09.slc.cpg/sg44_10_cif.got.tgz:19909.got - 2010.04.14 02:36:11.
