data_PCOD8189949
_publ_section_title
;
Structure prediction by ZEFSAII (Michael W. Deem and Ramdas Pophale) SiO2 
 PCOD8189949
Probable space group: I M M 2
;
_chemical_formula_sum "Si O2"
_cell_formula_units_Z 48
_cell_length_a 8.943951
_cell_length_b 29.710616
_cell_length_c 9.982418
_cell_angle_alpha 90.000000
_cell_angle_beta 90.000000
_cell_angle_gamma 90.000000
_cell_volume 2652.630867
_symmetry_space_group_name_H-M "I M M 2"
_symmetry_group_IT_number 44
_symmetry_cell_setting 'orthorhombic'
loop_
_space_group_symop_operation_xyz
x,y,z
-x,-y,z
-x,y,z
x,-y,z
1/2+x,1/2+y,1/2+z
1/2-x,1/2-y,1/2+z
1/2-x,1/2+y,1/2+z
1/2+x,1/2-y,1/2+z
loop_
_atom_site_type_symbol
_atom_site_label
_atom_site_fract_x
_atom_site_fract_y
_atom_site_fract_z
Si Si1 0.324015 0.881266 0.756630
Si Si2 0.677582 0.450242 0.755043
Si Si3 0.825932 0.117890 0.477083
Si Si4 0.328895 0.721045 0.972820
Si Si5 0.671295 0.447373 0.454278
Si Si6 0.674567 0.288324 0.277581
O O1 0.500000 0.876984 0.748445
O O2 0.261933 0.893783 0.611176
O O3 0.279827 0.920845 0.856477
O O4 0.259457 0.834307 0.811095
O O5 0.500000 0.451156 0.758787
O O6 0.739031 0.500000 0.792808
O O7 0.739893 0.413736 0.859851
O O8 0.727348 0.437056 0.605189
O O9 0.801357 0.169302 0.432950
O O10 0.000000 0.108445 0.504974
O O11 0.500000 0.735027 0.945147
O O12 0.219815 0.750649 0.883376
O O13 0.286353 0.728661 0.128160
O O14 0.500000 0.431549 0.434208
O O15 0.685602 0.500000 0.422572
O O16 0.500000 0.298660 0.289187
#
# Coordination Sequence:
#
# PCOD8189949 Si02
#       6
#     8   8   8   8   8   8
#     4  11  22  35  52  76 107 139 174 215 257 304
#     4   8  15  30  54  81 104 130 170 215 254 299
#     4   9  18  34  54  77 106 137 171 212 258 308
#     4   9  19  34  51  76 107 136 171 214 258 305
#     4   9  18  34  55  78 105 138 176 215 257 308
#     4  10  21  37  56  77 103 136 174 213 258 313
#
# _framework density 18.095244000000001
#
# number of rings (size 3 to 8) (size 9 to 14) (size 15 to 20)
#    0.000    2.667    0.000    4.000    0.000    5.667 
#    0.000    4.167    0.000    1.000    0.000    0.000 
#    0.000    0.000    0.000    0.000    0.000    0.000 
#
# Total GULP energy -297615.538481 kJ/mol
# GULP energy per Si atom -12400.647437 kJ/mol
# Density = 1.805406 g / cm^3
# Si number density = 18.095244 Si / 1000 Ang^3
#
#
#
# Elastic Constant Matrix: (Units=GPa)
#
#
# Indices 1 2 3 4 5 6 
#
# 1 81.4025 46.8122 51.1137 0.0006 0.0008 0.0000
# 2 46.8122 96.8879 78.8820 0.0010 -0.0003 -0.0001
# 3 51.1137 78.8820 111.4341 -0.0042 -0.0041 0.0002
# 4 0.0006 0.0010 -0.0042 37.9022 -0.0010 -0.0001
# 5 0.0008 -0.0003 -0.0041 -0.0010 23.6637 0.0004
# 6 0.0000 -0.0001 0.0002 -0.0001 0.0004 27.0857
#
#
#
# Elastic Compliance Matrix: (Units=1/GPa)
#
#
# Indices 1 2 3 4 5 6 
#
# 1 0.018114 -0.004691 -0.004988 -0.000001 -0.000002 0.000000
# 2 -0.004691 0.025576 -0.015953 -0.000002 -0.000002 0.000000
# 3 -0.004988 -0.015953 0.022555 0.000003 0.000004 0.000000
# 4 -0.000001 -0.000002 0.000003 0.026384 0.000001 0.000000
# 5 -0.000002 -0.000002 0.000004 0.000001 0.042259 -0.000001
# 6 0.000000 0.000000 0.000000 0.000000 -0.000001 0.036920
#
#
# Mechanical properties :
#
#
# Convention : Reuss Voigt Hill
#
# Bulk Modulus (GPa) = 66.75235 71.48226 69.11730
# Shear Modulus (GPa) = 21.92350 25.25808 23.59079
#
# Velocity S-wave (km/s) = 3.48453 3.74015 3.61460
# Velocity P-wave (km/s) = 7.29100 7.63156 7.46323
#
# Compressibility (1/GPa) = 0.01498075
#
# Stress axis : x y z
#
# Youngs Moduli (GPa) = 55.20453 39.09931 44.33627
#
# Poissons Ratio (x) = 0.18341 0.22117
# Poissons Ratio (y) = 0.25895 0.70730
# Poissons Ratio (z) = 0.27538 0.62375
#
# Static dielectric constant tensor:
#      x y z
#    x 3.098690 0.000000 0.000000 
#    y 0.000000 3.464160 0.000000 
#    z 0.000000 0.000000 3.466610 
# 
# 
# High freq. dielectric constant tensor:
#      x y z
#    x 1.681010 0.000000 0.000000 
#    y 0.000000 1.703360 0.000000 
#    z 0.000000 0.000000 1.704700 
# 
# From -- ./inp_files/4918.got.cif
#   From: 2010.03.12/outbox.cif.g09.slc.cpg/sg44_3_cif.got.tgz:4918.got - 2010.04.14 02:36:11.
