data_PCOD8189148
_publ_section_title
;
Structure prediction by ZEFSAII (Michael W. Deem and Ramdas Pophale) SiO2 
 PCOD8189148
Probable space group: I M M 2
;
_chemical_formula_sum "Si O2"
_cell_formula_units_Z 64
_cell_length_a 9.670363
_cell_length_b 9.143231
_cell_length_c 41.125291
_cell_angle_alpha 90.000000
_cell_angle_beta 90.000000
_cell_angle_gamma 90.000000
_cell_volume 3636.230898
_symmetry_space_group_name_H-M "I M M 2"
_symmetry_group_IT_number 44
_symmetry_cell_setting 'orthorhombic'
loop_
_space_group_symop_operation_xyz
x,y,z
-x,-y,z
-x,y,z
x,-y,z
1/2+x,1/2+y,1/2+z
1/2-x,1/2-y,1/2+z
1/2-x,1/2+y,1/2+z
1/2+x,1/2-y,1/2+z
loop_
_atom_site_type_symbol
_atom_site_label
_atom_site_fract_x
_atom_site_fract_y
_atom_site_fract_z
Si Si1 0.341632 0.672102 0.971880
Si Si2 0.162264 0.331285 0.841291
Si Si3 0.340163 0.670639 0.597348
Si Si4 0.652640 0.826466 0.414277
Si Si5 0.159048 0.670865 0.536694
Si Si6 0.660249 0.828655 0.788525
Si Si7 0.835530 0.164895 0.224012
Si Si8 0.835388 0.335102 0.161517
O O1 0.500000 0.714484 0.965620
O O2 0.320632 0.500000 0.975698
O O3 0.257302 0.736229 0.941215
O O4 0.286735 0.746521 0.004728
O O5 0.203612 0.500000 0.835182
O O6 0.200072 0.282343 0.878032
O O7 0.250425 0.226775 0.818522
O O8 0.000000 0.308818 0.834680
O O9 0.500000 0.706086 0.590048
O O10 0.317715 0.500000 0.604333
O O11 0.251112 0.724953 0.566778
O O12 0.284652 0.757051 0.628681
O O13 0.500000 0.762753 0.421522
O O14 0.647563 0.000000 0.416133
O O15 0.179008 0.500000 0.530531
O O16 0.000000 0.710774 0.544149
O O17 0.500000 0.791628 0.795215
O O18 0.714636 0.748551 0.756168
O O19 0.683211 0.000000 0.783606
O O20 0.775075 0.247841 0.192476
O O21 0.000000 0.163768 0.222357
O O22 0.776888 0.000000 0.224615
O O23 0.777627 0.500000 0.162289
O O24 0.000000 0.334466 0.162900
#
# Coordination Sequence:
#
# PCOD8189148 Si02
#       8
#     8   8   8   8   8   8   8   8
#     4   9  17  29  46  68  91 116 149 187 226 270
#     4   9  18  33  52  72  95 126 163 199 238 288
#     4   9  17  29  45  65  88 115 150 189 225 266
#     4   8  15  29  48  69  92 118 150 189 231 275
#     4   9  18  32  47  63  88 122 153 182 223 272
#     4  10  20  32  47  71 101 129 160 200 243 285
#     4   9  16  27  45  68  94 125 159 194 234 279
#     4   9  16  26  42  66  95 122 148 185 234 280
#
# _framework density 17.600643999999999
#
# number of rings (size 3 to 8) (size 9 to 14) (size 15 to 20)
#    0.000    3.000    0.000    1.875    0.000    5.500 
#    0.000    1.875    0.000    3.000    0.000    1.750 
#    0.000    0.000    0.000    0.000    0.000    0.000 
#
# Total GULP energy -396770.682292 kJ/mol
# GULP energy per Si atom -12399.083822 kJ/mol
# Density = 1.756058 g / cm^3
# Si number density = 17.600644 Si / 1000 Ang^3
#
#
#
# Elastic Constant Matrix: (Units=GPa)
#
#
# Indices 1 2 3 4 5 6 
#
# 1 49.6912 32.1907 64.9475 0.0000 0.0000 0.0000
# 2 32.1907 80.8447 68.9397 0.0000 0.0000 0.0000
# 3 64.9475 68.9397 181.1789 0.0000 0.0000 0.0000
# 4 0.0000 0.0000 0.0000 33.4848 0.0000 0.0000
# 5 0.0000 0.0000 0.0000 0.0000 25.1857 0.0000
# 6 0.0000 0.0000 0.0000 0.0000 0.0000 17.4612
#
#
#
# Elastic Compliance Matrix: (Units=1/GPa)
#
#
# Indices 1 2 3 4 5 6 
#
# 1 0.039393 -0.005394 -0.012069 0.000000 0.000000 0.000000
# 2 -0.005394 0.019049 -0.005315 0.000000 0.000000 0.000000
# 3 -0.012069 -0.005315 0.011868 0.000000 0.000000 0.000000
# 4 0.000000 0.000000 0.000000 0.029864 0.000000 0.000000
# 5 0.000000 0.000000 0.000000 0.000000 0.039705 0.000000
# 6 0.000000 0.000000 0.000000 0.000000 0.000000 0.057270
#
#
# Mechanical properties :
#
#
# Convention : Reuss Voigt Hill
#
# Bulk Modulus (GPa) = 40.39562 71.54118 55.96840
# Shear Modulus (GPa) = 19.92385 24.93547 22.42966
#
# Velocity S-wave (km/s) = 3.36816 3.76804 3.57370
# Velocity P-wave (km/s) = 6.17471 7.72438 6.99261
#
# Compressibility (1/GPa) = 0.02475516
#
# Stress axis : x y z
#
# Youngs Moduli (GPa) = 25.38549 52.49538 84.25975
#
# Poissons Ratio (x) = 0.28315 1.01691
# Poissons Ratio (y) = 0.13692 0.44783
# Poissons Ratio (z) = 0.30637 0.27901
#
# Static dielectric constant tensor:
#      x y z
#    x 3.062410 0.000000 0.000000 
#    y 0.000000 3.177500 0.000000 
#    z 0.000000 0.000000 3.486070 
# 
# 
# High freq. dielectric constant tensor:
#      x y z
#    x 1.646020 0.000000 0.000000 
#    y 0.000000 1.670260 0.000000 
#    z 0.000000 0.000000 1.693840 
# 
# From -- ./inp_files/27453.got.cif
#   From: 2010.03.12/outbox.cif.g09.slc.cpg/sg44_14_cif.got.tgz:27453.got - 2010.04.14 02:36:11.
