data_PCOD8189598
_publ_section_title
;
Structure prediction by ZEFSAII (Michael W. Deem and Ramdas Pophale) SiO2 
 PCOD8189598
Probable space group: I M M 2
;
_chemical_formula_sum "Si O2"
_cell_formula_units_Z 64
_cell_length_a 8.653814
_cell_length_b 23.882453
_cell_length_c 15.384956
_cell_angle_alpha 90.000000
_cell_angle_beta 90.000000
_cell_angle_gamma 90.000000
_cell_volume 3179.675106
_symmetry_space_group_name_H-M "I M M 2"
_symmetry_group_IT_number 44
_symmetry_cell_setting 'orthorhombic'
loop_
_space_group_symop_operation_xyz
x,y,z
-x,-y,z
-x,y,z
x,-y,z
1/2+x,1/2+y,1/2+z
1/2-x,1/2-y,1/2+z
1/2-x,1/2+y,1/2+z
1/2+x,1/2-y,1/2+z
loop_
_atom_site_type_symbol
_atom_site_label
_atom_site_fract_x
_atom_site_fract_y
_atom_site_fract_z
Si Si1 0.675617 0.249956 0.912510
Si Si2 0.320156 0.132557 0.157736
Si Si3 0.316891 0.865464 0.652845
Si Si4 0.178074 0.869129 0.339132
Si Si5 0.180193 0.245674 0.094386
Si Si6 0.182888 0.562593 0.994227
Si Si7 0.821112 0.064909 0.002883
Si Si8 0.677944 0.128272 0.846045
O O1 0.500000 0.252330 0.948803
O O2 0.710089 0.303045 0.851347
O O3 0.700761 0.194759 0.855360
O O4 0.795563 0.249477 0.991265
O O5 0.500000 0.128318 0.177314
O O6 0.229562 0.112789 0.243182
O O7 0.278659 0.195684 0.133713
O O8 0.279696 0.091583 0.078897
O O9 0.500000 0.863488 0.644247
O O10 0.256147 0.802549 0.637409
O O11 0.247045 0.906502 0.579373
O O12 0.268785 0.887321 0.748233
O O13 0.274165 0.904319 0.408019
O O14 0.000000 0.884250 0.351704
O O15 0.000000 0.234855 0.113840
O O16 0.252142 0.500000 0.990737
O O17 0.000000 0.560390 0.001353
O O18 0.784355 0.094176 0.911613
O O19 0.000000 0.074609 0.024782
O O20 0.778746 0.000000 0.995099
O O21 0.500000 0.111500 0.862669
#
# Coordination Sequence:
#
# PCOD8189598 Si02
#       8
#     8   8   8   8   8   8   8   8
#     4  10  20  35  58  90 125 159 194 241 297 360
#     4  12  25  41  63  91 122 156 201 247 300 364
#     4   9  19  36  60  91 122 158 201 244 293 351
#     4  11  23  40  63  90 124 160 199 246 302 361
#     4  11  20  35  62  91 124 160 196 242 300 356
#     4  10  21  39  61  86 119 160 208 255 298 351
#     4  11  25  44  63  86 118 156 201 252 305 359
#     4  10  20  37  62  90 121 155 196 245 296 356
#
# _framework density 20.127842999999999
#
# number of rings (size 3 to 8) (size 9 to 14) (size 15 to 20)
#    0.000    1.500    2.500    3.000    0.000    4.750 
#    0.000    4.375    0.000    0.000    0.000    0.000 
#    0.000    0.000    0.000    0.000    0.000    0.000 
#
# Total GULP energy -396926.411141 kJ/mol
# GULP energy per Si atom -12403.950348 kJ/mol
# Density = 2.008203 g / cm^3
# Si number density = 20.127843 Si / 1000 Ang^3
#
#
#
# Elastic Constant Matrix: (Units=GPa)
#
#
# Indices 1 2 3 4 5 6 
#
# 1 34.4974 20.6843 2.6147 -0.0002 0.0000 0.0000
# 2 20.6843 130.7724 43.2884 -0.0003 0.0000 0.0000
# 3 2.6147 43.2884 126.1718 -0.0011 -0.0001 0.0001
# 4 -0.0002 -0.0003 -0.0011 2.3393 0.0000 0.0000
# 5 0.0000 0.0000 -0.0001 0.0000 27.8368 0.0000
# 6 0.0000 0.0000 0.0001 0.0000 0.0000 6.6110
#
#
#
# Elastic Compliance Matrix: (Units=1/GPa)
#
#
# Indices 1 2 3 4 5 6 
#
# 1 0.032190 -0.005495 0.001218 0.000002 0.000000 0.000000
# 2 -0.005495 0.009565 -0.003168 -0.000001 0.000000 0.000000
# 3 0.001218 -0.003168 0.008987 0.000004 0.000000 0.000000
# 4 0.000002 -0.000001 0.000004 0.427471 0.000000 -0.000002
# 5 0.000000 0.000000 0.000000 0.000000 0.035924 0.000000
# 6 0.000000 0.000000 0.000000 -0.000002 0.000000 0.151264
#
#
# Mechanical properties :
#
#
# Convention : Reuss Voigt Hill
#
# Bulk Modulus (GPa) = 27.89149 47.17961 37.53555
# Shear Modulus (GPa) = 7.22293 22.34769 14.78531
#
# Velocity S-wave (km/s) = 1.89640 3.33571 2.71324
# Velocity P-wave (km/s) = 4.32231 6.19087 5.33897
#
# Compressibility (1/GPa) = 0.03585323
#
# Stress axis : x y z
#
# Youngs Moduli (GPa) = 31.06558 104.55302 111.26878
#
# Poissons Ratio (x) = 0.57449 -0.13554
# Poissons Ratio (y) = 0.17070 0.35246
# Poissons Ratio (z) = -0.03784 0.33119
#
# Static dielectric constant tensor:
#      x y z
#    x 3.481140 0.000000 0.000000 
#    y 0.000000 3.792870 0.000000 
#    z 0.000000 0.000000 3.744110 
# 
# 
# High freq. dielectric constant tensor:
#      x y z
#    x 1.769440 0.000000 0.000000 
#    y 0.000000 1.787000 0.000000 
#    z 0.000000 0.000000 1.796990 
# 
# From -- ./inp_files/16762.got.cif
#   From: 2010.03.12/outbox.cif.g09.slc.cpg/sg44_9_cif.got.tgz:16762.got - 2010.04.14 02:36:11.
