data_PCOD8189393
_publ_section_title
;
Structure prediction by ZEFSAII (Michael W. Deem and Ramdas Pophale) SiO2 
 PCOD8189393
Probable space group: I M M 2
;
_chemical_formula_sum "Si O2"
_cell_formula_units_Z 48
_cell_length_a 29.381865
_cell_length_b 9.199566
_cell_length_c 10.011820
_cell_angle_alpha 90.000000
_cell_angle_beta 90.000000
_cell_angle_gamma 90.000000
_cell_volume 2706.199014
_symmetry_space_group_name_H-M "I M M 2"
_symmetry_group_IT_number 44
_symmetry_cell_setting 'orthorhombic'
loop_
_space_group_symop_operation_xyz
x,y,z
-x,-y,z
-x,y,z
x,-y,z
1/2+x,1/2+y,1/2+z
1/2-x,1/2-y,1/2+z
1/2-x,1/2+y,1/2+z
1/2+x,1/2-y,1/2+z
loop_
_atom_site_type_symbol
_atom_site_label
_atom_site_fract_x
_atom_site_fract_y
_atom_site_fract_z
Si Si1 0.551884 0.830163 0.007530
Si Si2 0.378235 0.832049 0.233203
Si Si3 0.887503 0.665155 0.037482
Si Si4 0.716608 0.168288 0.525868
Si Si5 0.713758 0.328606 0.256373
Si Si6 0.947499 0.830309 0.242514
O O1 0.500000 0.786756 0.041357
O O2 0.582532 0.781893 0.132138
O O3 0.556433 0.000000 0.977961
O O4 0.569710 0.746606 0.877250
O O5 0.397349 0.807504 0.381590
O O6 0.333921 0.735897 0.206409
O O7 0.364519 0.000000 0.212615
O O8 0.899660 0.500000 0.077525
O O9 0.835033 0.699821 0.070239
O O10 0.918876 0.774809 0.117774
O O11 0.729839 0.261886 0.396646
O O12 0.748644 0.213947 0.647393
O O13 0.722324 0.000000 0.486261
O O14 0.708753 0.500000 0.273357
O O15 0.000000 0.791926 0.215461
O O16 0.939367 0.000000 0.259686
#
# Coordination Sequence:
#
# PCOD8189393 Si02
#       6
#     8   8   8   8   8   8
#     4   9  18  34  55  76  99 132 172 208 246 297
#     4   9  19  35  54  77 104 131 164 210 256 297
#     4   9  18  34  54  74  99 132 169 208 248 294
#     4   9  20  37  53  74 104 134 168 210 251 294
#     4  10  20  34  54  78 103 134 170 206 250 303
#     4  10  21  35  50  73 105 135 165 206 253 298
#
# _framework density 17.737055000000002
#
# number of rings (size 3 to 8) (size 9 to 14) (size 15 to 20)
#    0.000    2.667    0.000    2.000    0.000    7.667 
#    0.000    6.667    0.000    2.000    0.000    0.000 
#    0.000    0.000    0.000    0.000    0.000    0.000 
#
# Total GULP energy -297667.713035 kJ/mol
# GULP energy per Si atom -12402.821376 kJ/mol
# Density = 1.769668 g / cm^3
# Si number density = 17.737055 Si / 1000 Ang^3
#
#
#
# Elastic Constant Matrix: (Units=GPa)
#
#
# Indices 1 2 3 4 5 6 
#
# 1 90.9464 51.2994 82.6919 0.0000 0.0000 0.0000
# 2 51.2994 72.5434 62.1677 0.0000 0.0000 0.0000
# 3 82.6919 62.1677 128.0154 0.0000 0.0000 0.0000
# 4 0.0000 0.0000 0.0000 28.5370 0.0000 0.0000
# 5 0.0000 0.0000 0.0000 0.0000 38.5397 0.0000
# 6 0.0000 0.0000 0.0000 0.0000 0.0000 26.9472
#
#
#
# Elastic Compliance Matrix: (Units=1/GPa)
#
#
# Indices 1 2 3 4 5 6 
#
# 1 0.028902 -0.007603 -0.014977 0.000000 0.000000 0.000000
# 2 -0.007603 0.025611 -0.007526 0.000000 0.000000 0.000000
# 3 -0.014977 -0.007526 0.021141 0.000000 0.000000 0.000000
# 4 0.000000 0.000000 0.000000 0.035042 0.000000 0.000000
# 5 0.000000 0.000000 0.000000 0.000000 0.025947 0.000000
# 6 0.000000 0.000000 0.000000 0.000000 0.000000 0.037110
#
#
# Mechanical properties :
#
#
# Convention : Reuss Voigt Hill
#
# Bulk Modulus (GPa) = 64.76148 75.98035 70.37091
# Shear Modulus (GPa) = 20.91071 25.16119 23.03595
#
# Velocity S-wave (km/s) = 3.43728 3.77047 3.60772
# Velocity P-wave (km/s) = 7.23494 7.86672 7.55744
#
# Compressibility (1/GPa) = 0.01544128
#
# Stress axis : x y z
#
# Youngs Moduli (GPa) = 34.60020 39.04542 47.30207
#
# Poissons Ratio (x) = 0.29687 0.70843
# Poissons Ratio (y) = 0.26307 0.35600
# Poissons Ratio (z) = 0.51820 0.29386
#
# Static dielectric constant tensor:
#      x y z
#    x 3.326400 0.000000 0.000000 
#    y 0.000000 3.258440 0.000000 
#    z 0.000000 0.000000 3.331740 
# 
# 
# High freq. dielectric constant tensor:
#      x y z
#    x 1.683960 0.000000 0.000000 
#    y 0.000000 1.686560 0.000000 
#    z 0.000000 0.000000 1.689980 
# 
# From -- ./inp_files/4931.got.cif
#   From: 2010.03.12/outbox.cif.g09.slc.cpg/sg44_3_cif.got.tgz:4931.got - 2010.04.14 02:36:11.
