data_PCOD8189151
_publ_section_title
;
Structure prediction by ZEFSAII (Michael W. Deem and Ramdas Pophale) SiO2 
 PCOD8189151
Probable space group: I M M 2
;
_chemical_formula_sum "Si O2"
_cell_formula_units_Z 64
_cell_length_a 14.406029
_cell_length_b 8.964543
_cell_length_c 28.344965
_cell_angle_alpha 90.000000
_cell_angle_beta 90.000000
_cell_angle_gamma 90.000000
_cell_volume 3660.567036
_symmetry_space_group_name_H-M "I M M 2"
_symmetry_group_IT_number 44
_symmetry_cell_setting 'orthorhombic'
loop_
_space_group_symop_operation_xyz
x,y,z
-x,-y,z
-x,y,z
x,-y,z
1/2+x,1/2+y,1/2+z
1/2-x,1/2-y,1/2+z
1/2-x,1/2+y,1/2+z
1/2+x,1/2-y,1/2+z
loop_
_atom_site_type_symbol
_atom_site_label
_atom_site_fract_x
_atom_site_fract_y
_atom_site_fract_z
Si Si1 0.777249 0.323304 0.082780
Si Si2 0.606941 0.324582 0.768083
Si Si3 0.107544 0.829243 0.449242
Si Si4 0.105694 0.675556 0.546269
Si Si5 0.894374 0.324289 0.171971
Si Si6 0.896407 0.672293 0.904233
Si Si7 0.712623 0.325700 0.858255
Si Si8 0.107375 0.172556 0.001710
O O1 0.770768 0.500000 0.081350
O O2 0.673723 0.254494 0.083702
O O3 0.830231 0.266873 0.129416
O O4 0.831873 0.268308 0.037145
O O5 0.500000 0.283628 0.778665
O O6 0.620763 0.500000 0.762442
O O7 0.641949 0.249618 0.719997
O O8 0.669949 0.256583 0.810433
O O9 0.133410 0.729677 0.494127
O O10 0.162753 0.761118 0.404837
O O11 0.000000 0.818453 0.436484
O O12 0.136653 0.000000 0.460281
O O13 0.119508 0.500000 0.548977
O O14 0.000000 0.722103 0.558352
O O15 0.887566 0.500000 0.177953
O O16 0.000000 0.274216 0.161256
O O17 0.887924 0.500000 0.919947
O O18 0.823010 0.707592 0.862383
O O19 0.000000 0.707798 0.885204
O O20 0.871658 0.772931 0.948970
O O21 0.690125 0.500000 0.856740
O O22 0.000000 0.198748 0.014302
O O23 0.135311 0.000000 0.005822
#
# Coordination Sequence:
#
# PCOD8189151 Si02
#       8
#     8   8   8   8   8   8   8   8
#     4  11  21  33  52  73  94 126 166 202 237 285
#     4   9  17  30  49  71  93 118 150 190 237 286
#     4   9  16  27  45  68  94 125 160 194 230 278
#     4  10  21  35  49  69 100 132 162 201 244 282
#     4   9  19  35  52  72  98 123 149 188 239 291
#     4   9  17  29  45  65  92 128 166 198 229 272
#     4   9  16  27  45  68  92 120 156 196 234 273
#     4  10  20  32  47  71 103 133 161 198 244 291
#
# _framework density 17.483630000000002
#
# number of rings (size 3 to 8) (size 9 to 14) (size 15 to 20)
#    0.000    2.500    0.000    2.625    0.000    5.500 
#    0.000    2.500    0.000    3.750    0.000    1.750 
#    0.000    0.000    0.000    0.000    0.000    0.000 
#
# Total GULP energy -396796.823704 kJ/mol
# GULP energy per Si atom -12399.900741 kJ/mol
# Density = 1.744384 g / cm^3
# Si number density = 17.483630 Si / 1000 Ang^3
#
#
#
# Elastic Constant Matrix: (Units=GPa)
#
#
# Indices 1 2 3 4 5 6 
#
# 1 112.6833 33.2579 81.3137 0.0000 0.0000 0.0000
# 2 33.2579 45.6746 32.5198 0.0000 0.0000 0.0000
# 3 81.3137 32.5198 108.3285 0.0000 0.0000 0.0000
# 4 0.0000 0.0000 0.0000 24.6181 0.0000 0.0000
# 5 0.0000 0.0000 0.0000 0.0000 31.7961 0.0000
# 6 0.0000 0.0000 0.0000 0.0000 0.0000 22.0632
#
#
#
# Elastic Compliance Matrix: (Units=1/GPa)
#
#
# Indices 1 2 3 4 5 6 
#
# 1 0.020215 -0.004980 -0.013679 0.000000 0.000000 0.000000
# 2 -0.004980 0.029073 -0.004989 0.000000 0.000000 0.000000
# 3 -0.013679 -0.004989 0.020997 0.000000 0.000000 0.000000
# 4 0.000000 0.000000 0.000000 0.040621 0.000000 0.000000
# 5 0.000000 0.000000 0.000000 0.000000 0.031450 0.000000
# 6 0.000000 0.000000 0.000000 0.000000 0.000000 0.045324
#
#
# Mechanical properties :
#
#
# Convention : Reuss Voigt Hill
#
# Bulk Modulus (GPa) = 43.50166 62.31880 52.91023
# Shear Modulus (GPa) = 20.60672 23.66846 22.13759
#
# Velocity S-wave (km/s) = 3.43684 3.68333 3.56222
# Velocity P-wave (km/s) = 6.37844 7.33557 6.87369
#
# Compressibility (1/GPa) = 0.02298763
#
# Stress axis : x y z
#
# Youngs Moduli (GPa) = 49.46758 34.39657 47.62688
#
# Poissons Ratio (x) = 0.17131 0.65148
# Poissons Ratio (y) = 0.24637 0.23761
# Poissons Ratio (z) = 0.67666 0.17161
#
# Static dielectric constant tensor:
#      x y z
#    x 3.491540 0.000000 0.000000 
#    y 0.000000 3.135230 0.000000 
#    z 0.000000 0.000000 3.206720 
# 
# 
# High freq. dielectric constant tensor:
#      x y z
#    x 1.681410 0.000000 0.000000 
#    y 0.000000 1.663000 0.000000 
#    z 0.000000 0.000000 1.654280 
# 
# From -- ./inp_files/27512.got.cif
#   From: 2010.03.12/outbox.cif.g09.slc.cpg/sg44_14_cif.got.tgz:27512.got - 2010.04.14 02:36:11.
