data_PCOD8189492
_publ_section_title
;
Structure prediction by ZEFSAII (Michael W. Deem and Ramdas Pophale) SiO2 
 PCOD8189492
Probable space group: I M M 2
;
_chemical_formula_sum "Si O2"
_cell_formula_units_Z 40
_cell_length_a 25.068459
_cell_length_b 8.966116
_cell_length_c 9.753805
_cell_angle_alpha 90.000000
_cell_angle_beta 90.000000
_cell_angle_gamma 90.000000
_cell_volume 2192.330673
_symmetry_space_group_name_H-M "I M M 2"
_symmetry_group_IT_number 44
_symmetry_cell_setting 'orthorhombic'
loop_
_space_group_symop_operation_xyz
x,y,z
-x,-y,z
-x,y,z
x,-y,z
1/2+x,1/2+y,1/2+z
1/2-x,1/2-y,1/2+z
1/2-x,1/2+y,1/2+z
1/2+x,1/2-y,1/2+z
loop_
_atom_site_type_symbol
_atom_site_label
_atom_site_fract_x
_atom_site_fract_y
_atom_site_fract_z
Si Si1 0.085786 0.675451 0.916270
Si Si2 0.207898 0.326025 0.920986
Si Si3 0.000000 0.821632 0.726458
Si Si4 0.588436 0.675455 0.703366
Si Si5 0.000000 0.176050 0.413942
Si Si6 0.290610 0.325476 0.700613
O O1 0.073200 0.500000 0.914148
O O2 0.147165 0.711033 0.880399
O O3 0.052285 0.758576 0.800238
O O4 0.070827 0.738028 0.066207
O O5 0.216058 0.500000 0.942485
O O6 0.248442 0.261262 0.808838
O O7 0.225097 0.247906 0.059173
O O8 0.000000 0.761460 0.569112
O O9 0.000000 0.000000 0.733821
O O10 0.580977 0.500000 0.674220
O O11 0.552190 0.730139 0.830248
O O12 0.649047 0.715547 0.744323
O O13 0.000000 0.000000 0.423463
O O14 0.283664 0.500000 0.683314
#
# Coordination Sequence:
#
# PCOD8189492 Si02
#       6
#     8   8   4   8   4   8
#     4  10  20  35  53  74 102 135 169 206 252 304
#     4   9  19  34  51  74 104 135 169 210 253 298
#     4  11  22  35  52  76 102 129 166 209 254 304
#     4   9  17  33  55  75  98 131 171 212 252 297
#     4   9  19  33  50  74 100 125 160 209 256 296
#     4   9  18  32  51  75 101 132 170 209 251 300
#
# _framework density 18.245424
#
# number of rings (size 3 to 8) (size 9 to 14) (size 15 to 20)
#    0.000    2.600    0.000    1.500    0.000    4.000 
#    0.000    4.000    0.000    0.000    0.000    0.000 
#    0.000    0.000    0.000    0.000    0.000    0.000 
#
# Total GULP energy -247992.674592 kJ/mol
# GULP energy per Si atom -12399.633730 kJ/mol
# Density = 1.820390 g / cm^3
# Si number density = 18.245424 Si / 1000 Ang^3
#
#
#
# Elastic Constant Matrix: (Units=GPa)
#
#
# Indices 1 2 3 4 5 6 
#
# 1 130.5501 38.3267 111.2391 0.0000 0.0000 0.0000
# 2 38.3267 45.9885 53.2341 0.0000 0.0000 0.0000
# 3 111.2391 53.2341 180.4361 0.0000 0.0000 0.0000
# 4 0.0000 0.0000 0.0000 25.6931 0.0000 0.0000
# 5 0.0000 0.0000 0.0000 0.0000 48.2185 0.0000
# 6 0.0000 0.0000 0.0000 0.0000 0.0000 22.3499
#
#
#
# Elastic Compliance Matrix: (Units=1/GPa)
#
#
# Indices 1 2 3 4 5 6 
#
# 1 0.016402 -0.002983 -0.009232 0.000000 0.000000 0.000000
# 2 -0.002983 0.033565 -0.008063 0.000000 0.000000 0.000000
# 3 -0.009232 -0.008063 0.013612 0.000000 0.000000 0.000000
# 4 0.000000 0.000000 0.000000 0.038921 0.000000 0.000000
# 5 0.000000 0.000000 0.000000 0.000000 0.020739 0.000000
# 6 0.000000 0.000000 0.000000 0.000000 0.000000 0.044743
#
#
# Mechanical properties :
#
#
# Convention : Reuss Voigt Hill
#
# Bulk Modulus (GPa) = 43.43601 84.73050 64.08325
# Shear Modulus (GPa) = 23.12545 29.53061 26.32803
#
# Velocity S-wave (km/s) = 3.56401 4.02745 3.80280
# Velocity P-wave (km/s) = 6.38705 8.25635 7.38111
#
# Compressibility (1/GPa) = 0.02302237
#
# Stress axis : x y z
#
# Youngs Moduli (GPa) = 60.96929 29.79328 73.46259
#
# Poissons Ratio (x) = 0.08888 0.67817
# Poissons Ratio (y) = 0.18188 0.59236
# Poissons Ratio (z) = 0.56284 0.24024
#
# Static dielectric constant tensor:
#      x y z
#    x 3.589060 0.000000 0.000000 
#    y 0.000000 3.245500 0.000000 
#    z 0.000000 0.000000 3.502970 
# 
# 
# High freq. dielectric constant tensor:
#      x y z
#    x 1.719610 0.000000 0.000000 
#    y 0.000000 1.695770 0.000000 
#    z 0.000000 0.000000 1.704730 
# 
# From -- ./inp_files/4640.got.cif
#   From: 2010.03.12/outbox.cif.g09.slc.cpg/sg44_3_cif.got.tgz:4640.got - 2010.04.14 02:36:11.
