data_PCOD8189053
_publ_section_title
;
Structure prediction by ZEFSAII (Michael W. Deem and Ramdas Pophale) SiO2 
 PCOD8189053
Probable space group: I M M 2
;
_chemical_formula_sum "Si O2"
_cell_formula_units_Z 64
_cell_length_a 8.770214
_cell_length_b 28.076337
_cell_length_c 12.837061
_cell_angle_alpha 90.000000
_cell_angle_beta 90.000000
_cell_angle_gamma 90.000000
_cell_volume 3160.939926
_symmetry_space_group_name_H-M "I M M 2"
_symmetry_group_IT_number 44
_symmetry_cell_setting 'orthorhombic'
loop_
_space_group_symop_operation_xyz
x,y,z
-x,-y,z
-x,y,z
x,-y,z
1/2+x,1/2+y,1/2+z
1/2-x,1/2-y,1/2+z
1/2-x,1/2+y,1/2+z
1/2+x,1/2-y,1/2+z
loop_
_atom_site_type_symbol
_atom_site_label
_atom_site_fract_x
_atom_site_fract_y
_atom_site_fract_z
Si Si1 0.182144 0.617197 0.857530
Si Si2 0.330250 0.184814 0.689125
Si Si3 0.318903 0.444655 0.673209
Si Si4 0.322280 0.052154 0.539691
Si Si5 0.332680 0.077715 0.756924
Si Si6 0.680386 0.705752 0.394743
Si Si7 0.678747 0.399966 0.457481
Si Si8 0.319161 0.700553 0.970912
O O1 0.242911 0.589974 0.757052
O O2 0.249540 0.670184 0.873733
O O3 0.000000 0.619031 0.852301
O O4 0.247451 0.588866 0.957881
O O5 0.500000 0.207255 0.673397
O O6 0.347913 0.133119 0.736159
O O7 0.234007 0.213772 0.775197
O O8 0.241575 0.181212 0.580745
O O9 0.500000 0.440809 0.683252
O O10 0.266939 0.500000 0.685858
O O11 0.259381 0.423823 0.563193
O O12 0.500000 0.064423 0.553895
O O13 0.248938 0.055052 0.655388
O O14 0.295556 0.000000 0.492058
O O15 0.500000 0.054971 0.773945
O O16 0.237022 0.068193 0.861002
O O17 0.500000 0.712714 0.399811
O O18 0.730562 0.655059 0.444658
O O19 0.764459 0.745171 0.463545
O O20 0.500000 0.403098 0.455636
O O21 0.500000 0.697348 0.967015
#
# Coordination Sequence:
#
# PCOD8189053 Si02
#       8
#     8   8   8   8   8   8   8   8
#     4  11  22  39  60  85 117 156 205 258 308 365
#     4  10  19  36  58  82 115 153 191 241 302 361
#     4  10  22  41  62  86 123 168 210 256 312 373
#     4   9  17  31  53  82 114 146 182 232 294 352
#     4   9  17  32  55  82 112 147 187 235 292 350
#     4  10  21  38  59  86 117 156 205 257 311 371
#     4   9  20  38  59  83 116 157 199 245 300 358
#     4  12  24  38  59  87 119 159 205 253 311 377
#
# _framework density 20.247142
#
# number of rings (size 3 to 8) (size 9 to 14) (size 15 to 20)
#    0.000    2.000    1.250    2.625    0.000    3.750 
#    0.000    3.750    0.000    1.500    0.000    0.000 
#    0.000    0.000    0.000    0.000    0.000    0.000 
#
# Total GULP energy -396649.616001 kJ/mol
# GULP energy per Si atom -12395.300500 kJ/mol
# Density = 2.020106 g / cm^3
# Si number density = 20.247142 Si / 1000 Ang^3
#
#
#
# Elastic Constant Matrix: (Units=GPa)
#
#
# Indices 1 2 3 4 5 6 
#
# 1 68.0848 28.0788 34.9275 0.0000 0.0000 0.0000
# 2 28.0788 63.1761 35.2699 -0.0005 0.0000 0.0002
# 3 34.9275 35.2699 125.4343 -0.0017 0.0000 0.0004
# 4 0.0000 -0.0005 -0.0017 26.3963 0.0000 0.0002
# 5 0.0000 0.0000 0.0000 0.0000 33.2110 -0.0001
# 6 0.0000 0.0002 0.0004 0.0002 -0.0001 15.4325
#
#
#
# Elastic Compliance Matrix: (Units=1/GPa)
#
#
# Indices 1 2 3 4 5 6 
#
# 1 0.019194 -0.006580 -0.003494 0.000000 0.000000 0.000000
# 2 -0.006580 0.021032 -0.004082 0.000000 0.000000 0.000000
# 3 -0.003494 -0.004082 0.010093 0.000001 0.000000 0.000000
# 4 0.000000 0.000000 0.000001 0.037884 0.000000 -0.000001
# 5 0.000000 0.000000 0.000000 0.000000 0.030111 0.000000
# 6 0.000000 0.000000 0.000000 -0.000001 0.000000 0.064798
#
#
# Mechanical properties :
#
#
# Convention : Reuss Voigt Hill
#
# Bulk Modulus (GPa) = 45.44032 50.36085 47.90058
# Shear Modulus (GPa) = 22.85622 25.56924 24.21273
#
# Velocity S-wave (km/s) = 3.36350 3.55752 3.46187
# Velocity P-wave (km/s) = 6.12990 6.46542 6.29990
#
# Compressibility (1/GPa) = 0.02200689
#
# Stress axis : x y z
#
# Youngs Moduli (GPa) = 52.10019 47.54688 99.07851
#
# Poissons Ratio (x) = 0.31285 0.34622
# Poissons Ratio (y) = 0.34281 0.40440
# Poissons Ratio (z) = 0.18206 0.19407
#
# Static dielectric constant tensor:
#      x y z
#    x 3.628530 0.000000 0.000000 
#    y 0.000000 3.715070 0.000000 
#    z 0.000000 0.000000 3.910930 
# 
# 
# High freq. dielectric constant tensor:
#      x y z
#    x 1.774350 0.000000 0.000000 
#    y 0.000000 1.788700 0.000000 
#    z 0.000000 0.000000 1.797290 
# 
# From -- ./inp_files/11544.got.cif
#   From: 2010.03.12/outbox.cif.g09.slc.cpg/sg44_6_cif.got.tgz:11544.got - 2010.04.14 02:36:11.
