data_PCOD8189699
_publ_section_title
;
Structure prediction by ZEFSAII (Michael W. Deem and Ramdas Pophale) SiO2 
 PCOD8189699
Probable space group: I M M 2
;
_chemical_formula_sum "Si O2"
_cell_formula_units_Z 48
_cell_length_a 9.960567
_cell_length_b 8.722254
_cell_length_c 27.780267
_cell_angle_alpha 90.000000
_cell_angle_beta 90.000000
_cell_angle_gamma 90.000000
_cell_volume 2413.510576
_symmetry_space_group_name_H-M "I M M 2"
_symmetry_group_IT_number 44
_symmetry_cell_setting 'orthorhombic'
loop_
_space_group_symop_operation_xyz
x,y,z
-x,-y,z
-x,y,z
x,-y,z
1/2+x,1/2+y,1/2+z
1/2-x,1/2-y,1/2+z
1/2-x,1/2+y,1/2+z
1/2+x,1/2-y,1/2+z
loop_
_atom_site_type_symbol
_atom_site_label
_atom_site_fract_x
_atom_site_fract_y
_atom_site_fract_z
Si Si1 0.258817 0.180443 0.623870
Si Si2 0.760786 0.174163 0.837226
Si Si3 0.000000 0.320484 0.780214
Si Si4 0.000000 0.318393 0.670930
Si Si5 0.652669 0.182004 0.937829
Si Si6 0.000000 0.177400 0.178878
Si Si7 0.655493 0.320774 0.524453
Si Si8 0.500000 0.168372 0.774058
O O1 0.124716 0.262780 0.640063
O O2 0.370731 0.236677 0.660168
O O3 0.300679 0.223828 0.570214
O O4 0.239722 0.000000 0.627827
O O5 0.870797 0.273082 0.810223
O O6 0.726051 0.243738 0.889743
O O7 0.627078 0.184784 0.807225
O O8 0.813819 0.000000 0.841674
O O9 0.000000 0.500000 0.774440
O O10 0.000000 0.250238 0.725712
O O11 0.000000 0.500000 0.672857
O O12 0.500000 0.247580 0.943384
O O13 0.643907 0.000000 0.934505
O O14 0.746572 0.234500 0.981851
O O15 0.000000 0.193516 0.236215
O O16 0.000000 0.000000 0.163215
O O17 0.500000 0.286381 0.511149
O O18 0.675045 0.500000 0.535704
O O19 0.500000 0.000000 0.748771
#
# Coordination Sequence:
#
# PCOD8189699 Si02
#       8
#     8   8   4   4   8   4   8   4
#     4  12  25  42  64  92 126 161 204 261 316 369
#     4  10  20  37  63  91 123 160 202 251 303 362
#     4  11  25  41  58  87 124 163 207 251 304 363
#     4  11  25  45  66  89 124 168 211 256 308 377
#     4   9  18  35  61  94 124 156 203 253 300 360
#     4  12  24  40  63  90 121 164 211 252 305 374
#     4  10  21  37  61  92 124 162 207 251 304 370
#     4  10  20  36  61  94 123 153 197 253 313 364
#
# _framework density 19.888043
#
# number of rings (size 3 to 8) (size 9 to 14) (size 15 to 20)
#    0.000    1.500    1.667    3.750    2.333    4.667 
#    0.000    0.833    0.000    1.000    0.000    0.000 
#    0.000    0.000    0.000    0.000    0.000    0.000 
#
# Total GULP energy -297610.245265 kJ/mol
# GULP energy per Si atom -12400.426886 kJ/mol
# Density = 1.984278 g / cm^3
# Si number density = 19.888043 Si / 1000 Ang^3
#
#
#
# Elastic Constant Matrix: (Units=GPa)
#
#
# Indices 1 2 3 4 5 6 
#
# 1 130.0844 30.3158 29.4878 0.0000 0.0000 0.0000
# 2 30.3158 66.9455 26.6253 0.0000 0.0000 0.0000
# 3 29.4878 26.6253 99.2254 0.0000 0.0000 0.0000
# 4 0.0000 0.0000 0.0000 29.2587 0.0000 0.0000
# 5 0.0000 0.0000 0.0000 0.0000 21.6821 0.0000
# 6 0.0000 0.0000 0.0000 0.0000 0.0000 25.0434
#
#
#
# Elastic Compliance Matrix: (Units=1/GPa)
#
#
# Indices 1 2 3 4 5 6 
#
# 1 0.008855 -0.003317 -0.001741 0.000000 0.000000 0.000000
# 2 -0.003317 0.017965 -0.003835 0.000000 0.000000 0.000000
# 3 -0.001741 -0.003835 0.011625 0.000000 0.000000 0.000000
# 4 0.000000 0.000000 0.000000 0.034178 0.000000 0.000000
# 5 0.000000 0.000000 0.000000 0.000000 0.046121 0.000000
# 6 0.000000 0.000000 0.000000 0.000000 0.000000 0.039931
#
#
# Mechanical properties :
#
#
# Convention : Reuss Voigt Hill
#
# Bulk Modulus (GPa) = 48.40830 52.12365 50.26598
# Shear Modulus (GPa) = 27.27070 29.18528 28.22799
#
# Velocity S-wave (km/s) = 3.70700 3.83492 3.77151
# Velocity P-wave (km/s) = 6.53573 6.77306 6.65545
#
# Compressibility (1/GPa) = 0.02065762
#
# Stress axis : x y z
#
# Youngs Moduli (GPa) = 112.92829 55.66406 86.02491
#
# Poissons Ratio (x) = 0.18466 0.14980
# Poissons Ratio (y) = 0.37463 0.32988
# Poissons Ratio (z) = 0.19665 0.21345
#
# Static dielectric constant tensor:
#      x y z
#    x 3.860110 0.000000 0.000000 
#    y 0.000000 3.474670 0.000000 
#    z 0.000000 0.000000 3.844990 
# 
# 
# High freq. dielectric constant tensor:
#      x y z
#    x 1.794780 0.000000 0.000000 
#    y 0.000000 1.751140 0.000000 
#    z 0.000000 0.000000 1.790520 
# 
# From -- ./inp_files/27030.got.cif
#   From: 2010.03.12/outbox.cif.g09.slc.cpg/sg44_14_cif.got.tgz:27030.got - 2010.04.14 02:36:11.
