data_PCOD8189418
_publ_section_title
;
Structure prediction by ZEFSAII (Michael W. Deem and Ramdas Pophale) SiO2 
 PCOD8189418
Probable space group: I M M 2
;
_chemical_formula_sum "Si O2"
_cell_formula_units_Z 56
_cell_length_a 13.665317
_cell_length_b 21.704755
_cell_length_c 10.005596
_cell_angle_alpha 90.000000
_cell_angle_beta 90.000000
_cell_angle_gamma 90.000000
_cell_volume 2967.683362
_symmetry_space_group_name_H-M "I M M 2"
_symmetry_group_IT_number 44
_symmetry_cell_setting 'orthorhombic'
loop_
_space_group_symop_operation_xyz
x,y,z
-x,-y,z
-x,y,z
x,-y,z
1/2+x,1/2+y,1/2+z
1/2-x,1/2-y,1/2+z
1/2-x,1/2+y,1/2+z
1/2+x,1/2-y,1/2+z
loop_
_atom_site_type_symbol
_atom_site_label
_atom_site_fract_x
_atom_site_fract_y
_atom_site_fract_z
Si Si1 0.891457 0.278765 0.974610
Si Si2 0.198478 0.840212 0.082632
Si Si3 0.888797 0.296981 0.472662
Si Si4 0.392010 0.129011 0.708940
Si Si5 0.696635 0.329754 0.883862
Si Si6 0.204121 0.928899 0.611382
Si Si7 0.388861 0.427853 0.384111
O O1 0.810431 0.308918 0.878352
O O2 0.000000 0.285457 0.910013
O O3 0.869364 0.207684 0.002506
O O4 0.885668 0.310980 0.117440
O O5 0.165416 0.850436 0.235360
O O6 0.311252 0.816740 0.085869
O O7 0.182999 0.902481 0.999070
O O8 0.867953 0.345386 0.354795
O O9 0.871432 0.226590 0.429182
O O10 0.000000 0.302834 0.525757
O O11 0.500000 0.098934 0.703333
O O12 0.316581 0.077432 0.659267
O O13 0.680035 0.387261 0.982816
O O14 0.137813 0.904888 0.734460
O O15 0.183786 0.000000 0.573526
O O16 0.500000 0.408781 0.415353
O O17 0.372379 0.500000 0.387030
#
# Coordination Sequence:
#
# PCOD8189418 Si02
#       7
#     8   8   8   8   8   8   8
#     4   9  18  32  52  78 112 148 180 223 279 340
#     4  11  20  34  56  83 112 145 185 231 285 338
#     4  10  20  34  54  82 117 147 179 229 288 345
#     4   9  16  32  56  82 108 140 186 235 278 328
#     4  10  22  34  55  86 116 147 185 234 289 338
#     4  10  21  39  58  80 112 153 197 237 280 339
#     4  10  22  39  57  77 106 147 192 234 277 334
#
# _framework density 18.869938000000001
#
# number of rings (size 3 to 8) (size 9 to 14) (size 15 to 20)
#    0.000    2.143    2.857    0.429    0.000    2.571 
#    0.000    0.000    0.000    2.143    0.000    2.000 
#    0.000    0.000    0.000    0.000    0.000    0.000 
#
# Total GULP energy -347126.662258 kJ/mol
# GULP energy per Si atom -12397.380795 kJ/mol
# Density = 1.882699 g / cm^3
# Si number density = 18.869938 Si / 1000 Ang^3
#
#
#
# Elastic Constant Matrix: (Units=GPa)
#
#
# Indices 1 2 3 4 5 6 
#
# 1 84.0857 25.1800 16.0786 0.0002 -0.0001 -0.0001
# 2 25.1800 58.3031 46.0419 -0.0002 0.0000 0.0001
# 3 16.0786 46.0419 97.3301 -0.0009 0.0001 0.0004
# 4 0.0002 -0.0002 -0.0009 20.2854 0.0001 0.0002
# 5 -0.0001 0.0000 0.0001 0.0001 19.3645 0.0000
# 6 -0.0001 0.0001 0.0004 0.0002 0.0000 23.1688
#
#
#
# Elastic Compliance Matrix: (Units=1/GPa)
#
#
# Indices 1 2 3 4 5 6 
#
# 1 0.013704 -0.006594 0.000855 0.000000 0.000000 0.000000
# 2 -0.006594 0.030553 -0.013364 0.000000 0.000000 0.000000
# 3 0.000855 -0.013364 0.016455 0.000001 0.000000 0.000000
# 4 0.000000 0.000000 0.000001 0.049297 0.000000 0.000000
# 5 0.000000 0.000000 0.000000 0.000000 0.051641 0.000000
# 6 0.000000 0.000000 0.000000 0.000000 0.000000 0.043161
#
#
# Mechanical properties :
#
#
# Convention : Reuss Voigt Hill
#
# Bulk Modulus (GPa) = 44.43090 46.03555 45.23323
# Shear Modulus (GPa) = 19.95876 22.72497 21.34187
#
# Velocity S-wave (km/s) = 3.25576 3.47406 3.36668
# Velocity P-wave (km/s) = 6.14250 6.36721 6.25586
#
# Compressibility (1/GPa) = 0.02250686
#
# Stress axis : x y z
#
# Youngs Moduli (GPa) = 72.97336 32.73018 60.77299
#
# Poissons Ratio (x) = 0.21582 -0.05199
# Poissons Ratio (y) = 0.48118 0.81215
# Poissons Ratio (z) = -0.06242 0.43740
#
# Static dielectric constant tensor:
#      x y z
#    x 3.639940 0.000000 0.000000 
#    y 0.000000 3.205250 0.000000 
#    z 0.000000 0.000000 3.261810 
# 
# 
# High freq. dielectric constant tensor:
#      x y z
#    x 1.740460 0.000000 0.000000 
#    y 0.000000 1.715770 0.000000 
#    z 0.000000 0.000000 1.721400 
# 
# From -- ./inp_files/7380.got.cif
#   From: 2010.03.12/outbox.cif.g09.slc.cpg/sg44_4_cif.got.tgz:7380.got - 2010.04.14 02:36:11.
