data_PCOD8189781
_publ_section_title
;
Structure prediction by ZEFSAII (Michael W. Deem and Ramdas Pophale) SiO2 
 PCOD8189781
Probable space group: I M M 2
;
_chemical_formula_sum "Si O2"
_cell_formula_units_Z 48
_cell_length_a 9.104327
_cell_length_b 18.338763
_cell_length_c 14.769584
_cell_angle_alpha 90.000000
_cell_angle_beta 90.000000
_cell_angle_gamma 90.000000
_cell_volume 2465.960689
_symmetry_space_group_name_H-M "I M M 2"
_symmetry_group_IT_number 44
_symmetry_cell_setting 'orthorhombic'
loop_
_space_group_symop_operation_xyz
x,y,z
-x,-y,z
-x,y,z
x,-y,z
1/2+x,1/2+y,1/2+z
1/2-x,1/2-y,1/2+z
1/2-x,1/2+y,1/2+z
1/2+x,1/2-y,1/2+z
loop_
_atom_site_type_symbol
_atom_site_label
_atom_site_fract_x
_atom_site_fract_y
_atom_site_fract_z
Si Si1 0.829551 0.649201 0.000000
Si Si2 0.333932 0.753756 0.332003
Si Si3 0.834467 0.613388 0.353833
Si Si4 0.163529 0.000000 0.745253
Si Si5 0.333260 0.500000 0.031914
Si Si6 0.167896 0.422454 0.555117
Si Si7 0.826381 0.729948 0.622473
O O1 0.751174 0.571434 0.998614
O O2 0.755042 0.704126 0.071948
O O3 0.000000 0.640781 0.027552
O O4 0.814145 0.676558 0.896555
O O5 0.500000 0.723961 0.337506
O O6 0.224485 0.693937 0.370985
O O7 0.292453 0.770303 0.228760
O O8 0.742769 0.573285 0.276694
O O9 0.822527 0.570598 0.447238
O O10 0.000000 0.617263 0.318368
O O11 0.162359 0.000000 0.638881
O O12 0.000000 0.000000 0.785558
O O13 0.500000 0.500000 0.993637
O O14 0.236315 0.500000 0.591946
O O15 0.242606 0.347867 0.589765
O O16 0.000000 0.418648 0.587649
O O17 0.000000 0.736704 0.600920
#
# Coordination Sequence:
#
# PCOD8189781 Si02
#       7
#     8   8   8   4   4   8   8
#     4  11  23  40  61  88 121 154 195 251 301 343
#     4  10  22  38  57  86 119 154 193 239 297 351
#     4  11  20  33  57  86 114 149 193 237 285 350
#     4  11  23  37  55  84 119 152 188 242 304 356
#     4  11  25  43  61  82 113 158 202 240 292 358
#     4   9  17  32  55  84 112 143 188 237 277 330
#     4  10  20  38  62  86 115 157 201 238 288 357
#
# _framework density 19.465029999999999
#
# number of rings (size 3 to 8) (size 9 to 14) (size 15 to 20)
#    0.000    1.667    2.500    2.500    0.000    6.667 
#    1.500    0.000    0.000    0.000    0.000    0.000 
#    0.000    0.000    0.000    0.000    0.000    0.000 
#
# Total GULP energy -297516.731367 kJ/mol
# GULP energy per Si atom -12396.530474 kJ/mol
# Density = 1.942073 g / cm^3
# Si number density = 19.465030 Si / 1000 Ang^3
#
#
#
# Elastic Constant Matrix: (Units=GPa)
#
#
# Indices 1 2 3 4 5 6 
#
# 1 112.2934 68.9163 42.0953 0.0000 0.0000 0.0000
# 2 68.9163 173.2166 44.0413 0.0000 0.0000 0.0000
# 3 42.0953 44.0413 86.5379 -0.0001 0.0000 0.0000
# 4 0.0000 0.0000 -0.0001 26.2964 0.0000 0.0000
# 5 0.0000 0.0000 0.0000 0.0000 23.5080 0.0000
# 6 0.0000 0.0000 0.0000 0.0000 0.0000 22.4200
#
#
#
# Elastic Compliance Matrix: (Units=1/GPa)
#
#
# Indices 1 2 3 4 5 6 
#
# 1 0.013011 -0.004098 -0.004244 0.000000 0.000000 0.000000
# 2 -0.004098 0.007922 -0.002038 0.000000 0.000000 0.000000
# 3 -0.004244 -0.002038 0.014657 0.000000 0.000000 0.000000
# 4 0.000000 0.000000 0.000000 0.038028 0.000000 0.000000
# 5 0.000000 0.000000 0.000000 0.000000 0.042539 0.000000
# 6 0.000000 0.000000 0.000000 0.000000 0.000000 0.044603
#
#
# Mechanical properties :
#
#
# Convention : Reuss Voigt Hill
#
# Bulk Modulus (GPa) = 67.42756 75.79485 71.61120
# Shear Modulus (GPa) = 26.81514 28.91121 27.86318
#
# Velocity S-wave (km/s) = 3.71564 3.85813 3.78755
# Velocity P-wave (km/s) = 7.28859 7.67270 7.48311
#
# Compressibility (1/GPa) = 0.01483073
#
# Stress axis : x y z
#
# Youngs Moduli (GPa) = 76.85957 126.23674 68.22580
#
# Poissons Ratio (x) = 0.51726 0.28952
# Poissons Ratio (y) = 0.31493 0.13907
# Poissons Ratio (z) = 0.32616 0.25731
#
# Static dielectric constant tensor:
#      x y z
#    x 3.569200 0.000000 0.000000 
#    y 0.000000 3.746110 0.000000 
#    z 0.000000 0.000000 3.449130 
# 
# 
# High freq. dielectric constant tensor:
#      x y z
#    x 1.744920 0.000000 0.000000 
#    y 0.000000 1.773210 0.000000 
#    z 0.000000 0.000000 1.749930 
# 
# From -- ./inp_files/16165.got.cif
#   From: 2010.03.12/outbox.cif.g09.slc.cpg/sg44_9_cif.got.tgz:16165.got - 2010.04.14 02:36:11.
