data_PCOD8189369
_publ_section_title
;
Structure prediction by ZEFSAII (Michael W. Deem and Ramdas Pophale) SiO2 
 PCOD8189369
Probable space group: I M M 2
;
_chemical_formula_sum "Si O2"
_cell_formula_units_Z 64
_cell_length_a 23.069595
_cell_length_b 8.594062
_cell_length_c 18.861561
_cell_angle_alpha 90.000000
_cell_angle_beta 90.000000
_cell_angle_gamma 90.000000
_cell_volume 3739.521937
_symmetry_space_group_name_H-M "I M M 2"
_symmetry_group_IT_number 44
_symmetry_cell_setting 'orthorhombic'
loop_
_space_group_symop_operation_xyz
x,y,z
-x,-y,z
-x,y,z
x,-y,z
1/2+x,1/2+y,1/2+z
1/2-x,1/2-y,1/2+z
1/2-x,1/2+y,1/2+z
1/2+x,1/2-y,1/2+z
loop_
_atom_site_type_symbol
_atom_site_label
_atom_site_fract_x
_atom_site_fract_y
_atom_site_fract_z
Si Si1 0.165125 0.320034 0.634210
Si Si2 0.932791 0.821448 0.003295
Si Si3 0.728389 0.320316 0.009630
Si Si4 0.841063 0.682287 0.100939
Si Si5 0.433324 0.319396 0.222727
Si Si6 0.259283 0.680632 0.368118
Si Si7 0.224507 0.817853 0.226932
Si Si8 0.615134 0.180611 0.363054
O O1 0.167971 0.500000 0.614199
O O2 0.176274 0.223484 0.562585
O O3 0.102726 0.277988 0.665449
O O4 0.213120 0.277516 0.693020
O O5 0.898751 0.764304 0.072579
O O6 0.000000 0.800949 0.020673
O O7 0.916918 0.000000 0.986105
O O8 0.916037 0.715468 0.936847
O O9 0.723638 0.500000 0.989114
O O10 0.789432 0.280773 0.046414
O O11 0.722880 0.218141 0.938779
O O12 0.851518 0.500000 0.109549
O O13 0.826748 0.755512 0.177140
O O14 0.500000 0.275217 0.211306
O O15 0.421433 0.500000 0.209472
O O16 0.415441 0.280641 0.302624
O O17 0.275422 0.500000 0.365033
O O18 0.220056 0.727817 0.301175
O O19 0.317277 0.782375 0.368566
O O20 0.216534 0.000000 0.239578
O O21 0.608046 0.000000 0.344165
#
# Coordination Sequence:
#
# PCOD8189369 Si02
#       8
#     8   8   8   8   8   8   8   8
#     4  10  20  34  53  76 103 136 174 216 261 308
#     4  11  23  37  53  74 103 141 181 219 260 306
#     4  10  20  34  53  76 105 136 171 214 262 313
#     4  10  20  34  53  76 103 136 174 216 261 308
#     4  11  23  37  53  74 103 141 181 219 260 306
#     4  12  22  33  53  78 107 140 174 213 260 313
#     4  10  20  34  53  76 105 136 171 214 262 313
#     4  12  23  35  50  73 104 141 181 219 258 303
#
# _framework density 17.114485999999999
#
# number of rings (size 3 to 8) (size 9 to 14) (size 15 to 20)
#    0.000    1.250    2.500    4.875    0.000    5.500 
#    0.000    0.000    0.000    0.000    0.000    0.875 
#    0.000    7.000    0.000    0.000    0.000    0.000 
#
# Total GULP energy -397023.088447 kJ/mol
# GULP energy per Si atom -12406.971514 kJ/mol
# Density = 1.707553 g / cm^3
# Si number density = 17.114486 Si / 1000 Ang^3
#
#
#
# Elastic Constant Matrix: (Units=GPa)
#
#
# Indices 1 2 3 4 5 6 
#
# 1 72.7025 20.2886 42.1352 0.0000 0.0000 0.0000
# 2 20.2886 54.6644 33.6441 0.0000 0.0000 0.0000
# 3 42.1352 33.6441 104.0226 0.0000 0.0000 0.0000
# 4 0.0000 0.0000 0.0000 32.9538 0.0000 0.0000
# 5 0.0000 0.0000 0.0000 0.0000 20.3125 0.0000
# 6 0.0000 0.0000 0.0000 0.0000 0.0000 24.8721
#
#
#
# Elastic Compliance Matrix: (Units=1/GPa)
#
#
# Indices 1 2 3 4 5 6 
#
# 1 0.018308 -0.002785 -0.006515 0.000000 0.000000 0.000000
# 2 -0.002785 0.023264 -0.006396 0.000000 0.000000 0.000000
# 3 -0.006515 -0.006396 0.014321 0.000000 0.000000 0.000000
# 4 0.000000 0.000000 0.000000 0.030346 0.000000 0.000000
# 5 0.000000 0.000000 0.000000 0.000000 0.049231 0.000000
# 6 0.000000 0.000000 0.000000 0.000000 0.000000 0.040206
#
#
# Mechanical properties :
#
#
# Convention : Reuss Voigt Hill
#
# Bulk Modulus (GPa) = 40.81618 47.05837 43.93727
# Shear Modulus (GPa) = 23.23064 24.64912 23.93988
#
# Velocity S-wave (km/s) = 3.68824 3.79918 3.74412
# Velocity P-wave (km/s) = 6.48369 6.84112 6.66480
#
# Compressibility (1/GPa) = 0.02450009
#
# Stress axis : x y z
#
# Youngs Moduli (GPa) = 54.62200 42.98536 69.82810
#
# Poissons Ratio (x) = 0.11972 0.45492
# Poissons Ratio (y) = 0.15213 0.44662
# Poissons Ratio (z) = 0.35585 0.27494
#
# Static dielectric constant tensor:
#      x y z
#    x 3.006490 0.000000 0.000000 
#    y 0.000000 3.315620 0.000000 
#    z 0.000000 0.000000 3.245640 
# 
# 
# High freq. dielectric constant tensor:
#      x y z
#    x 1.628780 0.000000 0.000000 
#    y 0.000000 1.680530 0.000000 
#    z 0.000000 0.000000 1.656620 
# 
# From -- ./inp_files/19466.got.cif
#   From: 2010.03.12/outbox.cif.g09.slc.cpg/sg44_10_cif.got.tgz:19466.got - 2010.04.14 02:36:11.
