data_PCOD8189440
_publ_section_title
;
Structure prediction by ZEFSAII (Michael W. Deem and Ramdas Pophale) SiO2 
 PCOD8189440
Probable space group: I M M 2
;
_chemical_formula_sum "Si O2"
_cell_formula_units_Z 64
_cell_length_a 17.076046
_cell_length_b 20.075667
_cell_length_c 9.725140
_cell_angle_alpha 90.000000
_cell_angle_beta 90.000000
_cell_angle_gamma 90.000000
_cell_volume 3333.904547
_symmetry_space_group_name_H-M "I M M 2"
_symmetry_group_IT_number 44
_symmetry_cell_setting 'orthorhombic'
loop_
_space_group_symop_operation_xyz
x,y,z
-x,-y,z
-x,y,z
x,-y,z
1/2+x,1/2+y,1/2+z
1/2-x,1/2-y,1/2+z
1/2-x,1/2+y,1/2+z
1/2+x,1/2-y,1/2+z
loop_
_atom_site_type_symbol
_atom_site_label
_atom_site_fract_x
_atom_site_fract_y
_atom_site_fract_z
Si Si1 0.650632 0.827310 0.151000
Si Si2 0.408524 0.575963 0.963029
Si Si3 0.906611 0.332834 0.084448
Si Si4 0.679362 0.200688 0.855435
Si Si5 0.589271 0.927973 0.352448
Si Si6 0.912885 0.183485 0.681272
Si Si7 0.175659 0.156164 0.245867
Si Si8 0.643150 0.303400 0.455006
O O1 0.591228 0.877510 0.223174
O O2 0.641416 0.748784 0.179188
O O3 0.732900 0.849804 0.215676
O O4 0.638690 0.833823 0.987059
O O5 0.500000 0.586629 0.929528
O O6 0.391420 0.500000 0.005341
O O7 0.380607 0.623229 0.088346
O O8 0.357426 0.593204 0.828544
O O9 0.852684 0.337088 0.220549
O O10 0.883774 0.271483 0.986647
O O11 0.000000 0.331064 0.119182
O O12 0.879099 0.395941 0.994089
O O13 0.655160 0.278089 0.835613
O O14 0.771149 0.195055 0.885262
O O15 0.500000 0.942359 0.379676
O O16 0.631181 0.000000 0.324778
O O17 0.000000 0.202541 0.632890
O O18 0.912980 0.161737 0.842063
O O19 0.134556 0.156493 0.096839
#
# Coordination Sequence:
#
# PCOD8189440 Si02
#       8
#     8   8   8   8   8   8   8   8
#     4  11  20  34  57  87 115 146 192 242 295 349
#     4  10  23  41  59  84 119 158 201 245 296 360
#     4  10  20  34  55  83 114 147 194 240 284 348
#     4  10  20  34  55  83 115 148 181 246 298 343
#     4  10  21  37  55  78 114 155 190 232 290 353
#     4  11  20  33  58  85 115 151 193 245 299 351
#     4  10  20  35  58  83 114 151 186 238 294 349
#     4  10  20  34  55  85 116 144 187 240 298 350
#
# _framework density 19.196709999999999
#
# number of rings (size 3 to 8) (size 9 to 14) (size 15 to 20)
#    0.000    1.750    3.750    0.750    0.000    5.000 
#    0.000    1.250    0.000    4.500    0.000    0.000 
#    0.000    0.000    0.000    0.000    0.000    0.000 
#
# Total GULP energy -396492.645763 kJ/mol
# GULP energy per Si atom -12390.395180 kJ/mol
# Density = 1.915302 g / cm^3
# Si number density = 19.196710 Si / 1000 Ang^3
#
#
#
# Elastic Constant Matrix: (Units=GPa)
#
#
# Indices 1 2 3 4 5 6 
#
# 1 44.6491 26.0241 37.5508 0.0000 0.0000 0.0000
# 2 26.0241 112.2284 71.6882 0.0000 0.0000 0.0000
# 3 37.5508 71.6882 154.3362 0.0000 0.0000 0.0000
# 4 0.0000 0.0000 0.0000 22.5529 0.0000 0.0000
# 5 0.0000 0.0000 0.0000 0.0000 35.8482 0.0000
# 6 0.0000 0.0000 0.0000 0.0000 0.0000 15.1654
#
#
#
# Elastic Compliance Matrix: (Units=1/GPa)
#
#
# Indices 1 2 3 4 5 6 
#
# 1 0.028919 -0.003144 -0.005576 0.000000 0.000000 0.000000
# 2 -0.003144 0.013011 -0.005279 0.000000 0.000000 0.000000
# 3 -0.005576 -0.005279 0.010288 0.000000 0.000000 0.000000
# 4 0.000000 0.000000 0.000000 0.044340 0.000000 0.000000
# 5 0.000000 0.000000 0.000000 0.000000 0.027895 0.000000
# 6 0.000000 0.000000 0.000000 0.000000 0.000000 0.065940
#
#
# Mechanical properties :
#
#
# Convention : Reuss Voigt Hill
#
# Bulk Modulus (GPa) = 41.28679 64.63777 52.96228
# Shear Modulus (GPa) = 22.07858 26.44335 24.26097
#
# Velocity S-wave (km/s) = 3.39503 3.71549 3.55887
# Velocity P-wave (km/s) = 6.07636 7.22155 6.67357
#
# Compressibility (1/GPa) = 0.02422082
#
# Stress axis : x y z
#
# Youngs Moduli (GPa) = 34.57968 76.85577 97.20225
#
# Poissons Ratio (x) = 0.24166 0.54196
# Poissons Ratio (y) = 0.10873 0.51310
# Poissons Ratio (z) = 0.19280 0.40570
#
# Static dielectric constant tensor:
#      x y z
#    x 3.406250 0.000000 0.000000 
#    y 0.000000 3.592910 0.000000 
#    z 0.000000 0.000000 3.894810 
# 
# 
# High freq. dielectric constant tensor:
#      x y z
#    x 1.741860 0.000000 0.000000 
#    y 0.000000 1.713730 0.000000 
#    z 0.000000 0.000000 1.763070 
# 
# From -- ./inp_files/8475.got.cif
#   From: 2010.03.12/outbox.cif.g09.slc.cpg/sg44_5_cif.got.tgz:8475.got - 2010.04.14 02:36:11.
