data_PCOD8189959
_publ_section_title
;
Structure prediction by ZEFSAII (Michael W. Deem and Ramdas Pophale) SiO2 
 PCOD8189959
Probable space group: I M M 2
;
_chemical_formula_sum "Si O2"
_cell_formula_units_Z 40
_cell_length_a 8.768293
_cell_length_b 25.141527
_cell_length_c 9.581053
_cell_angle_alpha 90.000000
_cell_angle_beta 90.000000
_cell_angle_gamma 90.000000
_cell_volume 2112.126608
_symmetry_space_group_name_H-M "I M M 2"
_symmetry_group_IT_number 44
_symmetry_cell_setting 'orthorhombic'
loop_
_space_group_symop_operation_xyz
x,y,z
-x,-y,z
-x,y,z
x,-y,z
1/2+x,1/2+y,1/2+z
1/2-x,1/2-y,1/2+z
1/2-x,1/2+y,1/2+z
1/2+x,1/2-y,1/2+z
loop_
_atom_site_type_symbol
_atom_site_label
_atom_site_fract_x
_atom_site_fract_y
_atom_site_fract_z
Si Si1 0.820845 0.091422 0.853950
Si Si2 0.181248 0.000000 0.334792
Si Si3 0.179000 0.409203 0.651028
Si Si4 0.673266 0.711980 0.343133
Si Si5 0.673949 0.298697 0.662686
Si Si6 0.680562 0.500000 0.149957
O O1 0.783413 0.151297 0.805645
O O2 0.762652 0.052406 0.732256
O O3 0.000000 0.085047 0.885250
O O4 0.734631 0.076675 0.995903
O O5 0.240628 0.052652 0.260842
O O6 0.245858 0.000000 0.493436
O O7 0.000000 0.000000 0.332412
O O8 0.219160 0.348958 0.693518
O O9 0.000000 0.418087 0.659559
O O10 0.500000 0.724249 0.297572
O O11 0.697377 0.722110 0.506421
O O12 0.787525 0.750483 0.264100
O O13 0.500000 0.316778 0.686319
O O14 0.500000 0.500000 0.144499
#
# Coordination Sequence:
#
# PCOD8189959 Si02
#       6
#     8   4   8   8   8   4
#     4   9  18  36  59  82 109 143 183 225 270 325
#     4  11  22  37  56  82 114 147 182 221 272 328
#     4  11  22  37  57  82 110 144 185 226 270 322
#     4   9  19  34  53  81 113 143 180 226 271 320
#     4  10  21  37  57  81 109 145 185 225 274 327
#     4   9  19  35  58  84 108 139 180 223 268 322
#
# _framework density 18.93826
#
# number of rings (size 3 to 8) (size 9 to 14) (size 15 to 20)
#    0.000    2.200    0.000    4.500    0.000    6.400 
#    0.000    4.000    0.000    0.000    0.000    0.000 
#    0.000    0.000    0.000    0.000    0.000    0.000 
#
# Total GULP energy -248055.177180 kJ/mol
# GULP energy per Si atom -12402.758859 kJ/mol
# Density = 1.889516 g / cm^3
# Si number density = 18.938260 Si / 1000 Ang^3
#
#
#
# Elastic Constant Matrix: (Units=GPa)
#
#
# Indices 1 2 3 4 5 6 
#
# 1 80.0710 36.8413 46.9854 -0.0003 0.0002 0.0000
# 2 36.8413 111.4598 83.3031 0.0003 -0.0001 0.0000
# 3 46.9854 83.3031 125.2769 0.0036 0.0018 0.0000
# 4 -0.0003 0.0003 0.0036 34.8974 0.0003 0.0000
# 5 0.0002 -0.0001 0.0018 0.0003 24.6465 0.0003
# 6 0.0000 0.0000 0.0000 0.0000 0.0003 32.1111
#
#
#
# Elastic Compliance Matrix: (Units=1/GPa)
#
#
# Indices 1 2 3 4 5 6 
#
# 1 0.016158 -0.001613 -0.004987 0.000001 0.000000 0.000000
# 2 -0.001613 0.017997 -0.011362 0.000001 0.000001 0.000000
# 3 -0.004987 -0.011362 0.017408 -0.000002 -0.000001 0.000000
# 4 0.000001 0.000001 -0.000002 0.028655 0.000000 0.000000
# 5 0.000000 0.000001 -0.000001 0.000000 0.040574 0.000000
# 6 0.000000 0.000000 0.000000 0.000000 0.000000 0.031142
#
#
# Mechanical properties :
#
#
# Convention : Reuss Voigt Hill
#
# Bulk Modulus (GPa) = 63.94881 72.34083 68.14482
# Shear Modulus (GPa) = 25.89722 28.30953 27.10338
#
# Velocity S-wave (km/s) = 3.70192 3.87050 3.78715
# Velocity P-wave (km/s) = 7.21891 7.63253 7.42860
#
# Compressibility (1/GPa) = 0.01563751
#
# Stress axis : x y z
#
# Youngs Moduli (GPa) = 61.88998 55.56539 57.44511
#
# Poissons Ratio (x) = 0.08965 0.28649
# Poissons Ratio (y) = 0.09985 0.65269
# Poissons Ratio (z) = 0.30866 0.63133
#
# Static dielectric constant tensor:
#      x y z
#    x 3.332960 0.000000 0.000000 
#    y 0.000000 3.563350 0.000000 
#    z 0.000000 0.000000 3.547200 
# 
# 
# High freq. dielectric constant tensor:
#      x y z
#    x 1.727430 0.000000 0.000000 
#    y 0.000000 1.746280 0.000000 
#    z 0.000000 0.000000 1.733130 
# 
# From -- ./inp_files/4680.got.cif
#   From: 2010.03.12/outbox.cif.g09.slc.cpg/sg44_3_cif.got.tgz:4680.got - 2010.04.14 02:36:11.
