data_PCOD8189791
_publ_section_title
;
Structure prediction by ZEFSAII (Michael W. Deem and Ramdas Pophale) SiO2 
 PCOD8189791
Probable space group: I M M 2
;
_chemical_formula_sum "Si O2"
_cell_formula_units_Z 64
_cell_length_a 23.409592
_cell_length_b 14.596242
_cell_length_c 8.819826
_cell_angle_alpha 90.000000
_cell_angle_beta 90.000000
_cell_angle_gamma 90.000000
_cell_volume 3013.664603
_symmetry_space_group_name_H-M "I M M 2"
_symmetry_group_IT_number 44
_symmetry_cell_setting 'orthorhombic'
loop_
_space_group_symop_operation_xyz
x,y,z
-x,-y,z
-x,y,z
x,-y,z
1/2+x,1/2+y,1/2+z
1/2-x,1/2-y,1/2+z
1/2-x,1/2+y,1/2+z
1/2+x,1/2-y,1/2+z
loop_
_atom_site_type_symbol
_atom_site_label
_atom_site_fract_x
_atom_site_fract_y
_atom_site_fract_z
Si Si1 0.399040 0.602857 0.605910
Si Si2 0.835100 0.393642 0.464883
Si Si3 0.434679 0.232417 0.437430
Si Si4 0.437163 0.400351 0.928394
Si Si5 0.123236 0.228376 0.626342
Si Si6 0.775129 0.106146 0.142425
Si Si7 0.225467 0.889757 0.485118
Si Si8 0.848469 0.605694 0.111223
O O1 0.418241 0.500000 0.561993
O O2 0.442257 0.673517 0.530695
O O3 0.394652 0.614231 0.788086
O O4 0.334285 0.625097 0.554042
O O5 0.846882 0.500000 0.503623
O O6 0.879236 0.329197 0.552347
O O7 0.773984 0.358324 0.529489
O O8 0.841985 0.374262 0.288502
O O9 0.500000 0.200800 0.394984
O O10 0.391636 0.255081 0.300658
O O11 0.403027 0.158214 0.542857
O O12 0.500000 0.393601 0.857838
O O13 0.426206 0.500000 0.002255
O O14 0.430293 0.325804 0.058081
O O15 0.179615 0.166649 0.588097
O O16 0.775153 0.148268 0.312159
O O17 0.765031 0.000000 0.169859
O O18 0.288574 0.863033 0.540792
O O19 0.213799 0.000000 0.501454
O O20 0.860393 0.500000 0.077153
#
# Coordination Sequence:
#
# PCOD8189791 Si02
#       8
#     8   8   8   8   8   8   8   8
#     4  10  21  38  62  90 126 171 215 261 319 386
#     4  10  23  41  65  97 128 163 209 271 337 400
#     4  12  28  45  63  92 131 180 234 278 328 395
#     4  10  20  38  63  91 127 170 217 265 317 385
#     4  12  24  38  64  94 131 175 217 269 331 399
#     4   9  18  36  61  92 130 166 204 252 318 395
#     4  10  21  38  64 101 138 170 207 258 329 406
#     4  10  24  45  69  96 127 167 219 280 342 397
#
# _framework density 21.236604
#
# number of rings (size 3 to 8) (size 9 to 14) (size 15 to 20)
#    0.000    1.625    1.250    2.625    3.500    3.500 
#    0.000    0.625    0.000    2.625    0.000    0.000 
#    0.000    0.000    0.000    0.000    0.000    0.000 
#
# Total GULP energy -396548.439879 kJ/mol
# GULP energy per Si atom -12392.138746 kJ/mol
# Density = 2.118827 g / cm^3
# Si number density = 21.236604 Si / 1000 Ang^3
#
#
#
# Elastic Constant Matrix: (Units=GPa)
#
#
# Indices 1 2 3 4 5 6 
#
# 1 110.2923 48.5729 50.7587 0.0000 0.0000 0.0000
# 2 48.5729 96.8472 48.0726 0.0000 0.0000 0.0000
# 3 50.7587 48.0726 98.5864 0.0000 0.0000 0.0000
# 4 0.0000 0.0000 0.0000 31.3723 0.0000 0.0000
# 5 0.0000 0.0000 0.0000 0.0000 28.7557 0.0000
# 6 0.0000 0.0000 0.0000 0.0000 0.0000 31.2169
#
#
#
# Elastic Compliance Matrix: (Units=1/GPa)
#
#
# Indices 1 2 3 4 5 6 
#
# 1 0.013084 -0.004246 -0.004666 0.000000 0.000000 0.000000
# 2 -0.004246 0.015001 -0.005128 0.000000 0.000000 0.000000
# 3 -0.004666 -0.005128 0.015047 0.000000 0.000000 0.000000
# 4 0.000000 0.000000 0.000000 0.031875 0.000000 0.000000
# 5 0.000000 0.000000 0.000000 0.000000 0.034776 0.000000
# 6 0.000000 0.000000 0.000000 0.000000 0.000000 0.032034
#
#
# Mechanical properties :
#
#
# Convention : Reuss Voigt Hill
#
# Bulk Modulus (GPa) = 66.44468 66.72603 66.58536
# Shear Modulus (GPa) = 28.58533 28.82375 28.70454
#
# Velocity S-wave (km/s) = 3.67282 3.68811 3.68047
# Velocity P-wave (km/s) = 7.02438 7.04448 7.03444
#
# Compressibility (1/GPa) = 0.01505011
#
# Stress axis : x y z
#
# Youngs Moduli (GPa) = 76.42755 66.66299 66.46034
#
# Poissons Ratio (x) = 0.28306 0.31011
# Poissons Ratio (y) = 0.32452 0.34084
# Poissons Ratio (z) = 0.35662 0.34188
#
# Static dielectric constant tensor:
#      x y z
#    x 3.777560 0.000000 0.000000 
#    y 0.000000 3.904420 0.000000 
#    z 0.000000 0.000000 3.747180 
# 
# 
# High freq. dielectric constant tensor:
#      x y z
#    x 1.829560 0.000000 0.000000 
#    y 0.000000 1.835770 0.000000 
#    z 0.000000 0.000000 1.825830 
# 
# From -- ./inp_files/7542.got.cif
#   From: 2010.03.12/outbox.cif.g09.slc.cpg/sg44_4_cif.got.tgz:7542.got - 2010.04.14 02:36:11.
