data_PCOD8189307
_publ_section_title
;
Structure prediction by ZEFSAII (Michael W. Deem and Ramdas Pophale) SiO2 
 PCOD8189307
Probable space group: I M M 2
;
_chemical_formula_sum "Si O2"
_cell_formula_units_Z 64
_cell_length_a 9.245874
_cell_length_b 15.692133
_cell_length_c 22.685421
_cell_angle_alpha 90.000000
_cell_angle_beta 90.000000
_cell_angle_gamma 90.000000
_cell_volume 3291.370668
_symmetry_space_group_name_H-M "I M M 2"
_symmetry_group_IT_number 44
_symmetry_cell_setting 'orthorhombic'
loop_
_space_group_symop_operation_xyz
x,y,z
-x,-y,z
-x,y,z
x,-y,z
1/2+x,1/2+y,1/2+z
1/2-x,1/2-y,1/2+z
1/2-x,1/2+y,1/2+z
1/2+x,1/2-y,1/2+z
loop_
_atom_site_type_symbol
_atom_site_label
_atom_site_fract_x
_atom_site_fract_y
_atom_site_fract_z
Si Si1 0.167845 0.690013 0.423590
Si Si2 0.837210 0.405061 0.841428
Si Si3 0.157322 0.097814 0.008855
Si Si4 0.168220 0.403229 0.097886
Si Si5 0.331521 0.747926 0.795557
Si Si6 0.335115 0.846903 0.468479
Si Si7 0.833016 0.402630 0.620939
Si Si8 0.330620 0.728427 0.180933
O O1 0.253387 0.608623 0.448195
O O2 0.199519 0.697812 0.354350
O O3 0.228254 0.767431 0.462688
O O4 0.000000 0.680636 0.436555
O O5 0.816655 0.500000 0.816998
O O6 0.723572 0.347640 0.806651
O O7 0.809634 0.406884 0.911742
O O8 0.000000 0.372051 0.827782
O O9 0.245441 0.132163 0.064820
O O10 0.000000 0.143629 0.005867
O O11 0.131952 0.000000 0.019068
O O12 0.207481 0.500000 0.117615
O O13 0.263655 0.333775 0.131956
O O14 0.000000 0.384395 0.110829
O O15 0.201727 0.397209 0.028118
O O16 0.500000 0.744428 0.779818
O O17 0.245522 0.793195 0.742906
O O18 0.500000 0.813920 0.469606
O O19 0.788897 0.500000 0.641193
O O20 0.803135 0.329883 0.669876
O O21 0.000000 0.402884 0.602740
O O22 0.500000 0.708419 0.184958
#
# Coordination Sequence:
#
# PCOD8189307 Si02
#       8
#     8   8   8   8   8   8   8   8
#     4  10  20  34  53  77 105 138 174 213 263 320
#     4   9  17  31  53  81 112 143 174 211 258 314
#     4  10  20  33  52  80 109 135 168 212 262 317
#     4  10  21  37  57  81 110 145 184 225 271 324
#     4  10  22  38  54  74 102 139 183 225 266 317
#     4   9  17  31  54  82 110 140 173 211 258 315
#     4   9  19  36  57  82 113 146 178 215 264 324
#     4  11  23  38  57  80 107 143 187 232 276 321
#
# _framework density 19.444786000000001
#
# number of rings (size 3 to 8) (size 9 to 14) (size 15 to 20)
#    0.000    2.250    0.000    2.625    0.000    8.250 
#    0.000    1.875    0.000    3.000    0.000    0.000 
#    0.000    0.000    0.000    0.000    0.000    0.000 
#
# Total GULP energy -396663.710749 kJ/mol
# GULP energy per Si atom -12395.740961 kJ/mol
# Density = 1.940053 g / cm^3
# Si number density = 19.444786 Si / 1000 Ang^3
#
#
#
# Elastic Constant Matrix: (Units=GPa)
#
#
# Indices 1 2 3 4 5 6 
#
# 1 105.3681 26.5651 55.3470 0.0000 0.0000 0.0000
# 2 26.5651 53.6199 23.7606 0.0000 0.0000 0.0000
# 3 55.3470 23.7606 86.1165 0.0000 0.0000 0.0000
# 4 0.0000 0.0000 0.0000 17.4674 0.0000 0.0000
# 5 0.0000 0.0000 0.0000 0.0000 31.8756 0.0000
# 6 0.0000 0.0000 0.0000 0.0000 0.0000 28.2762
#
#
#
# Elastic Compliance Matrix: (Units=1/GPa)
#
#
# Indices 1 2 3 4 5 6 
#
# 1 0.014906 -0.003577 -0.008593 0.000000 0.000000 0.000000
# 2 -0.003577 0.022106 -0.003800 0.000000 0.000000 0.000000
# 3 -0.008593 -0.003800 0.018184 0.000000 0.000000 0.000000
# 4 0.000000 0.000000 0.000000 0.057250 0.000000 0.000000
# 5 0.000000 0.000000 0.000000 0.000000 0.031372 0.000000
# 6 0.000000 0.000000 0.000000 0.000000 0.000000 0.035365
#
#
# Mechanical properties :
#
#
# Convention : Reuss Voigt Hill
#
# Bulk Modulus (GPa) = 43.00241 50.71665 46.85953
# Shear Modulus (GPa) = 22.84404 24.81930 23.83167
#
# Velocity S-wave (km/s) = 3.43128 3.57655 3.50467
# Velocity P-wave (km/s) = 6.15316 6.57226 6.36616
#
# Compressibility (1/GPa) = 0.02325451
#
# Stress axis : x y z
#
# Youngs Moduli (GPa) = 67.08630 45.23654 54.99467
#
# Poissons Ratio (x) = 0.16182 0.47258
# Poissons Ratio (y) = 0.23997 0.20900
# Poissons Ratio (z) = 0.57649 0.17191
#
# Static dielectric constant tensor:
#      x y z
#    x 3.822260 0.000000 0.000000 
#    y 0.000000 3.518480 0.000000 
#    z 0.000000 0.000000 3.500350 
# 
# 
# High freq. dielectric constant tensor:
#      x y z
#    x 1.760760 0.000000 0.000000 
#    y 0.000000 1.744300 0.000000 
#    z 0.000000 0.000000 1.751830 
# 
# From -- ./inp_files/23284.got.cif
#   From: 2010.03.12/outbox.cif.g09.slc.cpg/sg44_12_cif.got.tgz:23284.got - 2010.04.14 02:36:11.
