data_PCOD8189431
_publ_section_title
;
Structure prediction by ZEFSAII (Michael W. Deem and Ramdas Pophale) SiO2 
 PCOD8189431
Probable space group: I M M 2
;
_chemical_formula_sum "Si O2"
_cell_formula_units_Z 48
_cell_length_a 16.995917
_cell_length_b 8.653286
_cell_length_c 17.039883
_cell_angle_alpha 90.000000
_cell_angle_beta 90.000000
_cell_angle_gamma 90.000000
_cell_volume 2506.064635
_symmetry_space_group_name_H-M "I M M 2"
_symmetry_group_IT_number 44
_symmetry_cell_setting 'orthorhombic'
loop_
_space_group_symop_operation_xyz
x,y,z
-x,-y,z
-x,y,z
x,-y,z
1/2+x,1/2+y,1/2+z
1/2-x,1/2-y,1/2+z
1/2-x,1/2+y,1/2+z
1/2+x,1/2-y,1/2+z
loop_
_atom_site_type_symbol
_atom_site_label
_atom_site_fract_x
_atom_site_fract_y
_atom_site_fract_z
Si Si1 0.846931 0.316964 0.195170
Si Si2 0.000000 0.317415 0.927020
Si Si3 0.145051 0.817179 0.834357
Si Si4 0.500000 0.183581 0.604402
Si Si5 0.318198 0.182098 0.869189
Si Si6 0.911414 0.315965 0.517193
Si Si7 0.680830 0.817460 0.170889
O O1 0.834660 0.500000 0.185985
O O2 0.922554 0.254355 0.148557
O O3 0.858198 0.271764 0.286560
O O4 0.770969 0.232896 0.159764
O O5 0.077206 0.259212 0.884343
O O6 0.000000 0.500000 0.926622
O O7 0.000000 0.253240 0.015824
O O8 0.227990 0.759441 0.870484
O O9 0.139386 0.764286 0.744397
O O10 0.136231 0.000000 0.837595
O O11 0.500000 0.000000 0.607183
O O12 0.317902 0.000000 0.878748
O O13 0.367060 0.255414 0.941051
O O14 0.912540 0.500000 0.512510
O O15 0.866210 0.260551 0.594593
O O16 0.000000 0.250396 0.518756
O O17 0.675592 0.000000 0.182417
#
# Coordination Sequence:
#
# PCOD8189431 Si02
#       7
#     8   4   8   4   8   8   8
#     4   9  18  35  57  80 109 146 187 227 272 331
#     4  11  23  37  55  82 113 144 186 233 283 335
#     4  10  21  38  58  80 108 144 186 229 278 335
#     4   9  20  35  55  84 113 146 186 231 283 337
#     4   8  16  31  53  78 105 138 179 222 265 320
#     4   9  18  30  49  80 110 137 175 225 271 314
#     4  10  20  34  55  81 111 146 183 227 279 331
#
# _framework density 19.153537
#
# number of rings (size 3 to 8) (size 9 to 14) (size 15 to 20)
#    0.000    2.667    0.000    2.250    4.667    0.000 
#    0.000    1.250    0.000    1.000    0.000    0.000 
#    0.000    0.000    0.000    0.000    0.000    0.000 
#
# Total GULP energy -297584.263268 kJ/mol
# GULP energy per Si atom -12399.344303 kJ/mol
# Density = 1.910994 g / cm^3
# Si number density = 19.153537 Si / 1000 Ang^3
#
#
#
# Elastic Constant Matrix: (Units=GPa)
#
#
# Indices 1 2 3 4 5 6 
#
# 1 160.2857 21.6739 118.7384 0.0000 0.0000 0.0000
# 2 21.6739 33.5559 20.9031 0.0000 0.0000 0.0000
# 3 118.7384 20.9031 175.3575 0.0000 0.0000 0.0000
# 4 0.0000 0.0000 0.0000 19.1483 0.0000 0.0000
# 5 0.0000 0.0000 0.0000 0.0000 44.2415 0.0000
# 6 0.0000 0.0000 0.0000 0.0000 0.0000 25.8953
#
#
#
# Elastic Compliance Matrix: (Units=1/GPa)
#
#
# Indices 1 2 3 4 5 6 
#
# 1 0.012810 -0.003101 -0.008304 0.000000 0.000000 0.000000
# 2 -0.003101 0.032942 -0.001827 0.000000 0.000000 0.000000
# 3 -0.008304 -0.001827 0.011543 0.000000 0.000000 0.000000
# 4 0.000000 0.000000 0.000000 0.052224 0.000000 0.000000
# 5 0.000000 0.000000 0.000000 0.000000 0.022603 0.000000
# 6 0.000000 0.000000 0.000000 0.000000 0.000000 0.038617
#
#
# Mechanical properties :
#
#
# Convention : Reuss Voigt Hill
#
# Bulk Modulus (GPa) = 32.43502 76.87000 54.65251
# Shear Modulus (GPa) = 24.09862 31.71595 27.90729
#
# Velocity S-wave (km/s) = 3.55093 4.07366 3.82125
# Velocity P-wave (km/s) = 5.81233 7.89601 6.93290
#
# Compressibility (1/GPa) = 0.03083088
#
# Stress axis : x y z
#
# Youngs Moduli (GPa) = 78.06492 30.35631 86.62987
#
# Poissons Ratio (x) = 0.09414 0.71939
# Poissons Ratio (y) = 0.24208 0.15827
# Poissons Ratio (z) = 0.64827 0.05546
#
# Static dielectric constant tensor:
#      x y z
#    x 3.735780 0.000000 0.000000 
#    y 0.000000 3.123500 0.000000 
#    z 0.000000 0.000000 3.780080 
# 
# 
# High freq. dielectric constant tensor:
#      x y z
#    x 1.755280 0.000000 0.000000 
#    y 0.000000 1.707280 0.000000 
#    z 0.000000 0.000000 1.756600 
# 
# From -- ./inp_files/16214.got.cif
#   From: 2010.03.12/outbox.cif.g09.slc.cpg/sg44_9_cif.got.tgz:16214.got - 2010.04.14 02:36:11.
