data_PCOD8189180
_publ_section_title
;
Structure prediction by ZEFSAII (Michael W. Deem and Ramdas Pophale) SiO2 
 PCOD8189180
Probable space group: I M M 2
;
_chemical_formula_sum "Si O2"
_cell_formula_units_Z 48
_cell_length_a 7.590408
_cell_length_b 9.260800
_cell_length_c 33.960253
_cell_angle_alpha 90.000000
_cell_angle_beta 90.000000
_cell_angle_gamma 90.000000
_cell_volume 2387.176568
_symmetry_space_group_name_H-M "I M M 2"
_symmetry_group_IT_number 44
_symmetry_cell_setting 'orthorhombic'
loop_
_space_group_symop_operation_xyz
x,y,z
-x,-y,z
-x,y,z
x,-y,z
1/2+x,1/2+y,1/2+z
1/2-x,1/2-y,1/2+z
1/2-x,1/2+y,1/2+z
1/2+x,1/2-y,1/2+z
loop_
_atom_site_type_symbol
_atom_site_label
_atom_site_fract_x
_atom_site_fract_y
_atom_site_fract_z
Si Si1 0.500000 0.172275 0.915680
Si Si2 0.200940 0.342214 0.206085
Si Si3 0.298782 0.166348 0.558066
Si Si4 0.295844 0.831743 0.368327
Si Si5 0.790423 0.161117 0.134381
Si Si6 0.706671 0.160356 0.278692
Si Si7 0.000000 0.166725 0.496341
O O1 0.676165 0.232136 0.895479
O O2 0.500000 0.000000 0.913695
O O3 0.500000 0.223853 0.960428
O O4 0.293278 0.500000 0.207275
O O5 0.290689 0.242639 0.172578
O O6 0.206277 0.272270 0.249139
O O7 0.000000 0.363084 0.193839
O O8 0.500000 0.205957 0.546583
O O9 0.229663 0.258572 0.594886
O O10 0.175678 0.200438 0.521075
O O11 0.283342 0.000000 0.570732
O O12 0.500000 0.796692 0.377143
O O13 0.247907 0.794458 0.323238
O O14 0.257318 0.000000 0.376967
O O15 0.000000 0.156314 0.136804
O O16 0.711639 0.000000 0.133988
O O17 0.500000 0.160885 0.272101
O O18 0.781658 0.000000 0.270230
O O19 0.000000 0.000000 0.482061
#
# Coordination Sequence:
#
# PCOD8189180 Si02
#       7
#     4   8   8   8   8   8   4
#     4  12  26  40  60  92 128 158 192 244 304 362
#     4  10  20  32  49  77 112 148 188 232 278 334
#     4   9  18  35  59  83 109 144 185 235 292 345
#     4   9  20  41  66  88 114 155 203 247 295 357
#     4   9  17  31  52  77 106 144 189 231 277 334
#     4   9  19  36  56  79 107 141 187 238 286 337
#     4  10  22  40  60  86 116 148 194 240 286 354
#
# _framework density 20.107434999999999
#
# number of rings (size 3 to 8) (size 9 to 14) (size 15 to 20)
#    0.000    2.500    0.000    2.750    1.167    5.667 
#    1.500    3.333    0.000    0.000    0.000    0.000 
#    0.000    0.000    0.000    0.000    0.000    0.000 
#
# Total GULP energy -297574.655905 kJ/mol
# GULP energy per Si atom -12398.943996 kJ/mol
# Density = 2.006167 g / cm^3
# Si number density = 20.107435 Si / 1000 Ang^3
#
#
#
# Elastic Constant Matrix: (Units=GPa)
#
#
# Indices 1 2 3 4 5 6 
#
# 1 72.1638 46.3492 49.4973 0.0000 0.0000 0.0000
# 2 46.3492 160.8037 98.9818 0.0000 -0.0001 0.0000
# 3 49.4973 98.9818 147.0095 0.0000 -0.0001 0.0000
# 4 0.0000 0.0000 0.0000 37.6789 -0.0001 0.0000
# 5 0.0000 -0.0001 -0.0001 -0.0001 270.2130 0.0001
# 6 0.0000 0.0000 0.0000 0.0000 0.0001 15.2805
#
#
#
# Elastic Compliance Matrix: (Units=1/GPa)
#
#
# Indices 1 2 3 4 5 6 
#
# 1 0.018623 -0.002576 -0.004536 0.000000 0.000000 0.000000
# 2 -0.002576 0.010977 -0.006523 0.000000 0.000000 0.000000
# 3 -0.004536 -0.006523 0.012722 0.000000 0.000000 0.000000
# 4 0.000000 0.000000 0.000000 0.026540 0.000000 0.000000
# 5 0.000000 0.000000 0.000000 0.000000 0.003701 0.000000
# 6 0.000000 0.000000 0.000000 0.000000 0.000000 0.065443
#
#
# Mechanical properties :
#
#
# Convention : Reuss Voigt Hill
#
# Bulk Modulus (GPa) = 66.44011 85.51486 75.97749
# Shear Modulus (GPa) = 29.36131 76.97772 53.16951
#
# Velocity S-wave (km/s) = 3.82543 6.19406 5.14783
# Velocity P-wave (km/s) = 7.25439 9.68382 8.55578
#
# Compressibility (1/GPa) = 0.01505115
#
# Stress axis : x y z
#
# Youngs Moduli (GPa) = 53.69724 91.10341 78.60574
#
# Poissons Ratio (x) = 0.23465 0.35656
# Poissons Ratio (y) = 0.13830 0.51277
# Poissons Ratio (z) = 0.24357 0.59430
#
# Static dielectric constant tensor:
#      x y z
#    x 3.221330 0.000000 0.000000 
#    y 0.000000 3.822460 0.000000 
#    z 0.000000 0.000000 3.610960 
# 
# 
# High freq. dielectric constant tensor:
#      x y z
#    x 1.777090 0.000000 0.000000 
#    y 0.000000 1.782000 0.000000 
#    z 0.000000 0.000000 1.782370 
# 
# From -- ./inp_files/26936.got.cif
#   From: 2010.03.12/outbox.cif.g09.slc.cpg/sg44_14_cif.got.tgz:26936.got - 2010.04.14 02:36:11.
