data_PCOD8189403
_publ_section_title
;
Structure prediction by ZEFSAII (Michael W. Deem and Ramdas Pophale) SiO2 
 PCOD8189403
Probable space group: I M M 2
;
_chemical_formula_sum "Si O2"
_cell_formula_units_Z 56
_cell_length_a 14.247110
_cell_length_b 9.159398
_cell_length_c 22.463708
_cell_angle_alpha 90.000000
_cell_angle_beta 90.000000
_cell_angle_gamma 90.000000
_cell_volume 2931.400471
_symmetry_space_group_name_H-M "I M M 2"
_symmetry_group_IT_number 44
_symmetry_cell_setting 'orthorhombic'
loop_
_space_group_symop_operation_xyz
x,y,z
-x,-y,z
-x,y,z
x,-y,z
1/2+x,1/2+y,1/2+z
1/2-x,1/2-y,1/2+z
1/2-x,1/2+y,1/2+z
1/2+x,1/2-y,1/2+z
loop_
_atom_site_type_symbol
_atom_site_label
_atom_site_fract_x
_atom_site_fract_y
_atom_site_fract_z
Si Si1 0.398936 0.166844 0.904150
Si Si2 0.391682 0.169069 0.247961
Si Si3 0.646494 0.338794 0.014160
Si Si4 0.200642 0.171894 0.857014
Si Si5 0.353705 0.840344 0.467155
Si Si6 0.212674 0.670687 0.625326
Si Si7 0.397119 0.170590 0.595421
O O1 0.500000 0.181811 0.869727
O O2 0.310476 0.220223 0.864433
O O3 0.378934 0.000000 0.922106
O O4 0.414219 0.255252 0.965139
O O5 0.500000 0.218504 0.243687
O O6 0.337052 0.261284 0.296675
O O7 0.340787 0.201704 0.186172
O O8 0.384261 0.000000 0.265233
O O9 0.604042 0.500000 0.027067
O O10 0.650227 0.247106 0.074850
O O11 0.747460 0.355730 0.986105
O O12 0.137178 0.229320 0.912064
O O13 0.188890 0.000000 0.853822
O O14 0.407172 0.782436 0.525847
O O15 0.392428 0.000000 0.447360
O O16 0.220844 0.500000 0.610919
O O17 0.318051 0.736419 0.629294
O O18 0.500000 0.197654 0.624808
O O19 0.368323 0.000000 0.598948
#
# Coordination Sequence:
#
# PCOD8189403 Si02
#       7
#     8   8   8   8   8   8   8
#     4   9  18  33  53  79 112 145 173 206 256 317
#     4  10  23  42  59  73  95 134 179 219 265 320
#     4   9  17  30  50  77 107 138 173 212 255 303
#     4  10  20  34  54  80 107 135 173 221 264 303
#     4   8  15  29  49  73 104 140 172 203 245 299
#     4  10  20  35  55  78 105 138 178 223 267 312
#     4   9  18  33  54  81 112 145 177 209 254 314
#
# _framework density 19.103497000000001
#
# number of rings (size 3 to 8) (size 9 to 14) (size 15 to 20)
#    0.000    2.714    0.000    2.143    0.000    7.143 
#    0.000    3.571    0.000    2.571    0.000    0.000 
#    0.000    0.000    0.000    0.000    0.000    0.000 
#
# Total GULP energy -346985.404913 kJ/mol
# GULP energy per Si atom -12392.335890 kJ/mol
# Density = 1.906002 g / cm^3
# Si number density = 19.103497 Si / 1000 Ang^3
#
#
#
# Elastic Constant Matrix: (Units=GPa)
#
#
# Indices 1 2 3 4 5 6 
#
# 1 120.0024 50.4877 51.2243 0.0000 0.0000 0.0000
# 2 50.4877 104.3779 67.1585 0.0000 0.0000 0.0000
# 3 51.2243 67.1585 102.8879 0.0000 0.0000 0.0000
# 4 0.0000 0.0000 0.0000 32.6632 0.0000 0.0000
# 5 0.0000 0.0000 0.0000 0.0000 16.8768 0.0000
# 6 0.0000 0.0000 0.0000 0.0000 0.0000 17.6891
#
#
#
# Elastic Compliance Matrix: (Units=1/GPa)
#
#
# Indices 1 2 3 4 5 6 
#
# 1 0.011149 -0.003140 -0.003501 0.000000 0.000000 0.000000
# 2 -0.003140 0.017402 -0.009796 0.000000 0.000000 0.000000
# 3 -0.003501 -0.009796 0.017856 0.000000 0.000000 0.000000
# 4 0.000000 0.000000 0.000000 0.030616 0.000000 0.000000
# 5 0.000000 0.000000 0.000000 0.000000 0.059253 0.000000
# 6 0.000000 0.000000 0.000000 0.000000 0.000000 0.056532
#
#
# Mechanical properties :
#
#
# Convention : Reuss Voigt Hill
#
# Bulk Modulus (GPa) = 73.88905 73.88992 73.88948
# Shear Modulus (GPa) = 21.72102 24.00567 22.86334
#
# Velocity S-wave (km/s) = 3.37563 3.54872 3.46325
# Velocity P-wave (km/s) = 7.34543 7.45345 7.39964
#
# Compressibility (1/GPa) = 0.01353381
#
# Stress axis : x y z
#
# Youngs Moduli (GPa) = 89.69686 57.46427 56.00285
#
# Poissons Ratio (x) = 0.18044 0.19606
# Poissons Ratio (y) = 0.28166 0.54858
# Poissons Ratio (z) = 0.31402 0.56290
#
# Static dielectric constant tensor:
#      x y z
#    x 4.020250 0.000000 0.000000 
#    y 0.000000 3.683830 0.000000 
#    z 0.000000 0.000000 3.360560 
# 
# 
# High freq. dielectric constant tensor:
#      x y z
#    x 1.749590 0.000000 0.000000 
#    y 0.000000 1.743470 0.000000 
#    z 0.000000 0.000000 1.715970 
# 
# From -- ./inp_files/24147.got.cif
#   From: 2010.03.12/outbox.cif.g09.slc.cpg/sg44_13_cif.got.tgz:24147.got - 2010.04.14 02:36:11.
