data_PCOD8189612
_publ_section_title
;
Structure prediction by ZEFSAII (Michael W. Deem and Ramdas Pophale) SiO2 
 PCOD8189612
Probable space group: I M M 2
;
_chemical_formula_sum "Si O2"
_cell_formula_units_Z 64
_cell_length_a 28.952579
_cell_length_b 9.218065
_cell_length_c 12.700362
_cell_angle_alpha 90.000000
_cell_angle_beta 90.000000
_cell_angle_gamma 90.000000
_cell_volume 3389.558403
_symmetry_space_group_name_H-M "I M M 2"
_symmetry_group_IT_number 44
_symmetry_cell_setting 'orthorhombic'
loop_
_space_group_symop_operation_xyz
x,y,z
-x,-y,z
-x,y,z
x,-y,z
1/2+x,1/2+y,1/2+z
1/2-x,1/2-y,1/2+z
1/2-x,1/2+y,1/2+z
1/2+x,1/2-y,1/2+z
loop_
_atom_site_type_symbol
_atom_site_label
_atom_site_fract_x
_atom_site_fract_y
_atom_site_fract_z
Si Si1 0.143850 0.328160 0.480410
Si Si2 0.750859 0.337274 0.478591
Si Si3 0.947168 0.831521 0.096238
Si Si4 0.627564 0.328190 0.769167
Si Si5 0.297115 0.834242 0.635680
Si Si6 0.447081 0.829233 0.387384
Si Si7 0.378429 0.170305 0.210608
Si Si8 0.791585 0.157761 0.758926
O O1 0.140588 0.500000 0.456786
O O2 0.196968 0.279575 0.496926
O O3 0.120318 0.240732 0.384598
O O4 0.116553 0.283147 0.587856
O O5 0.746781 0.500000 0.525053
O O6 0.707312 0.243209 0.522631
O O7 0.743650 0.333195 0.354981
O O8 0.917170 0.790941 0.198497
O O9 0.000000 0.787823 0.121403
O O10 0.942546 0.000000 0.068896
O O11 0.928336 0.745392 0.994186
O O12 0.635314 0.500000 0.779457
O O13 0.671781 0.255830 0.715464
O O14 0.242889 0.822835 0.662206
O O15 0.314981 0.000000 0.628935
O O16 0.500000 0.785452 0.368670
O O17 0.419873 0.770831 0.284313
O O18 0.440604 0.000000 0.402521
O O19 0.330428 0.221346 0.260259
O O20 0.377383 0.000000 0.216478
O O21 0.816118 0.000000 0.754818
#
# Coordination Sequence:
#
# PCOD8189612 Si02
#       8
#     8   8   8   8   8   8   8   8
#     4  10  20  37  56  77 112 150 185 227 272 322
#     4  10  20  36  52  72 108 149 185 226 272 318
#     4   9  20  40  62  83 109 141 177 223 279 331
#     4  11  23  37  57  83 110 145 187 229 277 330
#     4  11  22  36  53  78 110 146 186 227 271 323
#     4   9  19  37  60  86 113 140 176 224 277 333
#     4  10  21  36  56  81 109 145 184 226 276 325
#     4  10  21  35  51  74 107 145 185 226 266 315
#
# _framework density 18.881515
#
# number of rings (size 3 to 8) (size 9 to 14) (size 15 to 20)
#    0.000    2.000    2.500    0.750    1.750    3.500 
#    0.000    0.625    0.000    0.750    0.000    0.000 
#    0.000    0.000    0.000    0.000    0.000    0.000 
#
# Total GULP energy -396657.335393 kJ/mol
# GULP energy per Si atom -12395.541731 kJ/mol
# Density = 1.883854 g / cm^3
# Si number density = 18.881515 Si / 1000 Ang^3
#
#
#
# Elastic Constant Matrix: (Units=GPa)
#
#
# Indices 1 2 3 4 5 6 
#
# 1 70.1724 35.3810 60.2906 0.0000 0.0000 0.0000
# 2 35.3810 58.2314 53.9670 0.0000 0.0000 0.0000
# 3 60.2906 53.9670 124.6425 0.0000 0.0000 0.0000
# 4 0.0000 0.0000 0.0000 31.3473 0.0000 0.0000
# 5 0.0000 0.0000 0.0000 0.0000 31.6828 0.0000
# 6 0.0000 0.0000 0.0000 0.0000 0.0000 23.1772
#
#
#
# Elastic Compliance Matrix: (Units=1/GPa)
#
#
# Indices 1 2 3 4 5 6 
#
# 1 0.025946 -0.006904 -0.009561 0.000000 0.000000 0.000000
# 2 -0.006904 0.030519 -0.009874 0.000000 0.000000 0.000000
# 3 -0.009561 -0.009874 0.016923 0.000000 0.000000 0.000000
# 4 0.000000 0.000000 0.000000 0.031901 0.000000 0.000000
# 5 0.000000 0.000000 0.000000 0.000000 0.031563 0.000000
# 6 0.000000 0.000000 0.000000 0.000000 0.000000 0.043146
#
#
# Mechanical properties :
#
#
# Convention : Reuss Voigt Hill
#
# Bulk Modulus (GPa) = 48.28729 61.36928 54.82829
# Shear Modulus (GPa) = 20.86985 24.13531 22.50258
#
# Velocity S-wave (km/s) = 3.32822 3.57914 3.45596
# Velocity P-wave (km/s) = 6.35600 7.04650 6.71014
#
# Compressibility (1/GPa) = 0.02070938
#
# Stress axis : x y z
#
# Youngs Moduli (GPa) = 38.54102 32.76665 59.09037
#
# Poissons Ratio (x) = 0.22621 0.56498
# Poissons Ratio (y) = 0.26608 0.58349
# Poissons Ratio (z) = 0.36850 0.32355
#
# Static dielectric constant tensor:
#      x y z
#    x 3.344930 0.000000 0.000000 
#    y 0.000000 3.490680 0.000000 
#    z 0.000000 0.000000 3.686300 
# 
# 
# High freq. dielectric constant tensor:
#      x y z
#    x 1.713290 0.000000 0.000000 
#    y 0.000000 1.730630 0.000000 
#    z 0.000000 0.000000 1.743960 
# 
# From -- ./inp_files/15041.got.cif
#   From: 2010.03.12/outbox.cif.g09.slc.cpg/sg44_8_cif.got.tgz:15041.got - 2010.04.14 02:36:11.
