data_PCOD8189802
_publ_section_title
;
Structure prediction by ZEFSAII (Michael W. Deem and Ramdas Pophale) SiO2 
 PCOD8189802
Probable space group: I M M 2
;
_chemical_formula_sum "Si O2"
_cell_formula_units_Z 48
_cell_length_a 10.032727
_cell_length_b 8.792265
_cell_length_c 27.666197
_cell_angle_alpha 90.000000
_cell_angle_beta 90.000000
_cell_angle_gamma 90.000000
_cell_volume 2440.446150
_symmetry_space_group_name_H-M "I M M 2"
_symmetry_group_IT_number 44
_symmetry_cell_setting 'orthorhombic'
loop_
_space_group_symop_operation_xyz
x,y,z
-x,-y,z
-x,y,z
x,-y,z
1/2+x,1/2+y,1/2+z
1/2-x,1/2-y,1/2+z
1/2-x,1/2+y,1/2+z
1/2+x,1/2-y,1/2+z
loop_
_atom_site_type_symbol
_atom_site_label
_atom_site_fract_x
_atom_site_fract_y
_atom_site_fract_z
Si Si1 0.251044 0.177232 0.631420
Si Si2 0.743830 0.320050 0.846678
Si Si3 0.000000 0.319432 0.788235
Si Si4 0.000000 0.321291 0.678386
Si Si5 0.654524 0.179812 0.945317
Si Si6 0.000000 0.330770 0.184878
Si Si7 0.654528 0.176766 0.523212
Si Si8 0.500000 0.171055 0.797962
O O1 0.123092 0.270774 0.646147
O O2 0.366727 0.247921 0.665411
O O3 0.294807 0.207741 0.576920
O O4 0.222380 0.000000 0.641229
O O5 0.744488 0.500000 0.853194
O O6 0.874366 0.260517 0.818915
O O7 0.729655 0.245958 0.898947
O O8 0.625195 0.267713 0.813151
O O9 0.000000 0.500000 0.785216
O O10 0.000000 0.251971 0.733284
O O11 0.000000 0.500000 0.683344
O O12 0.500000 0.238688 0.948797
O O13 0.654208 0.000000 0.941990
O O14 0.742957 0.230070 0.990505
O O15 0.000000 0.339474 0.241392
O O16 0.000000 0.500000 0.161431
O O17 0.500000 0.230860 0.517279
O O18 0.664748 0.000000 0.509525
O O19 0.500000 0.000000 0.820780
#
# Coordination Sequence:
#
# PCOD8189802 Si02
#       8
#     8   8   4   4   8   4   8   4
#     4  10  20  39  63  89 119 156 203 248 292 350
#     4  11  22  40  64  87 116 158 205 249 295 355
#     4   9  22  41  60  87 122 160 204 250 294 349
#     4  11  23  39  58  87 128 165 198 243 300 353
#     4  11  25  43  62  89 125 157 193 247 308 364
#     4   9  18  35  62  89 118 154 196 246 298 349
#     4  10  22  41  66  92 119 155 202 250 297 355
#     4  11  21  35  58  91 124 155 192 243 302 357
#
# _framework density 19.668534000000001
#
# number of rings (size 3 to 8) (size 9 to 14) (size 15 to 20)
#    0.000    1.667    1.667    2.500    2.333    2.000 
#    0.000    5.000    0.000    0.000    0.000    0.000 
#    0.000    0.000    0.000    0.000    0.000    0.000 
#
# Total GULP energy -297550.184341 kJ/mol
# GULP energy per Si atom -12397.924348 kJ/mol
# Density = 1.962377 g / cm^3
# Si number density = 19.668534 Si / 1000 Ang^3
#
#
#
# Elastic Constant Matrix: (Units=GPa)
#
#
# Indices 1 2 3 4 5 6 
#
# 1 157.2477 35.1871 50.4102 0.0000 0.0000 0.0000
# 2 35.1871 52.9123 33.1412 0.0000 0.0000 0.0000
# 3 50.4102 33.1412 99.9294 0.0000 0.0000 0.0000
# 4 0.0000 0.0000 0.0000 28.5360 0.0000 0.0000
# 5 0.0000 0.0000 0.0000 0.0000 23.5853 0.0000
# 6 0.0000 0.0000 0.0000 0.0000 0.0000 2.2634
#
#
#
# Elastic Compliance Matrix: (Units=1/GPa)
#
#
# Indices 1 2 3 4 5 6 
#
# 1 0.008085 -0.003562 -0.002897 0.000000 0.000000 0.000000
# 2 -0.003562 0.025424 -0.006635 0.000000 0.000000 0.000000
# 3 -0.002897 -0.006635 0.013669 0.000000 0.000000 0.000000
# 4 0.000000 0.000000 0.000000 0.035043 0.000000 0.000000
# 5 0.000000 0.000000 0.000000 0.000000 0.042399 0.000001
# 6 0.000000 0.000000 0.000000 0.000000 0.000001 0.441813
#
#
# Mechanical properties :
#
#
# Convention : Reuss Voigt Hill
#
# Bulk Modulus (GPa) = 47.64251 60.84073 54.24162
# Shear Modulus (GPa) = 8.33863 23.63366 15.98614
#
# Velocity S-wave (km/s) = 2.06126 3.47017 2.85402
# Velocity P-wave (km/s) = 5.47178 6.85976 6.20470
#
# Compressibility (1/GPa) = 0.02098966
#
# Stress axis : x y z
#
# Youngs Moduli (GPa) = 123.68128 39.33351 73.15798
#
# Poissons Ratio (x) = 0.14011 0.21196
# Poissons Ratio (y) = 0.44056 0.48538
# Poissons Ratio (z) = 0.35835 0.26097
#
# Static dielectric constant tensor:
#      x y z
#    x 4.295140 0.000000 0.000000 
#    y 0.000000 3.547400 0.000000 
#    z 0.000000 0.000000 3.707560 
# 
# 
# High freq. dielectric constant tensor:
#      x y z
#    x 1.785760 0.000000 0.000000 
#    y 0.000000 1.748210 0.000000 
#    z 0.000000 0.000000 1.782330 
# 
# From -- ./inp_files/27033.got.cif
#   From: 2010.03.12/outbox.cif.g09.slc.cpg/sg44_14_cif.got.tgz:27033.got - 2010.04.14 02:36:11.
