data_PCOD8189115
_publ_section_title
;
Structure prediction by ZEFSAII (Michael W. Deem and Ramdas Pophale) SiO2 
 PCOD8189115
Probable space group: I M M 2
;
_chemical_formula_sum "Si O2"
_cell_formula_units_Z 64
_cell_length_a 9.227973
_cell_length_b 14.253011
_cell_length_c 28.214238
_cell_angle_alpha 90.000000
_cell_angle_beta 90.000000
_cell_angle_gamma 90.000000
_cell_volume 3710.917172
_symmetry_space_group_name_H-M "I M M 2"
_symmetry_group_IT_number 44
_symmetry_cell_setting 'orthorhombic'
loop_
_space_group_symop_operation_xyz
x,y,z
-x,-y,z
-x,y,z
x,-y,z
1/2+x,1/2+y,1/2+z
1/2-x,1/2-y,1/2+z
1/2-x,1/2+y,1/2+z
1/2+x,1/2-y,1/2+z
loop_
_atom_site_type_symbol
_atom_site_label
_atom_site_fract_x
_atom_site_fract_y
_atom_site_fract_z
Si Si1 0.833859 0.604062 0.222660
Si Si2 0.342135 0.355777 0.310837
Si Si3 0.170016 0.607338 0.592758
Si Si4 0.171370 0.778747 0.907216
Si Si5 0.670016 0.392662 0.498464
Si Si6 0.666141 0.604062 0.868562
Si Si7 0.842135 0.644223 0.780386
Si Si8 0.671370 0.778747 0.184007
O O1 0.820601 0.500000 0.199758
O O2 0.772109 0.595383 0.276232
O O3 0.748695 0.678162 0.190164
O O4 0.000000 0.636438 0.226066
O O5 0.500000 0.406395 0.307712
O O6 0.286202 0.352319 0.365321
O O7 0.363144 0.250000 0.295611
O O8 0.212143 0.500000 0.604739
O O9 0.250000 0.642267 0.545611
O O10 0.222823 0.674137 0.635259
O O11 0.000000 0.617222 0.584371
O O12 0.222823 0.825863 0.955963
O O13 0.248695 0.678162 0.901058
O O14 0.000000 0.759925 0.906221
O O15 0.500000 0.382778 0.506851
O O16 0.712142 0.500000 0.486484
O O17 0.500000 0.636438 0.865157
O O18 0.679399 0.500000 0.891465
O O19 0.727891 0.595383 0.814990
O O20 0.786202 0.647681 0.725901
O O21 0.000000 0.593605 0.783510
O O22 0.500000 0.759925 0.185002
#
# Coordination Sequence:
#
# PCOD8189115 Si02
#       8
#     8   8   8   8   8   8   8   8
#     4  10  20  31  44  67  99 131 161 195 234 274
#     4   8  15  28  45  65  89 120 158 194 227 266
#     4   9  18  33  52  74  98 121 149 189 237 287
#     4   9  18  32  50  71  94 124 161 196 231 275
#     4   9  18  33  52  74  98 121 149 189 237 287
#     4  10  20  31  44  67  99 131 161 195 234 274
#     4   8  15  28  45  65  89 120 158 194 227 266
#     4   9  18  32  50  71  94 124 161 196 231 275
#
# _framework density 17.246410999999998
#
# number of rings (size 3 to 8) (size 9 to 14) (size 15 to 20)
#    0.000    3.000    0.000    2.250    0.000    8.500 
#    0.000    2.500    0.000    3.750    0.000    0.000 
#    0.000    0.000    0.000    0.000    0.000    0.000 
#
# Total GULP energy -396569.177590 kJ/mol
# GULP energy per Si atom -12392.786800 kJ/mol
# Density = 1.720716 g / cm^3
# Si number density = 17.246411 Si / 1000 Ang^3
#
#
#
# Elastic Constant Matrix: (Units=GPa)
#
#
# Indices 1 2 3 4 5 6 
#
# 1 67.4573 41.0341 46.7936 0.0000 0.0000 0.0000
# 2 41.0341 88.2866 59.4834 0.0000 0.0000 0.0000
# 3 46.7936 59.4834 142.1684 0.0000 0.0000 0.0000
# 4 0.0000 0.0000 0.0000 21.2239 0.0000 0.0000
# 5 0.0000 0.0000 0.0000 0.0000 25.4806 0.0000
# 6 0.0000 0.0000 0.0000 0.0000 0.0000 77.6503
#
#
#
# Elastic Compliance Matrix: (Units=1/GPa)
#
#
# Indices 1 2 3 4 5 6 
#
# 1 0.022324 -0.007555 -0.004187 0.000000 0.000000 0.000000
# 2 -0.007555 0.018330 -0.005183 0.000000 0.000000 0.000000
# 3 -0.004187 -0.005183 0.010580 0.000000 0.000000 0.000000
# 4 0.000000 0.000000 0.000000 0.047117 0.000000 0.000000
# 5 0.000000 0.000000 0.000000 0.000000 0.039246 0.000000
# 6 0.000000 0.000000 0.000000 0.000000 0.000000 0.012878
#
#
# Mechanical properties :
#
#
# Convention : Reuss Voigt Hill
#
# Bulk Modulus (GPa) = 57.51860 65.83715 61.67787
# Shear Modulus (GPa) = 26.29931 34.91104 30.60518
#
# Velocity S-wave (km/s) = 3.90925 4.50405 4.21715
# Velocity P-wave (km/s) = 7.33483 8.08120 7.71705
#
# Compressibility (1/GPa) = 0.01738568
#
# Stress axis : x y z
#
# Youngs Moduli (GPa) = 44.79449 54.55545 94.51467
#
# Poissons Ratio (x) = 0.41217 0.39571
# Poissons Ratio (y) = 0.33842 0.48983
# Poissons Ratio (z) = 0.18755 0.28274
#
# Static dielectric constant tensor:
#      x y z
#    x 3.181000 0.000000 0.000000 
#    y 0.000000 3.119780 0.000000 
#    z 0.000000 0.000000 3.500160 
# 
# 
# High freq. dielectric constant tensor:
#      x y z
#    x 1.661710 0.000000 0.000000 
#    y 0.000000 1.656550 0.000000 
#    z 0.000000 0.000000 1.648210 
# 
# From -- ./inp_files/27361.got.cif
#   From: 2010.03.12/outbox.cif.g09.slc.cpg/sg44_14_cif.got.tgz:27361.got - 2010.04.14 02:36:11.
