data_PCOD8189643
_publ_section_title
;
Structure prediction by ZEFSAII (Michael W. Deem and Ramdas Pophale) SiO2 
 PCOD8189643
Probable space group: I M M 2
;
_chemical_formula_sum "Si O2"
_cell_formula_units_Z 48
_cell_length_a 9.365475
_cell_length_b 7.791124
_cell_length_c 34.054131
_cell_angle_alpha 90.000000
_cell_angle_beta 90.000000
_cell_angle_gamma 90.000000
_cell_volume 2484.847427
_symmetry_space_group_name_H-M "I M M 2"
_symmetry_group_IT_number 44
_symmetry_cell_setting 'orthorhombic'
loop_
_space_group_symop_operation_xyz
x,y,z
-x,-y,z
-x,y,z
x,-y,z
1/2+x,1/2+y,1/2+z
1/2-x,1/2-y,1/2+z
1/2-x,1/2+y,1/2+z
1/2+x,1/2-y,1/2+z
loop_
_atom_site_type_symbol
_atom_site_label
_atom_site_fract_x
_atom_site_fract_y
_atom_site_fract_z
Si Si1 0.161443 0.303937 0.262620
Si Si2 0.331590 0.803743 0.422655
Si Si3 0.831379 0.000000 0.977766
Si Si4 0.332924 0.306635 0.108775
Si Si5 0.157347 0.693465 0.691941
Si Si6 0.671360 0.500000 0.567184
Si Si7 0.160656 0.202049 0.346542
O O1 0.170114 0.500000 0.249940
O O2 0.243677 0.198642 0.229853
O O3 0.226115 0.278628 0.306229
O O4 0.000000 0.234260 0.263362
O O5 0.500000 0.790876 0.416417
O O6 0.276920 0.674326 0.456509
O O7 0.259102 0.739862 0.382505
O O8 0.286880 0.000000 0.433486
O O9 0.000000 0.000000 0.976922
O O10 0.776665 0.000000 0.022155
O O11 0.500000 0.256504 0.103980
O O12 0.304430 0.500000 0.092989
O O13 0.289572 0.304941 0.154899
O O14 0.234010 0.173266 0.085767
O O15 0.154003 0.500000 0.676140
O O16 0.000000 0.755623 0.705021
O O17 0.500000 0.500000 0.571790
O O18 0.000000 0.272303 0.353659
O O19 0.160550 0.000000 0.342369
#
# Coordination Sequence:
#
# PCOD8189643 Si02
#       7
#     8   8   4   8   8   4   8
#     4  10  21  34  49  75 111 147 184 228 279 335
#     4   9  18  34  56  79 105 141 184 228 273 329
#     4   9  20  37  57  83 113 145 183 229 287 341
#     4  10  21  40  64  86 116 157 196 240 295 352
#     4  10  20  36  58  80 106 144 191 237 281 333
#     4  11  23  39  61  91 123 153 193 245 297 359
#     4   9  18  33  51  73 105 142 179 223 277 330
#
# _framework density 19.317081000000002
#
# number of rings (size 3 to 8) (size 9 to 14) (size 15 to 20)
#    0.000    2.333    0.833    1.250    1.167    4.333 
#    0.000    5.000    0.000    2.000    0.000    0.000 
#    0.000    0.000    0.000    0.000    0.000    0.000 
#
# Total GULP energy -297544.272627 kJ/mol
# GULP energy per Si atom -12397.678026 kJ/mol
# Density = 1.927311 g / cm^3
# Si number density = 19.317081 Si / 1000 Ang^3
#
#
#
# Elastic Constant Matrix: (Units=GPa)
#
#
# Indices 1 2 3 4 5 6 
#
# 1 63.0885 38.5830 57.9733 0.0000 0.0000 0.0000
# 2 38.5830 99.2382 59.7794 0.0001 0.0000 0.0000
# 3 57.9733 59.7794 146.8483 0.0000 0.0000 0.0000
# 4 0.0000 0.0001 0.0000 25.4673 0.0000 0.0000
# 5 0.0000 0.0000 0.0000 0.0000 31.1818 0.0000
# 6 0.0000 0.0000 0.0000 0.0000 0.0000 21.1618
#
#
#
# Elastic Compliance Matrix: (Units=1/GPa)
#
#
# Indices 1 2 3 4 5 6 
#
# 1 0.026878 -0.005377 -0.008422 0.000000 0.000000 0.000000
# 2 -0.005377 0.014426 -0.003750 0.000000 0.000000 0.000000
# 3 -0.008422 -0.003750 0.011661 0.000000 0.000000 0.000000
# 4 0.000000 0.000000 0.000000 0.039266 0.000000 0.000000
# 5 0.000000 0.000000 0.000000 0.000000 0.032070 0.000000
# 6 0.000000 0.000000 0.000000 0.000000 0.000000 0.047255
#
#
# Mechanical properties :
#
#
# Convention : Reuss Voigt Hill
#
# Bulk Modulus (GPa) = 55.96664 69.09406 62.53035
# Shear Modulus (GPa) = 23.51712 25.75146 24.63429
#
# Velocity S-wave (km/s) = 3.49295 3.65512 3.57495
# Velocity P-wave (km/s) = 6.73076 7.32524 7.03428
#
# Compressibility (1/GPa) = 0.01786779
#
# Stress axis : x y z
#
# Youngs Moduli (GPa) = 37.20450 69.31889 85.75314
#
# Poissons Ratio (x) = 0.37270 0.72225
# Poissons Ratio (y) = 0.20003 0.32158
# Poissons Ratio (z) = 0.31335 0.25995
#
# Static dielectric constant tensor:
#      x y z
#    x 3.418040 0.000000 0.000000 
#    y 0.000000 3.594610 0.000000 
#    z 0.000000 0.000000 3.559910 
# 
# 
# High freq. dielectric constant tensor:
#      x y z
#    x 1.730900 0.000000 0.000000 
#    y 0.000000 1.762280 0.000000 
#    z 0.000000 0.000000 1.748640 
# 
# From -- ./inp_files/26931.got.cif
#   From: 2010.03.12/outbox.cif.g09.slc.cpg/sg44_14_cif.got.tgz:26931.got - 2010.04.14 02:36:11.
