data_PCOD8189009
_publ_section_title
;
Structure prediction by ZEFSAII (Michael W. Deem and Ramdas Pophale) SiO2 
 PCOD8189009
Probable space group: I M M 2
;
_chemical_formula_sum "Si O2"
_cell_formula_units_Z 52
_cell_length_a 17.523668
_cell_length_b 17.948913
_cell_length_c 8.752955
_cell_angle_alpha 90.000000
_cell_angle_beta 90.000000
_cell_angle_gamma 90.000000
_cell_volume 2753.073872
_symmetry_space_group_name_H-M "I M M 2"
_symmetry_group_IT_number 44
_symmetry_cell_setting 'orthorhombic'
loop_
_space_group_symop_operation_xyz
x,y,z
-x,-y,z
-x,y,z
x,-y,z
1/2+x,1/2+y,1/2+z
1/2-x,1/2-y,1/2+z
1/2-x,1/2+y,1/2+z
1/2+x,1/2-y,1/2+z
loop_
_atom_site_type_symbol
_atom_site_label
_atom_site_fract_x
_atom_site_fract_y
_atom_site_fract_z
Si Si1 0.000000 0.739524 0.090780
Si Si2 0.207133 0.083430 0.058513
Si Si3 0.000000 0.824317 0.797892
Si Si4 0.157506 0.776256 0.213586
Si Si5 0.150996 0.913863 0.731036
Si Si6 0.156482 0.415017 0.769936
Si Si7 0.257513 0.676712 0.996648
Si Si8 0.500000 0.840819 0.292382
O O1 0.074499 0.738543 0.198895
O O2 0.000000 0.813330 0.982290
O O3 0.000000 0.666941 0.978939
O O4 0.152732 0.138807 0.152976
O O5 0.294454 0.091470 0.114647
O O6 0.176330 0.000000 0.091199
O O7 0.204212 0.100792 0.878439
O O8 0.073640 0.868366 0.745107
O O9 0.000000 0.742306 0.719239
O O10 0.184740 0.776490 0.388973
O O11 0.220516 0.734230 0.113208
O O12 0.196193 0.887132 0.583185
O O13 0.130222 0.000000 0.710759
O O14 0.153467 0.500000 0.828878
O O15 0.191596 0.362752 0.900146
O O16 0.072462 0.386107 0.732466
#
# Coordination Sequence:
#
# PCOD8189009 Si02
#       8
#     4   8   4   8   8   8   8   4
#     4  10  20  37  56  89 115 156 194 239 294 350
#     4   9  19  34  57  86 115 150 192 238 289 351
#     4  10  21  36  58  87 120 155 205 232 293 353
#     4  11  21  38  60  84 122 149 201 243 300 349
#     4  11  22  39  60  87 121 158 198 245 299 351
#     4  10  20  36  59  89 120 155 197 246 297 352
#     4  11  23  36  62  86 116 155 198 253 297 354
#     4  10  19  35  58  88 121 159 199 235 293 353
#
# _framework density 18.887978
#
# number of rings (size 3 to 8) (size 9 to 14) (size 15 to 20)
#    0.462    1.231    3.077    1.846    4.308    1.231 
#    0.000    0.385    0.000    0.923    0.000    3.231 
#    0.000    0.000    0.000    0.000    0.000    0.000 
#
# Total GULP energy -322390.121823 kJ/mol
# GULP energy per Si atom -12399.620070 kJ/mol
# Density = 1.884499 g / cm^3
# Si number density = 18.887978 Si / 1000 Ang^3
#
#
#
# Elastic Constant Matrix: (Units=GPa)
#
#
# Indices 1 2 3 4 5 6 
#
# 1 94.2298 16.7321 22.6045 0.0000 0.0000 0.0000
# 2 16.7321 71.3503 15.2532 0.0000 0.0000 0.0000
# 3 22.6045 15.2532 68.7642 0.0000 0.0000 0.0000
# 4 0.0000 0.0000 0.0000 31.7010 0.0000 0.0000
# 5 0.0000 0.0000 0.0000 0.0000 24.1213 0.0000
# 6 0.0000 0.0000 0.0000 0.0000 0.0000 30.9455
#
#
#
# Elastic Compliance Matrix: (Units=1/GPa)
#
#
# Indices 1 2 3 4 5 6 
#
# 1 0.011795 -0.002034 -0.003426 0.000000 0.000000 0.000000
# 2 -0.002034 0.015064 -0.002673 0.000000 0.000000 0.000000
# 3 -0.003426 -0.002673 0.016262 0.000000 0.000000 0.000000
# 4 0.000000 0.000000 0.000000 0.031545 0.000000 0.000000
# 5 0.000000 0.000000 0.000000 0.000000 0.041457 0.000000
# 6 0.000000 0.000000 0.000000 0.000000 0.000000 0.032315
#
#
# Mechanical properties :
#
#
# Convention : Reuss Voigt Hill
#
# Bulk Modulus (GPa) = 37.23702 38.16933 37.70317
# Shear Modulus (GPa) = 28.79275 29.33720 29.06498
#
# Velocity S-wave (km/s) = 3.90859 3.94537 3.92702
# Velocity P-wave (km/s) = 6.33458 6.40365 6.36921
#
# Compressibility (1/GPa) = 0.02685500
#
# Stress axis : x y z
#
# Youngs Moduli (GPa) = 84.77889 66.38494 61.49427
#
# Poissons Ratio (x) = 0.13500 0.21070
# Poissons Ratio (y) = 0.17241 0.16437
# Poissons Ratio (z) = 0.29048 0.17744
#
# Static dielectric constant tensor:
#      x y z
#    x 3.368830 0.000000 0.000000 
#    y 0.000000 3.578180 0.000000 
#    z 0.000000 0.000000 3.342740 
# 
# 
# High freq. dielectric constant tensor:
#      x y z
#    x 1.729950 0.000000 0.000000 
#    y 0.000000 1.741800 0.000000 
#    z 0.000000 0.000000 1.716950 
# 
# From -- ./inp_files/7363.got.cif
#   From: 2010.03.12/outbox.cif.g09.slc.cpg/sg44_4_cif.got.tgz:7363.got - 2010.04.14 02:36:11.
