data_PCOD8189957
_publ_section_title
;
Structure prediction by ZEFSAII (Michael W. Deem and Ramdas Pophale) SiO2 
 PCOD8189957
Probable space group: I M M 2
;
_chemical_formula_sum "Si O2"
_cell_formula_units_Z 48
_cell_length_a 30.358620
_cell_length_b 8.887044
_cell_length_c 9.138931
_cell_angle_alpha 90.000000
_cell_angle_beta 90.000000
_cell_angle_gamma 90.000000
_cell_volume 2465.668886
_symmetry_space_group_name_H-M "I M M 2"
_symmetry_group_IT_number 44
_symmetry_cell_setting 'orthorhombic'
loop_
_space_group_symop_operation_xyz
x,y,z
-x,-y,z
-x,y,z
x,-y,z
1/2+x,1/2+y,1/2+z
1/2-x,1/2-y,1/2+z
1/2-x,1/2+y,1/2+z
1/2+x,1/2-y,1/2+z
loop_
_atom_site_type_symbol
_atom_site_label
_atom_site_fract_x
_atom_site_fract_y
_atom_site_fract_z
Si Si1 0.549986 0.324621 0.823960
Si Si2 0.449080 0.174372 0.520207
Si Si3 0.703816 0.824937 0.519865
Si Si4 0.129603 0.177811 0.521003
Si Si5 0.789264 0.824030 0.329018
Si Si6 0.874598 0.178476 0.848306
O O1 0.500000 0.288728 0.873736
O O2 0.555930 0.500000 0.786489
O O3 0.563378 0.232153 0.681044
O O4 0.582615 0.273366 0.953295
O O5 0.500000 0.204874 0.486302
O O6 0.422208 0.264992 0.399039
O O7 0.436782 0.000000 0.511572
O O8 0.745591 0.790647 0.419877
O O9 0.714634 0.768763 0.681242
O O10 0.662077 0.737655 0.458225
O O11 0.692443 0.000000 0.524763
O O12 0.169356 0.239394 0.421462
O O13 0.133704 0.243088 0.684989
O O14 0.133366 0.000000 0.529330
O O15 0.794936 0.000000 0.293141
O O16 0.874119 0.000000 0.850473
#
# Coordination Sequence:
#
# PCOD8189957 Si02
#       6
#     8   8   8   8   8   8
#     4   9  17  32  56  83 109 142 187 234 279 330
#     4  10  21  37  56  81 114 148 185 231 280 331
#     4  11  23  38  58  85 115 146 186 233 279 330
#     4   9  19  35  55  80 109 143 186 233 275 323
#     4  10  21  38  59  82 111 148 188 230 278 331
#     4  11  22  37  58  82 112 149 188 229 277 334
#
# _framework density 19.467334999999999
#
# number of rings (size 3 to 8) (size 9 to 14) (size 15 to 20)
#    0.000    2.000    0.000    3.500    0.000    5.667 
#    0.000    5.000    0.000    2.000    0.000    0.000 
#    0.000    0.000    0.000    0.000    0.000    0.000 
#
# Total GULP energy -297691.393087 kJ/mol
# GULP energy per Si atom -12403.808045 kJ/mol
# Density = 1.942303 g / cm^3
# Si number density = 19.467335 Si / 1000 Ang^3
#
#
#
# Elastic Constant Matrix: (Units=GPa)
#
#
# Indices 1 2 3 4 5 6 
#
# 1 100.3366 43.1534 55.0968 0.0000 0.0000 0.0000
# 2 43.1534 72.5658 53.5949 0.0000 0.0000 0.0000
# 3 55.0968 53.5949 138.1045 0.0000 0.0000 0.0000
# 4 0.0000 0.0000 0.0000 22.3867 0.0000 0.0000
# 5 0.0000 0.0000 0.0000 0.0000 32.9800 0.0000
# 6 0.0000 0.0000 0.0000 0.0000 0.0000 21.7587
#
#
#
# Elastic Compliance Matrix: (Units=1/GPa)
#
#
# Indices 1 2 3 4 5 6 
#
# 1 0.014451 -0.006078 -0.003407 0.000000 0.000000 0.000000
# 2 -0.006078 0.021873 -0.006064 0.000000 0.000000 0.000000
# 3 -0.003407 -0.006064 0.010953 0.000000 0.000000 0.000000
# 4 0.000000 0.000000 0.000000 0.044669 0.000000 0.000000
# 5 0.000000 0.000000 0.000000 0.000000 0.030321 0.000000
# 6 0.000000 0.000000 0.000000 0.000000 0.000000 0.045959
#
#
# Mechanical properties :
#
#
# Convention : Reuss Voigt Hill
#
# Bulk Modulus (GPa) = 61.79963 68.29969 65.04966
# Shear Modulus (GPa) = 24.42392 26.03586 25.22989
#
# Velocity S-wave (km/s) = 3.54589 3.66103 3.60392
# Velocity P-wave (km/s) = 6.96984 7.28226 7.12776
#
# Compressibility (1/GPa) = 0.01618133
#
# Stress axis : x y z
#
# Youngs Moduli (GPa) = 69.19910 45.71746 91.29751
#
# Poissons Ratio (x) = 0.27786 0.31102
# Poissons Ratio (y) = 0.42057 0.55361
# Poissons Ratio (z) = 0.23574 0.27722
#
# Static dielectric constant tensor:
#      x y z
#    x 3.734150 0.000000 0.000000 
#    y 0.000000 3.412860 0.000000 
#    z 0.000000 0.000000 3.677760 
# 
# 
# High freq. dielectric constant tensor:
#      x y z
#    x 1.774270 0.000000 0.000000 
#    y 0.000000 1.743290 0.000000 
#    z 0.000000 0.000000 1.763860 
# 
# From -- ./inp_files/4876.got.cif
#   From: 2010.03.12/outbox.cif.g09.slc.cpg/sg44_3_cif.got.tgz:4876.got - 2010.04.14 02:36:11.
