data_PCOD8189814
_publ_section_title
;
Structure prediction by ZEFSAII (Michael W. Deem and Ramdas Pophale) SiO2 
 PCOD8189814
Probable space group: I M M 2
;
_chemical_formula_sum "Si O2"
_cell_formula_units_Z 24
_cell_length_a 10.082073
_cell_length_b 11.691293
_cell_length_c 10.299036
_cell_angle_alpha 90.000000
_cell_angle_beta 90.000000
_cell_angle_gamma 90.000000
_cell_volume 1213.972807
_symmetry_space_group_name_H-M "I M M 2"
_symmetry_group_IT_number 44
_symmetry_cell_setting 'orthorhombic'
loop_
_space_group_symop_operation_xyz
x,y,z
-x,-y,z
-x,y,z
x,-y,z
1/2+x,1/2+y,1/2+z
1/2-x,1/2-y,1/2+z
1/2-x,1/2+y,1/2+z
1/2+x,1/2-y,1/2+z
loop_
_atom_site_type_symbol
_atom_site_label
_atom_site_fract_x
_atom_site_fract_y
_atom_site_fract_z
Si Si1 0.500000 0.500000 0.732121
Si Si2 0.500000 0.000000 0.129898
Si Si3 0.000000 0.753752 0.212734
Si Si4 0.000000 0.744421 0.518307
Si Si5 0.715403 0.000000 0.347610
Si Si6 0.241066 0.627788 0.085726
O O1 0.500000 0.381881 0.648232
O O2 0.371333 0.500000 0.822276
O O3 0.500000 0.891671 0.036303
O O4 0.630659 0.000000 0.218330
O O5 0.869111 0.686981 0.173120
O O6 0.000000 0.772742 0.366789
O O7 0.127746 0.795908 0.590119
O O8 0.686521 0.887272 0.436945
O O9 0.271585 0.500000 0.141844
#
# Coordination Sequence:
#
# PCOD8189814 Si02
#       6
#     2   2   4   4   4   8
#     4  12  20  40  66  84 128 164 212 254 310 374
#     4  12  26  36  62 100 128 158 210 272 314 356
#     4  12  22  40  66  96 126 164 214 265 310 377
#     4  12  25  41  63  96 129 162 214 267 313 368
#     4  10  20  43  62  92 118 171 219 232 317 393
#     4  10  22  41  69  87 122 171 213 252 309 378
#
# _framework density 19.7698
#
# number of rings (size 3 to 8) (size 9 to 14) (size 15 to 20)
#    1.000    0.000    3.333    4.000    2.333    0.000 
#    0.000    0.000    0.000    0.000    0.000    0.000 
#    0.000    0.000    0.000    0.000    0.000    0.000 
#
# Total GULP energy -148718.982080 kJ/mol
# GULP energy per Si atom -12393.248507 kJ/mol
# Density = 1.972480 g / cm^3
# Si number density = 19.769800 Si / 1000 Ang^3
#
#
#
# Elastic Constant Matrix: (Units=GPa)
#
#
# Indices 1 2 3 4 5 6 
#
# 1 148.7249 55.4570 41.0786 0.0000 0.0000 0.0000
# 2 55.4570 172.8677 21.7447 0.0000 0.0000 0.0000
# 3 41.0786 21.7447 40.7151 0.0000 0.0000 0.0000
# 4 0.0000 0.0000 0.0000 30.3452 0.0000 0.0000
# 5 0.0000 0.0000 0.0000 0.0000 14.7454 0.0000
# 6 0.0000 0.0000 0.0000 0.0000 0.0000 30.6840
#
#
#
# Elastic Compliance Matrix: (Units=1/GPa)
#
#
# Indices 1 2 3 4 5 6 
#
# 1 0.009969 -0.002072 -0.008951 0.000000 0.000000 0.000000
# 2 -0.002072 0.006632 -0.001451 0.000000 0.000000 0.000000
# 3 -0.008951 -0.001451 0.034367 0.000000 0.000000 0.000000
# 4 0.000000 0.000000 0.000000 0.032954 0.000000 0.000000
# 5 0.000000 0.000000 0.000000 0.000000 0.067818 0.000000
# 6 0.000000 0.000000 0.000000 0.000000 0.000000 0.032590
#
#
# Mechanical properties :
#
#
# Convention : Reuss Voigt Hill
#
# Bulk Modulus (GPa) = 38.43390 66.54092 52.48741
# Shear Modulus (GPa) = 22.94078 31.42342 27.18210
#
# Velocity S-wave (km/s) = 3.41015 3.99114 3.71203
# Velocity P-wave (km/s) = 5.91510 7.41416 6.70665
#
# Compressibility (1/GPa) = 0.02601870
#
# Stress axis : x y z
#
# Youngs Moduli (GPa) = 100.31242 150.78222 29.09756
#
# Poissons Ratio (x) = 0.31244 0.26046
# Poissons Ratio (y) = 0.20786 0.04223
# Poissons Ratio (z) = 0.89792 0.21884
#
# Static dielectric constant tensor:
#      x y z
#    x 3.587880 0.000000 0.000000 
#    y 0.000000 3.923820 0.000000 
#    z 0.000000 0.000000 3.236010 
# 
# 
# High freq. dielectric constant tensor:
#      x y z
#    x 1.783260 0.000000 0.000000 
#    y 0.000000 1.785430 0.000000 
#    z 0.000000 0.000000 1.736430 
# 
# From -- ./inp_files/3941.got.cif
#   From: 2010.03.12/outbox.cif.g09.slc.cpg/sg44_2_cif.got.tgz:3941.got - 2010.04.14 02:36:11.
