data_PCOD8189632
_publ_section_title
;
Structure prediction by ZEFSAII (Michael W. Deem and Ramdas Pophale) SiO2 
 PCOD8189632
Probable space group: I M M 2
;
_chemical_formula_sum "Si O2"
_cell_formula_units_Z 64
_cell_length_a 8.789278
_cell_length_b 32.607395
_cell_length_c 11.630995
_cell_angle_alpha 90.000000
_cell_angle_beta 90.000000
_cell_angle_gamma 90.000000
_cell_volume 3333.390357
_symmetry_space_group_name_H-M "I M M 2"
_symmetry_group_IT_number 44
_symmetry_cell_setting 'orthorhombic'
loop_
_space_group_symop_operation_xyz
x,y,z
-x,-y,z
-x,y,z
x,-y,z
1/2+x,1/2+y,1/2+z
1/2-x,1/2-y,1/2+z
1/2-x,1/2+y,1/2+z
1/2+x,1/2-y,1/2+z
loop_
_atom_site_type_symbol
_atom_site_label
_atom_site_fract_x
_atom_site_fract_y
_atom_site_fract_z
Si Si1 0.823653 0.046703 0.888440
Si Si2 0.819036 0.954545 0.633227
Si Si3 0.168733 0.813118 0.941614
Si Si4 0.820467 0.128543 0.520713
Si Si5 0.669024 0.395368 0.579989
Si Si6 0.176092 0.727803 0.641546
Si Si7 0.320433 0.188377 0.706605
Si Si8 0.825059 0.355428 0.779800
O O1 0.753720 0.054855 0.761618
O O2 0.000000 0.059172 0.884506
O O3 0.799176 0.000000 0.924447
O O4 0.748474 0.074103 0.989027
O O5 0.764722 0.918164 0.548665
O O6 0.000000 0.956107 0.641154
O O7 0.761238 0.000000 0.592195
O O8 0.254735 0.827360 0.827217
O O9 0.000000 0.795535 0.912186
O O10 0.151537 0.851740 0.022190
O O11 0.265322 0.779428 0.011549
O O12 0.743144 0.160537 0.605377
O O13 0.776625 0.140533 0.392447
O O14 0.000000 0.132029 0.536760
O O15 0.500000 0.411057 0.616741
O O16 0.774675 0.391302 0.692055
O O17 0.271832 0.764622 0.694157
O O18 0.202454 0.688986 0.724140
O O19 0.000000 0.739890 0.634377
O O20 0.500000 0.184872 0.707118
O O21 0.000000 0.362123 0.812590
#
# Coordination Sequence:
#
# PCOD8189632 Si02
#       8
#     8   8   8   8   8   8   8   8
#     4   8  13  24  48  82 114 139 172 225 281 330
#     4   8  15  30  54  85 117 147 183 234 291 340
#     4  10  20  36  57  81 108 138 179 227 278 330
#     4  11  22  37  59  85 113 148 193 241 288 341
#     4   9  17  32  55  80 106 140 181 224 274 329
#     4  10  22  40  59  79 106 143 187 234 286 338
#     4  12  25  38  56  82 114 148 185 229 278 338
#     4  10  22  39  57  77 108 148 189 233 284 339
#
# _framework density 19.199672
#
# number of rings (size 3 to 8) (size 9 to 14) (size 15 to 20)
#    0.000    2.250    0.000    4.125    1.750    4.000 
#    0.000    0.625    0.000    5.625    0.000    3.500 
#    0.000    0.000    0.000    0.000    0.000    0.000 
#
# Total GULP energy -396710.345275 kJ/mol
# GULP energy per Si atom -12397.198290 kJ/mol
# Density = 1.915597 g / cm^3
# Si number density = 19.199672 Si / 1000 Ang^3
#
#
#
# Elastic Constant Matrix: (Units=GPa)
#
#
# Indices 1 2 3 4 5 6 
#
# 1 85.8847 26.2792 41.9734 0.0014 -0.0002 -0.0004
# 2 26.2792 59.6819 29.2399 0.0056 0.0010 0.0004
# 3 41.9734 29.2399 107.0465 0.0130 0.0013 -0.0008
# 4 0.0014 0.0056 0.0130 21.3624 0.0010 0.0003
# 5 -0.0002 0.0010 0.0013 0.0010 28.2641 0.0011
# 6 -0.0004 0.0004 -0.0008 0.0003 0.0011 12.6240
#
#
#
# Elastic Compliance Matrix: (Units=1/GPa)
#
#
# Indices 1 2 3 4 5 6 
#
# 1 0.015342 -0.004396 -0.004815 0.000003 0.000001 0.000000
# 2 -0.004396 0.020604 -0.003904 -0.000003 -0.000001 -0.000001
# 3 -0.004815 -0.003904 0.012296 -0.000006 0.000000 0.000001
# 4 0.000003 -0.000003 -0.000006 0.046811 -0.000002 -0.000001
# 5 0.000001 -0.000001 0.000000 -0.000002 0.035381 -0.000003
# 6 0.000000 -0.000001 0.000001 -0.000001 -0.000003 0.079214
#
#
# Mechanical properties :
#
#
# Convention : Reuss Voigt Hill
#
# Bulk Modulus (GPa) = 45.43123 49.73312 47.58217
# Shear Modulus (GPa) = 20.55789 22.79148 21.67468
#
# Velocity S-wave (km/s) = 3.27577 3.44914 3.36357
# Velocity P-wave (km/s) = 6.16615 6.46695 6.31834
#
# Compressibility (1/GPa) = 0.02201129
#
# Stress axis : x y z
#
# Youngs Moduli (GPa) = 65.18148 48.53398 81.32709
#
# Poissons Ratio (x) = 0.21338 0.39156
# Poissons Ratio (y) = 0.28657 0.31752
# Poissons Ratio (z) = 0.31383 0.18949
#
# Static dielectric constant tensor:
#      x y z
#    x 3.484870 0.000000 0.000000 
#    y 0.000000 3.603670 -0.000010 
#    z 0.000000 -0.000010 3.636430 
# 
# 
# High freq. dielectric constant tensor:
#      x y z
#    x 1.726900 0.000000 0.000000 
#    y 0.000000 1.743060 0.000000 
#    z 0.000000 0.000000 1.748910 
# 
# From -- ./inp_files/11415.got.cif
#   From: 2010.03.12/outbox.cif.g09.slc.cpg/sg44_6_cif.got.tgz:11415.got - 2010.04.14 02:36:11.
