data_PCOD8189832
_publ_section_title
;
Structure prediction by ZEFSAII (Michael W. Deem and Ramdas Pophale) SiO2 
 PCOD8189832
Probable space group: I M M 2
;
_chemical_formula_sum "Si O2"
_cell_formula_units_Z 48
_cell_length_a 9.510777
_cell_length_b 7.633332
_cell_length_c 34.589276
_cell_angle_alpha 90.000000
_cell_angle_beta 90.000000
_cell_angle_gamma 90.000000
_cell_volume 2511.144026
_symmetry_space_group_name_H-M "I M M 2"
_symmetry_group_IT_number 44
_symmetry_cell_setting 'orthorhombic'
loop_
_space_group_symop_operation_xyz
x,y,z
-x,-y,z
-x,y,z
x,-y,z
1/2+x,1/2+y,1/2+z
1/2-x,1/2-y,1/2+z
1/2-x,1/2+y,1/2+z
1/2+x,1/2-y,1/2+z
loop_
_atom_site_type_symbol
_atom_site_label
_atom_site_fract_x
_atom_site_fract_y
_atom_site_fract_z
Si Si1 0.345175 0.299696 0.505260
Si Si2 0.158772 0.793035 0.575779
Si Si3 0.155813 0.792394 0.661556
Si Si4 0.833219 0.000000 0.290216
Si Si5 0.834074 0.000000 0.376037
Si Si6 0.164052 0.703573 0.434062
Si Si7 0.165083 0.700830 0.233184
O O1 0.500000 0.208302 0.506519
O O2 0.367072 0.500000 0.495065
O O3 0.269510 0.286827 0.546329
O O4 0.248386 0.221753 0.471159
O O5 0.200242 0.725951 0.618818
O O6 0.000000 0.730513 0.565812
O O7 0.167654 0.000000 0.573165
O O8 0.263697 0.726678 0.694008
O O9 0.000000 0.721681 0.671691
O O10 0.153768 0.000000 0.660572
O O11 0.783081 0.175996 0.268195
O O12 0.766056 0.000000 0.333158
O O13 0.000000 0.000000 0.292738
O O14 0.786732 0.822908 0.398056
O O15 0.000000 0.000000 0.371863
O O16 0.195721 0.500000 0.424313
O O17 0.000000 0.731137 0.443334
O O18 0.208517 0.500000 0.242610
O O19 0.000000 0.717168 0.226442
#
# Coordination Sequence:
#
# PCOD8189832 Si02
#       7
#     8   8   8   4   4   8   8
#     4  10  21  35  49  70 102 136 169 207 255 309
#     4   9  18  32  51  74  99 130 170 215 257 300
#     4   8  15  30  50  71  97 130 168 208 250 295
#     4   9  18  32  49  77 109 129 161 215 259 301
#     4   9  18  32  53  79 103 129 167 213 259 307
#     4   9  18  33  53  75  99 131 170 212 256 304
#     4   9  17  30  50  73  99 135 169 201 251 306
#
# _framework density 19.114792999999999
#
# number of rings (size 3 to 8) (size 9 to 14) (size 15 to 20)
#    0.000    3.000    0.000    1.500    1.167    2.667 
#    1.500    5.417    0.000    2.000    0.000    4.667 
#    0.000    0.000    0.000    0.000    0.000    0.000 
#
# Total GULP energy -297446.558521 kJ/mol
# GULP energy per Si atom -12393.606605 kJ/mol
# Density = 1.907129 g / cm^3
# Si number density = 19.114793 Si / 1000 Ang^3
#
#
#
# Elastic Constant Matrix: (Units=GPa)
#
#
# Indices 1 2 3 4 5 6 
#
# 1 78.3435 28.8784 69.0991 0.0000 0.0000 0.0000
# 2 28.8784 70.9879 54.1538 0.0000 0.0000 0.0000
# 3 69.0991 54.1538 180.6651 0.0000 0.0000 0.0000
# 4 0.0000 0.0000 0.0000 25.1383 0.0000 0.0000
# 5 0.0000 0.0000 0.0000 0.0000 24.1719 0.0000
# 6 0.0000 0.0000 0.0000 0.0000 0.0000 12.2451
#
#
#
# Elastic Compliance Matrix: (Units=1/GPa)
#
#
# Indices 1 2 3 4 5 6 
#
# 1 0.019725 -0.002942 -0.006662 0.000000 0.000000 0.000000
# 2 -0.002942 0.018702 -0.004481 0.000000 0.000000 0.000000
# 3 -0.006662 -0.004481 0.009426 0.000000 0.000000 0.000000
# 4 0.000000 0.000000 0.000000 0.039780 0.000000 0.000000
# 5 0.000000 0.000000 0.000000 0.000000 0.041370 0.000000
# 6 0.000000 0.000000 0.000000 0.000000 0.000000 0.081665
#
#
# Mechanical properties :
#
#
# Convention : Reuss Voigt Hill
#
# Bulk Modulus (GPa) = 50.80436 70.47325 60.63880
# Shear Modulus (GPa) = 20.37497 24.16875 22.27186
#
# Velocity S-wave (km/s) = 3.26840 3.55970 3.41715
# Velocity P-wave (km/s) = 6.39371 7.33783 6.88198
#
# Compressibility (1/GPa) = 0.01968335
#
# Stress axis : x y z
#
# Youngs Moduli (GPa) = 50.69717 53.47095 106.08557
#
# Poissons Ratio (x) = 0.15730 0.70679
# Poissons Ratio (y) = 0.14914 0.47533
# Poissons Ratio (z) = 0.33777 0.23958
#
# Static dielectric constant tensor:
#      x y z
#    x 3.531290 0.000000 0.000000 
#    y 0.000000 3.466420 0.000000 
#    z 0.000000 0.000000 3.852780 
# 
# 
# High freq. dielectric constant tensor:
#      x y z
#    x 1.717700 0.000000 0.000000 
#    y 0.000000 1.736690 0.000000 
#    z 0.000000 0.000000 1.741460 
# 
# From -- ./inp_files/26922.got.cif
#   From: 2010.03.12/outbox.cif.g09.slc.cpg/sg44_14_cif.got.tgz:26922.got - 2010.04.14 02:36:11.
