data_PCOD8189432
_publ_section_title
;
Structure prediction by ZEFSAII (Michael W. Deem and Ramdas Pophale) SiO2 
 PCOD8189432
Probable space group: I M M 2
;
_chemical_formula_sum "Si O2"
_cell_formula_units_Z 48
_cell_length_a 7.889764
_cell_length_b 7.777844
_cell_length_c 37.342697
_cell_angle_alpha 90.000000
_cell_angle_beta 90.000000
_cell_angle_gamma 90.000000
_cell_volume 2291.547805
_symmetry_space_group_name_H-M "I M M 2"
_symmetry_group_IT_number 44
_symmetry_cell_setting 'orthorhombic'
loop_
_space_group_symop_operation_xyz
x,y,z
-x,-y,z
-x,y,z
x,-y,z
1/2+x,1/2+y,1/2+z
1/2-x,1/2-y,1/2+z
1/2-x,1/2+y,1/2+z
1/2+x,1/2-y,1/2+z
loop_
_atom_site_type_symbol
_atom_site_label
_atom_site_fract_x
_atom_site_fract_y
_atom_site_fract_z
Si Si1 0.194221 0.000000 0.214940
Si Si2 0.197031 0.689522 0.170361
Si Si3 0.693720 0.694703 0.346779
Si Si4 0.817070 0.196680 0.018043
Si Si5 0.000000 0.197587 0.393306
Si Si6 0.500000 0.793832 0.974671
Si Si7 0.192868 0.201644 0.592555
Si Si8 0.695743 0.000000 0.294093
O O1 0.278935 0.172602 0.198096
O O2 0.201230 0.000000 0.257580
O O3 0.000000 0.000000 0.202513
O O4 0.283065 0.500000 0.175566
O O5 0.225143 0.757238 0.130118
O O6 0.000000 0.670120 0.178152
O O7 0.500000 0.732352 0.360193
O O8 0.705687 0.500000 0.331719
O O9 0.827894 0.714065 0.378893
O O10 0.744953 0.828230 0.315793
O O11 0.789300 0.205537 0.060513
O O12 0.000000 0.283030 0.008710
O O13 0.824773 0.000000 0.006512
O O14 0.664130 0.282017 0.995560
O O15 0.000000 0.215109 0.435565
O O16 0.000000 0.000000 0.381560
O O17 0.500000 0.000000 0.973646
O O18 0.000000 0.263689 0.592345
O O19 0.210690 0.000000 0.586412
O O20 0.500000 0.000000 0.283997
#
# Coordination Sequence:
#
# PCOD8189432 Si02
#       8
#     4   8   8   8   4   4   8   4
#     4  10  22  36  56  84 120 160 204 258 316 377
#     4   9  19  36  53  77 115 157 204 254 310 373
#     4  10  22  42  67  96 130 169 215 262 315 382
#     4  10  21  37  58  83 116 159 204 252 309 368
#     4  12  24  40  68  97 131 168 209 269 322 387
#     4  10  22  40  56  86 128 159 207 260 311 379
#     4  10  20  34  55  81 111 150 202 260 309 368
#     4  10  22  40  62  92 128 160 208 265 315 386
#
# _framework density 20.946542999999998
#
# number of rings (size 3 to 8) (size 9 to 14) (size 15 to 20)
#    0.000    2.000    1.667    1.250    2.333    3.667 
#    0.000    1.667    0.000    0.000    0.000    0.000 
#    0.000    0.000    0.000    0.000    0.000    0.000 
#
# Total GULP energy -297523.447150 kJ/mol
# GULP energy per Si atom -12396.810298 kJ/mol
# Density = 2.089887 g / cm^3
# Si number density = 20.946543 Si / 1000 Ang^3
#
#
#
# Elastic Constant Matrix: (Units=GPa)
#
#
# Indices 1 2 3 4 5 6 
#
# 1 108.6617 37.6674 49.8088 0.0000 0.0000 0.0000
# 2 37.6674 99.8737 51.5520 0.0000 0.0000 0.0000
# 3 49.8088 51.5520 139.1243 0.0000 0.0000 0.0000
# 4 0.0000 0.0000 0.0000 30.8449 0.0000 0.0000
# 5 0.0000 0.0000 0.0000 0.0000 30.0945 0.0000
# 6 0.0000 0.0000 0.0000 0.0000 0.0000 15.2227
#
#
#
# Elastic Compliance Matrix: (Units=1/GPa)
#
#
# Indices 1 2 3 4 5 6 
#
# 1 0.011593 -0.002757 -0.003129 0.000000 0.000000 0.000000
# 2 -0.002757 0.013036 -0.003843 0.000000 0.000000 0.000000
# 3 -0.003129 -0.003843 0.009732 0.000000 0.000000 0.000000
# 4 0.000000 0.000000 0.000000 0.032420 0.000000 0.000000
# 5 0.000000 0.000000 0.000000 0.000000 0.033229 0.000000
# 6 0.000000 0.000000 0.000000 0.000000 0.000000 0.065691
#
#
# Mechanical properties :
#
#
# Convention : Reuss Voigt Hill
#
# Bulk Modulus (GPa) = 67.10291 69.52402 68.31347
# Shear Modulus (GPa) = 26.29808 29.14120 27.71964
#
# Velocity S-wave (km/s) = 3.54713 3.73395 3.64174
# Velocity P-wave (km/s) = 6.99150 7.20091 7.09697
#
# Compressibility (1/GPa) = 0.01490248
#
# Stress axis : x y z
#
# Youngs Moduli (GPa) = 86.26014 76.70799 102.75245
#
# Poissons Ratio (x) = 0.21151 0.32148
# Poissons Ratio (y) = 0.23784 0.39492
# Poissons Ratio (z) = 0.26988 0.29482
#
# Static dielectric constant tensor:
#      x y z
#    x 4.197360 0.000000 0.000000 
#    y 0.000000 4.047220 0.000000 
#    z 0.000000 0.000000 3.506520 
# 
# 
# High freq. dielectric constant tensor:
#      x y z
#    x 1.823710 0.000000 0.000000 
#    y 0.000000 1.822040 0.000000 
#    z 0.000000 0.000000 1.800980 
# 
# From -- ./inp_files/27062.got.cif
#   From: 2010.03.12/outbox.cif.g09.slc.cpg/sg44_14_cif.got.tgz:27062.got - 2010.04.14 02:36:11.
