data_PCOD8189344
_publ_section_title
;
Structure prediction by ZEFSAII (Michael W. Deem and Ramdas Pophale) SiO2 
 PCOD8189344
Probable space group: I M M 2
;
_chemical_formula_sum "Si O2"
_cell_formula_units_Z 40
_cell_length_a 18.658053
_cell_length_b 8.811083
_cell_length_c 13.509639
_cell_angle_alpha 90.000000
_cell_angle_beta 90.000000
_cell_angle_gamma 90.000000
_cell_volume 2220.952953
_symmetry_space_group_name_H-M "I M M 2"
_symmetry_group_IT_number 44
_symmetry_cell_setting 'orthorhombic'
loop_
_space_group_symop_operation_xyz
x,y,z
-x,-y,z
-x,y,z
x,-y,z
1/2+x,1/2+y,1/2+z
1/2-x,1/2-y,1/2+z
1/2-x,1/2+y,1/2+z
1/2+x,1/2-y,1/2+z
loop_
_atom_site_type_symbol
_atom_site_label
_atom_site_fract_x
_atom_site_fract_y
_atom_site_fract_z
Si Si1 0.278776 0.825767 0.057880
Si Si2 0.500000 0.181222 0.553449
Si Si3 0.275440 0.176381 0.837255
Si Si4 0.000000 0.178912 0.837223
Si Si5 0.360711 0.177774 0.250394
Si Si6 0.645087 0.178201 0.646168
O O1 0.339764 0.780709 0.136955
O O2 0.206713 0.730877 0.071812
O O3 0.257352 0.000000 0.073629
O O4 0.307291 0.795017 0.946801
O O5 0.500000 0.240840 0.442594
O O6 0.569058 0.246744 0.611957
O O7 0.500000 0.000000 0.549387
O O8 0.203714 0.274224 0.822877
O O9 0.335865 0.229026 0.758498
O O10 0.255562 0.000000 0.820926
O O11 0.930879 0.227502 0.775080
O O12 0.000000 0.000000 0.852754
O O13 0.376313 0.000000 0.264491
O O14 0.639770 0.000000 0.638599
#
# Coordination Sequence:
#
# PCOD8189344 Si02
#       6
#     8   4   8   4   8   8
#     4   9  18  32  51  73  98 128 164 202 243 288
#     4  10  20  34  51  74 102 132 163 200 245 292
#     4   9  17  32  52  75 101 131 165 202 242 287
#     4  12  24  36  51  72  98 130 163 202 249 296
#     4  10  20  34  51  74 101 130 164 203 244 291
#     4   9  18  31  49  73 101 130 164 202 241 286
#
# _framework density 18.010286000000001
#
# number of rings (size 3 to 8) (size 9 to 14) (size 15 to 20)
#    0.000    2.400    0.000    2.700    0.000    5.600 
#    0.000    1.000    0.000    4.800    0.000    1.400 
#    0.000    0.000    0.000    0.000    0.000    0.000 
#
# Total GULP energy -247978.301182 kJ/mol
# GULP energy per Si atom -12398.915059 kJ/mol
# Density = 1.796929 g / cm^3
# Si number density = 18.010286 Si / 1000 Ang^3
#
#
#
# Elastic Constant Matrix: (Units=GPa)
#
#
# Indices 1 2 3 4 5 6 
#
# 1 122.5087 17.2407 61.4017 0.0000 0.0000 0.0000
# 2 17.2407 20.9496 15.3850 0.0000 0.0000 0.0000
# 3 61.4017 15.3850 138.1852 0.0000 0.0000 0.0000
# 4 0.0000 0.0000 0.0000 19.6532 0.0000 0.0000
# 5 0.0000 0.0000 0.0000 0.0000 20.5660 0.0000
# 6 0.0000 0.0000 0.0000 0.0000 0.0000 22.0297
#
#
#
# Elastic Compliance Matrix: (Units=1/GPa)
#
#
# Indices 1 2 3 4 5 6 
#
# 1 0.011161 -0.006037 -0.004287 0.000000 0.000000 0.000000
# 2 -0.006037 0.055249 -0.003469 0.000000 0.000000 0.000000
# 3 -0.004287 -0.003469 0.009528 0.000000 0.000000 0.000000
# 4 0.000000 0.000000 0.000000 0.050882 0.000000 0.000000
# 5 0.000000 0.000000 0.000000 0.000000 0.048624 0.000000
# 6 0.000000 0.000000 0.000000 0.000000 0.000000 0.045393
#
#
# Mechanical properties :
#
#
# Convention : Reuss Voigt Hill
#
# Bulk Modulus (GPa) = 20.68146 52.18870 36.43508
# Shear Modulus (GPa) = 18.90070 24.95750 21.92910
#
# Velocity S-wave (km/s) = 3.24302 3.72659 3.49318
# Velocity P-wave (km/s) = 5.05282 6.89613 6.04515
#
# Compressibility (1/GPa) = 0.04835249
#
# Stress axis : x y z
#
# Youngs Moduli (GPa) = 89.59778 18.09985 104.95517
#
# Poissons Ratio (x) = 0.10926 0.44997
# Poissons Ratio (y) = 0.54087 0.36408
# Poissons Ratio (z) = 0.38413 0.06279
#
# Static dielectric constant tensor:
#      x y z
#    x 3.440660 0.000000 0.000000 
#    y 0.000000 3.297590 0.000000 
#    z 0.000000 0.000000 3.541100 
# 
# 
# High freq. dielectric constant tensor:
#      x y z
#    x 1.682520 0.000000 0.000000 
#    y 0.000000 1.693090 0.000000 
#    z 0.000000 0.000000 1.707810 
# 
# From -- ./inp_files/15813.got.cif
#   From: 2010.03.12/outbox.cif.g09.slc.cpg/sg44_8_cif.got.tgz:15813.got - 2010.04.14 02:36:11.
