data_PCOD8189119
_publ_section_title
;
Structure prediction by ZEFSAII (Michael W. Deem and Ramdas Pophale) SiO2 
 PCOD8189119
Probable space group: I M M 2
;
_chemical_formula_sum "Si O2"
_cell_formula_units_Z 64
_cell_length_a 30.292602
_cell_length_b 9.069947
_cell_length_c 14.256037
_cell_angle_alpha 90.000000
_cell_angle_beta 90.000000
_cell_angle_gamma 90.000000
_cell_volume 3916.878878
_symmetry_space_group_name_H-M "I M M 2"
_symmetry_group_IT_number 44
_symmetry_cell_setting 'orthorhombic'
loop_
_space_group_symop_operation_xyz
x,y,z
-x,-y,z
-x,y,z
x,-y,z
1/2+x,1/2+y,1/2+z
1/2-x,1/2-y,1/2+z
1/2-x,1/2+y,1/2+z
1/2+x,1/2-y,1/2+z
loop_
_atom_site_type_symbol
_atom_site_label
_atom_site_fract_x
_atom_site_fract_y
_atom_site_fract_z
Si Si1 0.950385 0.327130 0.033410
Si Si2 0.864432 0.674316 0.339168
Si Si3 0.235803 0.833026 0.659621
Si Si4 0.282862 0.672476 0.370883
Si Si5 0.300581 0.669613 0.964025
Si Si6 0.868216 0.832415 0.978620
Si Si7 0.321524 0.667583 0.671169
Si Si8 0.451876 0.175037 0.745320
O O1 0.942135 0.500000 0.030778
O O2 0.944249 0.266187 0.139676
O O3 0.000000 0.288865 0.998376
O O4 0.914345 0.253533 0.964508
O O5 0.862526 0.500000 0.352506
O O6 0.846050 0.751977 0.432346
O O7 0.833069 0.719844 0.253623
O O8 0.914000 0.732186 0.316139
O O9 0.213639 0.798682 0.759660
O O10 0.200242 0.813822 0.576569
O O11 0.273713 0.716220 0.634816
O O12 0.254842 0.000000 0.658630
O O13 0.277017 0.500000 0.395405
O O14 0.241568 0.757875 0.413977
O O15 0.328602 0.733450 0.415194
O O16 0.301581 0.500000 0.932905
O O17 0.876574 0.000000 0.948743
O O18 0.855895 0.817448 0.087403
O O19 0.319951 0.500000 0.708637
O O20 0.500000 0.228565 0.782079
O O21 0.450391 0.000000 0.740971
#
# Coordination Sequence:
#
# PCOD8189119 Si02
#       8
#     8   8   8   8   8   8   8   8
#     4   9  17  30  48  69  95 127 161 194 231 284
#     4  11  20  31  49  70  95 132 164 194 236 286
#     4  10  21  35  50  66  92 130 167 199 237 281
#     4  10  20  35  50  67  92 128 166 198 236 284
#     4  11  22  33  47  71  97 125 162 202 239 282
#     4  10  20  31  46  70  99 128 159 199 243 281
#     4  11  20  29  45  71 100 127 159 200 237 276
#     4   8  15  28  46  68  92 120 157 194 227 277
#
# _framework density 16.33954
#
# number of rings (size 3 to 8) (size 9 to 14) (size 15 to 20)
#    0.000    2.000    3.750    1.875    0.000    1.750 
#    0.000    0.000    0.000    1.500    0.000    0.875 
#    0.000    5.000    0.000    0.000    0.000    0.000 
#
# Total GULP energy -396694.379734 kJ/mol
# GULP energy per Si atom -12396.699367 kJ/mol
# Density = 1.630235 g / cm^3
# Si number density = 16.339540 Si / 1000 Ang^3
#
#
#
# Elastic Constant Matrix: (Units=GPa)
#
#
# Indices 1 2 3 4 5 6 
#
# 1 118.9840 38.7457 30.9327 0.0000 0.0000 0.0000
# 2 38.7457 55.5054 23.1184 0.0000 0.0000 0.0000
# 3 30.9327 23.1184 66.8565 0.0000 0.0000 0.0000
# 4 0.0000 0.0000 0.0000 18.8961 0.0000 0.0000
# 5 0.0000 0.0000 0.0000 0.0000 26.2152 0.0000
# 6 0.0000 0.0000 0.0000 0.0000 0.0000 24.7976
#
#
#
# Elastic Compliance Matrix: (Units=1/GPa)
#
#
# Indices 1 2 3 4 5 6 
#
# 1 0.011349 -0.006700 -0.002934 0.000000 0.000000 0.000000
# 2 -0.006700 0.025003 -0.005546 0.000000 0.000000 0.000000
# 3 -0.002934 -0.005546 0.018233 0.000000 0.000000 0.000000
# 4 0.000000 0.000000 0.000000 0.052921 0.000000 0.000000
# 5 0.000000 0.000000 0.000000 0.000000 0.038146 0.000000
# 6 0.000000 0.000000 0.000000 0.000000 0.000000 0.040327
#
#
# Mechanical properties :
#
#
# Convention : Reuss Voigt Hill
#
# Bulk Modulus (GPa) = 41.28022 47.43771 44.35897
# Shear Modulus (GPa) = 22.28028 23.88504 23.08266
#
# Velocity S-wave (km/s) = 3.69668 3.82749 3.76265
# Velocity P-wave (km/s) = 6.59844 6.97341 6.78851
#
# Compressibility (1/GPa) = 0.02422468
#
# Stress axis : x y z
#
# Youngs Moduli (GPa) = 88.11260 39.99476 54.84674
#
# Poissons Ratio (x) = 0.26797 0.16092
# Poissons Ratio (y) = 0.59037 0.30417
# Poissons Ratio (z) = 0.25853 0.22181
#
# Static dielectric constant tensor:
#      x y z
#    x 3.270190 0.000000 0.000000 
#    y 0.000000 3.018860 0.000000 
#    z 0.000000 0.000000 2.999660 
# 
# 
# High freq. dielectric constant tensor:
#      x y z
#    x 1.621620 0.000000 0.000000 
#    y 0.000000 1.623920 0.000000 
#    z 0.000000 0.000000 1.600820 
# 
# From -- ./inp_files/17110.got.cif
#   From: 2010.03.12/outbox.cif.g09.slc.cpg/sg44_9_cif.got.tgz:17110.got - 2010.04.14 02:36:11.
