data_PCOD8189368
_publ_section_title
;
Structure prediction by ZEFSAII (Michael W. Deem and Ramdas Pophale) SiO2 
 PCOD8189368
Probable space group: I M M 2
;
_chemical_formula_sum "Si O2"
_cell_formula_units_Z 48
_cell_length_a 8.565916
_cell_length_b 29.755566
_cell_length_c 10.138794
_cell_angle_alpha 90.000000
_cell_angle_beta 90.000000
_cell_angle_gamma 90.000000
_cell_volume 2584.213114
_symmetry_space_group_name_H-M "I M M 2"
_symmetry_group_IT_number 44
_symmetry_cell_setting 'orthorhombic'
loop_
_space_group_symop_operation_xyz
x,y,z
-x,-y,z
-x,y,z
x,-y,z
1/2+x,1/2+y,1/2+z
1/2-x,1/2-y,1/2+z
1/2-x,1/2+y,1/2+z
1/2+x,1/2-y,1/2+z
loop_
_atom_site_type_symbol
_atom_site_label
_atom_site_fract_x
_atom_site_fract_y
_atom_site_fract_z
Si Si1 0.815498 0.949742 0.776460
Si Si2 0.316166 0.883207 0.271356
Si Si3 0.316653 0.712642 0.782358
Si Si4 0.816602 0.716561 0.503290
Si Si5 0.815720 0.120328 0.991459
Si Si6 0.316344 0.051111 0.500271
O O1 0.761501 0.931413 0.634749
O O2 0.000000 0.950870 0.780650
O O3 0.747633 0.000000 0.800366
O O4 0.751579 0.916788 0.889537
O O5 0.500000 0.887310 0.247238
O O6 0.274899 0.832902 0.316470
O O7 0.226988 0.896182 0.137652
O O8 0.256156 0.917675 0.381987
O O9 0.500000 0.702843 0.786476
O O10 0.270947 0.730511 0.637532
O O11 0.265282 0.749363 0.889124
O O12 0.768805 0.666903 0.457316
O O13 0.000000 0.718097 0.530033
O O14 0.000000 0.127425 0.979582
O O15 0.500000 0.055338 0.517504
O O16 0.265251 0.000000 0.469406
#
# Coordination Sequence:
#
# PCOD8189368 Si02
#       6
#     8   8   8   8   8   8
#     4   9  19  35  53  75 103 134 169 208 250 297
#     4  10  20  34  53  76 103 134 168 208 251 297
#     4  10  21  36  54  76 102 133 169 208 251 300
#     4  10  21  36  54  76 102 133 169 208 251 300
#     4  10  20  34  53  76 103 134 168 208 251 297
#     4   9  19  35  53  75 103 134 169 208 250 297
#
# _framework density 18.574318999999999
#
# number of rings (size 3 to 8) (size 9 to 14) (size 15 to 20)
#    0.000    2.333    0.000    4.000    0.000    7.333 
#    0.000    6.667    0.000    0.000    0.000    0.000 
#    0.000    0.000    0.000    0.000    0.000    0.000 
#
# Total GULP energy -297649.829102 kJ/mol
# GULP energy per Si atom -12402.076213 kJ/mol
# Density = 1.853204 g / cm^3
# Si number density = 18.574319 Si / 1000 Ang^3
#
#
#
# Elastic Constant Matrix: (Units=GPa)
#
#
# Indices 1 2 3 4 5 6 
#
# 1 23.4944 9.6149 9.0720 0.0000 0.0005 0.0001
# 2 9.6149 103.5416 95.2691 -0.0004 -0.0002 -0.0001
# 3 9.0720 95.2691 136.7051 -0.0001 0.0008 -0.0006
# 4 0.0000 -0.0004 -0.0001 47.1866 -0.0003 -0.0005
# 5 0.0005 -0.0002 0.0008 -0.0003 30.8098 0.0002
# 6 0.0001 -0.0001 -0.0006 -0.0005 0.0002 20.2449
#
#
#
# Elastic Compliance Matrix: (Units=1/GPa)
#
#
# Indices 1 2 3 4 5 6 
#
# 1 0.044247 -0.003922 -0.000203 0.000000 -0.000001 0.000000
# 2 -0.003922 0.027266 -0.018741 0.000000 0.000001 0.000000
# 3 -0.000203 -0.018741 0.020389 0.000000 -0.000001 0.000000
# 4 0.000000 0.000000 0.000000 0.021192 0.000000 0.000001
# 5 -0.000001 0.000001 -0.000001 0.000000 0.032457 0.000000
# 6 0.000000 0.000000 0.000000 0.000001 0.000000 0.049395
#
#
# Mechanical properties :
#
#
# Convention : Reuss Voigt Hill
#
# Bulk Modulus (GPa) = 21.65939 54.62813 38.14376
# Shear Modulus (GPa) = 19.52592 29.63392 24.57992
#
# Velocity S-wave (km/s) = 3.24579 3.99861 3.64170
# Velocity P-wave (km/s) = 5.07278 7.12692 6.18571
#
# Compressibility (1/GPa) = 0.04616936
#
# Stress axis : x y z
#
# Youngs Moduli (GPa) = 22.60057 36.67540 49.04525
#
# Poissons Ratio (x) = 0.14383 0.00997
# Poissons Ratio (y) = 0.08863 0.91918
# Poissons Ratio (z) = 0.00459 0.68735
#
# Static dielectric constant tensor:
#      x y z
#    x 3.371200 0.000000 0.000000 
#    y 0.000000 3.572520 0.000000 
#    z 0.000000 0.000000 3.545270 
# 
# 
# High freq. dielectric constant tensor:
#      x y z
#    x 1.723820 0.000000 0.000000 
#    y 0.000000 1.719980 0.000000 
#    z 0.000000 0.000000 1.726120 
# 
# From -- ./inp_files/11213.got.cif
#   From: 2010.03.12/outbox.cif.g09.slc.cpg/sg44_6_cif.got.tgz:11213.got - 2010.04.14 02:36:11.
