data_PCOD8189979
_publ_section_title
;
Structure prediction by ZEFSAII (Michael W. Deem and Ramdas Pophale) SiO2 
 PCOD8189979
Probable space group: I M M 2
;
_chemical_formula_sum "Si O2"
_cell_formula_units_Z 64
_cell_length_a 14.492550
_cell_length_b 18.720881
_cell_length_c 11.636475
_cell_angle_alpha 90.000000
_cell_angle_beta 90.000000
_cell_angle_gamma 90.000000
_cell_volume 3157.130478
_symmetry_space_group_name_H-M "I M M 2"
_symmetry_group_IT_number 44
_symmetry_cell_setting 'orthorhombic'
loop_
_space_group_symop_operation_xyz
x,y,z
-x,-y,z
-x,y,z
x,-y,z
1/2+x,1/2+y,1/2+z
1/2-x,1/2-y,1/2+z
1/2-x,1/2+y,1/2+z
1/2+x,1/2-y,1/2+z
loop_
_atom_site_type_symbol
_atom_site_label
_atom_site_fract_x
_atom_site_fract_y
_atom_site_fract_z
Si Si1 0.397343 0.311583 0.820670
Si Si2 0.606695 0.700339 0.556835
Si Si3 0.897089 0.921350 0.891974
Si Si4 0.603345 0.080703 0.646813
Si Si5 0.396006 0.419291 0.007132
Si Si6 0.705371 0.777698 0.365089
Si Si7 0.394482 0.079994 0.375192
Si Si8 0.212141 0.146116 0.706279
O O1 0.500000 0.277493 0.836860
O O2 0.365655 0.310525 0.688347
O O3 0.315556 0.269519 0.884780
O O4 0.397240 0.391273 0.875246
O O5 0.500000 0.719520 0.544643
O O6 0.635994 0.627430 0.496222
O O7 0.660859 0.763150 0.490600
O O8 0.829254 0.917037 0.784009
O O9 0.000000 0.899627 0.851198
O O10 0.894950 0.000000 0.943223
O O11 0.500000 0.107071 0.680744
O O12 0.614812 0.079898 0.511233
O O13 0.676670 0.136283 0.701995
O O14 0.619551 0.000000 0.693185
O O15 0.500000 0.418218 0.057297
O O16 0.356096 0.500000 0.008283
O O17 0.331390 0.365673 0.080164
O O18 0.671892 0.857044 0.324980
O O19 0.679179 0.720736 0.264718
O O20 0.500000 0.096289 0.338275
O O21 0.365991 0.000000 0.330350
#
# Coordination Sequence:
#
# PCOD8189979 Si02
#       8
#     8   8   8   8   8   8   8   8
#     4  10  23  39  56  81 116 154 197 245 299 358
#     4   9  20  38  57  82 115 151 195 246 296 353
#     4   9  17  31  53  80 111 150 192 232 280 344
#     4   9  18  32  53  82 113 149 195 246 298 349
#     4  10  21  37  58  85 119 156 193 237 294 357
#     4  11  23  35  58  85 118 157 200 244 308 368
#     4   9  19  37  60  85 112 147 197 254 306 356
#     4  11  21  32  52  86 121 156 191 243 301 357
#
# _framework density 20.271571999999999
#
# number of rings (size 3 to 8) (size 9 to 14) (size 15 to 20)
#    0.000    2.250    0.000    3.375    3.500    5.000 
#    0.000    2.500    0.000    0.000    0.000    0.000 
#    0.000    9.000    0.000    6.500    0.000    0.000 
#
# Total GULP energy -396506.853208 kJ/mol
# GULP energy per Si atom -12390.839163 kJ/mol
# Density = 2.022543 g / cm^3
# Si number density = 20.271572 Si / 1000 Ang^3
#
#
#
# Elastic Constant Matrix: (Units=GPa)
#
#
# Indices 1 2 3 4 5 6 
#
# 1 115.0470 39.0795 38.8605 0.0000 0.0000 0.0000
# 2 39.0795 111.0149 34.5055 0.0000 0.0000 0.0000
# 3 38.8605 34.5055 84.2832 0.0000 0.0000 0.0000
# 4 0.0000 0.0000 0.0000 19.8881 0.0000 0.0000
# 5 0.0000 0.0000 0.0000 0.0000 21.8575 0.0000
# 6 0.0000 0.0000 0.0000 0.0000 0.0000 28.3796
#
#
#
# Elastic Compliance Matrix: (Units=1/GPa)
#
#
# Indices 1 2 3 4 5 6 
#
# 1 0.010918 -0.002611 -0.003965 0.000000 0.000000 0.000000
# 2 -0.002611 0.010946 -0.003277 0.000000 0.000000 0.000000
# 3 -0.003965 -0.003277 0.015035 0.000000 0.000000 0.000000
# 4 0.000000 0.000000 0.000000 0.050281 0.000000 0.000000
# 5 0.000000 0.000000 0.000000 0.000000 0.045751 0.000000
# 6 0.000000 0.000000 0.000000 0.000000 0.000000 0.035237
#
#
# Mechanical properties :
#
#
# Convention : Reuss Voigt Hill
#
# Bulk Modulus (GPa) = 58.16754 59.47067 58.81911
# Shear Modulus (GPa) = 25.82576 27.21833 26.52204
#
# Velocity S-wave (km/s) = 3.57317 3.66824 3.62102
# Velocity P-wave (km/s) = 6.76608 6.88055 6.82356
#
# Compressibility (1/GPa) = 0.01719172
#
# Stress axis : x y z
#
# Youngs Moduli (GPa) = 91.58864 91.36120 66.51282
#
# Poissons Ratio (x) = 0.23855 0.26374
# Poissons Ratio (y) = 0.23914 0.21798
# Poissons Ratio (z) = 0.36317 0.29941
#
# Static dielectric constant tensor:
#      x y z
#    x 3.924920 0.000000 0.000000 
#    y 0.000000 3.809430 0.000000 
#    z 0.000000 0.000000 3.486550 
# 
# 
# High freq. dielectric constant tensor:
#      x y z
#    x 1.801510 0.000000 0.000000 
#    y 0.000000 1.791540 0.000000 
#    z 0.000000 0.000000 1.756190 
# 
# From -- ./inp_files/13430.got.cif
#   From: 2010.03.12/outbox.cif.g09.slc.cpg/sg44_7_cif.got.tgz:13430.got - 2010.04.14 02:36:11.
