data_PCOD8189875
_publ_section_title
;
Structure prediction by ZEFSAII (Michael W. Deem and Ramdas Pophale) SiO2 
 PCOD8189875
Probable space group: I M M 2
;
_chemical_formula_sum "Si O2"
_cell_formula_units_Z 56
_cell_length_a 14.348190
_cell_length_b 8.857550
_cell_length_c 23.099316
_cell_angle_alpha 90.000000
_cell_angle_beta 90.000000
_cell_angle_gamma 90.000000
_cell_volume 2935.687689
_symmetry_space_group_name_H-M "I M M 2"
_symmetry_group_IT_number 44
_symmetry_cell_setting 'orthorhombic'
loop_
_space_group_symop_operation_xyz
x,y,z
-x,-y,z
-x,y,z
x,-y,z
1/2+x,1/2+y,1/2+z
1/2-x,1/2-y,1/2+z
1/2-x,1/2+y,1/2+z
1/2+x,1/2-y,1/2+z
loop_
_atom_site_type_symbol
_atom_site_label
_atom_site_fract_x
_atom_site_fract_y
_atom_site_fract_z
Si Si1 0.778405 0.679053 0.832090
Si Si2 0.891745 0.178860 0.728075
Si Si3 0.293044 0.679325 0.112719
Si Si4 0.891488 0.171204 0.498298
Si Si5 0.893910 0.677468 0.378600
Si Si6 0.397580 0.820678 0.568034
Si Si7 0.103123 0.678993 0.938752
O O1 0.775995 0.500000 0.827937
O O2 0.838216 0.741752 0.779664
O O3 0.673052 0.743200 0.831453
O O4 0.824785 0.741011 0.891429
O O5 0.845196 0.242556 0.669104
O O6 0.000000 0.225733 0.728879
O O7 0.879720 0.000000 0.733447
O O8 0.301865 0.500000 0.112551
O O9 0.184005 0.731885 0.112056
O O10 0.341100 0.741252 0.054404
O O11 0.865703 0.270862 0.442957
O O12 0.000000 0.174083 0.512221
O O13 0.857196 0.000000 0.485558
O O14 0.881588 0.500000 0.373695
O O15 0.000000 0.726843 0.364694
O O16 0.500000 0.756761 0.586564
O O17 0.370575 0.764484 0.503285
O O18 0.403099 0.000000 0.567187
O O19 0.103934 0.500000 0.936890
O O20 0.000000 0.738675 0.922634
#
# Coordination Sequence:
#
# PCOD8189875 Si02
#       7
#     8   8   8   8   8   8   8
#     4  11  21  34  54  76 100 134 176 220 263 310
#     4  10  21  36  52  72 102 139 177 219 267 316
#     4   9  16  28  47  70  99 137 178 216 256 305
#     4   9  16  28  50  78 103 130 169 214 258 306
#     4  10  21  36  53  76 107 138 168 209 264 322
#     4   8  13  22  39  66  97 124 154 198 249 300
#     4   8  14  25  44  73 104 128 155 200 257 308
#
# _framework density 19.075600000000001
#
# number of rings (size 3 to 8) (size 9 to 14) (size 15 to 20)
#    0.000    2.714    0.000    3.429    0.000    5.714 
#    0.000    1.429    0.000    4.286    0.000    0.000 
#    0.000    1.143    0.000    0.000    0.000    0.000 
#
# Total GULP energy -347055.999123 kJ/mol
# GULP energy per Si atom -12394.857112 kJ/mol
# Density = 1.903218 g / cm^3
# Si number density = 19.075600 Si / 1000 Ang^3
#
#
#
# Elastic Constant Matrix: (Units=GPa)
#
#
# Indices 1 2 3 4 5 6 
#
# 1 155.0444 39.5283 92.1709 0.0000 0.0000 0.0000
# 2 39.5283 33.7118 31.2594 0.0000 0.0000 0.0000
# 3 92.1709 31.2594 100.4023 0.0000 0.0000 0.0000
# 4 0.0000 0.0000 0.0000 22.9876 0.0000 0.0000
# 5 0.0000 0.0000 0.0000 0.0000 37.5789 0.0000
# 6 0.0000 0.0000 0.0000 0.0000 0.0000 17.8462
#
#
#
# Elastic Compliance Matrix: (Units=1/GPa)
#
#
# Indices 1 2 3 4 5 6 
#
# 1 0.015259 -0.006892 -0.011862 0.000000 0.000000 0.000000
# 2 -0.006892 0.044816 -0.007626 0.000000 0.000000 0.000000
# 3 -0.011862 -0.007626 0.023223 0.000000 0.000000 0.000000
# 4 0.000000 0.000000 0.000000 0.043502 0.000000 0.000000
# 5 0.000000 0.000000 0.000000 0.000000 0.026611 0.000000
# 6 0.000000 0.000000 0.000000 0.000000 0.000000 0.056034
#
#
# Mechanical properties :
#
#
# Convention : Reuss Voigt Hill
#
# Bulk Modulus (GPa) = 32.74599 68.34176 50.54387
# Shear Modulus (GPa) = 18.35650 24.09585 21.22618
#
# Velocity S-wave (km/s) = 3.10547 3.55798 3.33939
# Velocity P-wave (km/s) = 5.48291 7.26522 6.43606
#
# Compressibility (1/GPa) = 0.03053809
#
# Stress axis : x y z
#
# Youngs Moduli (GPa) = 65.53717 22.31361 43.06012
#
# Poissons Ratio (x) = 0.15379 0.51077
# Poissons Ratio (y) = 0.45171 0.32836
# Poissons Ratio (z) = 0.77738 0.17016
#
# Static dielectric constant tensor:
#      x y z
#    x 3.930420 0.000000 0.000000 
#    y 0.000000 3.004780 0.000000 
#    z 0.000000 0.000000 3.492790 
# 
# 
# High freq. dielectric constant tensor:
#      x y z
#    x 1.764050 0.000000 0.000000 
#    y 0.000000 1.688900 0.000000 
#    z 0.000000 0.000000 1.725870 
# 
# From -- ./inp_files/23034.got.cif
#   From: 2010.03.12/outbox.cif.g09.slc.cpg/sg44_12_cif.got.tgz:23034.got - 2010.04.14 02:36:11.
