data_PCOD8189730
_publ_section_title
;
Structure prediction by ZEFSAII (Michael W. Deem and Ramdas Pophale) SiO2 
 PCOD8189730
Probable space group: I M M 2
;
_chemical_formula_sum "Si O2"
_cell_formula_units_Z 56
_cell_length_a 8.809693
_cell_length_b 20.487390
_cell_length_c 15.274176
_cell_angle_alpha 90.000000
_cell_angle_beta 90.000000
_cell_angle_gamma 90.000000
_cell_volume 2756.799617
_symmetry_space_group_name_H-M "I M M 2"
_symmetry_group_IT_number 44
_symmetry_cell_setting 'orthorhombic'
loop_
_space_group_symop_operation_xyz
x,y,z
-x,-y,z
-x,y,z
x,-y,z
1/2+x,1/2+y,1/2+z
1/2-x,1/2-y,1/2+z
1/2-x,1/2+y,1/2+z
1/2+x,1/2-y,1/2+z
loop_
_atom_site_type_symbol
_atom_site_label
_atom_site_fract_x
_atom_site_fract_y
_atom_site_fract_z
Si Si1 0.679832 0.926991 0.764010
Si Si2 0.320813 0.136066 0.939547
Si Si3 0.671928 0.000000 0.359335
Si Si4 0.178265 0.217890 0.441571
Si Si5 0.329252 0.424751 0.603920
Si Si6 0.822465 0.631275 0.088026
Si Si7 0.174965 0.000000 0.529630
Si Si8 0.173669 0.118845 0.290332
O O1 0.500000 0.933100 0.768835
O O2 0.747282 0.903177 0.856662
O O3 0.721719 0.871338 0.691448
O O4 0.746113 0.000000 0.742155
O O5 0.500000 0.139903 0.930573
O O6 0.253116 0.209372 0.937509
O O7 0.282136 0.098314 0.027977
O O8 0.697862 0.064825 0.304283
O O9 0.500000 0.000000 0.397351
O O10 0.813410 0.000000 0.425751
O O11 0.240433 0.185729 0.530586
O O12 0.220271 0.181032 0.350321
O O13 0.000000 0.219228 0.453523
O O14 0.500000 0.421571 0.567187
O O15 0.291116 0.500000 0.631658
O O16 0.314898 0.373146 0.684983
O O17 0.770607 0.561343 0.057391
O O18 0.000000 0.640950 0.073415
O O19 0.000000 0.000000 0.561060
O O20 0.000000 0.098013 0.313822
#
# Coordination Sequence:
#
# PCOD8189730 Si02
#       8
#     8   8   4   8   8   8   4   8
#     4   9  18  35  60  87 113 143 191 249 295 337
#     4  10  22  40  60  83 114 157 202 241 288 347
#     4  12  22  32  54  89 120 147 192 241 288 342
#     4  10  22  38  57  84 119 159 197 230 285 362
#     4  10  21  38  61  89 116 147 195 247 296 349
#     4  11  21  35  59  89 117 147 193 246 292 343
#     4  12  22  34  54  83 122 159 188 229 296 356
#     4  10  20  37  59  82 117 158 192 233 293 353
#
# _framework density 20.313409
#
# number of rings (size 3 to 8) (size 9 to 14) (size 15 to 20)
#    0.000    1.714    2.857    2.143    0.000    3.143 
#    0.000    4.286    0.000    0.000    0.000    0.000 
#    0.000    0.000    0.000    0.000    0.000    0.000 
#
# Total GULP energy -346881.386104 kJ/mol
# GULP energy per Si atom -12388.620932 kJ/mol
# Density = 2.026717 g / cm^3
# Si number density = 20.313409 Si / 1000 Ang^3
#
#
#
# Elastic Constant Matrix: (Units=GPa)
#
#
# Indices 1 2 3 4 5 6 
#
# 1 22.5314 12.8304 17.4338 0.0000 0.0000 0.0000
# 2 12.8304 103.5104 48.4242 0.0000 0.0000 0.0000
# 3 17.4338 48.4242 135.8640 -0.0001 0.0000 0.0000
# 4 0.0000 0.0000 -0.0001 25.0666 0.0000 0.0000
# 5 0.0000 0.0000 0.0000 0.0000 29.6930 0.0000
# 6 0.0000 0.0000 0.0000 0.0000 0.0000 23.8233
#
#
#
# Elastic Compliance Matrix: (Units=1/GPa)
#
#
# Indices 1 2 3 4 5 6 
#
# 1 0.050539 -0.003877 -0.005103 0.000000 0.000000 0.000000
# 2 -0.003877 0.011891 -0.003741 0.000000 0.000000 0.000000
# 3 -0.005103 -0.003741 0.009348 0.000000 0.000000 0.000000
# 4 0.000000 0.000000 0.000000 0.039894 0.000000 0.000000
# 5 0.000000 0.000000 0.000000 0.000000 0.033678 0.000000
# 6 0.000000 0.000000 0.000000 0.000000 0.000000 0.041976
#
#
# Mechanical properties :
#
#
# Convention : Reuss Voigt Hill
#
# Bulk Modulus (GPa) = 21.58123 46.58697 34.08410
# Shear Modulus (GPa) = 21.90929 27.93109 24.92019
#
# Velocity S-wave (km/s) = 3.28771 3.71213 3.50635
# Velocity P-wave (km/s) = 5.00592 6.43095 5.76265
#
# Compressibility (1/GPa) = 0.04633656
#
# Stress axis : x y z
#
# Youngs Moduli (GPa) = 19.78677 84.09388 106.96982
#
# Poissons Ratio (x) = 0.32604 0.54589
# Poissons Ratio (y) = 0.07671 0.40016
# Poissons Ratio (z) = 0.10098 0.31458
#
# Static dielectric constant tensor:
#      x y z
#    x 3.371570 0.000000 0.000000 
#    y 0.000000 3.787800 0.000000 
#    z 0.000000 0.000000 4.022260 
# 
# 
# High freq. dielectric constant tensor:
#      x y z
#    x 1.768020 0.000000 0.000000 
#    y 0.000000 1.783040 0.000000 
#    z 0.000000 0.000000 1.805490 
# 
# From -- ./inp_files/16564.got.cif
#   From: 2010.03.12/outbox.cif.g09.slc.cpg/sg44_9_cif.got.tgz:16564.got - 2010.04.14 02:36:11.
