data_PCOD8189733
_publ_section_title
;
Structure prediction by ZEFSAII (Michael W. Deem and Ramdas Pophale) SiO2 
 PCOD8189733
Probable space group: I M M 2
;
_chemical_formula_sum "Si O2"
_cell_formula_units_Z 48
_cell_length_a 20.202859
_cell_length_b 8.935831
_cell_length_c 14.367282
_cell_angle_alpha 90.000000
_cell_angle_beta 90.000000
_cell_angle_gamma 90.000000
_cell_volume 2593.715847
_symmetry_space_group_name_H-M "I M M 2"
_symmetry_group_IT_number 44
_symmetry_cell_setting 'orthorhombic'
loop_
_space_group_symop_operation_xyz
x,y,z
-x,-y,z
-x,y,z
x,-y,z
1/2+x,1/2+y,1/2+z
1/2-x,1/2-y,1/2+z
1/2-x,1/2+y,1/2+z
1/2+x,1/2-y,1/2+z
loop_
_atom_site_type_symbol
_atom_site_label
_atom_site_fract_x
_atom_site_fract_y
_atom_site_fract_z
Si Si1 0.374676 0.823340 0.748400
Si Si2 0.075300 0.828799 0.067499
Si Si3 0.575239 0.328330 0.929813
Si Si4 0.732673 0.174613 0.248426
Si Si5 0.687951 0.325380 0.426957
Si Si6 0.316660 0.826764 0.045747
O O1 0.412790 0.774168 0.656220
O O2 0.415082 0.765864 0.836565
O O3 0.300874 0.762433 0.750904
O O4 0.371414 0.000000 0.752828
O O5 0.000000 0.810602 0.033428
O O6 0.091478 0.000000 0.095937
O O7 0.122464 0.778776 0.983370
O O8 0.500000 0.309687 0.964028
O O9 0.592435 0.500000 0.907785
O O10 0.621804 0.270996 0.012411
O O11 0.686812 0.229352 0.332880
O O12 0.694485 0.210648 0.153508
O O13 0.748396 0.000000 0.257434
O O14 0.687915 0.500000 0.401643
O O15 0.751531 0.281883 0.488222
O O16 0.333582 0.000000 0.030080
#
# Coordination Sequence:
#
# PCOD8189733 Si02
#       6
#     8   8   8   8   8   8
#     4  12  23  35  57  88 121 153 187 237 291 342
#     4  10  21  39  61  84 117 158 193 232 285 343
#     4  11  24  40  59  85 117 153 193 237 287 345
#     4  11  22  38  60  87 117 151 193 238 285 340
#     4  10  20  37  59  87 118 150 193 238 283 337
#     4  10  21  38  60  85 116 152 191 238 287 337
#
# _framework density 18.506269
#
# number of rings (size 3 to 8) (size 9 to 14) (size 15 to 20)
#    0.000    1.333    3.333    3.000    0.000    5.667 
#    0.000    0.833    0.000    3.000    0.000    0.000 
#    0.000    0.000    0.000    0.000    0.000    0.000 
#
# Total GULP energy -297740.599693 kJ/mol
# GULP energy per Si atom -12405.858321 kJ/mol
# Density = 1.846415 g / cm^3
# Si number density = 18.506269 Si / 1000 Ang^3
#
#
#
# Elastic Constant Matrix: (Units=GPa)
#
#
# Indices 1 2 3 4 5 6 
#
# 1 123.3966 52.8819 62.0532 0.0000 0.0000 0.0000
# 2 52.8819 104.5361 63.8706 0.0000 0.0000 0.0000
# 3 62.0532 63.8706 137.7542 0.0000 0.0000 0.0000
# 4 0.0000 0.0000 0.0000 35.4799 0.0000 0.0000
# 5 0.0000 0.0000 0.0000 0.0000 46.5783 0.0000
# 6 0.0000 0.0000 0.0000 0.0000 0.0000 27.5593
#
#
#
# Elastic Compliance Matrix: (Units=1/GPa)
#
#
# Indices 1 2 3 4 5 6 
#
# 1 0.011404 -0.003670 -0.003436 0.000000 0.000000 0.000000
# 2 -0.003670 0.014528 -0.005083 0.000000 0.000000 0.000000
# 3 -0.003436 -0.005083 0.011164 0.000000 0.000000 0.000000
# 4 0.000000 0.000000 0.000000 0.028185 0.000000 0.000000
# 5 0.000000 0.000000 0.000000 0.000000 0.021469 0.000000
# 6 0.000000 0.000000 0.000000 0.000000 0.000000 0.036285
#
#
# Mechanical properties :
#
#
# Convention : Reuss Voigt Hill
#
# Bulk Modulus (GPa) = 78.62137 80.36647 79.49392
# Shear Modulus (GPa) = 32.97001 34.38223 33.67612
#
# Velocity S-wave (km/s) = 4.22543 4.31498 4.27044
# Velocity P-wave (km/s) = 8.14749 8.26718 8.20755
#
# Compressibility (1/GPa) = 0.01271919
#
# Stress axis : x y z
#
# Youngs Moduli (GPa) = 87.68491 68.83142 89.57641
#
# Poissons Ratio (x) = 0.25261 0.30775
# Poissons Ratio (y) = 0.32181 0.45531
# Poissons Ratio (z) = 0.30126 0.34986
#
# Static dielectric constant tensor:
#      x y z
#    x 3.403100 0.000000 0.000000 
#    y 0.000000 3.461010 0.000000 
#    z 0.000000 0.000000 3.507180 
# 
# 
# High freq. dielectric constant tensor:
#      x y z
#    x 1.717320 0.000000 0.000000 
#    y 0.000000 1.722050 0.000000 
#    z 0.000000 0.000000 1.718900 
# 
# From -- ./inp_files/16070.got.cif
#   From: 2010.03.12/outbox.cif.g09.slc.cpg/sg44_9_cif.got.tgz:16070.got - 2010.04.14 02:36:11.
