data_PCOD8189005
_publ_section_title
;
Structure prediction by ZEFSAII (Michael W. Deem and Ramdas Pophale) SiO2 
 PCOD8189005
Probable space group: I M M 2
;
_chemical_formula_sum "Si O2"
_cell_formula_units_Z 64
_cell_length_a 9.556859
_cell_length_b 30.382205
_cell_length_c 11.854736
_cell_angle_alpha 90.000000
_cell_angle_beta 90.000000
_cell_angle_gamma 90.000000
_cell_volume 3442.122762
_symmetry_space_group_name_H-M "I M M 2"
_symmetry_group_IT_number 44
_symmetry_cell_setting 'orthorhombic'
loop_
_space_group_symop_operation_xyz
x,y,z
-x,-y,z
-x,y,z
x,-y,z
1/2+x,1/2+y,1/2+z
1/2-x,1/2-y,1/2+z
1/2-x,1/2+y,1/2+z
1/2+x,1/2-y,1/2+z
loop_
_atom_site_type_symbol
_atom_site_label
_atom_site_fract_x
_atom_site_fract_y
_atom_site_fract_z
Si Si1 0.335795 0.622544 0.478820
Si Si2 0.159204 0.451176 0.598139
Si Si3 0.160079 0.672392 0.834285
Si Si4 0.838780 0.796943 0.133881
Si Si5 0.658830 0.928834 0.344244
Si Si6 0.837916 0.302954 0.081959
Si Si7 0.837900 0.049535 0.560621
Si Si8 0.335231 0.370648 0.219407
O O1 0.500000 0.614719 0.490673
O O2 0.261668 0.581006 0.533670
O O3 0.289051 0.667461 0.541104
O O4 0.290444 0.624787 0.348952
O O5 0.176974 0.500000 0.546480
O O6 0.195836 0.455074 0.730893
O O7 0.000000 0.434055 0.583971
O O8 0.251783 0.700074 0.748103
O O9 0.181823 0.621445 0.809451
O O10 0.000000 0.687592 0.820120
O O11 0.213275 0.681351 0.960034
O O12 0.811627 0.748932 0.084333
O O13 0.000000 0.804577 0.164878
O O14 0.500000 0.937353 0.384534
O O15 0.757694 0.944111 0.444117
O O16 0.745232 0.328153 0.173395
O O17 0.000000 0.314929 0.103355
O O18 0.788013 0.084921 0.653866
O O19 0.000000 0.056717 0.533204
O O20 0.810254 0.000000 0.606931
O O21 0.500000 0.362203 0.206791
#
# Coordination Sequence:
#
# PCOD8189005 Si02
#       8
#     8   8   8   8   8   8   8   8
#     4  10  22  39  58  81 111 149 189 231 277 329
#     4  10  21  37  57  83 114 146 184 231 279 330
#     4  10  20  36  61  86 112 147 184 226 279 333
#     4  10  22  38  57  83 115 147 185 232 278 327
#     4  10  19  35  58  84 113 146 182 224 278 334
#     4  10  22  39  58  84 116 148 185 232 279 328
#     4  10  21  36  55  82 114 146 184 231 278 328
#     4  10  22  39  59  82 111 149 190 231 277 330
#
# _framework density 18.593178000000002
#
# number of rings (size 3 to 8) (size 9 to 14) (size 15 to 20)
#    0.000    2.000    2.500    0.375    1.750    4.000 
#    0.000    1.250    0.000    0.000    0.000    0.000 
#    0.000    0.000    0.000    0.000    0.000    0.000 
#
# Total GULP energy -396875.750668 kJ/mol
# GULP energy per Si atom -12402.367208 kJ/mol
# Density = 1.855086 g / cm^3
# Si number density = 18.593178 Si / 1000 Ang^3
#
#
#
# Elastic Constant Matrix: (Units=GPa)
#
#
# Indices 1 2 3 4 5 6 
#
# 1 49.0198 38.3371 45.3449 -0.0002 0.0000 -0.0001
# 2 38.3371 100.5048 47.5729 -0.0001 -0.0001 -0.0001
# 3 45.3449 47.5729 106.4965 -0.0007 -0.0004 -0.0002
# 4 -0.0002 -0.0001 -0.0007 20.6639 0.0000 -0.0002
# 5 0.0000 -0.0001 -0.0004 0.0000 30.3997 0.0000
# 6 -0.0001 -0.0001 -0.0002 -0.0002 0.0000 22.3355
#
#
#
# Elastic Compliance Matrix: (Units=1/GPa)
#
#
# Indices 1 2 3 4 5 6 
#
# 1 0.039082 -0.008916 -0.012658 0.000000 0.000000 0.000000
# 2 -0.008916 0.014652 -0.002749 0.000000 0.000000 0.000000
# 3 -0.012658 -0.002749 0.016007 0.000000 0.000000 0.000000
# 4 0.000000 0.000000 0.000000 0.048394 0.000000 0.000000
# 5 0.000000 0.000000 0.000000 0.000000 0.032895 0.000000
# 6 0.000000 0.000000 0.000000 0.000000 0.000000 0.044772
#
#
# Mechanical properties :
#
#
# Convention : Reuss Voigt Hill
#
# Bulk Modulus (GPa) = 47.40250 57.61453 52.50852
# Shear Modulus (GPa) = 19.88242 22.99756 21.43999
#
# Velocity S-wave (km/s) = 3.27362 3.52075 3.39943
# Velocity P-wave (km/s) = 6.31179 6.89795 6.61137
#
# Compressibility (1/GPa) = 0.02109593
#
# Stress axis : x y z
#
# Youngs Moduli (GPa) = 25.58736 68.25058 62.47148
#
# Poissons Ratio (x) = 0.60854 0.79074
# Poissons Ratio (y) = 0.22814 0.17172
# Poissons Ratio (z) = 0.32387 0.18760
#
# Static dielectric constant tensor:
#      x y z
#    x 3.377960 0.000000 0.000000 
#    y 0.000000 3.548330 0.000000 
#    z 0.000000 0.000000 3.380320 
# 
# 
# High freq. dielectric constant tensor:
#      x y z
#    x 1.714310 0.000000 0.000000 
#    y 0.000000 1.734310 0.000000 
#    z 0.000000 0.000000 1.720650 
# 
# From -- ./inp_files/11447.got.cif
#   From: 2010.03.12/outbox.cif.g09.slc.cpg/sg44_6_cif.got.tgz:11447.got - 2010.04.14 02:36:11.
