data_PCOD8189826
_publ_section_title
;
Structure prediction by ZEFSAII (Michael W. Deem and Ramdas Pophale) SiO2 
 PCOD8189826
Probable space group: I M M 2
;
_chemical_formula_sum "Si O2"
_cell_formula_units_Z 52
_cell_length_a 14.039969
_cell_length_b 23.500901
_cell_length_c 7.636495
_cell_angle_alpha 90.000000
_cell_angle_beta 90.000000
_cell_angle_gamma 90.000000
_cell_volume 2519.676199
_symmetry_space_group_name_H-M "I M M 2"
_symmetry_group_IT_number 44
_symmetry_cell_setting 'orthorhombic'
loop_
_space_group_symop_operation_xyz
x,y,z
-x,-y,z
-x,y,z
x,-y,z
1/2+x,1/2+y,1/2+z
1/2-x,1/2-y,1/2+z
1/2-x,1/2+y,1/2+z
1/2+x,1/2-y,1/2+z
loop_
_atom_site_type_symbol
_atom_site_label
_atom_site_fract_x
_atom_site_fract_y
_atom_site_fract_z
Si Si1 0.107269 0.500000 0.341830
Si Si2 0.770649 0.812395 0.486610
Si Si3 0.110350 0.126610 0.183136
Si Si4 0.608547 0.114819 0.380483
Si Si5 0.779264 0.813961 0.874547
Si Si6 0.391378 0.500000 0.793769
Si Si7 0.394579 0.120654 0.981658
Si Si8 0.799135 0.500000 0.979324
O O1 0.124131 0.446402 0.465850
O O2 0.183591 0.500000 0.186306
O O3 0.000000 0.500000 0.262138
O O4 0.837299 0.844316 0.347353
O O5 0.669528 0.844237 0.504051
O O6 0.821680 0.813586 0.677199
O O7 0.744720 0.748838 0.436309
O O8 0.125239 0.057864 0.180510
O O9 0.000000 0.142380 0.198566
O O10 0.149081 0.152950 0.002601
O O11 0.500000 0.114455 0.447477
O O12 0.617622 0.138175 0.183444
O O13 0.651954 0.052592 0.385654
O O14 0.678918 0.845936 0.863077
O O15 0.500000 0.500000 0.868813
O O16 0.315479 0.500000 0.952369
O O17 0.500000 0.136612 0.914905
#
# Coordination Sequence:
#
# PCOD8189826 Si02
#       8
#     4   8   8   8   8   4   8   4
#     4  10  21  34  55  95 134 172 215 269 339 410
#     4  12  24  44  69  98 137 177 223 282 342 418
#     4  11  25  48  71 100 138 185 236 294 345 402
#     4  11  22  38  63  96 130 171 216 266 338 408
#     4  12  24  43  70  98 135 176 229 277 345 410
#     4  10  22  43  72  95 131 184 238 285 346 402
#     4  10  21  38  60  91 132 173 217 268 331 402
#     4  12  19  35  61  92 131 168 217 276 333 388
#
# _framework density 20.637574000000001
#
# number of rings (size 3 to 8) (size 9 to 14) (size 15 to 20)
#    0.000    0.923    4.615    2.077    0.000    5.538 
#    0.000    1.538    0.000    2.769    0.000    0.000 
#    0.000    0.000    0.000    0.000    0.000    0.000 
#
# Total GULP energy -322373.924612 kJ/mol
# GULP energy per Si atom -12398.997100 kJ/mol
# Density = 2.059060 g / cm^3
# Si number density = 20.637574 Si / 1000 Ang^3
#
#
#
# Elastic Constant Matrix: (Units=GPa)
#
#
# Indices 1 2 3 4 5 6 
#
# 1 136.9464 57.2825 45.5413 0.0070 -0.0028 -0.0015
# 2 57.2825 144.4874 35.8907 0.0012 -0.0020 -0.0006
# 3 45.5413 35.8907 129.3957 -0.0054 0.0001 0.0041
# 4 0.0070 0.0012 -0.0054 25.8901 0.0002 0.0015
# 5 -0.0028 -0.0020 0.0001 0.0002 23.2238 0.0028
# 6 -0.0015 -0.0006 0.0041 0.0015 0.0028 14.8069
#
#
#
# Elastic Compliance Matrix: (Units=1/GPa)
#
#
# Indices 1 2 3 4 5 6 
#
# 1 0.009425 -0.003128 -0.002450 -0.000003 0.000001 0.000001
# 2 -0.003128 0.008471 -0.001249 0.000000 0.000000 0.000000
# 3 -0.002450 -0.001249 0.008937 0.000003 0.000000 -0.000003
# 4 -0.000003 0.000000 0.000003 0.038625 0.000000 -0.000004
# 5 0.000001 0.000000 0.000000 0.000000 0.043059 -0.000008
# 6 0.000001 0.000000 -0.000003 -0.000004 -0.000008 0.067536
#
#
# Mechanical properties :
#
#
# Convention : Reuss Voigt Hill
#
# Bulk Modulus (GPa) = 75.87063 76.47317 76.17190
# Shear Modulus (GPa) = 25.75992 30.92515 28.34253
#
# Velocity S-wave (km/s) = 3.53683 3.87523 3.70989
# Velocity P-wave (km/s) = 7.31587 7.56035 7.43912
#
# Compressibility (1/GPa) = 0.01318033
#
# Stress axis : x y z
#
# Youngs Moduli (GPa) = 106.09858 118.04442 111.89772
#
# Poissons Ratio (x) = 0.36926 0.27410
# Poissons Ratio (y) = 0.33190 0.13973
# Poissons Ratio (z) = 0.25990 0.14741
#
# Static dielectric constant tensor:
#      x y z
#    x 3.923010 0.000000 0.000000 
#    y 0.000000 3.859040 0.000000 
#    z 0.000000 0.000000 3.677040 
# 
# 
# High freq. dielectric constant tensor:
#      x y z
#    x 1.807730 0.000000 0.000000 
#    y 0.000000 1.820410 0.000000 
#    z 0.000000 0.000000 1.804050 
# 
# From -- ./inp_files/7364.got.cif
#   From: 2010.03.12/outbox.cif.g09.slc.cpg/sg44_4_cif.got.tgz:7364.got - 2010.04.14 02:36:11.
