data_PCOD8189362
_publ_section_title
;
Structure prediction by ZEFSAII (Michael W. Deem and Ramdas Pophale) SiO2 
 PCOD8189362
Probable space group: I M M 2
;
_chemical_formula_sum "Si O2"
_cell_formula_units_Z 56
_cell_length_a 9.383567
_cell_length_b 17.312607
_cell_length_c 17.835656
_cell_angle_alpha 90.000000
_cell_angle_beta 90.000000
_cell_angle_gamma 90.000000
_cell_volume 2897.473798
_symmetry_space_group_name_H-M "I M M 2"
_symmetry_group_IT_number 44
_symmetry_cell_setting 'orthorhombic'
loop_
_space_group_symop_operation_xyz
x,y,z
-x,-y,z
-x,y,z
x,-y,z
1/2+x,1/2+y,1/2+z
1/2-x,1/2-y,1/2+z
1/2-x,1/2+y,1/2+z
1/2+x,1/2-y,1/2+z
loop_
_atom_site_type_symbol
_atom_site_label
_atom_site_fract_x
_atom_site_fract_y
_atom_site_fract_z
Si Si1 0.161197 0.408737 0.307250
Si Si2 0.333586 0.655223 0.708928
Si Si3 0.668098 0.173728 0.661244
Si Si4 0.664166 0.411170 0.867307
Si Si5 0.342393 0.088968 0.083944
Si Si6 0.339750 0.592266 0.447625
Si Si7 0.832860 0.410480 0.013924
O O1 0.161224 0.500000 0.304808
O O2 0.226386 0.378275 0.229387
O O3 0.260821 0.377219 0.373498
O O4 0.000000 0.377628 0.320427
O O5 0.500000 0.638522 0.694101
O O6 0.286493 0.738897 0.678618
O O7 0.298472 0.643591 0.796646
O O8 0.238506 0.595260 0.662825
O O9 0.500000 0.164494 0.658300
O O10 0.728842 0.141630 0.582356
O O11 0.500000 0.402263 0.889929
O O12 0.699245 0.500000 0.846035
O O13 0.756690 0.383144 0.937806
O O14 0.500000 0.127722 0.086659
O O15 0.361998 0.000000 0.064306
O O16 0.245983 0.126989 0.018575
O O17 0.500000 0.625790 0.449576
O O18 0.343625 0.500000 0.449602
O O19 0.798420 0.500000 0.031579
O O20 0.000000 0.397442 0.002518
#
# Coordination Sequence:
#
# PCOD8189362 Si02
#       7
#     8   8   8   8   8   8   8
#     4   9  16  29  51  75 101 136 177 218 255 296
#     4  10  20  35  53  74 105 140 172 210 262 320
#     4   9  18  33  52  76 106 138 174 213 260 317
#     4   9  18  33  53  76 101 133 174 217 263 315
#     4  10  20  34  53  76 101 131 171 217 259 303
#     4   9  17  30  49  74 102 131 166 206 250 301
#     4   9  17  32  56  81 103 133 176 223 265 306
#
# _framework density 19.327181
#
# number of rings (size 3 to 8) (size 9 to 14) (size 15 to 20)
#    0.000    2.714    0.000    1.714    0.000    5.429 
#    2.571    3.571    0.000    3.429    0.000    0.000 
#    0.000    0.000    0.000    0.000    0.000    0.000 
#
# Total GULP energy -347143.235356 kJ/mol
# GULP energy per Si atom -12397.972691 kJ/mol
# Density = 1.928319 g / cm^3
# Si number density = 19.327181 Si / 1000 Ang^3
#
#
#
# Elastic Constant Matrix: (Units=GPa)
#
#
# Indices 1 2 3 4 5 6 
#
# 1 99.8149 25.2726 76.8128 0.0000 0.0000 0.0000
# 2 25.2726 43.9566 46.2720 0.0000 0.0000 0.0000
# 3 76.8128 46.2720 176.5662 0.0000 0.0000 0.0000
# 4 0.0000 0.0000 0.0000 21.3090 0.0000 0.0000
# 5 0.0000 0.0000 0.0000 0.0000 34.2688 0.0000
# 6 0.0000 0.0000 0.0000 0.0000 0.0000 13.3427
#
#
#
# Elastic Compliance Matrix: (Units=1/GPa)
#
#
# Indices 1 2 3 4 5 6 
#
# 1 0.015251 -0.002464 -0.005989 0.000000 0.000000 0.000000
# 2 -0.002464 0.031815 -0.007266 0.000000 0.000000 0.000000
# 3 -0.005989 -0.007266 0.010173 0.000000 0.000000 0.000000
# 4 0.000000 0.000000 0.000000 0.046928 0.000000 0.000000
# 5 0.000000 0.000000 0.000000 0.000000 0.029181 0.000000
# 6 0.000000 0.000000 0.000000 0.000000 0.000000 0.074947
#
#
# Mechanical properties :
#
#
# Convention : Reuss Voigt Hill
#
# Bulk Modulus (GPa) = 38.75719 68.56137 53.65928
# Shear Modulus (GPa) = 20.13416 25.24947 22.69181
#
# Velocity S-wave (km/s) = 3.23112 3.61837 3.43021
# Velocity P-wave (km/s) = 5.83240 7.28065 6.59639
#
# Compressibility (1/GPa) = 0.02580166
#
# Stress axis : x y z
#
# Youngs Moduli (GPa) = 65.56768 31.43194 98.29759
#
# Poissons Ratio (x) = 0.07745 0.58872
# Poissons Ratio (y) = 0.16156 0.71419
# Poissons Ratio (z) = 0.39270 0.22837
#
# Static dielectric constant tensor:
#      x y z
#    x 3.499680 0.000000 0.000000 
#    y 0.000000 3.244430 0.000000 
#    z 0.000000 0.000000 3.693300 
# 
# 
# High freq. dielectric constant tensor:
#      x y z
#    x 1.735320 0.000000 0.000000 
#    y 0.000000 1.720580 0.000000 
#    z 0.000000 0.000000 1.764830 
# 
# From -- ./inp_files/20652.got.cif
#   From: 2010.03.12/outbox.cif.g09.slc.cpg/sg44_11_cif.got.tgz:20652.got - 2010.04.14 02:36:11.
