data_PCOD8189896
_publ_section_title
;
Structure prediction by ZEFSAII (Michael W. Deem and Ramdas Pophale) SiO2 
 PCOD8189896
Probable space group: I M M 2
;
_chemical_formula_sum "Si O2"
_cell_formula_units_Z 64
_cell_length_a 27.390318
_cell_length_b 8.924529
_cell_length_c 14.502215
_cell_angle_alpha 90.000000
_cell_angle_beta 90.000000
_cell_angle_gamma 90.000000
_cell_volume 3545.003913
_symmetry_space_group_name_H-M "I M M 2"
_symmetry_group_IT_number 44
_symmetry_cell_setting 'orthorhombic'
loop_
_space_group_symop_operation_xyz
x,y,z
-x,-y,z
-x,y,z
x,-y,z
1/2+x,1/2+y,1/2+z
1/2-x,1/2-y,1/2+z
1/2-x,1/2+y,1/2+z
1/2+x,1/2-y,1/2+z
loop_
_atom_site_type_symbol
_atom_site_label
_atom_site_fract_x
_atom_site_fract_y
_atom_site_fract_z
Si Si1 0.858429 0.326025 0.401490
Si Si2 0.944677 0.327154 0.533919
Si Si3 0.631381 0.175563 0.351849
Si Si4 0.283656 0.172848 0.212724
Si Si5 0.328181 0.671895 0.728402
Si Si6 0.278579 0.676635 0.024297
Si Si7 0.942811 0.827139 0.721086
Si Si8 0.675423 0.675860 0.518978
O O1 0.844835 0.500000 0.410952
O O2 0.911024 0.291352 0.446182
O O3 0.860390 0.277926 0.294306
O O4 0.817701 0.225340 0.449188
O O5 0.940681 0.500000 0.563469
O O6 0.926204 0.231309 0.620884
O O7 0.000000 0.284168 0.506368
O O8 0.679709 0.216289 0.293973
O O9 0.583652 0.235111 0.300803
O O10 0.635085 0.256385 0.450574
O O11 0.625969 0.000000 0.367750
O O12 0.228957 0.205169 0.246765
O O13 0.297196 0.272706 0.124622
O O14 0.289286 0.000000 0.182450
O O15 0.340519 0.500000 0.750573
O O16 0.341636 0.711326 0.623087
O O17 0.272054 0.500000 0.021142
O O18 0.227298 0.749939 0.998263
O O19 0.000000 0.800319 0.734857
O O20 0.928155 0.000000 0.728694
O O21 0.681000 0.500000 0.503155
#
# Coordination Sequence:
#
# PCOD8189896 Si02
#       8
#     8   8   8   8   8   8   8   8
#     4  11  21  32  51  76 101 133 172 212 255 305
#     4   9  19  36  55  76 104 135 167 208 259 310
#     4  11  21  33  54  80 105 135 172 212 256 308
#     4   9  19  34  49  71 104 137 168 205 250 300
#     4   9  19  35  52  71 100 136 171 210 253 296
#     4  11  21  32  49  74 105 138 171 208 250 301
#     4  10  21  36  54  78 107 137 170 209 254 305
#     4  10  21  37  54  72 100 136 173 214 255 296
#
# _framework density 18.053576
#
# number of rings (size 3 to 8) (size 9 to 14) (size 15 to 20)
#    0.000    2.000    0.000    4.875    0.000    9.250 
#    0.000    0.000    0.000    0.750    0.000    3.500 
#    0.000    0.000    0.000    0.000    0.000    0.000 
#
# Total GULP energy -396939.807724 kJ/mol
# GULP energy per Si atom -12404.368991 kJ/mol
# Density = 1.801249 g / cm^3
# Si number density = 18.053576 Si / 1000 Ang^3
#
#
#
# Elastic Constant Matrix: (Units=GPa)
#
#
# Indices 1 2 3 4 5 6 
#
# 1 63.0329 41.9410 57.8705 0.0000 0.0000 0.0000
# 2 41.9410 99.4976 60.4209 0.0000 0.0000 0.0000
# 3 57.8705 60.4209 118.5423 0.0000 0.0000 0.0000
# 4 0.0000 0.0000 0.0000 35.6476 0.0000 0.0000
# 5 0.0000 0.0000 0.0000 0.0000 28.5048 0.0000
# 6 0.0000 0.0000 0.0000 0.0000 0.0000 23.2895
#
#
#
# Elastic Compliance Matrix: (Units=1/GPa)
#
#
# Indices 1 2 3 4 5 6 
#
# 1 0.030743 -0.005569 -0.012170 0.000000 0.000000 0.000000
# 2 -0.005569 0.015565 -0.005215 0.000000 0.000000 0.000000
# 3 -0.012170 -0.005215 0.017035 0.000000 0.000000 0.000000
# 4 0.000000 0.000000 0.000000 0.028052 0.000000 0.000000
# 5 0.000000 0.000000 0.000000 0.000000 0.035082 0.000000
# 6 0.000000 0.000000 0.000000 0.000000 0.000000 0.042938
#
#
# Mechanical properties :
#
#
# Convention : Reuss Voigt Hill
#
# Bulk Modulus (GPa) = 57.35288 66.83751 62.09519
# Shear Modulus (GPa) = 22.61077 25.54443 24.07760
#
# Velocity S-wave (km/s) = 3.54280 3.76563 3.65591
# Velocity P-wave (km/s) = 6.96939 7.48390 7.23122
#
# Compressibility (1/GPa) = 0.01743592
#
# Stress axis : x y z
#
# Youngs Moduli (GPa) = 32.52731 64.24864 58.70301
#
# Poissons Ratio (x) = 0.35779 0.71442
# Poissons Ratio (y) = 0.18114 0.30611
# Poissons Ratio (z) = 0.39586 0.33503
#
# Static dielectric constant tensor:
#      x y z
#    x 3.201840 0.000000 0.000000 
#    y 0.000000 3.398220 0.000000 
#    z 0.000000 0.000000 3.420160 
# 
# 
# High freq. dielectric constant tensor:
#      x y z
#    x 1.676280 0.000000 0.000000 
#    y 0.000000 1.708220 0.000000 
#    z 0.000000 0.000000 1.699910 
# 
# From -- ./inp_files/16797.got.cif
#   From: 2010.03.12/outbox.cif.g09.slc.cpg/sg44_9_cif.got.tgz:16797.got - 2010.04.14 02:36:11.
