data_PCOD8189765
_publ_section_title
;
Structure prediction by ZEFSAII (Michael W. Deem and Ramdas Pophale) SiO2 
 PCOD8189765
Probable space group: I M M 2
;
_chemical_formula_sum "Si O2"
_cell_formula_units_Z 48
_cell_length_a 7.857496
_cell_length_b 8.997951
_cell_length_c 34.611408
_cell_angle_alpha 90.000000
_cell_angle_beta 90.000000
_cell_angle_gamma 90.000000
_cell_volume 2447.073755
_symmetry_space_group_name_H-M "I M M 2"
_symmetry_group_IT_number 44
_symmetry_cell_setting 'orthorhombic'
loop_
_space_group_symop_operation_xyz
x,y,z
-x,-y,z
-x,y,z
x,-y,z
1/2+x,1/2+y,1/2+z
1/2-x,1/2-y,1/2+z
1/2-x,1/2+y,1/2+z
1/2+x,1/2-y,1/2+z
loop_
_atom_site_type_symbol
_atom_site_label
_atom_site_fract_x
_atom_site_fract_y
_atom_site_fract_z
Si Si1 0.299927 0.165731 0.833710
Si Si2 0.197847 0.166525 0.752767
Si Si3 0.693089 0.171066 0.672915
Si Si4 0.306252 0.326018 0.910191
Si Si5 0.308624 0.325077 0.092101
Si Si6 0.000000 0.176432 0.047829
Si Si7 0.000000 0.674658 0.966090
O O1 0.500000 0.159119 0.835273
O O2 0.244245 0.246247 0.793414
O O3 0.234513 0.256681 0.870524
O O4 0.220110 0.000000 0.835943
O O5 0.272423 0.250083 0.714512
O O6 0.000000 0.162102 0.746484
O O7 0.276350 0.000000 0.755783
O O8 0.500000 0.193587 0.660282
O O9 0.801467 0.232202 0.636713
O O10 0.743103 0.000000 0.679369
O O11 0.500000 0.271617 0.920554
O O12 0.307098 0.500000 0.903596
O O13 0.172684 0.281873 0.943374
O O14 0.500000 0.294975 0.076465
O O15 0.263639 0.500000 0.090197
O O16 0.172344 0.237478 0.066881
O O17 0.000000 0.000000 0.051178
O O18 0.000000 0.225624 0.003752
O O19 0.000000 0.500000 0.976507
#
# Coordination Sequence:
#
# PCOD8189765 Si02
#       7
#     8   8   8   8   8   4   4
#     4   9  17  29  46  71 105 143 181 222 274 331
#     4   9  16  24  38  69 109 144 180 227 279 327
#     4   9  15  26  48  77 110 144 185 237 286 328
#     4   9  19  36  57  80 106 139 179 226 280 333
#     4  10  20  37  63  90 116 152 199 247 292 344
#     4  12  26  42  60  88 124 156 188 236 300 370
#     4  10  22  40  62  84 108 140 188 240 282 340
#
# _framework density 19.615262999999999
#
# number of rings (size 3 to 8) (size 9 to 14) (size 15 to 20)
#    0.000    2.500    0.833    1.750    1.167    5.667 
#    0.000    1.667    0.000    1.000    0.000    0.000 
#    0.000    0.000    0.000    0.000    0.000    0.000 
#
# Total GULP energy -297400.765002 kJ/mol
# GULP energy per Si atom -12391.698542 kJ/mol
# Density = 1.957062 g / cm^3
# Si number density = 19.615263 Si / 1000 Ang^3
#
#
#
# Elastic Constant Matrix: (Units=GPa)
#
#
# Indices 1 2 3 4 5 6 
#
# 1 103.0210 37.0803 71.1469 0.0000 0.0000 0.0000
# 2 37.0803 45.5192 51.5146 0.0000 0.0000 0.0000
# 3 71.1469 51.5146 165.8079 0.0000 0.0000 0.0000
# 4 0.0000 0.0000 0.0000 18.7582 0.0000 0.0000
# 5 0.0000 0.0000 0.0000 0.0000 24.2511 0.0000
# 6 0.0000 0.0000 0.0000 0.0000 0.0000 14.4395
#
#
#
# Elastic Compliance Matrix: (Units=1/GPa)
#
#
# Indices 1 2 3 4 5 6 
#
# 1 0.015410 -0.007819 -0.004183 0.000000 0.000000 0.000000
# 2 -0.007819 0.037850 -0.008404 0.000000 0.000000 0.000000
# 3 -0.004183 -0.008404 0.010437 0.000000 0.000000 0.000000
# 4 0.000000 0.000000 0.000000 0.053310 0.000000 0.000000
# 5 0.000000 0.000000 0.000000 0.000000 0.041235 0.000000
# 6 0.000000 0.000000 0.000000 0.000000 0.000000 0.069255
#
#
# Mechanical properties :
#
#
# Convention : Reuss Voigt Hill
#
# Bulk Modulus (GPa) = 43.69913 70.42576 57.06244
# Shear Modulus (GPa) = 18.12008 21.79684 19.95846
#
# Velocity S-wave (km/s) = 3.04266 3.33711 3.19328
# Velocity P-wave (km/s) = 5.88814 7.12951 6.53835
#
# Compressibility (1/GPa) = 0.02288375
#
# Stress axis : x y z
#
# Youngs Moduli (GPa) = 64.89352 26.42040 95.81234
#
# Poissons Ratio (x) = 0.20658 0.40078
# Poissons Ratio (y) = 0.50741 0.80524
# Poissons Ratio (z) = 0.27145 0.22205
#
# Static dielectric constant tensor:
#      x y z
#    x 3.713580 0.000000 0.000000 
#    y 0.000000 3.235560 0.000000 
#    z 0.000000 0.000000 3.846720 
# 
# 
# High freq. dielectric constant tensor:
#      x y z
#    x 1.773920 0.000000 0.000000 
#    y 0.000000 1.697890 0.000000 
#    z 0.000000 0.000000 1.779430 
# 
# From -- ./inp_files/26942.got.cif
#   From: 2010.03.12/outbox.cif.g09.slc.cpg/sg44_14_cif.got.tgz:26942.got - 2010.04.14 02:36:11.
