data_PCOD8189143
_publ_section_title
;
Structure prediction by ZEFSAII (Michael W. Deem and Ramdas Pophale) SiO2 
 PCOD8189143
Probable space group: I M M 2
;
_chemical_formula_sum "Si O2"
_cell_formula_units_Z 32
_cell_length_a 9.310464
_cell_length_b 9.318387
_cell_length_c 20.569843
_cell_angle_alpha 90.000000
_cell_angle_beta 90.000000
_cell_angle_gamma 90.000000
_cell_volume 1784.608862
_symmetry_space_group_name_H-M "I M M 2"
_symmetry_group_IT_number 44
_symmetry_cell_setting 'orthorhombic'
loop_
_space_group_symop_operation_xyz
x,y,z
-x,-y,z
-x,y,z
x,-y,z
1/2+x,1/2+y,1/2+z
1/2-x,1/2-y,1/2+z
1/2-x,1/2+y,1/2+z
1/2+x,1/2-y,1/2+z
loop_
_atom_site_type_symbol
_atom_site_label
_atom_site_fract_x
_atom_site_fract_y
_atom_site_fract_z
Si Si1 0.333419 0.332718 0.586480
Si Si2 0.338743 0.171019 0.820641
Si Si3 0.840933 0.829665 0.940501
Si Si4 0.665792 0.669060 0.195509
O O1 0.500000 0.297490 0.600499
O O2 0.302934 0.500000 0.597618
O O3 0.292195 0.286213 0.513012
O O4 0.231772 0.242207 0.632548
O O5 0.500000 0.231816 0.815086
O O6 0.268733 0.232674 0.886970
O O7 0.247665 0.226512 0.759331
O O8 0.339283 0.000000 0.822265
O O9 0.000000 0.768066 0.925973
O O10 0.847372 0.000000 0.935679
O O11 0.500000 0.712244 0.202280
O O12 0.685648 0.500000 0.187726
#
# Coordination Sequence:
#
# PCOD8189143 Si02
#       4
#     8   8   8   8
#     4   9  18  32  50  72  97 125 156 191 234 282
#     4   9  16  26  43  67  92 119 154 195 235 274
#     4   8  14  26  44  66  92 119 148 187 234 280
#     4  10  20  32  47  69  97 128 160 194 233 277
#
# _framework density 17.931100000000001
#
# number of rings (size 3 to 8) (size 9 to 14) (size 15 to 20)
#    0.000    3.000    0.000    3.000    0.000    6.000 
#    0.000    2.500    0.000    1.500    0.000    7.000 
#    0.000    0.000    0.000    0.000    0.000    0.000 
#
# Total GULP energy -198352.657008 kJ/mol
# GULP energy per Si atom -12397.041063 kJ/mol
# Density = 1.789029 g / cm^3
# Si number density = 17.931100 Si / 1000 Ang^3
#
#
#
# Elastic Constant Matrix: (Units=GPa)
#
#
# Indices 1 2 3 4 5 6 
#
# 1 159.8576 30.7707 111.2883 0.0000 0.0000 0.0000
# 2 30.7707 15.6683 29.1716 0.0000 0.0000 0.0000
# 3 111.2883 29.1716 171.7687 0.0000 0.0000 0.0000
# 4 0.0000 0.0000 0.0000 24.8450 0.0000 0.0000
# 5 0.0000 0.0000 0.0000 0.0000 41.5651 0.0000
# 6 0.0000 0.0000 0.0000 0.0000 0.0000 20.8502
#
#
#
# Elastic Compliance Matrix: (Units=1/GPa)
#
#
# Indices 1 2 3 4 5 6 
#
# 1 0.013404 -0.014851 -0.006162 0.000000 0.000000 0.000000
# 2 -0.014851 0.109789 -0.009024 0.000000 0.000000 0.000000
# 3 -0.006162 -0.009024 0.011347 0.000000 0.000000 0.000000
# 4 0.000000 0.000000 0.000000 0.040249 0.000000 0.000000
# 5 0.000000 0.000000 0.000000 0.000000 0.024059 0.000000
# 6 0.000000 0.000000 0.000000 0.000000 0.000000 0.047961
#
#
# Mechanical properties :
#
#
# Convention : Reuss Voigt Hill
#
# Bulk Modulus (GPa) = 13.42894 76.63953 45.03423
# Shear Modulus (GPa) = 15.07360 29.18969 22.13164
#
# Velocity S-wave (km/s) = 2.90252 4.03908 3.51702
# Velocity P-wave (km/s) = 4.32878 8.03655 6.45463
#
# Compressibility (1/GPa) = 0.07446605
#
# Stress axis : x y z
#
# Youngs Moduli (GPa) = 74.60260 9.10837 88.12990
#
# Poissons Ratio (x) = 0.13527 0.54310
# Poissons Ratio (y) = 1.10793 0.79524
# Poissons Ratio (z) = 0.45974 0.08219
#
# Static dielectric constant tensor:
#      x y z
#    x 3.525400 0.000000 0.000000 
#    y 0.000000 2.726410 0.000000 
#    z 0.000000 0.000000 3.554190 
# 
# 
# High freq. dielectric constant tensor:
#      x y z
#    x 1.701940 0.000000 0.000000 
#    y 0.000000 1.629490 0.000000 
#    z 0.000000 0.000000 1.711180 
# 
# From -- ./inp_files/15470.got.cif
#   From: 2010.03.12/outbox.cif.g09.slc.cpg/sg44_8_cif.got.tgz:15470.got - 2010.04.14 02:36:11.
