data_PCOD8189483
_publ_section_title
;
Structure prediction by ZEFSAII (Michael W. Deem and Ramdas Pophale) SiO2 
 PCOD8189483
Probable space group: I M M 2
;
_chemical_formula_sum "Si O2"
_cell_formula_units_Z 64
_cell_length_a 20.155794
_cell_length_b 20.727584
_cell_length_c 8.113325
_cell_angle_alpha 90.000000
_cell_angle_beta 90.000000
_cell_angle_gamma 90.000000
_cell_volume 3389.592328
_symmetry_space_group_name_H-M "I M M 2"
_symmetry_group_IT_number 44
_symmetry_cell_setting 'orthorhombic'
loop_
_space_group_symop_operation_xyz
x,y,z
-x,-y,z
-x,y,z
x,-y,z
1/2+x,1/2+y,1/2+z
1/2-x,1/2-y,1/2+z
1/2-x,1/2+y,1/2+z
1/2+x,1/2-y,1/2+z
loop_
_atom_site_type_symbol
_atom_site_label
_atom_site_fract_x
_atom_site_fract_y
_atom_site_fract_z
Si Si1 0.315131 0.798366 0.882600
Si Si2 0.215335 0.073708 0.400530
Si Si3 0.075392 0.183755 0.891664
Si Si4 0.152231 0.072553 0.052167
Si Si5 0.424678 0.804685 0.623665
Si Si6 0.287552 0.069140 0.892211
Si Si7 0.349395 0.070397 0.536975
Si Si8 0.690120 0.314064 0.140493
O O1 0.380948 0.783303 0.779408
O O2 0.323943 0.868594 0.973581
O O3 0.251951 0.808464 0.763259
O O4 0.300637 0.744263 0.013637
O O5 0.185935 0.093429 0.223863
O O6 0.295766 0.081941 0.390852
O O7 0.185705 0.119826 0.539722
O O8 0.196380 0.000000 0.444623
O O9 0.120251 0.191249 0.731355
O O10 0.000000 0.173032 0.834157
O O11 0.095188 0.123257 0.006993
O O12 0.083251 0.250142 0.988338
O O13 0.122363 0.000000 0.063027
O O14 0.208097 0.075967 0.910226
O O15 0.500000 0.811464 0.685153
O O16 0.403208 0.872966 0.543276
O O17 0.303993 0.069732 0.699606
O O18 0.310298 0.000000 0.971888
O O19 0.384626 0.000000 0.516179
#
# Coordination Sequence:
#
# PCOD8189483 Si02
#       8
#     8   8   8   8   8   8   8   8
#     4  11  22  34  58  87 112 149 189 248 282 338
#     4  10  20  34  58  88 118 144 180 240 292 336
#     4  11  24  41  57  77 113 158 194 235 292 349
#     4  10  20  35  58  87 114 146 187 232 287 345
#     4  10  21  38  55  79 117 156 190 231 287 341
#     4   9  17  32  54  80 112 145 180 228 283 332
#     4   9  17  32  54  83 113 146 187 231 279 333
#     4  12  23  36  58  85 115 146 199 243 290 340
#
# _framework density 18.881325
#
# number of rings (size 3 to 8) (size 9 to 14) (size 15 to 20)
#    0.000    1.750    3.750    1.500    1.750    1.500 
#    0.000    0.625    0.000    0.750    0.000    0.000 
#    0.000    5.000    0.000    0.000    0.000    0.000 
#
# Total GULP energy -396591.597603 kJ/mol
# GULP energy per Si atom -12393.487425 kJ/mol
# Density = 1.883835 g / cm^3
# Si number density = 18.881325 Si / 1000 Ang^3
#
#
#
# Elastic Constant Matrix: (Units=GPa)
#
#
# Indices 1 2 3 4 5 6 
#
# 1 110.1124 49.0625 46.1140 0.0000 0.0000 0.0000
# 2 49.0625 131.7105 49.5389 0.0000 0.0000 0.0000
# 3 46.1140 49.5389 66.9688 0.0000 0.0000 0.0000
# 4 0.0000 0.0000 0.0000 23.5731 0.0000 0.0000
# 5 0.0000 0.0000 0.0000 0.0000 25.3862 0.0000
# 6 0.0000 0.0000 0.0000 0.0000 0.0000 22.5662
#
#
#
# Elastic Compliance Matrix: (Units=1/GPa)
#
#
# Indices 1 2 3 4 5 6 
#
# 1 0.013157 -0.002069 -0.007529 0.000000 0.000000 0.000000
# 2 -0.002069 0.010845 -0.006597 0.000000 0.000000 0.000000
# 3 -0.007529 -0.006597 0.024997 0.000000 0.000000 0.000000
# 4 0.000000 0.000000 0.000000 0.042421 0.000000 0.000000
# 5 0.000000 0.000000 0.000000 0.000000 0.039391 0.000000
# 6 0.000000 0.000000 0.000000 0.000000 0.000000 0.044314
#
#
# Mechanical properties :
#
#
# Convention : Reuss Voigt Hill
#
# Bulk Modulus (GPa) = 60.21407 66.46916 63.34161
# Shear Modulus (GPa) = 23.46857 25.24354 24.35605
#
# Velocity S-wave (km/s) = 3.52938 3.66041 3.59549
# Velocity P-wave (km/s) = 6.96913 7.29005 7.13139
#
# Compressibility (1/GPa) = 0.01660741
#
# Stress axis : x y z
#
# Youngs Moduli (GPa) = 76.00762 92.21256 40.00507
#
# Poissons Ratio (x) = 0.19080 0.30119
# Poissons Ratio (y) = 0.15727 0.26392
# Poissons Ratio (z) = 0.57225 0.60835
#
# Static dielectric constant tensor:
#      x y z
#    x 3.260840 0.000000 0.000000 
#    y 0.000000 4.126930 0.000000 
#    z 0.000000 0.000000 3.318830 
# 
# 
# High freq. dielectric constant tensor:
#      x y z
#    x 1.700820 0.000000 0.000000 
#    y 0.000000 1.767100 0.000000 
#    z 0.000000 0.000000 1.719040 
# 
# From -- ./inp_files/8465.got.cif
#   From: 2010.03.12/outbox.cif.g09.slc.cpg/sg44_5_cif.got.tgz:8465.got - 2010.04.14 02:36:11.
