data_PCOD8189227
_publ_section_title
;
Structure prediction by ZEFSAII (Michael W. Deem and Ramdas Pophale) SiO2 
 PCOD8189227
Probable space group: I M M 2
;
_chemical_formula_sum "Si O2"
_cell_formula_units_Z 64
_cell_length_a 24.115640
_cell_length_b 9.288739
_cell_length_c 13.705715
_cell_angle_alpha 90.000000
_cell_angle_beta 90.000000
_cell_angle_gamma 90.000000
_cell_volume 3070.133417
_symmetry_space_group_name_H-M "I M M 2"
_symmetry_group_IT_number 44
_symmetry_cell_setting 'orthorhombic'
loop_
_space_group_symop_operation_xyz
x,y,z
-x,-y,z
-x,y,z
x,-y,z
1/2+x,1/2+y,1/2+z
1/2-x,1/2-y,1/2+z
1/2-x,1/2+y,1/2+z
1/2+x,1/2-y,1/2+z
loop_
_atom_site_type_symbol
_atom_site_label
_atom_site_fract_x
_atom_site_fract_y
_atom_site_fract_z
Si Si1 0.321806 0.662653 0.407950
Si Si2 0.060194 0.836932 0.947061
Si Si3 0.332371 0.669961 0.023572
Si Si4 0.436534 0.157787 0.638276
Si Si5 0.269040 0.665671 0.608095
Si Si6 0.062093 0.669332 0.503103
Si Si7 0.437021 0.657724 0.807568
Si Si8 0.275422 0.665227 0.825824
O O1 0.303717 0.500000 0.386799
O O2 0.386452 0.688622 0.377555
O O3 0.314776 0.696820 0.524309
O O4 0.283486 0.759446 0.341429
O O5 0.000000 0.815178 0.893757
O O6 0.063584 0.000000 0.989303
O O7 0.066020 0.722584 0.031709
O O8 0.337413 0.500000 0.040554
O O9 0.389401 0.745937 0.060795
O O10 0.320859 0.710315 0.908170
O O11 0.283322 0.731241 0.089866
O O12 0.500000 0.138626 0.671633
O O13 0.407040 0.265305 0.715623
O O14 0.407586 0.000000 0.638272
O O15 0.248910 0.500000 0.603475
O O16 0.295103 0.700138 0.715134
O O17 0.074754 0.500000 0.501478
O O18 0.065948 0.732204 0.395514
O O19 0.000000 0.698544 0.546478
O O20 0.500000 0.623448 0.780379
O O21 0.408047 0.500000 0.829187
O O22 0.261707 0.500000 0.840642
#
# Coordination Sequence:
#
# PCOD8189227 Si02
#       8
#     8   8   8   8   8   8   8   8
#     4   9  18  32  52  77 103 133 172 216 261 313
#     4   9  17  29  45  67  97 133 169 205 251 308
#     4  10  20  34  54  82 110 136 175 223 268 316
#     4   9  16  25  37  56  85 122 164 206 246 294
#     4   9  18  35  56  76 102 136 172 215 269 321
#     4  10  20  33  49  71 102 140 177 212 256 312
#     4   9  16  26  40  58  84 122 166 208 248 292
#     4   9  19  35  55  78 105 137 173 218 269 318
#
# _framework density 20.845998999999999
#
# number of rings (size 3 to 8) (size 9 to 14) (size 15 to 20)
#    0.000    2.750    0.000    1.500    0.000    6.250 
#    0.000    2.500    0.000    0.750    0.000    3.500 
#    0.000    0.000    0.000    0.000    0.000    0.000 
#
# Total GULP energy -396427.194819 kJ/mol
# GULP energy per Si atom -12388.349838 kJ/mol
# Density = 2.079855 g / cm^3
# Si number density = 20.845999 Si / 1000 Ang^3
#
#
#
# Elastic Constant Matrix: (Units=GPa)
#
#
# Indices 1 2 3 4 5 6 
#
# 1 122.9943 45.5108 1.1317 0.0000 0.0000 0.0000
# 2 45.5108 99.5917 7.4777 0.0000 0.0000 0.0000
# 3 1.1317 7.4777 35.0655 0.0000 0.0000 0.0000
# 4 0.0000 0.0000 0.0000 22.6711 0.0000 0.0000
# 5 0.0000 0.0000 0.0000 0.0000 8.3880 0.0000
# 6 0.0000 0.0000 0.0000 0.0000 0.0000 23.8563
#
#
#
# Elastic Compliance Matrix: (Units=1/GPa)
#
#
# Indices 1 2 3 4 5 6 
#
# 1 0.009800 -0.004527 0.000649 0.000000 0.000000 0.000000
# 2 -0.004527 0.012296 -0.002476 0.000000 0.000000 0.000000
# 3 0.000649 -0.002476 0.029025 0.000000 0.000000 0.000000
# 4 0.000000 0.000000 0.000000 0.044109 0.000000 0.000000
# 5 0.000000 0.000000 0.000000 0.000000 0.119217 0.000000
# 6 0.000000 0.000000 0.000000 0.000000 0.000000 0.041918
#
#
# Mechanical properties :
#
#
# Convention : Reuss Voigt Hill
#
# Bulk Modulus (GPa) = 26.03298 40.65465 33.34381
# Shear Modulus (GPa) = 17.73829 24.55182 21.14505
#
# Velocity S-wave (km/s) = 2.92022 3.43559 3.18833
# Velocity P-wave (km/s) = 4.88729 5.93990 5.43912
#
# Compressibility (1/GPa) = 0.03841282
#
# Stress axis : x y z
#
# Youngs Moduli (GPa) = 102.04561 81.33015 34.45290
#
# Poissons Ratio (x) = 0.36817 -0.02236
# Poissons Ratio (y) = 0.46195 0.08530
# Poissons Ratio (z) = -0.06624 0.20137
#
# Static dielectric constant tensor:
#      x y z
#    x 4.057490 0.000000 0.000000 
#    y 0.000000 3.997440 0.000000 
#    z 0.000000 0.000000 3.333610 
# 
# 
# High freq. dielectric constant tensor:
#      x y z
#    x 1.818430 0.000000 0.000000 
#    y 0.000000 1.824370 0.000000 
#    z 0.000000 0.000000 1.762790 
# 
# From -- ./inp_files/19502.got.cif
#   From: 2010.03.12/outbox.cif.g09.slc.cpg/sg44_10_cif.got.tgz:19502.got - 2010.04.14 02:36:11.
