data_PCOD8189182
_publ_section_title
;
Structure prediction by ZEFSAII (Michael W. Deem and Ramdas Pophale) SiO2 
 PCOD8189182
Probable space group: I M M 2
;
_chemical_formula_sum "Si O2"
_cell_formula_units_Z 48
_cell_length_a 7.580120
_cell_length_b 9.115598
_cell_length_c 34.096460
_cell_angle_alpha 90.000000
_cell_angle_beta 90.000000
_cell_angle_gamma 90.000000
_cell_volume 2355.974236
_symmetry_space_group_name_H-M "I M M 2"
_symmetry_group_IT_number 44
_symmetry_cell_setting 'orthorhombic'
loop_
_space_group_symop_operation_xyz
x,y,z
-x,-y,z
-x,y,z
x,-y,z
1/2+x,1/2+y,1/2+z
1/2-x,1/2-y,1/2+z
1/2-x,1/2+y,1/2+z
1/2+x,1/2-y,1/2+z
loop_
_atom_site_type_symbol
_atom_site_label
_atom_site_fract_x
_atom_site_fract_y
_atom_site_fract_z
Si Si1 0.707857 0.163124 0.081550
Si Si2 0.294575 0.172767 0.806797
Si Si3 0.201577 0.339709 0.155738
Si Si4 0.000000 0.670059 0.854619
Si Si5 0.500000 0.831776 0.447103
Si Si6 0.201743 0.327441 0.493344
Si Si7 0.208954 0.163387 0.228314
O O1 0.500000 0.161405 0.086475
O O2 0.790892 0.273364 0.112430
O O3 0.783392 0.000000 0.089290
O O4 0.758184 0.214457 0.037715
O O5 0.500000 0.206757 0.815595
O O6 0.235061 0.236539 0.764875
O O7 0.177005 0.251273 0.839510
O O8 0.257173 0.000000 0.806863
O O9 0.293931 0.500000 0.155728
O O10 0.290130 0.235510 0.188677
O O11 0.000000 0.359894 0.167843
O O12 0.000000 0.687010 0.900888
O O13 0.000000 0.500000 0.841656
O O14 0.676175 0.757563 0.463256
O O15 0.500000 0.000000 0.460086
O O16 0.225328 0.500000 0.486882
O O17 0.000000 0.280747 0.485385
O O18 0.000000 0.152183 0.225342
O O19 0.289400 0.000000 0.232974
#
# Coordination Sequence:
#
# PCOD8189182 Si02
#       7
#     8   8   8   4   4   8   8
#     4   9  19  36  55  77 107 144 190 239 287 343
#     4  10  21  39  64  91 120 155 195 247 304 354
#     4  10  20  32  49  78 114 149 189 238 286 338
#     4  11  25  43  61  89 125 159 199 245 293 363
#     4  11  25  41  61  91 125 157 195 245 303 363
#     4   9  20  40  64  88 116 155 201 248 298 357
#     4   9  17  32  55  81 111 151 196 237 285 348
#
# _framework density 20.373736000000001
#
# number of rings (size 3 to 8) (size 9 to 14) (size 15 to 20)
#    0.000    2.333    0.000    3.000    1.167    7.333 
#    1.500    5.000    0.000    0.000    0.000    0.000 
#    0.000    0.000    0.000    0.000    0.000    0.000 
#
# Total GULP energy -297581.074712 kJ/mol
# GULP energy per Si atom -12399.211446 kJ/mol
# Density = 2.032736 g / cm^3
# Si number density = 20.373736 Si / 1000 Ang^3
#
#
#
# Elastic Constant Matrix: (Units=GPa)
#
#
# Indices 1 2 3 4 5 6 
#
# 1 74.0487 50.4758 46.0454 0.0000 0.0000 0.0000
# 2 50.4758 155.4537 78.2204 0.0000 0.0000 0.0000
# 3 46.0454 78.2204 120.1029 0.0000 0.0000 0.0000
# 4 0.0000 0.0000 0.0000 39.2741 0.0000 0.0000
# 5 0.0000 0.0000 0.0000 0.0000 164.3916 0.0000
# 6 0.0000 0.0000 0.0000 0.0000 0.0000 16.3279
#
#
#
# Elastic Compliance Matrix: (Units=1/GPa)
#
#
# Indices 1 2 3 4 5 6 
#
# 1 0.019091 -0.003743 -0.004882 0.000000 0.000000 0.000000
# 2 -0.003743 0.010302 -0.005275 0.000000 0.000000 0.000000
# 3 -0.004882 -0.005275 0.013633 0.000000 0.000000 0.000000
# 4 0.000000 0.000000 0.000000 0.025462 0.000000 0.000000
# 5 0.000000 0.000000 0.000000 0.000000 0.006083 0.000000
# 6 0.000000 0.000000 0.000000 0.000000 0.000000 0.061245
#
#
# Mechanical properties :
#
#
# Convention : Reuss Voigt Hill
#
# Bulk Modulus (GPa) = 65.66682 77.67647 71.67165
# Shear Modulus (GPa) = 29.63999 55.65630 42.64815
#
# Velocity S-wave (km/s) = 3.81834 5.23230 4.58021
# Velocity P-wave (km/s) = 7.19310 8.64356 7.95147
#
# Compressibility (1/GPa) = 0.01522839
#
# Stress axis : x y z
#
# Youngs Moduli (GPa) = 52.37949 97.06779 73.35085
#
# Poissons Ratio (x) = 0.36328 0.35809
# Poissons Ratio (y) = 0.19603 0.38690
# Poissons Ratio (z) = 0.25571 0.51200
#
# Static dielectric constant tensor:
#      x y z
#    x 3.339400 0.000000 0.000000 
#    y 0.000000 3.950790 0.000000 
#    z 0.000000 0.000000 3.703890 
# 
# 
# High freq. dielectric constant tensor:
#      x y z
#    x 1.786840 0.000000 0.000000 
#    y 0.000000 1.803770 0.000000 
#    z 0.000000 0.000000 1.794900 
# 
# From -- ./inp_files/26923.got.cif
#   From: 2010.03.12/outbox.cif.g09.slc.cpg/sg44_14_cif.got.tgz:26923.got - 2010.04.14 02:36:11.
