data_PCOD8189884
_publ_section_title
;
Structure prediction by ZEFSAII (Michael W. Deem and Ramdas Pophale) SiO2 
 PCOD8189884
Probable space group: I M M 2
;
_chemical_formula_sum "Si O2"
_cell_formula_units_Z 48
_cell_length_a 23.184914
_cell_length_b 9.489891
_cell_length_c 11.579719
_cell_angle_alpha 90.000000
_cell_angle_beta 90.000000
_cell_angle_gamma 90.000000
_cell_volume 2547.796485
_symmetry_space_group_name_H-M "I M M 2"
_symmetry_group_IT_number 44
_symmetry_cell_setting 'orthorhombic'
loop_
_space_group_symop_operation_xyz
x,y,z
-x,-y,z
-x,y,z
x,-y,z
1/2+x,1/2+y,1/2+z
1/2-x,1/2-y,1/2+z
1/2-x,1/2+y,1/2+z
1/2+x,1/2-y,1/2+z
loop_
_atom_site_type_symbol
_atom_site_label
_atom_site_fract_x
_atom_site_fract_y
_atom_site_fract_z
Si Si1 0.646249 0.165611 0.490110
Si Si2 0.565306 0.657043 0.625815
Si Si3 0.860144 0.160782 0.351555
Si Si4 0.220337 0.339975 0.207544
Si Si5 0.565798 0.667006 0.066159
Si Si6 0.847902 0.160898 0.763419
O O1 0.585720 0.229086 0.532539
O O2 0.694216 0.208992 0.584837
O O3 0.661281 0.235814 0.369592
O O4 0.640741 0.000000 0.472423
O O5 0.500000 0.690211 0.653582
O O6 0.574276 0.500000 0.574320
O O7 0.596456 0.672389 0.746532
O O8 0.803116 0.248865 0.316388
O O9 0.894579 0.225493 0.461296
O O10 0.840625 0.000000 0.376218
O O11 0.201590 0.500000 0.233483
O O12 0.288861 0.326165 0.190867
O O13 0.500000 0.728541 0.064822
O O14 0.562533 0.500000 0.053117
O O15 0.597812 0.709225 0.185262
O O16 0.856911 0.000000 0.805612
#
# Coordination Sequence:
#
# PCOD8189884 Si02
#       6
#     8   8   8   8   8   8
#     4  10  21  36  53  76 107 139 176 221 269 319
#     4   9  17  31  53  80 108 138 175 219 264 312
#     4   9  17  31  56  84 107 134 176 226 269 312
#     4   9  20  36  53  76 108 141 176 219 273 327
#     4   9  18  33  55  82 109 140 180 224 269 317
#     4  10  21  36  54  76 106 143 180 221 267 325
#
# _framework density 18.839808999999999
#
# number of rings (size 3 to 8) (size 9 to 14) (size 15 to 20)
#    0.000    2.667    0.000    1.000    2.333    4.333 
#    0.000    2.500    0.000    2.500    0.000    0.000 
#    0.000    0.000    0.000    0.000    0.000    0.000 
#
# Total GULP energy -297519.386483 kJ/mol
# GULP energy per Si atom -12396.641103 kJ/mol
# Density = 1.879693 g / cm^3
# Si number density = 18.839809 Si / 1000 Ang^3
#
#
#
# Elastic Constant Matrix: (Units=GPa)
#
#
# Indices 1 2 3 4 5 6 
#
# 1 90.4819 26.4040 31.1466 0.0000 0.0000 0.0000
# 2 26.4040 65.0419 39.4067 0.0000 0.0000 0.0000
# 3 31.1466 39.4067 92.3022 0.0000 0.0000 0.0000
# 4 0.0000 0.0000 0.0000 24.7076 0.0000 0.0000
# 5 0.0000 0.0000 0.0000 0.0000 25.2572 0.0000
# 6 0.0000 0.0000 0.0000 0.0000 0.0000 24.2688
#
#
#
# Elastic Compliance Matrix: (Units=1/GPa)
#
#
# Indices 1 2 3 4 5 6 
#
# 1 0.013087 -0.003557 -0.002897 0.000000 0.000000 0.000000
# 2 -0.003557 0.021706 -0.008067 0.000000 0.000000 0.000000
# 3 -0.002897 -0.008067 0.015256 0.000000 0.000000 0.000000
# 4 0.000000 0.000000 0.000000 0.040473 0.000000 0.000000
# 5 0.000000 0.000000 0.000000 0.000000 0.039593 0.000000
# 6 0.000000 0.000000 0.000000 0.000000 0.000000 0.041205
#
#
# Mechanical properties :
#
#
# Convention : Reuss Voigt Hill
#
# Bulk Modulus (GPa) = 47.60503 49.08228 48.34366
# Shear Modulus (GPa) = 24.11202 24.90463 24.50833
#
# Velocity S-wave (km/s) = 3.58137 3.63976 3.61068
# Velocity P-wave (km/s) = 6.51343 6.61610 6.56497
#
# Compressibility (1/GPa) = 0.02100618
#
# Stress axis : x y z
#
# Youngs Moduli (GPa) = 76.40915 46.06994 65.54978
#
# Poissons Ratio (x) = 0.16389 0.18993
# Poissons Ratio (y) = 0.27182 0.52876
# Poissons Ratio (z) = 0.22139 0.37163
#
# Static dielectric constant tensor:
#      x y z
#    x 3.598420 0.000000 0.000000 
#    y 0.000000 3.364390 0.000000 
#    z 0.000000 0.000000 3.407010 
# 
# 
# High freq. dielectric constant tensor:
#      x y z
#    x 1.737210 0.000000 0.000000 
#    y 0.000000 1.705030 0.000000 
#    z 0.000000 0.000000 1.729210 
# 
# From -- ./inp_files/11138.got.cif
#   From: 2010.03.12/outbox.cif.g09.slc.cpg/sg44_6_cif.got.tgz:11138.got - 2010.04.14 02:36:11.
