data_PCOD8189947
_publ_section_title
;
Structure prediction by ZEFSAII (Michael W. Deem and Ramdas Pophale) SiO2 
 PCOD8189947
Probable space group: I M M 2
;
_chemical_formula_sum "Si O2"
_cell_formula_units_Z 48
_cell_length_a 8.933815
_cell_length_b 9.328973
_cell_length_c 31.556019
_cell_angle_alpha 90.000000
_cell_angle_beta 90.000000
_cell_angle_gamma 90.000000
_cell_volume 2629.983355
_symmetry_space_group_name_H-M "I M M 2"
_symmetry_group_IT_number 44
_symmetry_cell_setting 'orthorhombic'
loop_
_space_group_symop_operation_xyz
x,y,z
-x,-y,z
-x,y,z
x,-y,z
1/2+x,1/2+y,1/2+z
1/2-x,1/2-y,1/2+z
1/2-x,1/2+y,1/2+z
1/2+x,1/2-y,1/2+z
loop_
_atom_site_type_symbol
_atom_site_label
_atom_site_fract_x
_atom_site_fract_y
_atom_site_fract_z
Si Si1 0.821240 0.837425 0.682850
Si Si2 0.323345 0.664149 0.849388
Si Si3 0.675055 0.330089 0.000388
Si Si4 0.824536 0.833816 0.924761
Si Si5 0.172841 0.333309 0.762976
Si Si6 0.175414 0.835096 0.592214
O O1 0.758228 0.745433 0.721873
O O2 0.764974 0.769858 0.637188
O O3 0.000000 0.833689 0.682856
O O4 0.764099 0.000000 0.688376
O O5 0.500000 0.678104 0.849994
O O6 0.272819 0.500000 0.857899
O O7 0.256769 0.766146 0.884726
O O8 0.263581 0.717499 0.804050
O O9 0.500000 0.294352 0.993730
O O10 0.700454 0.500000 0.995086
O O11 0.772938 0.245056 0.967028
O O12 0.735369 0.275973 0.046976
O O13 0.000000 0.811801 0.918963
O O14 0.780431 0.000000 0.927853
O O15 0.194281 0.500000 0.754517
O O16 0.000000 0.292460 0.770222
O O17 0.000000 0.814094 0.589653
O O18 0.218012 0.000000 0.594873
#
# Coordination Sequence:
#
# PCOD8189947 Si02
#       6
#     8   8   8   8   8   8
#     4   8  13  23  42  68  97 128 160 194 233 277
#     4  10  21  37  56  75  95 124 164 205 244 291
#     4   9  17  31  53  78 101 128 165 205 243 286
#     4  11  24  38  51  71 100 130 160 198 246 298
#     4   9  17  29  46  70  99 127 157 197 241 283
#     4   7  11  22  42  69  98 125 156 196 237 276
#
# _framework density 18.251066000000002
#
# number of rings (size 3 to 8) (size 9 to 14) (size 15 to 20)
#    0.000    3.000    0.000    3.500    0.000    5.333 
#    0.000    2.500    0.000    4.000    0.000    4.667 
#    0.000    0.000    0.000    0.000    0.000    0.000 
#
# Total GULP energy -297332.677866 kJ/mol
# GULP energy per Si atom -12388.861578 kJ/mol
# Density = 1.820953 g / cm^3
# Si number density = 18.251066 Si / 1000 Ang^3
#
#
#
# Elastic Constant Matrix: (Units=GPa)
#
#
# Indices 1 2 3 4 5 6 
#
# 1 37.7813 24.3630 39.0746 0.0000 0.0000 0.0000
# 2 24.3630 58.8663 64.6653 0.0000 0.0000 0.0000
# 3 39.0746 64.6653 194.6623 0.0000 0.0000 0.0000
# 4 0.0000 0.0000 0.0000 31.0189 0.0000 0.0000
# 5 0.0000 0.0000 0.0000 0.0000 24.8519 0.0000
# 6 0.0000 0.0000 0.0000 0.0000 0.0000 19.4246
#
#
#
# Elastic Compliance Matrix: (Units=1/GPa)
#
#
# Indices 1 2 3 4 5 6 
#
# 1 0.037776 -0.011502 -0.003762 0.000000 0.000000 0.000000
# 2 -0.011502 0.030251 -0.007740 0.000000 0.000000 0.000000
# 3 -0.003762 -0.007740 0.008463 0.000000 0.000000 0.000000
# 4 0.000000 0.000000 0.000000 0.032238 0.000000 0.000000
# 5 0.000000 0.000000 0.000000 0.000000 0.040238 0.000000
# 6 0.000000 0.000000 0.000000 0.000000 0.000000 0.051481
#
#
# Mechanical properties :
#
#
# Convention : Reuss Voigt Hill
#
# Bulk Modulus (GPa) = 32.80632 60.83506 46.82069
# Shear Modulus (GPa) = 19.48437 25.93955 22.71196
#
# Velocity S-wave (km/s) = 3.27092 3.77405 3.53146
# Velocity P-wave (km/s) = 5.68148 7.23851 6.50674
#
# Compressibility (1/GPa) = 0.03048194
#
# Stress axis : x y z
#
# Youngs Moduli (GPa) = 26.47216 33.05713 118.15443
#
# Poissons Ratio (x) = 0.38021 0.44449
# Poissons Ratio (y) = 0.30447 0.91455
# Poissons Ratio (z) = 0.09959 0.25587
#
# Static dielectric constant tensor:
#      x y z
#    x 3.016900 0.000000 0.000000 
#    y 0.000000 3.224110 0.000000 
#    z 0.000000 0.000000 3.990190 
# 
# 
# High freq. dielectric constant tensor:
#      x y z
#    x 1.667840 0.000000 0.000000 
#    y 0.000000 1.679550 0.000000 
#    z 0.000000 0.000000 1.738700 
# 
# From -- ./inp_files/26871.got.cif
#   From: 2010.03.12/outbox.cif.g09.slc.cpg/sg44_14_cif.got.tgz:26871.got - 2010.04.14 02:36:11.
