data_PCOD8189855
_publ_section_title
;
Structure prediction by ZEFSAII (Michael W. Deem and Ramdas Pophale) SiO2 
 PCOD8189855
Probable space group: I M M 2
;
_chemical_formula_sum "Si O2"
_cell_formula_units_Z 48
_cell_length_a 7.728471
_cell_length_b 9.042274
_cell_length_c 33.844870
_cell_angle_alpha 90.000000
_cell_angle_beta 90.000000
_cell_angle_gamma 90.000000
_cell_volume 2365.179439
_symmetry_space_group_name_H-M "I M M 2"
_symmetry_group_IT_number 44
_symmetry_cell_setting 'orthorhombic'
loop_
_space_group_symop_operation_xyz
x,y,z
-x,-y,z
-x,y,z
x,-y,z
1/2+x,1/2+y,1/2+z
1/2-x,1/2-y,1/2+z
1/2-x,1/2+y,1/2+z
1/2+x,1/2-y,1/2+z
loop_
_atom_site_type_symbol
_atom_site_label
_atom_site_fract_x
_atom_site_fract_y
_atom_site_fract_z
Si Si1 0.304706 0.329252 0.887580
Si Si2 0.303874 0.666219 0.313466
Si Si3 0.000000 0.673900 0.017528
Si Si4 0.796073 0.333417 0.654326
Si Si5 0.302429 0.332209 0.739207
Si Si6 0.804163 0.826776 0.576080
Si Si7 0.000000 0.824064 0.934126
O O1 0.500000 0.313204 0.904379
O O2 0.246426 0.500000 0.887484
O O3 0.305310 0.269106 0.842805
O O4 0.174390 0.236238 0.914285
O O5 0.500000 0.663810 0.329067
O O6 0.227364 0.500000 0.313258
O O7 0.303040 0.730867 0.269334
O O8 0.173362 0.717679 0.041312
O O9 0.000000 0.500000 0.006692
O O10 0.000000 0.773603 0.979102
O O11 0.729442 0.500000 0.648141
O O12 0.716827 0.268032 0.694834
O O13 0.732072 0.241222 0.616730
O O14 0.000000 0.324933 0.658155
O O15 0.500000 0.328164 0.752602
O O16 0.228922 0.500000 0.740379
O O17 0.000000 0.770522 0.566066
O O18 0.804491 0.000000 0.582481
O O19 0.000000 0.000000 0.930955
#
# Coordination Sequence:
#
# PCOD8189855 Si02
#       7
#     8   8   4   8   8   8   4
#     4  11  24  43  69  96 124 165 210 253 307 374
#     4  11  23  38  58  86 120 159 203 255 312 365
#     4  10  22  40  62  88 120 158 202 250 304 372
#     4   9  18  33  53  78 110 149 194 245 302 359
#     4  10  21  35  52  79 114 155 203 252 301 362
#     4   9  19  36  58  84 115 153 197 246 300 361
#     4  12  26  44  66  98 132 164 204 258 318 374
#
# _framework density 20.294443000000001
#
# number of rings (size 3 to 8) (size 9 to 14) (size 15 to 20)
#    0.000    1.833    0.833    2.750    1.167    7.333 
#    0.000    3.333    0.000    0.000    0.000    0.000 
#    0.000    0.000    0.000    0.000    0.000    0.000 
#
# Total GULP energy -297640.697747 kJ/mol
# GULP energy per Si atom -12401.695739 kJ/mol
# Density = 2.024825 g / cm^3
# Si number density = 20.294443 Si / 1000 Ang^3
#
#
#
# Elastic Constant Matrix: (Units=GPa)
#
#
# Indices 1 2 3 4 5 6 
#
# 1 91.4898 47.5851 51.3299 0.0000 0.0000 0.0000
# 2 47.5851 114.0242 70.9485 0.0000 0.0000 0.0000
# 3 51.3299 70.9485 142.6498 0.0000 0.0000 0.0000
# 4 0.0000 0.0000 0.0000 40.0130 0.0000 0.0000
# 5 0.0000 0.0000 0.0000 0.0000 24.0934 0.0000
# 6 0.0000 0.0000 0.0000 0.0000 0.0000 19.5587
#
#
#
# Elastic Compliance Matrix: (Units=1/GPa)
#
#
# Indices 1 2 3 4 5 6 
#
# 1 0.014961 -0.004191 -0.003299 0.000000 0.000000 0.000000
# 2 -0.004191 0.013874 -0.005393 0.000000 0.000000 0.000000
# 3 -0.003299 -0.005393 0.010879 0.000000 0.000000 0.000000
# 4 0.000000 0.000000 0.000000 0.024992 0.000000 0.000000
# 5 0.000000 0.000000 0.000000 0.000000 0.041505 0.000000
# 6 0.000000 0.000000 0.000000 0.000000 0.000000 0.051128
#
#
# Mechanical properties :
#
#
# Convention : Reuss Voigt Hill
#
# Bulk Modulus (GPa) = 71.68623 76.43230 74.05927
# Shear Modulus (GPa) = 26.63054 28.61971 27.62512
#
# Velocity S-wave (km/s) = 3.62637 3.75937 3.69347
# Velocity P-wave (km/s) = 7.27557 7.52245 7.40004
#
# Compressibility (1/GPa) = 0.01394968
#
# Stress axis : x y z
#
# Youngs Moduli (GPa) = 66.84154 72.07530 91.91731
#
# Poissons Ratio (x) = 0.30205 0.30324
# Poissons Ratio (y) = 0.28012 0.49567
# Poissons Ratio (z) = 0.22051 0.38867
#
# Static dielectric constant tensor:
#      x y z
#    x 3.788170 0.000000 0.000000 
#    y 0.000000 3.678870 0.000000 
#    z 0.000000 0.000000 3.646190 
# 
# 
# High freq. dielectric constant tensor:
#      x y z
#    x 1.799500 0.000000 0.000000 
#    y 0.000000 1.784990 0.000000 
#    z 0.000000 0.000000 1.791630 
# 
# From -- ./inp_files/26927.got.cif
#   From: 2010.03.12/outbox.cif.g09.slc.cpg/sg44_14_cif.got.tgz:26927.got - 2010.04.14 02:36:11.
