data_PCOD8189928
_publ_section_title
;
Structure prediction by ZEFSAII (Michael W. Deem and Ramdas Pophale) SiO2 
 PCOD8189928
Probable space group: I M M 2
;
_chemical_formula_sum "Si O2"
_cell_formula_units_Z 64
_cell_length_a 9.601636
_cell_length_b 13.584841
_cell_length_c 23.969094
_cell_angle_alpha 90.000000
_cell_angle_beta 90.000000
_cell_angle_gamma 90.000000
_cell_volume 3126.449485
_symmetry_space_group_name_H-M "I M M 2"
_symmetry_group_IT_number 44
_symmetry_cell_setting 'orthorhombic'
loop_
_space_group_symop_operation_xyz
x,y,z
-x,-y,z
-x,y,z
x,-y,z
1/2+x,1/2+y,1/2+z
1/2-x,1/2-y,1/2+z
1/2-x,1/2+y,1/2+z
1/2+x,1/2-y,1/2+z
loop_
_atom_site_type_symbol
_atom_site_label
_atom_site_fract_x
_atom_site_fract_y
_atom_site_fract_z
Si Si1 0.657854 0.319297 0.440070
Si Si2 0.661857 0.115954 0.709551
Si Si3 0.661722 0.890028 0.036175
Si Si4 0.152399 0.612015 0.733665
Si Si5 0.650567 0.612643 0.824591
Si Si6 0.659710 0.385211 0.317862
Si Si7 0.657840 0.747514 0.132900
Si Si8 0.154822 0.393857 0.927766
O O1 0.500000 0.358717 0.445750
O O2 0.756778 0.385142 0.477787
O O3 0.701982 0.326220 0.374409
O O4 0.668859 0.206049 0.463549
O O5 0.500000 0.149154 0.713015
O O6 0.741637 0.147128 0.766413
O O7 0.735956 0.164579 0.655222
O O8 0.673484 0.000000 0.700303
O O9 0.500000 0.875413 0.022986
O O10 0.711748 0.800845 0.076427
O O11 0.688109 0.000000 0.061251
O O12 0.193438 0.500000 0.722588
O O13 0.259028 0.665128 0.776300
O O14 0.156259 0.662711 0.674887
O O15 0.000000 0.620190 0.761394
O O16 0.500000 0.664950 0.829344
O O17 0.631522 0.500000 0.806854
O O18 0.727020 0.616854 0.882600
O O19 0.500000 0.362153 0.300370
O O20 0.679336 0.500000 0.331285
O O21 0.500000 0.704294 0.126069
O O22 0.176231 0.500000 0.959973
O O23 0.000000 0.394485 0.900494
#
# Coordination Sequence:
#
# PCOD8189928 Si02
#       8
#     8   8   8   8   8   8   8   8
#     4  10  21  36  58  86 115 153 201 244 287 341
#     4  10  22  39  58  84 118 152 190 240 294 345
#     4  10  22  41  63  88 118 149 186 237 293 348
#     4   9  17  30  49  73 103 141 183 223 266 325
#     4   9  17  28  43  68 104 141 176 219 271 323
#     4   9  18  34  56  82 113 150 193 241 292 348
#     4  10  21  37  59  83 110 148 192 232 280 343
#     4   9  18  33  51  73 107 150 192 231 272 325
#
# _framework density 20.470503999999998
#
# number of rings (size 3 to 8) (size 9 to 14) (size 15 to 20)
#    0.000    2.500    0.000    1.500    1.750    6.500 
#    0.000    1.875    0.000    4.500    0.000    0.000 
#    0.000    0.000    0.000    0.000    0.000    0.000 
#
# Total GULP energy -396444.511213 kJ/mol
# GULP energy per Si atom -12388.890975 kJ/mol
# Density = 2.042391 g / cm^3
# Si number density = 20.470504 Si / 1000 Ang^3
#
#
#
# Elastic Constant Matrix: (Units=GPa)
#
#
# Indices 1 2 3 4 5 6 
#
# 1 113.6506 35.1657 45.5161 0.0000 0.0000 0.0000
# 2 35.1657 85.1121 24.5819 0.0000 0.0000 0.0000
# 3 45.5161 24.5819 80.4386 0.0000 0.0000 0.0000
# 4 0.0000 0.0000 0.0000 24.7378 0.0000 0.0000
# 5 0.0000 0.0000 0.0000 0.0000 17.7953 0.0000
# 6 0.0000 0.0000 0.0000 0.0000 0.0000 19.9126
#
#
#
# Elastic Compliance Matrix: (Units=1/GPa)
#
#
# Indices 1 2 3 4 5 6 
#
# 1 0.012184 -0.003338 -0.005875 0.000000 0.000000 0.000000
# 2 -0.003338 0.013801 -0.002329 0.000000 0.000000 0.000000
# 3 -0.005875 -0.002329 0.016468 0.000000 0.000000 0.000000
# 4 0.000000 0.000000 0.000000 0.040424 0.000000 0.000000
# 5 0.000000 0.000000 0.000000 0.000000 0.056195 0.000000
# 6 0.000000 0.000000 0.000000 0.000000 0.000000 0.050219
#
#
# Mechanical properties :
#
#
# Convention : Reuss Voigt Hill
#
# Bulk Modulus (GPa) = 51.62424 54.41429 53.01926
# Shear Modulus (GPa) = 22.84882 24.08498 23.46690
#
# Velocity S-wave (km/s) = 3.34456 3.43384 3.38949
# Velocity P-wave (km/s) = 6.33943 6.50855 6.42454
#
# Compressibility (1/GPa) = 0.01937075
#
# Stress axis : x y z
#
# Youngs Moduli (GPa) = 82.07293 72.45944 60.72510
#
# Poissons Ratio (x) = 0.24183 0.35673
# Poissons Ratio (y) = 0.27392 0.14143
# Poissons Ratio (z) = 0.48214 0.16876
#
# Static dielectric constant tensor:
#      x y z
#    x 5.239050 0.000000 0.000000 
#    y 0.000000 3.908880 0.000000 
#    z 0.000000 0.000000 3.326640 
# 
# 
# High freq. dielectric constant tensor:
#      x y z
#    x 1.799180 0.000000 0.000000 
#    y 0.000000 1.811430 0.000000 
#    z 0.000000 0.000000 1.761420 
# 
# From -- ./inp_files/25172.got.cif
#   From: 2010.03.12/outbox.cif.g09.slc.cpg/sg44_13_cif.got.tgz:25172.got - 2010.04.14 02:36:11.
