data_PCOD8189335
_publ_section_title
;
Structure prediction by ZEFSAII (Michael W. Deem and Ramdas Pophale) SiO2 
 PCOD8189335
Probable space group: I M M 2
;
_chemical_formula_sum "Si O2"
_cell_formula_units_Z 64
_cell_length_a 16.782595
_cell_length_b 22.144475
_cell_length_c 9.655652
_cell_angle_alpha 90.000000
_cell_angle_beta 90.000000
_cell_angle_gamma 90.000000
_cell_volume 3588.443459
_symmetry_space_group_name_H-M "I M M 2"
_symmetry_group_IT_number 44
_symmetry_cell_setting 'orthorhombic'
loop_
_space_group_symop_operation_xyz
x,y,z
-x,-y,z
-x,y,z
x,-y,z
1/2+x,1/2+y,1/2+z
1/2-x,1/2-y,1/2+z
1/2-x,1/2+y,1/2+z
1/2+x,1/2-y,1/2+z
loop_
_atom_site_type_symbol
_atom_site_label
_atom_site_fract_x
_atom_site_fract_y
_atom_site_fract_z
Si Si1 0.811171 0.733854 0.433530
Si Si2 0.689400 0.645335 0.557401
Si Si3 0.588847 0.243577 0.195878
Si Si4 0.172885 0.326588 0.911520
Si Si5 0.095688 0.738979 0.160106
Si Si6 0.410064 0.371366 0.309790
Si Si7 0.589389 0.430021 0.031564
Si Si8 0.226677 0.929290 0.322772
O O1 0.765935 0.673545 0.481162
O O2 0.858576 0.760177 0.563818
O O3 0.749705 0.784590 0.384227
O O4 0.872191 0.718594 0.310050
O O5 0.631744 0.695901 0.622931
O O6 0.640803 0.607452 0.441733
O O7 0.719419 0.597628 0.669604
O O8 0.500000 0.233070 0.141444
O O9 0.616375 0.184293 0.278848
O O10 0.593711 0.298565 0.305066
O O11 0.202032 0.396085 0.906999
O O12 0.126824 0.311931 0.053120
O O13 0.000000 0.741802 0.158707
O O14 0.500000 0.395167 0.328238
O O15 0.374593 0.397269 0.166729
O O16 0.500000 0.405822 0.998933
O O17 0.587918 0.500000 0.066804
O O18 0.643277 0.416183 0.899161
O O19 0.247015 0.000000 0.316323
#
# Coordination Sequence:
#
# PCOD8189335 Si02
#       8
#     8   8   8   8   8   8   8   8
#     4  11  20  34  55  84 116 149 179 232 291 343
#     4  11  22  35  54  84 118 149 189 231 283 343
#     4  11  20  33  53  82 113 145 181 225 288 349
#     4  11  20  37  56  82 114 147 184 240 281 338
#     4  11  22  35  57  88 121 148 182 236 299 352
#     4  10  20  33  54  81 114 150 186 225 279 339
#     4   9  20  37  56  80 111 150 194 233 269 324
#     4  11  23  40  59  81 113 156 199 238 279 339
#
# _framework density 17.835032000000002
#
# number of rings (size 3 to 8) (size 9 to 14) (size 15 to 20)
#    0.000    1.375    5.000    2.625    1.750    1.500 
#    0.000    0.000    0.000    1.500    0.000    0.000 
#    0.000    0.000    0.000    0.000    0.000    0.000 
#
# Total GULP energy -396842.660049 kJ/mol
# GULP energy per Si atom -12401.333127 kJ/mol
# Density = 1.779444 g / cm^3
# Si number density = 17.835032 Si / 1000 Ang^3
#
#
#
# Elastic Constant Matrix: (Units=GPa)
#
#
# Indices 1 2 3 4 5 6 
#
# 1 75.2036 21.2355 26.8628 0.0000 0.0000 0.0000
# 2 21.2355 70.0766 27.0143 0.0000 0.0000 0.0000
# 3 26.8628 27.0143 91.1176 0.0000 0.0000 0.0000
# 4 0.0000 0.0000 0.0000 23.8297 0.0000 0.0000
# 5 0.0000 0.0000 0.0000 0.0000 34.7334 0.0000
# 6 0.0000 0.0000 0.0000 0.0000 0.0000 21.7900
#
#
#
# Elastic Compliance Matrix: (Units=1/GPa)
#
#
# Indices 1 2 3 4 5 6 
#
# 1 0.015517 -0.003318 -0.003591 0.000000 0.000000 0.000000
# 2 -0.003318 0.016821 -0.004009 0.000000 0.000000 0.000000
# 3 -0.003591 -0.004009 0.013222 0.000000 0.000000 0.000000
# 4 0.000000 0.000000 0.000000 0.041964 0.000000 0.000000
# 5 0.000000 0.000000 0.000000 0.000000 0.028791 0.000000
# 6 0.000000 0.000000 0.000000 0.000000 0.000000 0.045893
#
#
# Mechanical properties :
#
#
# Convention : Reuss Voigt Hill
#
# Bulk Modulus (GPa) = 42.15050 42.95810 42.55430
# Shear Modulus (GPa) = 26.04832 26.82296 26.43564
#
# Velocity S-wave (km/s) = 3.82581 3.88228 3.85415
# Velocity P-wave (km/s) = 6.57272 6.65093 6.61194
#
# Compressibility (1/GPa) = 0.02372451
#
# Stress axis : x y z
#
# Youngs Moduli (GPa) = 64.44636 59.44984 75.63143
#
# Poissons Ratio (x) = 0.19724 0.27159
# Poissons Ratio (y) = 0.21382 0.30320
# Poissons Ratio (z) = 0.23142 0.23833
#
# Static dielectric constant tensor:
#      x y z
#    x 3.434880 0.000000 0.000000 
#    y 0.000000 3.069450 0.000000 
#    z 0.000000 0.000000 3.395550 
# 
# 
# High freq. dielectric constant tensor:
#      x y z
#    x 1.688080 0.000000 0.000000 
#    y 0.000000 1.652550 0.000000 
#    z 0.000000 0.000000 1.705110 
# 
# From -- ./inp_files/8440.got.cif
#   From: 2010.03.12/outbox.cif.g09.slc.cpg/sg44_5_cif.got.tgz:8440.got - 2010.04.14 02:36:11.
