data_PCOD8189747
_publ_section_title
;
Structure prediction by ZEFSAII (Michael W. Deem and Ramdas Pophale) SiO2 
 PCOD8189747
Probable space group: I M M 2
;
_chemical_formula_sum "Si O2"
_cell_formula_units_Z 40
_cell_length_a 9.011477
_cell_length_b 22.912736
_cell_length_c 10.088607
_cell_angle_alpha 90.000000
_cell_angle_beta 90.000000
_cell_angle_gamma 90.000000
_cell_volume 2083.071295
_symmetry_space_group_name_H-M "I M M 2"
_symmetry_group_IT_number 44
_symmetry_cell_setting 'orthorhombic'
loop_
_space_group_symop_operation_xyz
x,y,z
-x,-y,z
-x,y,z
x,-y,z
1/2+x,1/2+y,1/2+z
1/2-x,1/2-y,1/2+z
1/2-x,1/2+y,1/2+z
1/2+x,1/2-y,1/2+z
loop_
_atom_site_type_symbol
_atom_site_label
_atom_site_fract_x
_atom_site_fract_y
_atom_site_fract_z
Si Si1 0.827582 0.880300 0.849180
Si Si2 0.173626 0.677403 0.106322
Si Si3 0.176701 0.000000 0.275048
Si Si4 0.676448 0.500000 0.472733
Si Si5 0.673018 0.689547 0.608818
Si Si6 0.174804 0.617271 0.834487
O O1 0.748787 0.863464 0.714084
O O2 0.000000 0.886361 0.818030
O O3 0.763239 0.942445 0.898849
O O4 0.797640 0.830956 0.958929
O O5 0.227183 0.743990 0.121132
O O6 0.000000 0.673131 0.128730
O O7 0.218812 0.655692 0.961154
O O8 0.241159 0.056154 0.349287
O O9 0.000000 0.000000 0.285093
O O10 0.234064 0.000000 0.123507
O O11 0.500000 0.500000 0.476838
O O12 0.500000 0.681399 0.645582
O O13 0.771571 0.650689 0.704562
O O14 0.000000 0.606308 0.824715
#
# Coordination Sequence:
#
# PCOD8189747 Si02
#       6
#     8   8   4   4   8   8
#     4  10  20  37  61  86 112 148 195 244 289 341
#     4  10  23  39  55  84 124 157 189 237 295 347
#     4  11  21  40  65  86 114 154 197 241 290 349
#     4   9  18  36  61  84 108 142 189 239 284 339
#     4  10  20  38  62  85 114 156 200 239 285 345
#     4  11  23  39  60  89 122 154 192 243 295 342
#
# _framework density 19.202414999999998
#
# number of rings (size 3 to 8) (size 9 to 14) (size 15 to 20)
#    0.000    1.800    2.000    2.100    0.000    5.600 
#    0.000    2.500    0.000    0.000    0.000    0.000 
#    0.000    0.000    0.000    0.000    0.000    0.000 
#
# Total GULP energy -248085.972565 kJ/mol
# GULP energy per Si atom -12404.298628 kJ/mol
# Density = 1.915871 g / cm^3
# Si number density = 19.202415 Si / 1000 Ang^3
#
#
#
# Elastic Constant Matrix: (Units=GPa)
#
#
# Indices 1 2 3 4 5 6 
#
# 1 48.3853 37.1538 31.8624 0.0001 0.0000 0.0000
# 2 37.1538 124.5585 18.1841 0.0003 0.0000 0.0000
# 3 31.8624 18.1841 63.6733 0.0014 0.0004 0.0001
# 4 0.0001 0.0003 0.0014 26.1459 0.0000 0.0000
# 5 0.0000 0.0000 0.0004 0.0000 36.4375 0.0001
# 6 0.0000 0.0000 0.0001 0.0000 0.0001 32.7498
#
#
#
# Elastic Compliance Matrix: (Units=1/GPa)
#
#
# Indices 1 2 3 4 5 6 
#
# 1 0.038688 -0.009093 -0.016763 0.000001 0.000000 0.000000
# 2 -0.009093 0.010515 0.001547 0.000000 0.000000 0.000000
# 3 -0.016763 0.001547 0.023652 -0.000001 0.000000 0.000000
# 4 0.000001 0.000000 -0.000001 0.038247 0.000000 0.000000
# 5 0.000000 0.000000 0.000000 0.000000 0.027444 0.000000
# 6 0.000000 0.000000 0.000000 0.000000 0.000000 0.030535
#
#
# Mechanical properties :
#
#
# Convention : Reuss Voigt Hill
#
# Bulk Modulus (GPa) = 41.25861 45.66864 43.46363
# Shear Modulus (GPa) = 22.14577 29.02777 25.58677
#
# Velocity S-wave (km/s) = 3.39968 3.89224 3.65427
# Velocity P-wave (km/s) = 6.07810 6.63580 6.36306
#
# Compressibility (1/GPa) = 0.02423736
#
# Stress axis : x y z
#
# Youngs Moduli (GPa) = 25.84759 95.10458 42.28045
#
# Poissons Ratio (x) = 0.86478 0.70875
# Poissons Ratio (y) = 0.23503 -0.06542
# Poissons Ratio (z) = 0.43328 -0.14715
#
# Static dielectric constant tensor:
#      x y z
#    x 3.346460 0.000000 0.000000 
#    y 0.000000 3.917530 0.000000 
#    z 0.000000 0.000000 3.451110 
# 
# 
# High freq. dielectric constant tensor:
#      x y z
#    x 1.732310 0.000000 0.000000 
#    y 0.000000 1.765640 0.000000 
#    z 0.000000 0.000000 1.749090 
# 
# From -- ./inp_files/4474.got.cif
#   From: 2010.03.12/outbox.cif.g09.slc.cpg/sg44_3_cif.got.tgz:4474.got - 2010.04.14 02:36:11.
