data_PCOD8189606
_publ_section_title
;
Structure prediction by ZEFSAII (Michael W. Deem and Ramdas Pophale) SiO2 
 PCOD8189606
Probable space group: I M M 2
;
_chemical_formula_sum "Si O2"
_cell_formula_units_Z 64
_cell_length_a 17.039084
_cell_length_b 18.824750
_cell_length_c 9.889469
_cell_angle_alpha 90.000000
_cell_angle_beta 90.000000
_cell_angle_gamma 90.000000
_cell_volume 3172.111429
_symmetry_space_group_name_H-M "I M M 2"
_symmetry_group_IT_number 44
_symmetry_cell_setting 'orthorhombic'
loop_
_space_group_symop_operation_xyz
x,y,z
-x,-y,z
-x,y,z
x,-y,z
1/2+x,1/2+y,1/2+z
1/2-x,1/2-y,1/2+z
1/2-x,1/2+y,1/2+z
1/2+x,1/2-y,1/2+z
loop_
_atom_site_type_symbol
_atom_site_label
_atom_site_fract_x
_atom_site_fract_y
_atom_site_fract_z
Si Si1 0.654240 0.180649 0.892390
Si Si2 0.834127 0.643472 0.855851
Si Si3 0.167122 0.193974 0.805713
Si Si4 0.164345 0.083440 0.315284
Si Si5 0.091474 0.176872 0.524602
Si Si6 0.410653 0.819559 0.617176
Si Si7 0.911133 0.418393 0.608589
Si Si8 0.908272 0.841491 0.071356
O O1 0.741766 0.184099 0.836127
O O2 0.600920 0.151804 0.768936
O O3 0.624033 0.256236 0.942518
O O4 0.648464 0.125079 0.014396
O O5 0.854496 0.723070 0.808217
O O6 0.743312 0.626240 0.844619
O O7 0.885113 0.590715 0.763705
O O8 0.859150 0.634746 0.012268
O O9 0.142564 0.164356 0.659487
O O10 0.118005 0.149375 0.916147
O O11 0.101107 0.108633 0.427115
O O12 0.135494 0.101225 0.164364
O O13 0.178605 0.000000 0.327813
O O14 0.000000 0.187339 0.560874
O O15 0.500000 0.826556 0.570585
O O16 0.383431 0.737330 0.618859
O O17 0.904705 0.500000 0.567773
O O18 0.000000 0.390399 0.589997
O O19 0.000000 0.855103 0.085172
#
# Coordination Sequence:
#
# PCOD8189606 Si02
#       8
#     8   8   8   8   8   8   8   8
#     4  12  22  38  65  93 128 164 207 264 312 368
#     4  11  21  39  62  92 127 163 207 263 315 377
#     4  11  23  38  66  95 126 157 207 266 321 366
#     4  12  25  41  63  91 128 174 215 260 315 374
#     4  12  24  41  65  95 127 166 213 265 317 371
#     4  10  20  35  60  93 124 157 203 262 318 367
#     4  11  24  41  63  94 132 173 212 253 312 386
#     4  10  21  38  60  90 123 159 208 262 314 373
#
# _framework density 20.175834999999999
#
# number of rings (size 3 to 8) (size 9 to 14) (size 15 to 20)
#    0.000    0.875    3.750    4.125    1.750    2.000 
#    0.000    3.750    0.000    4.500    0.000    0.000 
#    0.000    0.000    0.000    0.000    0.000    0.000 
#
# Total GULP energy -396957.095172 kJ/mol
# GULP energy per Si atom -12404.909224 kJ/mol
# Density = 2.012991 g / cm^3
# Si number density = 20.175835 Si / 1000 Ang^3
#
#
#
# Elastic Constant Matrix: (Units=GPa)
#
#
# Indices 1 2 3 4 5 6 
#
# 1 106.2518 17.9423 42.2581 0.0000 0.0000 0.0000
# 2 17.9423 57.7434 33.6889 0.0000 0.0000 0.0000
# 3 42.2581 33.6889 147.4306 0.0000 0.0000 0.0000
# 4 0.0000 0.0000 0.0000 25.7448 0.0000 0.0000
# 5 0.0000 0.0000 0.0000 0.0000 41.6197 0.0000
# 6 0.0000 0.0000 0.0000 0.0000 0.0000 14.0727
#
#
#
# Elastic Compliance Matrix: (Units=1/GPa)
#
#
# Indices 1 2 3 4 5 6 
#
# 1 0.010780 -0.001785 -0.002682 0.000000 0.000000 0.000000
# 2 -0.001785 0.020277 -0.004122 0.000000 0.000000 0.000000
# 3 -0.002682 -0.004122 0.008493 0.000000 0.000000 0.000000
# 4 0.000000 0.000000 0.000000 0.038843 0.000000 0.000000
# 5 0.000000 0.000000 0.000000 0.000000 0.024027 0.000000
# 6 0.000000 0.000000 0.000000 0.000000 0.000000 0.071060
#
#
# Mechanical properties :
#
#
# Convention : Reuss Voigt Hill
#
# Bulk Modulus (GPa) = 44.69637 55.46714 50.08175
# Shear Modulus (GPa) = 25.23784 30.78987 28.01385
#
# Velocity S-wave (km/s) = 3.54064 3.91074 3.73028
# Velocity P-wave (km/s) = 6.23829 6.92412 6.59013
#
# Compressibility (1/GPa) = 0.02237318
#
# Stress axis : x y z
#
# Youngs Moduli (GPa) = 92.76744 49.31588 117.73742
#
# Poissons Ratio (x) = 0.08802 0.31576
# Poissons Ratio (y) = 0.16557 0.48531
# Poissons Ratio (z) = 0.24880 0.20328
#
# Static dielectric constant tensor:
#      x y z
#    x 3.721090 0.000000 0.000000 
#    y 0.000000 3.368630 0.000000 
#    z 0.000000 0.000000 3.865750 
# 
# 
# High freq. dielectric constant tensor:
#      x y z
#    x 1.801830 0.000000 0.000000 
#    y 0.000000 1.750410 0.000000 
#    z 0.000000 0.000000 1.804000 
# 
# From -- ./inp_files/8454.got.cif
#   From: 2010.03.12/outbox.cif.g09.slc.cpg/sg44_5_cif.got.tgz:8454.got - 2010.04.14 02:36:11.
