data_PCOD8189869
_publ_section_title
;
Structure prediction by ZEFSAII (Michael W. Deem and Ramdas Pophale) SiO2 
 PCOD8189869
Probable space group: I M M 2
;
_chemical_formula_sum "Si O2"
_cell_formula_units_Z 36
_cell_length_a 14.731490
_cell_length_b 17.572772
_cell_length_c 7.445386
_cell_angle_alpha 90.000000
_cell_angle_beta 90.000000
_cell_angle_gamma 90.000000
_cell_volume 1927.410266
_symmetry_space_group_name_H-M "I M M 2"
_symmetry_group_IT_number 44
_symmetry_cell_setting 'orthorhombic'
loop_
_space_group_symop_operation_xyz
x,y,z
-x,-y,z
-x,y,z
x,-y,z
1/2+x,1/2+y,1/2+z
1/2-x,1/2-y,1/2+z
1/2-x,1/2+y,1/2+z
1/2+x,1/2-y,1/2+z
loop_
_atom_site_type_symbol
_atom_site_label
_atom_site_fract_x
_atom_site_fract_y
_atom_site_fract_z
Si Si1 0.000000 0.165529 0.328190
Si Si2 0.500000 0.811760 0.630339
Si Si3 0.177219 0.088450 0.923789
Si Si4 0.822782 0.911551 0.336891
Si Si5 0.321850 0.088263 0.630341
Si Si6 0.000000 0.834472 0.932490
O O1 0.092398 0.135914 0.420877
O O2 0.000000 0.257608 0.308198
O O3 0.000000 0.126264 0.130341
O O4 0.587775 0.863376 0.630339
O O5 0.500000 0.757608 0.452481
O O6 0.265383 0.109514 0.808270
O O7 0.092398 0.135914 0.839804
O O8 0.153363 0.000000 0.902922
O O9 0.197926 0.110970 0.130341
O O10 0.734619 0.890489 0.452412
O O11 0.846642 0.000000 0.357752
O O12 0.349091 0.000000 0.630343
#
# Coordination Sequence:
#
# PCOD8189869 Si02
#       6
#     4   4   8   8   8   4
#     4   8  17  32  50  79 104 136 159 202 272 304
#     4  10  21  36  51  72 112 142 172 206 253 312
#     4   9  17  33  56  80 104 130 170 216 258 305
#     4   9  17  33  56  80 104 130 170 216 258 305
#     4  10  21  35  56  76  98 141 180 213 249 293
#     4   8  17  32  50  79 104 136 159 202 272 304
#
# _framework density 18.677911999999999
#
# number of rings (size 3 to 8) (size 9 to 14) (size 15 to 20)
#    0.667    2.222    0.000    1.000    0.000    5.333 
#    0.000    4.444    4.889    5.333    0.000    0.000 
#    0.000    0.000    0.000    0.000    0.000    0.000 
#
# Total GULP energy -223074.167875 kJ/mol
# GULP energy per Si atom -12393.009326 kJ/mol
# Density = 1.863540 g / cm^3
# Si number density = 18.677912 Si / 1000 Ang^3
#
#
#
# Elastic Constant Matrix: (Units=GPa)
#
#
# Indices 1 2 3 4 5 6 
#
# 1 190.7158 101.1801 56.3055 0.0000 0.0000 0.0000
# 2 101.1801 98.0522 34.5599 0.0000 0.0000 0.0000
# 3 56.3055 34.5599 77.6411 0.0000 0.0000 0.0000
# 4 0.0000 0.0000 0.0000 13.3368 0.0000 0.0000
# 5 0.0000 0.0000 0.0000 0.0000 -43.1519 0.0000
# 6 0.0000 0.0000 0.0000 0.0000 0.0000 100.8929
#
#
#
# Elastic Compliance Matrix: (Units=1/GPa)
#
#
# Indices 1 2 3 4 5 6 
#
# 1 0.012532 -0.011538 -0.003952 0.000000 0.000000 0.000000
# 2 -0.011538 0.022721 -0.001746 0.000000 0.000000 0.000000
# 3 -0.003952 -0.001746 0.016523 0.000000 0.000000 0.000000
# 4 0.000000 0.000000 0.000000 0.074981 0.000000 0.000000
# 5 0.000000 0.000000 0.000000 0.000000 -0.023174 0.000000
# 6 0.000000 0.000000 0.000000 0.000000 0.000000 0.009912
#
#
# Mechanical properties :
#
#
# Convention : Reuss Voigt Hill
#
# Bulk Modulus (GPa) = 57.79444 83.38890 70.59167
# Shear Modulus (GPa) = 32.52393 25.83978 29.18186
#
# Velocity S-wave (km/s) = 4.17742 3.72350 3.95697
# Velocity P-wave (km/s) = 7.36734 7.95164 7.66506
#
# Compressibility (1/GPa) = 0.01730270
#
# Stress axis : x y z
#
# Youngs Moduli (GPa) = 79.79818 44.01310 60.52251
#
# Poissons Ratio (x) = 0.50784 0.23918
# Poissons Ratio (y) = 0.92075 0.10566
# Poissons Ratio (z) = 0.31535 0.07683
#
# Static dielectric constant tensor:
#      x y z
#    x 3.348690 0.000000 0.000000 
#    y 0.000000 3.232360 0.000000 
#    z 0.000000 0.000000 3.422120 
# 
# 
# High freq. dielectric constant tensor:
#      x y z
#    x 1.725580 0.000000 0.000000 
#    y 0.000000 1.711530 0.000000 
#    z 0.000000 0.000000 1.702920 
# 
# From -- ./inp_files/5799.got.cif
#   From: 2010.03.12/outbox.cif.g09.slc.cpg/sg44_3_cif.got.tgz:5799.got - 2010.04.14 02:36:11.
