data_PCOD8189741
_publ_section_title
;
Structure prediction by ZEFSAII (Michael W. Deem and Ramdas Pophale) SiO2 
 PCOD8189741
Probable space group: I M M 2
;
_chemical_formula_sum "Si O2"
_cell_formula_units_Z 64
_cell_length_a 8.831625
_cell_length_b 23.889503
_cell_length_c 15.388525
_cell_angle_alpha 90.000000
_cell_angle_beta 90.000000
_cell_angle_gamma 90.000000
_cell_volume 3246.719200
_symmetry_space_group_name_H-M "I M M 2"
_symmetry_group_IT_number 44
_symmetry_cell_setting 'orthorhombic'
loop_
_space_group_symop_operation_xyz
x,y,z
-x,-y,z
-x,y,z
x,-y,z
1/2+x,1/2+y,1/2+z
1/2-x,1/2-y,1/2+z
1/2-x,1/2+y,1/2+z
1/2+x,1/2-y,1/2+z
loop_
_atom_site_type_symbol
_atom_site_label
_atom_site_fract_x
_atom_site_fract_y
_atom_site_fract_z
Si Si1 0.826983 0.642402 0.970760
Si Si2 0.825578 0.250153 0.407652
Si Si3 0.325623 0.141016 0.665015
Si Si4 0.823923 0.435480 0.812769
Si Si5 0.680090 0.062711 0.818065
Si Si6 0.822060 0.251580 0.723442
Si Si7 0.678071 0.366038 0.663282
Si Si8 0.175622 0.369316 0.485033
O O1 0.718912 0.695822 0.962334
O O2 0.778755 0.595220 0.902125
O O3 0.000000 0.661533 0.954700
O O4 0.808334 0.616975 0.067459
O O5 0.722156 0.254705 0.323367
O O6 0.797386 0.303827 0.467594
O O7 0.000000 0.246509 0.378184
O O8 0.500000 0.154691 0.687736
O O9 0.260797 0.095338 0.732604
O O10 0.231892 0.197945 0.670270
O O11 0.782305 0.500000 0.825161
O O12 0.726620 0.411204 0.734407
O O13 0.000000 0.426689 0.790925
O O14 0.500000 0.060868 0.816888
O O15 0.747548 0.000000 0.817172
O O16 0.737591 0.094808 0.903766
O O17 0.750385 0.306361 0.682131
O O18 0.000000 0.257804 0.714888
O O19 0.500000 0.359493 0.664877
O O20 0.731170 0.387957 0.569348
O O21 0.000000 0.382364 0.501719
#
# Coordination Sequence:
#
# PCOD8189741 Si02
#       8
#     8   8   8   8   8   8   8   8
#     4  10  21  36  59  89 121 155 193 240 291 350
#     4  11  21  36  60  88 120 155 192 241 297 357
#     4  10  20  37  60  91 124 156 197 242 290 346
#     4  10  22  41  62  86 119 160 204 247 293 348
#     4   9  18  35  60  88 119 157 200 244 289 340
#     4  12  23  37  60  88 120 157 196 240 300 360
#     4  12  25  40  61  89 120 155 199 248 302 354
#     4  10  21  38  60  88 122 158 198 240 294 357
#
# _framework density 19.712206999999999
#
# number of rings (size 3 to 8) (size 9 to 14) (size 15 to 20)
#    0.000    1.500    2.500    3.375    0.000    4.750 
#    0.000    3.750    0.000    1.125    0.000    1.750 
#    0.000    0.000    0.000    0.000    0.000    0.000 
#
# Total GULP energy -396937.433881 kJ/mol
# GULP energy per Si atom -12404.294809 kJ/mol
# Density = 1.966734 g / cm^3
# Si number density = 19.712207 Si / 1000 Ang^3
#
#
#
# Elastic Constant Matrix: (Units=GPa)
#
#
# Indices 1 2 3 4 5 6 
#
# 1 89.3734 47.8020 50.7239 0.0001 0.0000 0.0000
# 2 47.8020 135.3494 57.2877 0.0001 0.0000 0.0000
# 3 50.7239 57.2877 148.1639 0.0002 0.0000 0.0000
# 4 0.0001 0.0001 0.0002 9.7523 0.0000 0.0000
# 5 0.0000 0.0000 0.0000 0.0000 23.7877 0.0000
# 6 0.0000 0.0000 0.0000 0.0000 0.0000 23.7017
#
#
#
# Elastic Compliance Matrix: (Units=1/GPa)
#
#
# Indices 1 2 3 4 5 6 
#
# 1 0.015387 -0.003832 -0.003786 0.000000 0.000000 0.000000
# 2 -0.003832 0.009788 -0.002473 0.000000 0.000000 0.000000
# 3 -0.003786 -0.002473 0.009002 0.000000 0.000000 0.000000
# 4 0.000000 0.000000 0.000000 0.102540 0.000000 0.000000
# 5 0.000000 0.000000 0.000000 0.000000 0.042038 0.000000
# 6 0.000000 0.000000 0.000000 0.000000 0.000000 0.042191
#
#
# Mechanical properties :
#
#
# Convention : Reuss Voigt Hill
#
# Bulk Modulus (GPa) = 71.45212 76.05710 73.75461
# Shear Modulus (GPa) = 20.34228 25.91988 23.13108
#
# Velocity S-wave (km/s) = 3.21590 3.63011 3.42927
# Velocity P-wave (km/s) = 7.07925 7.49919 7.29224
#
# Compressibility (1/GPa) = 0.01399539
#
# Stress axis : x y z
#
# Youngs Moduli (GPa) = 64.98811 102.16342 111.09109
#
# Poissons Ratio (x) = 0.39148 0.42062
# Poissons Ratio (y) = 0.24903 0.27470
# Poissons Ratio (z) = 0.24606 0.25263
#
# Static dielectric constant tensor:
#      x y z
#    x 3.480260 0.000000 0.000000 
#    y 0.000000 3.648960 0.000000 
#    z 0.000000 0.000000 3.756070 
# 
# 
# High freq. dielectric constant tensor:
#      x y z
#    x 1.748850 0.000000 0.000000 
#    y 0.000000 1.763780 0.000000 
#    z 0.000000 0.000000 1.785000 
# 
# From -- ./inp_files/16791.got.cif
#   From: 2010.03.12/outbox.cif.g09.slc.cpg/sg44_9_cif.got.tgz:16791.got - 2010.04.14 02:36:11.
