data_PCOD8189006
_publ_section_title
;
Structure prediction by ZEFSAII (Michael W. Deem and Ramdas Pophale) SiO2 
 PCOD8189006
Probable space group: I M M 2
;
_chemical_formula_sum "Si O2"
_cell_formula_units_Z 46
_cell_length_a 7.584825
_cell_length_b 11.746582
_cell_length_c 26.229710
_cell_angle_alpha 90.000000
_cell_angle_beta 90.000000
_cell_angle_gamma 90.000000
_cell_volume 2336.956178
_symmetry_space_group_name_H-M "I M M 2"
_symmetry_group_IT_number 44
_symmetry_cell_setting 'orthorhombic'
loop_
_space_group_symop_operation_xyz
x,y,z
-x,-y,z
-x,y,z
x,-y,z
1/2+x,1/2+y,1/2+z
1/2-x,1/2-y,1/2+z
1/2-x,1/2+y,1/2+z
1/2+x,1/2-y,1/2+z
loop_
_atom_site_type_symbol
_atom_site_label
_atom_site_fract_x
_atom_site_fract_y
_atom_site_fract_z
Si Si1 0.000000 0.000000 0.844880
Si Si2 0.700280 0.000000 0.758294
Si Si3 0.804613 0.871991 0.416269
Si Si4 0.198851 0.373238 0.806064
Si Si5 0.500000 0.627468 0.542182
Si Si6 0.500000 0.302611 0.429821
Si Si7 0.791944 0.767554 0.713528
Si Si8 0.797815 0.365609 0.614521
O O1 0.828492 0.000000 0.808014
O O2 0.000000 0.112904 0.880785
O O3 0.732237 0.102983 0.719145
O O4 0.500000 0.000000 0.779158
O O5 0.820213 0.865148 0.355378
O O6 0.671539 0.776100 0.434830
O O7 0.000000 0.847934 0.438597
O O8 0.741094 0.000000 0.432029
O O9 0.192066 0.500000 0.783668
O O10 0.286349 0.295544 0.762995
O O11 0.000000 0.333536 0.821863
O O12 0.500000 0.500000 0.561872
O O13 0.500000 0.625940 0.481430
O O14 0.320248 0.678231 0.566756
O O15 0.723898 0.707348 0.662323
O O16 0.000000 0.754873 0.715351
O O17 0.781105 0.500000 0.626735
O O18 0.000000 0.334393 0.601735
#
# Coordination Sequence:
#
# PCOD8189006 Si02
#       8
#     2   4   8   8   4   4   8   8
#     4  12  26  44  58  90 130 178 220 266 292 384
#     4  12  26  40  56  82 128 172 216 248 292 367
#     4  10  21  37  59  89 122 155 199 258 316 372
#     4   9  16  29  53  85 117 148 185 231 291 356
#     4  10  22  41  61  92 118 152 203 269 309 364
#     4  12  23  40  65  84 120 169 216 255 322 361
#     4  10  19  35  58  84 117 162 194 235 292 361
#     4   9  19  37  63  91 119 145 188 253 322 370
#
# _framework density 19.683724000000002
#
# number of rings (size 3 to 8) (size 9 to 14) (size 15 to 20)
#    0.000    1.913    2.174    1.826    1.217    5.565 
#    0.000    0.000    3.826    0.000    0.000    0.000 
#    0.000    0.000    0.000    0.000    0.000    0.000 
#
# Total GULP energy -285030.412634 kJ/mol
# GULP energy per Si atom -12392.626636 kJ/mol
# Density = 1.963892 g / cm^3
# Si number density = 19.683724 Si / 1000 Ang^3
#
#
#
# Elastic Constant Matrix: (Units=GPa)
#
#
# Indices 1 2 3 4 5 6 
#
# 1 92.4562 27.7830 35.3903 0.0000 0.0000 0.0000
# 2 27.7830 88.6700 28.3534 0.0000 0.0000 0.0000
# 3 35.3903 28.3534 84.1422 0.0000 0.0000 0.0000
# 4 0.0000 0.0000 0.0000 18.9770 0.0000 0.0000
# 5 0.0000 0.0000 0.0000 0.0000 15.8761 0.0000
# 6 0.0000 0.0000 0.0000 0.0000 0.0000 13.8707
#
#
#
# Elastic Compliance Matrix: (Units=1/GPa)
#
#
# Indices 1 2 3 4 5 6 
#
# 1 0.013442 -0.002694 -0.004746 0.000000 0.000000 0.000000
# 2 -0.002694 0.013180 -0.003308 0.000000 0.000000 0.000000
# 3 -0.004746 -0.003308 0.014995 0.000000 0.000000 0.000000
# 4 0.000000 0.000000 0.000000 0.052695 0.000000 0.000000
# 5 0.000000 0.000000 0.000000 0.000000 0.062988 0.000000
# 6 0.000000 0.000000 0.000000 0.000000 0.000000 0.072094
#
#
# Mechanical properties :
#
#
# Convention : Reuss Voigt Hill
#
# Bulk Modulus (GPa) = 49.69908 49.81352 49.75630
# Shear Modulus (GPa) = 19.41010 21.32756 20.36883
#
# Velocity S-wave (km/s) = 3.14363 3.29525 3.22033
# Velocity P-wave (km/s) = 6.20324 6.31190 6.25781
#
# Compressibility (1/GPa) = 0.02012110
#
# Stress axis : x y z
#
# Youngs Moduli (GPa) = 74.39259 75.87409 66.68681
#
# Poissons Ratio (x) = 0.20443 0.31649
# Poissons Ratio (y) = 0.20043 0.22060
# Poissons Ratio (z) = 0.35306 0.25099
#
# Static dielectric constant tensor:
#      x y z
#    x 3.607400 0.000000 0.000000 
#    y 0.000000 3.639500 0.000000 
#    z 0.000000 0.000000 3.330310 
# 
# 
# High freq. dielectric constant tensor:
#      x y z
#    x 1.771040 0.000000 0.000000 
#    y 0.000000 1.763150 0.000000 
#    z 0.000000 0.000000 1.740490 
# 
# From -- ./inp_files/26052.got.cif
#   From: 2010.03.12/outbox.cif.g09.slc.cpg/sg44_14_cif.got.tgz:26052.got - 2010.04.14 02:36:11.
