data_PCOD8189644
_publ_section_title
;
Structure prediction by ZEFSAII (Michael W. Deem and Ramdas Pophale) SiO2 
 PCOD8189644
Probable space group: I M M 2
;
_chemical_formula_sum "Si O2"
_cell_formula_units_Z 48
_cell_length_a 8.780949
_cell_length_b 16.454995
_cell_length_c 18.170557
_cell_angle_alpha 90.000000
_cell_angle_beta 90.000000
_cell_angle_gamma 90.000000
_cell_volume 2625.472355
_symmetry_space_group_name_H-M "I M M 2"
_symmetry_group_IT_number 44
_symmetry_cell_setting 'orthorhombic'
loop_
_space_group_symop_operation_xyz
x,y,z
-x,-y,z
-x,y,z
x,-y,z
1/2+x,1/2+y,1/2+z
1/2-x,1/2-y,1/2+z
1/2-x,1/2+y,1/2+z
1/2+x,1/2-y,1/2+z
loop_
_atom_site_type_symbol
_atom_site_label
_atom_site_fract_x
_atom_site_fract_y
_atom_site_fract_z
Si Si1 0.822416 0.500000 0.927060
Si Si2 0.824692 0.164561 0.439556
Si Si3 0.673387 0.816382 0.036840
Si Si4 0.679666 0.263034 0.309680
Si Si5 0.321763 0.093188 0.890017
Si Si6 0.322021 0.000000 0.254591
Si Si7 0.321557 0.338902 0.689371
O O1 0.745372 0.421312 0.963833
O O2 0.787198 0.500000 0.840725
O O3 0.000000 0.500000 0.945202
O O4 0.808474 0.224338 0.508657
O O5 0.732497 0.198121 0.370073
O O6 0.000000 0.155340 0.415603
O O7 0.500000 0.833131 0.062198
O O8 0.787942 0.830399 0.103227
O O9 0.720989 0.878476 0.972165
O O10 0.500000 0.259630 0.303285
O O11 0.731826 0.353956 0.330025
O O12 0.750620 0.238459 0.231387
O O13 0.500000 0.107711 0.876671
O O14 0.273783 0.000000 0.879717
O O15 0.249726 0.921376 0.218614
O O16 0.500000 0.000000 0.237833
O O17 0.500000 0.340812 0.702715
#
# Coordination Sequence:
#
# PCOD8189644 Si02
#       7
#     4   8   8   8   8   4   8
#     4  11  21  33  57  87 114 145 182 229 276 324
#     4  10  20  36  58  82 110 147 187 227 274 329
#     4   9  20  37  57  82 113 150 183 221 276 334
#     4  11  21  35  56  81 111 148 186 229 277 327
#     4   9  19  37  60  85 111 145 185 227 275 329
#     4  11  23  37  55  83 116 149 180 223 278 332
#     4  12  24  37  56  83 114 149 186 229 275 328
#
# _framework density 18.282423999999999
#
# number of rings (size 3 to 8) (size 9 to 14) (size 15 to 20)
#    0.000    1.667    1.667    5.000    1.167    4.333 
#    0.000    0.000    1.833    0.000    0.000    0.000 
#    0.000    0.000    0.000    0.000    0.000    0.000 
#
# Total GULP energy -297711.961992 kJ/mol
# GULP energy per Si atom -12404.665083 kJ/mol
# Density = 1.824081 g / cm^3
# Si number density = 18.282424 Si / 1000 Ang^3
#
#
#
# Elastic Constant Matrix: (Units=GPa)
#
#
# Indices 1 2 3 4 5 6 
#
# 1 126.2758 58.0260 50.1284 0.0000 0.0000 0.0000
# 2 58.0260 135.3300 37.6460 0.0000 0.0000 0.0000
# 3 50.1284 37.6460 69.1450 0.0000 0.0000 0.0000
# 4 0.0000 0.0000 0.0000 16.8212 0.0000 0.0000
# 5 0.0000 0.0000 0.0000 0.0000 29.8316 0.0000
# 6 0.0000 0.0000 0.0000 0.0000 0.0000 26.9515
#
#
#
# Elastic Compliance Matrix: (Units=1/GPa)
#
#
# Indices 1 2 3 4 5 6 
#
# 1 0.012239 -0.003275 -0.007089 0.000000 0.000000 0.000000
# 2 -0.003275 0.009585 -0.002844 0.000000 0.000000 0.000000
# 3 -0.007089 -0.002844 0.021150 0.000000 0.000000 0.000000
# 4 0.000000 0.000000 0.000000 0.059449 0.000000 0.000000
# 5 0.000000 0.000000 0.000000 0.000000 0.033521 0.000000
# 6 0.000000 0.000000 0.000000 0.000000 0.000000 0.037104
#
#
# Mechanical properties :
#
#
# Convention : Reuss Voigt Hill
#
# Bulk Modulus (GPa) = 60.39951 69.15017 64.77484
# Shear Modulus (GPa) = 24.39215 27.05088 25.72151
#
# Velocity S-wave (km/s) = 3.65661 3.85074 3.75493
# Velocity P-wave (km/s) = 7.13697 7.59450 7.36929
#
# Compressibility (1/GPa) = 0.01655643
#
# Stress axis : x y z
#
# Youngs Moduli (GPa) = 81.70853 104.33085 47.28072
#
# Poissons Ratio (x) = 0.34174 0.33519
# Poissons Ratio (y) = 0.26764 0.13446
# Poissons Ratio (z) = 0.57926 0.29670
#
# Static dielectric constant tensor:
#      x y z
#    x 3.404660 0.000000 0.000000 
#    y 0.000000 3.547770 0.000000 
#    z 0.000000 0.000000 3.215080 
# 
# 
# High freq. dielectric constant tensor:
#      x y z
#    x 1.718540 0.000000 0.000000 
#    y 0.000000 1.715900 0.000000 
#    z 0.000000 0.000000 1.687230 
# 
# From -- ./inp_files/20342.got.cif
#   From: 2010.03.12/outbox.cif.g09.slc.cpg/sg44_11_cif.got.tgz:20342.got - 2010.04.14 02:36:11.
