data_PCOD8189134
_publ_section_title
;
Structure prediction by ZEFSAII (Michael W. Deem and Ramdas Pophale) SiO2 
 PCOD8189134
Probable space group: I M M 2
;
_chemical_formula_sum "Si O2"
_cell_formula_units_Z 48
_cell_length_a 9.200271
_cell_length_b 9.316264
_cell_length_c 31.063410
_cell_angle_alpha 90.000000
_cell_angle_beta 90.000000
_cell_angle_gamma 90.000000
_cell_volume 2662.511766
_symmetry_space_group_name_H-M "I M M 2"
_symmetry_group_IT_number 44
_symmetry_cell_setting 'orthorhombic'
loop_
_space_group_symop_operation_xyz
x,y,z
-x,-y,z
-x,y,z
x,-y,z
1/2+x,1/2+y,1/2+z
1/2-x,1/2-y,1/2+z
1/2-x,1/2+y,1/2+z
1/2+x,1/2-y,1/2+z
loop_
_atom_site_type_symbol
_atom_site_label
_atom_site_fract_x
_atom_site_fract_y
_atom_site_fract_z
Si Si1 0.831470 0.667477 0.319450
Si Si2 0.336908 0.328707 0.142437
Si Si3 0.335687 0.828827 0.559617
Si Si4 0.168074 0.668584 0.892607
Si Si5 0.339018 0.829589 0.723025
Si Si6 0.835593 0.829067 0.476704
O O1 0.801688 0.500000 0.326583
O O2 0.728335 0.756140 0.350387
O O3 0.788573 0.714732 0.270910
O O4 0.000000 0.703546 0.328502
O O5 0.500000 0.269091 0.137938
O O6 0.336841 0.500000 0.142552
O O7 0.242427 0.270664 0.102541
O O8 0.270305 0.268180 0.187045
O O9 0.500000 0.769632 0.558396
O O10 0.248906 0.768953 0.518337
O O11 0.336097 0.000000 0.559208
O O12 0.191510 0.500000 0.886987
O O13 0.254574 0.727066 0.934102
O O14 0.000000 0.707758 0.898897
O O15 0.500000 0.768016 0.713656
O O16 0.345434 0.000000 0.720289
O O17 0.000000 0.769453 0.476968
O O18 0.835428 0.000000 0.477713
#
# Coordination Sequence:
#
# PCOD8189134 Si02
#       6
#     8   8   8   8   8   8
#     4   9  18  32  49  68  90 118 153 191 230 272
#     4   9  15  21  31  50  76 106 140 174 209 255
#     4   9  15  22  33  50  75 107 140 174 214 260
#     4  10  20  32  46  66  92 121 153 188 227 272
#     4   8  14  25  39  55  78 108 140 175 217 262
#     4   9  16  26  40  57  79 109 144 181 221 264
#
# _framework density 18.028089000000001
#
# number of rings (size 3 to 8) (size 9 to 14) (size 15 to 20)
#    0.000    3.000    0.000    3.000    0.000    8.000 
#    0.000    1.667    0.000    0.000    0.000    0.000 
#    0.000    1.333    0.000    9.667    0.000   14.667 
#
# Total GULP energy -297530.998219 kJ/mol
# GULP energy per Si atom -12397.124926 kJ/mol
# Density = 1.798706 g / cm^3
# Si number density = 18.028089 Si / 1000 Ang^3
#
#
#
# Elastic Constant Matrix: (Units=GPa)
#
#
# Indices 1 2 3 4 5 6 
#
# 1 171.2093 21.2910 107.3623 0.0000 0.0000 0.0000
# 2 21.2910 9.7823 20.4186 0.0000 0.0000 0.0000
# 3 107.3623 20.4186 176.7761 0.0000 0.0000 0.0000
# 4 0.0000 0.0000 0.0000 16.6737 0.0000 0.0000
# 5 0.0000 0.0000 0.0000 0.0000 42.8993 0.0000
# 6 0.0000 0.0000 0.0000 0.0000 0.0000 13.9654
#
#
#
# Elastic Compliance Matrix: (Units=1/GPa)
#
#
# Indices 1 2 3 4 5 6 
#
# 1 0.010487 -0.012558 -0.004918 0.000000 0.000000 0.000000
# 2 -0.012558 0.149740 -0.009669 0.000000 0.000000 0.000000
# 3 -0.004918 -0.009669 0.009761 0.000000 0.000000 0.000000
# 4 0.000000 0.000000 0.000000 0.059975 0.000000 0.000000
# 5 0.000000 0.000000 0.000000 0.000000 0.023310 0.000000
# 6 0.000000 0.000000 0.000000 0.000000 0.000000 0.071606
#
#
# Mechanical properties :
#
#
# Convention : Reuss Voigt Hill
#
# Bulk Modulus (GPa) = 8.64327 72.87903 40.76115
# Shear Modulus (GPa) = 11.96933 28.62073 20.29503
#
# Velocity S-wave (km/s) = 2.57947 3.98875 3.35885
# Velocity P-wave (km/s) = 3.69815 7.85662 6.14015
#
# Compressibility (1/GPa) = 0.11569690
#
# Stress axis : x y z
#
# Youngs Moduli (GPa) = 95.35862 6.67825 102.45039
#
# Poissons Ratio (x) = 0.08386 0.50390
# Poissons Ratio (y) = 1.19751 0.99058
# Poissons Ratio (z) = 0.46902 0.06457
#
# Static dielectric constant tensor:
#      x y z
#    x 3.549440 0.000000 0.000000 
#    y 0.000000 2.552600 0.000000 
#    z 0.000000 0.000000 3.596230 
# 
# 
# High freq. dielectric constant tensor:
#      x y z
#    x 1.710890 0.000000 0.000000 
#    y 0.000000 1.609400 0.000000 
#    z 0.000000 0.000000 1.718020 
# 
# From -- ./inp_files/26027.got.cif
#   From: 2010.03.12/outbox.cif.g09.slc.cpg/sg44_14_cif.got.tgz:26027.got - 2010.04.14 02:36:11.
