data_PCOD8189988
_publ_section_title
;
Structure prediction by ZEFSAII (Michael W. Deem and Ramdas Pophale) SiO2 
 PCOD8189988
Probable space group: I M M 2
;
_chemical_formula_sum "Si O2"
_cell_formula_units_Z 48
_cell_length_a 23.431561
_cell_length_b 8.598734
_cell_length_c 11.815161
_cell_angle_alpha 90.000000
_cell_angle_beta 90.000000
_cell_angle_gamma 90.000000
_cell_volume 2380.539436
_symmetry_space_group_name_H-M "I M M 2"
_symmetry_group_IT_number 44
_symmetry_cell_setting 'orthorhombic'
loop_
_space_group_symop_operation_xyz
x,y,z
-x,-y,z
-x,y,z
x,-y,z
1/2+x,1/2+y,1/2+z
1/2-x,1/2-y,1/2+z
1/2-x,1/2+y,1/2+z
1/2+x,1/2-y,1/2+z
loop_
_atom_site_type_symbol
_atom_site_label
_atom_site_fract_x
_atom_site_fract_y
_atom_site_fract_z
Si Si1 0.065140 0.316048 0.858000
Si Si2 0.774536 0.682387 0.476098
Si Si3 0.629046 0.821529 0.139553
Si Si4 0.157172 0.679976 0.037457
Si Si5 0.563591 0.673626 0.950690
Si Si6 0.341335 0.323457 0.775721
O O1 0.060240 0.500000 0.842167
O O2 0.104154 0.244596 0.755161
O O3 0.000000 0.247032 0.859215
O O4 0.098185 0.273195 0.974122
O O5 0.786297 0.500000 0.462221
O O6 0.811501 0.746518 0.585391
O O7 0.708272 0.715270 0.490706
O O8 0.792128 0.767766 0.360741
O O9 0.639623 0.000000 0.166516
O O10 0.581301 0.799257 0.043850
O O11 0.171541 0.500000 0.015499
O O12 0.152097 0.710503 0.169846
O O13 0.500000 0.709937 0.913509
O O14 0.571087 0.500000 0.002374
O O15 0.598330 0.689395 0.836126
O O16 0.327237 0.500000 0.737183
#
# Coordination Sequence:
#
# PCOD8189988 Si02
#       6
#     8   8   8   8   8   8
#     4   9  19  36  57  83 116 154 194 235 284 343
#     4  10  21  37  59  87 115 145 189 242 295 353
#     4   9  18  34  58  85 111 143 186 236 286 340
#     4  11  23  37  57  84 115 153 192 237 291 347
#     4   9  18  33  54  81 112 146 183 229 286 338
#     4  10  21  38  57  79 112 150 190 237 286 339
#
# _framework density 20.163495999999999
#
# number of rings (size 3 to 8) (size 9 to 14) (size 15 to 20)
#    0.000    2.333    0.000    2.000    2.333    3.000 
#    0.000    1.667    0.000    3.500    0.000    0.000 
#    0.000    0.000    0.000    0.000    0.000    0.000 
#
# Total GULP energy -297461.142673 kJ/mol
# GULP energy per Si atom -12394.214278 kJ/mol
# Density = 2.011760 g / cm^3
# Si number density = 20.163496 Si / 1000 Ang^3
#
#
#
# Elastic Constant Matrix: (Units=GPa)
#
#
# Indices 1 2 3 4 5 6 
#
# 1 118.7072 15.2533 46.5839 0.0000 0.0000 0.0000
# 2 15.2533 32.1342 12.5890 0.0000 0.0000 0.0000
# 3 46.5839 12.5890 112.3509 0.0000 0.0000 0.0000
# 4 0.0000 0.0000 0.0000 24.4679 0.0000 0.0000
# 5 0.0000 0.0000 0.0000 0.0000 20.2279 0.0000
# 6 0.0000 0.0000 0.0000 0.0000 0.0000 20.9761
#
#
#
# Elastic Compliance Matrix: (Units=1/GPa)
#
#
# Indices 1 2 3 4 5 6 
#
# 1 0.010404 -0.003398 -0.003933 0.000000 0.000000 0.000000
# 2 -0.003398 0.033658 -0.002363 0.000000 0.000000 0.000000
# 3 -0.003933 -0.002363 0.010796 0.000000 0.000000 0.000000
# 4 0.000000 0.000000 0.000000 0.040870 0.000000 0.000000
# 5 0.000000 0.000000 0.000000 0.000000 0.049437 0.000000
# 6 0.000000 0.000000 0.000000 0.000000 0.000000 0.047673
#
#
# Mechanical properties :
#
#
# Convention : Reuss Voigt Hill
#
# Bulk Modulus (GPa) = 28.19179 45.78275 36.98727
# Shear Modulus (GPa) = 22.31657 25.71878 24.01768
#
# Velocity S-wave (km/s) = 3.33044 3.57531 3.45504
# Velocity P-wave (km/s) = 5.36666 6.30863 5.85661
#
# Compressibility (1/GPa) = 0.03547132
#
# Stress axis : x y z
#
# Youngs Moduli (GPa) = 96.11539 29.71072 92.62507
#
# Poissons Ratio (x) = 0.10095 0.36431
# Poissons Ratio (y) = 0.32658 0.21883
# Poissons Ratio (z) = 0.37804 0.07019
#
# Static dielectric constant tensor:
#      x y z
#    x 3.790590 0.000000 0.000000 
#    y 0.000000 3.496940 0.000000 
#    z 0.000000 0.000000 3.706440 
# 
# 
# High freq. dielectric constant tensor:
#      x y z
#    x 1.793830 0.000000 0.000000 
#    y 0.000000 1.762900 0.000000 
#    z 0.000000 0.000000 1.785800 
# 
# From -- ./inp_files/11146.got.cif
#   From: 2010.03.12/outbox.cif.g09.slc.cpg/sg44_6_cif.got.tgz:11146.got - 2010.04.14 02:36:11.
