data_PCOD8189951
_publ_section_title
;
Structure prediction by ZEFSAII (Michael W. Deem and Ramdas Pophale) SiO2 
 PCOD8189951
Probable space group: I M M 2
;
_chemical_formula_sum "Si O2"
_cell_formula_units_Z 64
_cell_length_a 8.797436
_cell_length_b 33.256171
_cell_length_c 11.575524
_cell_angle_alpha 90.000000
_cell_angle_beta 90.000000
_cell_angle_gamma 90.000000
_cell_volume 3386.639898
_symmetry_space_group_name_H-M "I M M 2"
_symmetry_group_IT_number 44
_symmetry_cell_setting 'orthorhombic'
loop_
_space_group_symop_operation_xyz
x,y,z
-x,-y,z
-x,y,z
x,-y,z
1/2+x,1/2+y,1/2+z
1/2-x,1/2-y,1/2+z
1/2-x,1/2+y,1/2+z
1/2+x,1/2-y,1/2+z
loop_
_atom_site_type_symbol
_atom_site_label
_atom_site_fract_x
_atom_site_fract_y
_atom_site_fract_z
Si Si1 0.681181 0.153450 0.762780
Si Si2 0.820111 0.378710 0.013491
Si Si3 0.671533 0.272928 0.384916
Si Si4 0.825168 0.607387 0.480009
Si Si5 0.679652 0.453692 0.899472
Si Si6 0.175556 0.810204 0.363463
Si Si7 0.667923 0.673903 0.602898
Si Si8 0.322142 0.045941 0.158157
O O1 0.500000 0.157730 0.771336
O O2 0.734269 0.137927 0.638000
O O3 0.751347 0.197060 0.791736
O O4 0.745916 0.120643 0.856476
O O5 0.000000 0.382612 0.008967
O O6 0.751190 0.423240 0.992989
O O7 0.765381 0.347583 0.917196
O O8 0.500000 0.264457 0.342057
O O9 0.762524 0.232154 0.405808
O O10 0.672533 0.290000 0.513293
O O11 0.798984 0.642508 0.572511
O O12 0.757422 0.567799 0.542538
O O13 0.000000 0.599847 0.457457
O O14 0.500000 0.449884 0.905295
O O15 0.731373 0.500000 0.924884
O O16 0.734289 0.439782 0.772633
O O17 0.203696 0.808913 0.227541
O O18 0.000000 0.814831 0.397711
O O19 0.500000 0.653385 0.599708
O O20 0.500000 0.055349 0.177798
O O21 0.289037 0.000000 0.133803
#
# Coordination Sequence:
#
# PCOD8189951 Si02
#       8
#     8   8   8   8   8   8   8   8
#     4   9  20  38  56  76 108 147 184 227 278 329
#     4  11  23  38  57  82 112 148 190 234 278 331
#     4  10  21  37  56  79 105 139 181 224 274 330
#     4   9  17  32  54  77 102 135 175 216 263 320
#     4  10  21  37  57  82 114 149 185 229 282 336
#     4  11  23  37  55  80 110 143 179 225 278 328
#     4   9  20  36  52  72 101 134 169 214 267 317
#     4   9  17  30  52  82 112 139 172 220 274 329
#
# _framework density 18.897786
#
# number of rings (size 3 to 8) (size 9 to 14) (size 15 to 20)
#    0.000    2.250    0.000    2.250    1.750    5.750 
#    0.000    0.625    0.000    2.250    0.000    1.750 
#    0.000    0.000    0.000    0.000    0.000    0.000 
#
# Total GULP energy -396659.211303 kJ/mol
# GULP energy per Si atom -12395.600353 kJ/mol
# Density = 1.885477 g / cm^3
# Si number density = 18.897786 Si / 1000 Ang^3
#
#
#
# Elastic Constant Matrix: (Units=GPa)
#
#
# Indices 1 2 3 4 5 6 
#
# 1 48.3584 25.9944 33.9563 0.0001 -0.0001 -0.0001
# 2 25.9944 102.2755 48.9766 -0.0009 -0.0001 0.0000
# 3 33.9563 48.9766 88.2216 -0.0023 0.0001 0.0002
# 4 0.0001 -0.0009 -0.0023 27.2183 0.0000 0.0001
# 5 -0.0001 -0.0001 0.0001 0.0000 21.2470 -0.0002
# 6 -0.0001 0.0000 0.0002 0.0001 -0.0002 30.5046
#
#
#
# Elastic Compliance Matrix: (Units=1/GPa)
#
#
# Indices 1 2 3 4 5 6 
#
# 1 0.028894 -0.002749 -0.009595 -0.000001 0.000000 0.000000
# 2 -0.002749 0.013580 -0.006481 0.000000 0.000000 0.000000
# 3 -0.009595 -0.006481 0.018626 0.000001 0.000000 0.000000
# 4 -0.000001 0.000000 0.000001 0.036740 0.000000 0.000000
# 5 0.000000 0.000000 0.000000 0.000000 0.047066 0.000000
# 6 0.000000 0.000000 0.000000 0.000000 0.000000 0.032782
#
#
# Mechanical properties :
#
#
# Convention : Reuss Voigt Hill
#
# Bulk Modulus (GPa) = 42.64371 50.74556 46.69464
# Shear Modulus (GPa) = 22.40610 24.45588 23.43099
#
# Velocity S-wave (km/s) = 3.44706 3.60128 3.52501
# Velocity P-wave (km/s) = 6.20140 6.64855 6.42887
#
# Compressibility (1/GPa) = 0.02345012
#
# Stress axis : x y z
#
# Youngs Moduli (GPa) = 34.60911 73.63996 53.68818
#
# Poissons Ratio (x) = 0.20243 0.51515
# Poissons Ratio (y) = 0.09514 0.34794
# Poissons Ratio (z) = 0.33208 0.47724
#
# Static dielectric constant tensor:
#      x y z
#    x 3.497050 0.000000 0.000000 
#    y 0.000000 3.540400 0.000000 
#    z 0.000000 0.000000 3.602410 
# 
# 
# High freq. dielectric constant tensor:
#      x y z
#    x 1.732560 0.000000 0.000000 
#    y 0.000000 1.734470 0.000000 
#    z 0.000000 0.000000 1.732680 
# 
# From -- ./inp_files/11465.got.cif
#   From: 2010.03.12/outbox.cif.g09.slc.cpg/sg44_6_cif.got.tgz:11465.got - 2010.04.14 02:36:11.
