data_PCOD8189581
_publ_section_title
;
Structure prediction by ZEFSAII (Michael W. Deem and Ramdas Pophale) SiO2 
 PCOD8189581
Probable space group: I M M 2
;
_chemical_formula_sum "Si O2"
_cell_formula_units_Z 64
_cell_length_a 8.720926
_cell_length_b 24.717617
_cell_length_c 14.897710
_cell_angle_alpha 90.000000
_cell_angle_beta 90.000000
_cell_angle_gamma 90.000000
_cell_volume 3211.357947
_symmetry_space_group_name_H-M "I M M 2"
_symmetry_group_IT_number 44
_symmetry_cell_setting 'orthorhombic'
loop_
_space_group_symop_operation_xyz
x,y,z
-x,-y,z
-x,y,z
x,-y,z
1/2+x,1/2+y,1/2+z
1/2-x,1/2-y,1/2+z
1/2-x,1/2+y,1/2+z
1/2+x,1/2-y,1/2+z
loop_
_atom_site_type_symbol
_atom_site_label
_atom_site_fract_x
_atom_site_fract_y
_atom_site_fract_z
Si Si1 0.175432 0.722827 0.343110
Si Si2 0.677004 0.062896 0.693505
Si Si3 0.175624 0.262999 0.134935
Si Si4 0.821372 0.333436 0.871393
Si Si5 0.323991 0.561856 0.555937
Si Si6 0.321227 0.362575 0.046588
Si Si7 0.823121 0.112261 0.867837
Si Si8 0.678363 0.847266 0.168544
O O1 0.197618 0.717798 0.236703
O O2 0.279881 0.770286 0.382920
O O3 0.226977 0.666472 0.386166
O O4 0.000000 0.735145 0.368710
O O5 0.500000 0.076304 0.712677
O O6 0.728789 0.094468 0.605203
O O7 0.773330 0.081014 0.779061
O O8 0.704997 0.000000 0.675210
O O9 0.280287 0.301404 0.074532
O O10 0.228476 0.201246 0.121838
O O11 0.000000 0.268112 0.103723
O O12 0.772528 0.353373 0.772472
O O13 0.000000 0.341358 0.889830
O O14 0.727765 0.369590 0.942721
O O15 0.500000 0.574593 0.580178
O O16 0.281957 0.500000 0.575377
O O17 0.292856 0.573012 0.451399
O O18 0.215001 0.597264 0.618636
O O19 0.500000 0.373523 0.058463
O O20 0.000000 0.128450 0.857568
O O21 0.500000 0.833234 0.161657
#
# Coordination Sequence:
#
# PCOD8189581 Si02
#       8
#     8   8   8   8   8   8   8   8
#     4  10  20  35  57  87 123 161 201 243 295 358
#     4  11  24  42  63  88 122 163 205 252 307 365
#     4  10  20  36  59  86 122 160 195 240 297 360
#     4  10  22  40  61  86 123 162 200 250 309 365
#     4  10  23  42  62  86 119 160 205 251 303 362
#     4  12  24  38  61  91 123 159 204 252 301 363
#     4  11  22  37  60  89 123 162 203 248 301 363
#     4  10  22  40  63  90 119 154 202 255 305 359
#
# _framework density 19.929264
#
# number of rings (size 3 to 8) (size 9 to 14) (size 15 to 20)
#    0.000    1.500    1.250    3.750    1.750    5.250 
#    0.000    0.625    0.000    0.750    0.000    0.000 
#    0.000    0.000    0.000    0.000    0.000    0.000 
#
# Total GULP energy -397015.793716 kJ/mol
# GULP energy per Si atom -12406.743554 kJ/mol
# Density = 1.988390 g / cm^3
# Si number density = 19.929264 Si / 1000 Ang^3
#
#
#
# Elastic Constant Matrix: (Units=GPa)
#
#
# Indices 1 2 3 4 5 6 
#
# 1 57.7486 21.7703 21.8324 0.0000 0.0000 0.0000
# 2 21.7703 94.2914 39.7019 0.0000 0.0000 0.0000
# 3 21.8324 39.7019 84.4970 0.0002 -0.0001 0.0000
# 4 0.0000 0.0000 0.0002 28.9956 0.0000 0.0000
# 5 0.0000 0.0000 -0.0001 0.0000 33.0856 0.0000
# 6 0.0000 0.0000 0.0000 0.0000 0.0000 31.1276
#
#
#
# Elastic Compliance Matrix: (Units=1/GPa)
#
#
# Indices 1 2 3 4 5 6 
#
# 1 0.019859 -0.003023 -0.003711 0.000000 0.000000 0.000000
# 2 -0.003023 0.013681 -0.005647 0.000000 0.000000 0.000000
# 3 -0.003711 -0.005647 0.015447 0.000000 0.000000 0.000000
# 4 0.000000 0.000000 0.000000 0.034488 0.000000 0.000000
# 5 0.000000 0.000000 0.000000 0.000000 0.030225 0.000000
# 6 0.000000 0.000000 0.000000 0.000000 0.000000 0.032126
#
#
# Mechanical properties :
#
#
# Convention : Reuss Voigt Hill
#
# Bulk Modulus (GPa) = 41.27896 44.79401 43.03649
# Shear Modulus (GPa) = 27.98578 28.85724 28.42151
#
# Velocity S-wave (km/s) = 3.75141 3.80937 3.78050
# Velocity P-wave (km/s) = 6.28663 6.47099 6.37948
#
# Compressibility (1/GPa) = 0.02422542
#
# Stress axis : x y z
#
# Youngs Moduli (GPa) = 50.35533 73.09367 64.73750
#
# Poissons Ratio (x) = 0.22093 0.24024
# Poissons Ratio (y) = 0.15220 0.36559
# Poissons Ratio (z) = 0.18687 0.41278
#
# Static dielectric constant tensor:
#      x y z
#    x 3.680790 0.000000 0.000000 
#    y 0.000000 3.525690 0.000000 
#    z 0.000000 0.000000 3.675120 
# 
# 
# High freq. dielectric constant tensor:
#      x y z
#    x 1.786980 0.000000 0.000000 
#    y 0.000000 1.766950 0.000000 
#    z 0.000000 0.000000 1.781270 
# 
# From -- ./inp_files/16776.got.cif
#   From: 2010.03.12/outbox.cif.g09.slc.cpg/sg44_9_cif.got.tgz:16776.got - 2010.04.14 02:36:11.
