data_PCOD8189397
_publ_section_title
;
Structure prediction by ZEFSAII (Michael W. Deem and Ramdas Pophale) SiO2 
 PCOD8189397
Probable space group: I M M 2
;
_chemical_formula_sum "Si O2"
_cell_formula_units_Z 48
_cell_length_a 9.062021
_cell_length_b 9.189275
_cell_length_c 30.794184
_cell_angle_alpha 90.000000
_cell_angle_beta 90.000000
_cell_angle_gamma 90.000000
_cell_volume 2564.336495
_symmetry_space_group_name_H-M "I M M 2"
_symmetry_group_IT_number 44
_symmetry_cell_setting 'orthorhombic'
loop_
_space_group_symop_operation_xyz
x,y,z
-x,-y,z
-x,y,z
x,-y,z
1/2+x,1/2+y,1/2+z
1/2-x,1/2-y,1/2+z
1/2-x,1/2+y,1/2+z
1/2+x,1/2-y,1/2+z
loop_
_atom_site_type_symbol
_atom_site_label
_atom_site_fract_x
_atom_site_fract_y
_atom_site_fract_z
Si Si1 0.333563 0.173047 0.570470
Si Si2 0.169740 0.171013 0.907613
Si Si3 0.669892 0.167568 0.320761
Si Si4 0.328836 0.330382 0.733327
Si Si5 0.173023 0.168064 0.484243
Si Si6 0.830723 0.827755 0.655761
O O1 0.500000 0.233883 0.570596
O O2 0.251851 0.229293 0.527382
O O3 0.250088 0.233407 0.612847
O O4 0.331271 0.000000 0.571196
O O5 0.218504 0.235475 0.861430
O O6 0.273616 0.238511 0.943876
O O7 0.000000 0.211908 0.917690
O O8 0.194751 0.000000 0.906297
O O9 0.500000 0.194993 0.308166
O O10 0.769505 0.216318 0.280403
O O11 0.697895 0.000000 0.333171
O O12 0.500000 0.290500 0.730640
O O13 0.299320 0.500000 0.725150
O O14 0.242476 0.240220 0.697756
O O15 0.000000 0.188462 0.490750
O O16 0.214678 0.000000 0.476008
O O17 0.000000 0.779184 0.653197
O O18 0.814517 0.000000 0.659066
#
# Coordination Sequence:
#
# PCOD8189397 Si02
#       6
#     8   8   8   8   8   8
#     4   9  17  31  53  79 106 137 174 216 260 307
#     4  10  21  36  54  78 108 139 172 214 264 315
#     4   9  18  34  55  76 101 137 179 219 259 308
#     4  10  21  36  54  78 108 140 175 216 261 310
#     4  10  20  34  54  79 106 138 177 218 259 307
#     4  10  20  34  54  80 109 140 175 216 261 309
#
# _framework density 18.718291000000001
#
# number of rings (size 3 to 8) (size 9 to 14) (size 15 to 20)
#    0.000    2.333    0.000    2.500    0.000    7.333 
#    0.000    4.167    0.000    5.000    0.000    0.000 
#    0.000    0.000    0.000    0.000    0.000    0.000 
#
# Total GULP energy -297687.325728 kJ/mol
# GULP energy per Si atom -12403.638572 kJ/mol
# Density = 1.867569 g / cm^3
# Si number density = 18.718291 Si / 1000 Ang^3
#
#
#
# Elastic Constant Matrix: (Units=GPa)
#
#
# Indices 1 2 3 4 5 6 
#
# 1 130.5934 41.5154 86.1877 0.0000 0.0000 0.0000
# 2 41.5154 44.3055 49.9117 0.0000 0.0000 0.0000
# 3 86.1877 49.9117 152.6634 0.0000 0.0000 0.0000
# 4 0.0000 0.0000 0.0000 28.0415 0.0000 0.0000
# 5 0.0000 0.0000 0.0000 0.0000 43.4019 0.0000
# 6 0.0000 0.0000 0.0000 0.0000 0.0000 25.0245
#
#
#
# Elastic Compliance Matrix: (Units=1/GPa)
#
#
# Indices 1 2 3 4 5 6 
#
# 1 0.013231 -0.006305 -0.005408 0.000000 0.000000 0.000000
# 2 -0.006305 0.038735 -0.009104 0.000000 0.000000 0.000000
# 3 -0.005408 -0.009104 0.012580 0.000000 0.000000 0.000000
# 4 0.000000 0.000000 0.000000 0.035661 0.000000 0.000000
# 5 0.000000 0.000000 0.000000 0.000000 0.023040 0.000000
# 6 0.000000 0.000000 0.000000 0.000000 0.000000 0.039961
#
#
# Mechanical properties :
#
#
# Convention : Reuss Voigt Hill
#
# Bulk Modulus (GPa) = 43.64781 75.86577 59.75679
# Shear Modulus (GPa) = 23.53140 29.29006 26.41073
#
# Velocity S-wave (km/s) = 3.54946 3.96002 3.76035
# Velocity P-wave (km/s) = 6.33775 7.84394 7.13072
#
# Compressibility (1/GPa) = 0.02291066
#
# Stress axis : x y z
#
# Youngs Moduli (GPa) = 75.57937 25.81639 79.48962
#
# Poissons Ratio (x) = 0.16278 0.42991
# Poissons Ratio (y) = 0.47655 0.72370
# Poissons Ratio (z) = 0.40876 0.23504
#
# Static dielectric constant tensor:
#      x y z
#    x 3.565290 0.000000 0.000000 
#    y 0.000000 3.197970 0.000000 
#    z 0.000000 0.000000 3.554530 
# 
# 
# High freq. dielectric constant tensor:
#      x y z
#    x 1.736250 0.000000 0.000000 
#    y 0.000000 1.700170 0.000000 
#    z 0.000000 0.000000 1.741260 
# 
# From -- ./inp_files/26852.got.cif
#   From: 2010.03.12/outbox.cif.g09.slc.cpg/sg44_14_cif.got.tgz:26852.got - 2010.04.14 02:36:11.
