data_PCOD8189065
_publ_section_title
;
Structure prediction by ZEFSAII (Michael W. Deem and Ramdas Pophale) SiO2 
 PCOD8189065
Probable space group: I M M 2
;
_chemical_formula_sum "Si O2"
_cell_formula_units_Z 40
_cell_length_a 8.834782
_cell_length_b 25.749208
_cell_length_c 8.997368
_cell_angle_alpha 90.000000
_cell_angle_beta 90.000000
_cell_angle_gamma 90.000000
_cell_volume 2046.799004
_symmetry_space_group_name_H-M "I M M 2"
_symmetry_group_IT_number 44
_symmetry_cell_setting 'orthorhombic'
loop_
_space_group_symop_operation_xyz
x,y,z
-x,-y,z
-x,y,z
x,-y,z
1/2+x,1/2+y,1/2+z
1/2-x,1/2-y,1/2+z
1/2-x,1/2+y,1/2+z
1/2+x,1/2-y,1/2+z
loop_
_atom_site_type_symbol
_atom_site_label
_atom_site_fract_x
_atom_site_fract_y
_atom_site_fract_z
Si Si1 0.819832 0.000000 0.943970
Si Si2 0.179769 0.898926 0.772345
Si Si3 0.177656 0.500000 0.766187
Si Si4 0.823623 0.094084 0.433871
Si Si5 0.824221 0.797598 0.275466
Si Si6 0.320745 0.702151 0.438346
O O1 0.757873 0.949406 0.858029
O O2 0.000000 0.000000 0.948889
O O3 0.760959 0.000000 0.109902
O O4 0.234077 0.900265 0.602468
O O5 0.246862 0.847417 0.850517
O O6 0.000000 0.897855 0.779504
O O7 0.224162 0.550482 0.857326
O O8 0.000000 0.500000 0.739091
O O9 0.792827 0.147450 0.350101
O O10 0.000000 0.078211 0.426950
O O11 0.732409 0.754806 0.363946
O O12 0.000000 0.782775 0.281448
O O13 0.762770 0.799896 0.107472
O O14 0.500000 0.699952 0.433821
#
# Coordination Sequence:
#
# PCOD8189065 Si02
#       6
#     4   8   4   8   8   8
#     4  10  19  36  60  82 108 144 187 228 268 320
#     4   9  18  34  60  87 106 137 187 234 272 319
#     4  12  25  38  54  82 116 146 179 220 274 330
#     4  10  20  38  62  83 106 141 186 229 271 323
#     4  10  21  36  57  84 111 145 187 226 269 324
#     4  10  20  35  55  82 115 146 181 227 276 323
#
# _framework density 19.54271
#
# number of rings (size 3 to 8) (size 9 to 14) (size 15 to 20)
#    0.000    2.000    0.000    3.900    0.000    8.000 
#    0.000    6.000    0.000    0.000    0.000    0.000 
#    0.000    0.000    0.000    0.000    0.000    0.000 
#
# Total GULP energy -248068.985566 kJ/mol
# GULP energy per Si atom -12403.449278 kJ/mol
# Density = 1.949823 g / cm^3
# Si number density = 19.542710 Si / 1000 Ang^3
#
#
#
# Elastic Constant Matrix: (Units=GPa)
#
#
# Indices 1 2 3 4 5 6 
#
# 1 14.8054 14.8842 13.1834 -0.0029 0.0002 -0.0183
# 2 14.8842 104.9562 58.3839 -0.0030 0.0002 -0.0212
# 3 13.1834 58.3839 174.7115 -0.0118 0.0010 -0.2330
# 4 -0.0029 -0.0030 -0.0118 43.8231 0.0009 -0.0458
# 5 0.0002 0.0002 0.0010 0.0009 19.4572 -0.0031
# 6 -0.0183 -0.0212 -0.2330 -0.0458 -0.0031 -104.6795
#
#
#
# Elastic Compliance Matrix: (Units=1/GPa)
#
#
# Indices 1 2 3 4 5 6 
#
# 1 0.079837 -0.009791 -0.002753 0.000004 -0.000001 -0.000006
# 2 -0.009791 0.012904 -0.003573 -0.000001 0.000000 0.000007
# 3 -0.002753 -0.003573 0.007126 0.000001 0.000000 -0.000015
# 4 0.000004 -0.000001 0.000001 0.022819 -0.000001 -0.000010
# 5 -0.000001 0.000000 0.000000 -0.000001 0.051395 -0.000002
# 6 -0.000006 0.000007 -0.000015 -0.000010 -0.000002 -0.009553
#
#
# Mechanical properties :
#
#
# Convention : Reuss Voigt Hill
#
# Bulk Modulus (GPa) = 14.78573 51.93068 33.35820
# Shear Modulus (GPa) = 22.79934 5.58826 14.19380
#
# Velocity S-wave (km/s) = 3.41932 1.69284 2.69791
# Velocity P-wave (km/s) = 4.81365 5.51829 5.17797
#
# Compressibility (1/GPa) = 0.06763279
#
# Stress axis : x y z
#
# Youngs Moduli (GPa) = 12.52559 77.49532 140.34055
#
# Poissons Ratio (x) = 0.75874 0.38629
# Poissons Ratio (y) = 0.12264 0.50149
# Poissons Ratio (z) = 0.03448 0.27692
#
# Static dielectric constant tensor:
#      x y z
#    x 3.209820 0.000000 0.000010 
#    y 0.000000 3.722450 -0.000020 
#    z 0.000010 -0.000020 3.873010 
# 
# 
# High freq. dielectric constant tensor:
#      x y z
#    x 1.721810 0.000000 0.000000 
#    y 0.000000 1.780160 0.000000 
#    z 0.000000 0.000000 1.784770 
# 
# From -- ./inp_files/4492.got.cif
#   From: 2010.03.12/outbox.cif.g09.slc.cpg/sg44_3_cif.got.tgz:4492.got - 2010.04.14 02:36:11.
