data_PCOD8189062
_publ_section_title
;
Structure prediction by ZEFSAII (Michael W. Deem and Ramdas Pophale) SiO2 
 PCOD8189062
Probable space group: I M M 2
;
_chemical_formula_sum "Si O2"
_cell_formula_units_Z 48
_cell_length_a 8.490344
_cell_length_b 10.054570
_cell_length_c 27.958665
_cell_angle_alpha 90.000000
_cell_angle_beta 90.000000
_cell_angle_gamma 90.000000
_cell_volume 2386.740591
_symmetry_space_group_name_H-M "I M M 2"
_symmetry_group_IT_number 44
_symmetry_cell_setting 'orthorhombic'
loop_
_space_group_symop_operation_xyz
x,y,z
-x,-y,z
-x,y,z
x,-y,z
1/2+x,1/2+y,1/2+z
1/2-x,1/2-y,1/2+z
1/2-x,1/2+y,1/2+z
1/2+x,1/2-y,1/2+z
loop_
_atom_site_type_symbol
_atom_site_label
_atom_site_fract_x
_atom_site_fract_y
_atom_site_fract_z
Si Si1 0.815421 0.254921 0.439640
Si Si2 0.814824 0.849214 0.623827
Si Si3 0.812266 0.651080 0.543078
Si Si4 0.815933 0.500000 0.889096
Si Si5 0.815213 0.233220 0.729557
Si Si6 0.181905 0.000000 0.886246
Si Si7 0.821125 0.500000 0.287279
Si Si8 0.185684 0.500000 0.781410
O O1 0.753040 0.292757 0.492274
O O2 0.773775 0.372522 0.404257
O O3 0.000000 0.228438 0.440204
O O4 0.731366 0.125456 0.420216
O O5 0.743812 0.752353 0.582947
O O6 0.775835 0.776647 0.673542
O O7 0.000000 0.861399 0.616405
O O8 0.743332 0.000000 0.621322
O O9 0.748134 0.500000 0.550770
O O10 0.000000 0.647085 0.544674
O O11 0.739957 0.500000 0.835318
O O12 0.000000 0.500000 0.881877
O O13 0.706744 0.127851 0.755372
O O14 0.759746 0.373838 0.750623
O O15 0.000000 0.204963 0.738791
O O16 0.193783 0.000000 0.829370
O O17 0.000000 0.000000 0.902181
O O18 0.000000 0.500000 0.306662
O O19 0.000000 0.500000 0.786317
#
# Coordination Sequence:
#
# PCOD8189062 Si02
#       8
#     8   8   8   4   8   4   4   4
#     4  11  22  39  61  88 120 157 203 254 305 361
#     4   9  17  29  52  86 118 150 192 239 292 354
#     4   9  18  32  53  85 121 152 190 245 300 352
#     4  11  23  39  56  83 120 163 207 247 302 364
#     4  10  19  36  59  87 119 152 193 245 298 349
#     4  12  24  40  63  88 118 155 195 252 313 371
#     4  12  24  38  59  86 115 155 202 244 295 364
#     4   9  20  35  56  83 113 147 188 235 288 347
#
# _framework density 20.111107000000001
#
# number of rings (size 3 to 8) (size 9 to 14) (size 15 to 20)
#    0.000    1.833    1.667    3.250    2.333    1.333 
#    0.000    1.250    0.000    3.000    0.000    0.000 
#    0.000    0.000    0.000    0.000    0.000    0.000 
#
# Total GULP energy -297574.162386 kJ/mol
# GULP energy per Si atom -12398.923433 kJ/mol
# Density = 2.006533 g / cm^3
# Si number density = 20.111107 Si / 1000 Ang^3
#
#
#
# Elastic Constant Matrix: (Units=GPa)
#
#
# Indices 1 2 3 4 5 6 
#
# 1 31.6598 16.7759 16.7022 0.0000 0.0000 0.0000
# 2 16.7759 196.4875 89.6761 0.0000 0.0000 0.0000
# 3 16.7022 89.6761 157.1132 0.0000 0.0000 0.0000
# 4 0.0000 0.0000 0.0000 42.6402 0.0000 0.0000
# 5 0.0000 0.0000 0.0000 0.0000 20.9757 0.0000
# 6 0.0000 0.0000 0.0000 0.0000 0.0000 42.1450
#
#
#
# Elastic Compliance Matrix: (Units=1/GPa)
#
#
# Indices 1 2 3 4 5 6 
#
# 1 0.033872 -0.001688 -0.002637 0.000000 0.000000 0.000000
# 2 -0.001688 0.006966 -0.003797 0.000000 0.000000 0.000000
# 3 -0.002637 -0.003797 0.008812 0.000000 0.000000 0.000000
# 4 0.000000 0.000000 0.000000 0.023452 0.000000 0.000000
# 5 0.000000 0.000000 0.000000 0.000000 0.047674 0.000000
# 6 0.000000 0.000000 0.000000 0.000000 0.000000 0.023728
#
#
# Mechanical properties :
#
#
# Convention : Reuss Voigt Hill
#
# Bulk Modulus (GPa) = 29.93487 70.17432 50.05459
# Shear Modulus (GPa) = 29.08944 38.62594 33.85769
#
# Velocity S-wave (km/s) = 3.80733 4.38725 4.10754
# Velocity P-wave (km/s) = 5.85190 7.78672 6.88759
#
# Compressibility (1/GPa) = 0.03340585
#
# Stress axis : x y z
#
# Youngs Moduli (GPa) = 29.52322 143.54741 113.47851
#
# Poissons Ratio (x) = 0.24236 0.29925
# Poissons Ratio (y) = 0.04985 0.43085
# Poissons Ratio (z) = 0.07786 0.54501
#
# Static dielectric constant tensor:
#      x y z
#    x 3.173580 0.000000 0.000000 
#    y 0.000000 3.952190 0.000000 
#    z 0.000000 0.000000 3.894460 
# 
# 
# High freq. dielectric constant tensor:
#      x y z
#    x 1.738850 0.000000 0.000000 
#    y 0.000000 1.802130 0.000000 
#    z 0.000000 0.000000 1.799910 
# 
# From -- ./inp_files/27016.got.cif
#   From: 2010.03.12/outbox.cif.g09.slc.cpg/sg44_14_cif.got.tgz:27016.got - 2010.04.14 02:36:11.
