data_PCOD8189866
_publ_section_title
;
Structure prediction by ZEFSAII (Michael W. Deem and Ramdas Pophale) SiO2 
 PCOD8189866
Probable space group: I M M 2
;
_chemical_formula_sum "Si O2"
_cell_formula_units_Z 64
_cell_length_a 32.234363
_cell_length_b 9.400930
_cell_length_c 11.646795
_cell_angle_alpha 90.000000
_cell_angle_beta 90.000000
_cell_angle_gamma 90.000000
_cell_volume 3529.363115
_symmetry_space_group_name_H-M "I M M 2"
_symmetry_group_IT_number 44
_symmetry_cell_setting 'orthorhombic'
loop_
_space_group_symop_operation_xyz
x,y,z
-x,-y,z
-x,y,z
x,-y,z
1/2+x,1/2+y,1/2+z
1/2-x,1/2-y,1/2+z
1/2-x,1/2+y,1/2+z
1/2+x,1/2-y,1/2+z
loop_
_atom_site_type_symbol
_atom_site_label
_atom_site_fract_x
_atom_site_fract_y
_atom_site_fract_z
Si Si1 0.682639 0.834205 0.660930
Si Si2 0.122103 0.831463 0.994775
Si Si3 0.143290 0.165272 0.735632
Si Si4 0.187508 0.344223 0.415384
Si Si5 0.546005 0.169110 0.854383
Si Si6 0.224192 0.836106 0.598945
Si Si7 0.396066 0.842291 0.051501
Si Si8 0.951524 0.666680 0.096196
O O1 0.655233 0.735145 0.581016
O O2 0.672245 0.790218 0.791472
O O3 0.731039 0.798906 0.647935
O O4 0.672555 0.000000 0.635340
O O5 0.138537 0.793989 0.868231
O O6 0.118742 0.000000 0.014848
O O7 0.076858 0.760580 0.011939
O O8 0.189310 0.210511 0.692239
O O9 0.107137 0.246208 0.664971
O O10 0.135453 0.000000 0.714819
O O11 0.208427 0.500000 0.399441
O O12 0.220461 0.242033 0.476274
O O13 0.148766 0.355617 0.497678
O O14 0.500000 0.228384 0.875658
O O15 0.560771 0.212164 0.726474
O O16 0.546934 0.000000 0.860771
O O17 0.574478 0.232001 0.955957
O O18 0.218965 0.000000 0.569997
O O19 0.412370 0.000000 0.085790
O O20 0.942393 0.500000 0.076295
O O21 0.000000 0.699182 0.072411
#
# Coordination Sequence:
#
# PCOD8189866 Si02
#       8
#     8   8   8   8   8   8   8   8
#     4  10  21  35  54  77 103 136 173 218 266 317
#     4  11  23  36  54  79 108 144 181 223 268 318
#     4   9  20  37  52  69 101 143 178 211 263 320
#     4   9  18  32  51  73  98 130 166 208 261 314
#     4   8  14  27  51  81 107 130 162 209 262 311
#     4   9  19  35  53  73  99 134 174 217 264 314
#     4   9  16  29  51  76  98 127 167 210 253 303
#     4   9  18  35  59  83 110 144 178 217 267 321
#
# _framework density 18.133583999999999
#
# number of rings (size 3 to 8) (size 9 to 14) (size 15 to 20)
#    0.000    2.750    0.000    1.875    1.750    4.250 
#    0.000    3.750    0.000    3.375    0.000    0.000 
#    0.000    0.000    0.000    0.000    0.000    0.000 
#
# Total GULP energy -396660.423403 kJ/mol
# GULP energy per Si atom -12395.638231 kJ/mol
# Density = 1.809231 g / cm^3
# Si number density = 18.133584 Si / 1000 Ang^3
#
#
#
# Elastic Constant Matrix: (Units=GPa)
#
#
# Indices 1 2 3 4 5 6 
#
# 1 76.5173 43.0214 44.1546 0.0000 0.0000 0.0000
# 2 43.0214 65.5534 58.6908 0.0000 0.0000 0.0000
# 3 44.1546 58.6908 124.7294 0.0000 0.0000 0.0000
# 4 0.0000 0.0000 0.0000 29.5678 0.0000 0.0000
# 5 0.0000 0.0000 0.0000 0.0000 21.3251 0.0000
# 6 0.0000 0.0000 0.0000 0.0000 0.0000 24.1209
#
#
#
# Elastic Compliance Matrix: (Units=1/GPa)
#
#
# Indices 1 2 3 4 5 6 
#
# 1 0.020902 -0.012256 -0.001632 0.000000 0.000000 0.000000
# 2 -0.012256 0.033546 -0.011446 0.000000 0.000000 0.000000
# 3 -0.001632 -0.011446 0.013981 0.000000 0.000000 0.000000
# 4 0.000000 0.000000 0.000000 0.033821 0.000000 0.000000
# 5 0.000000 0.000000 0.000000 0.000000 0.046893 0.000000
# 6 0.000000 0.000000 0.000000 0.000000 0.000000 0.041458
#
#
# Mechanical properties :
#
#
# Convention : Reuss Voigt Hill
#
# Bulk Modulus (GPa) = 56.30664 62.05930 59.18297
# Shear Modulus (GPa) = 20.22738 23.06497 21.64617
#
# Velocity S-wave (km/s) = 3.34348 3.57031 3.45875
# Velocity P-wave (km/s) = 6.78407 7.16197 6.97558
#
# Compressibility (1/GPa) = 0.01775990
#
# Stress axis : x y z
#
# Youngs Moduli (GPa) = 47.84300 29.80969 71.52455
#
# Poissons Ratio (x) = 0.36535 0.11675
# Poissons Ratio (y) = 0.58636 0.81869
# Poissons Ratio (z) = 0.07809 0.34121
#
# Static dielectric constant tensor:
#      x y z
#    x 3.421180 0.000000 0.000000 
#    y 0.000000 3.392320 0.000000 
#    z 0.000000 0.000000 3.434340 
# 
# 
# High freq. dielectric constant tensor:
#      x y z
#    x 1.698190 0.000000 0.000000 
#    y 0.000000 1.682210 0.000000 
#    z 0.000000 0.000000 1.703340 
# 
# From -- ./inp_files/15025.got.cif
#   From: 2010.03.12/outbox.cif.g09.slc.cpg/sg44_8_cif.got.tgz:15025.got - 2010.04.14 02:36:11.
