data_PCOD8189844
_publ_section_title
;
Structure prediction by ZEFSAII (Michael W. Deem and Ramdas Pophale) SiO2 
 PCOD8189844
Probable space group: I M M 2
;
_chemical_formula_sum "Si O2"
_cell_formula_units_Z 64
_cell_length_a 9.130174
_cell_length_b 14.914137
_cell_length_c 24.569262
_cell_angle_alpha 90.000000
_cell_angle_beta 90.000000
_cell_angle_gamma 90.000000
_cell_volume 3345.563628
_symmetry_space_group_name_H-M "I M M 2"
_symmetry_group_IT_number 44
_symmetry_cell_setting 'orthorhombic'
loop_
_space_group_symop_operation_xyz
x,y,z
-x,-y,z
-x,y,z
x,-y,z
1/2+x,1/2+y,1/2+z
1/2-x,1/2-y,1/2+z
1/2-x,1/2+y,1/2+z
1/2+x,1/2-y,1/2+z
loop_
_atom_site_type_symbol
_atom_site_label
_atom_site_fract_x
_atom_site_fract_y
_atom_site_fract_z
Si Si1 0.328332 0.101027 0.522590
Si Si2 0.328222 0.894962 0.030835
Si Si3 0.671549 0.103389 0.814989
Si Si4 0.175024 0.099256 0.299582
Si Si5 0.338453 0.606518 0.918281
Si Si6 0.326345 0.757342 0.726436
Si Si7 0.173756 0.754851 0.103904
Si Si8 0.165606 0.893538 0.922394
O O1 0.500000 0.099720 0.515047
O O2 0.263691 0.141720 0.466776
O O3 0.280595 0.165349 0.571595
O O4 0.270226 0.000000 0.534747
O O5 0.500000 0.874744 0.027861
O O6 0.255461 0.841796 0.080645
O O7 0.297169 0.000000 0.040328
O O8 0.254724 0.859914 0.974996
O O9 0.500000 0.117674 0.826167
O O10 0.725368 0.156977 0.761566
O O11 0.755964 0.141718 0.867727
O O12 0.709311 0.000000 0.803954
O O13 0.226224 0.134471 0.359256
O O14 0.236034 0.166942 0.254220
O O15 0.000000 0.096179 0.300157
O O16 0.237545 0.000000 0.286735
O O17 0.500000 0.647657 0.927222
O O18 0.346897 0.500000 0.919254
O O19 0.500000 0.754444 0.725591
O O20 0.267843 0.762136 0.665002
O O21 0.000000 0.772397 0.101521
O O22 0.000000 0.856172 0.925345
O O23 0.166821 0.000000 0.921337
#
# Coordination Sequence:
#
# PCOD8189844 Si02
#       8
#     8   8   8   8   8   8   8   8
#     4   9  18  32  49  71 102 135 164 201 250 298
#     4  10  21  37  56  77 103 135 169 210 264 321
#     4   9  17  30  49  74 105 138 170 207 251 299
#     4   8  14  26  45  69  94 117 147 195 247 287
#     4   8  14  26  46  71  95 120 156 200 245 296
#     4   9  18  31  47  70  98 130 171 209 242 290
#     4  10  21  35  51  74 102 134 177 221 256 298
#     4   9  17  31  53  80 107 133 164 205 255 312
#
# _framework density 19.129809999999999
#
# number of rings (size 3 to 8) (size 9 to 14) (size 15 to 20)
#    0.000    3.000    0.000    1.500    0.000    4.750 
#    0.000    5.625    0.000    0.750    0.000    5.250 
#    0.000    0.000    0.000    0.000    0.000    0.000 
#
# Total GULP energy -396692.761387 kJ/mol
# GULP energy per Si atom -12396.648793 kJ/mol
# Density = 1.908627 g / cm^3
# Si number density = 19.129810 Si / 1000 Ang^3
#
#
#
# Elastic Constant Matrix: (Units=GPa)
#
#
# Indices 1 2 3 4 5 6 
#
# 1 46.2281 24.3011 35.9395 0.0000 0.0000 0.0000
# 2 24.3011 76.3717 57.5230 0.0000 0.0000 0.0000
# 3 35.9395 57.5230 168.9082 0.0000 0.0000 0.0000
# 4 0.0000 0.0000 0.0000 35.1726 0.0000 0.0000
# 5 0.0000 0.0000 0.0000 0.0000 26.9933 0.0000
# 6 0.0000 0.0000 0.0000 0.0000 0.0000 16.7188
#
#
#
# Elastic Compliance Matrix: (Units=1/GPa)
#
#
# Indices 1 2 3 4 5 6 
#
# 1 0.027763 -0.005897 -0.003899 0.000000 0.000000 0.000000
# 2 -0.005897 0.018864 -0.005169 0.000000 0.000000 0.000000
# 3 -0.003899 -0.005169 0.008510 0.000000 0.000000 0.000000
# 4 0.000000 0.000000 0.000000 0.028431 0.000000 0.000000
# 5 0.000000 0.000000 0.000000 0.000000 0.037046 0.000000
# 6 0.000000 0.000000 0.000000 0.000000 0.000000 0.059813
#
#
# Mechanical properties :
#
#
# Convention : Reuss Voigt Hill
#
# Bulk Modulus (GPa) = 39.67305 58.55947 49.11626
# Shear Modulus (GPa) = 22.85592 27.35990 25.10791
#
# Velocity S-wave (km/s) = 3.46031 3.78593 3.62678
# Velocity P-wave (km/s) = 6.06209 7.05614 6.57792
#
# Compressibility (1/GPa) = 0.02520603
#
# Stress axis : x y z
#
# Youngs Moduli (GPa) = 36.01898 53.01093 117.50240
#
# Poissons Ratio (x) = 0.31263 0.45813
# Poissons Ratio (y) = 0.21242 0.60742
# Poissons Ratio (z) = 0.14043 0.27404
#
# Static dielectric constant tensor:
#      x y z
#    x 3.267870 0.000000 0.000000 
#    y 0.000000 3.546050 0.000000 
#    z 0.000000 0.000000 3.770600 
# 
# 
# High freq. dielectric constant tensor:
#      x y z
#    x 1.707690 0.000000 0.000000 
#    y 0.000000 1.740630 0.000000 
#    z 0.000000 0.000000 1.746170 
# 
# From -- ./inp_files/25139.got.cif
#   From: 2010.03.12/outbox.cif.g09.slc.cpg/sg44_13_cif.got.tgz:25139.got - 2010.04.14 02:36:11.
