data_PCOD8189509
_publ_section_title
;
Structure prediction by ZEFSAII (Michael W. Deem and Ramdas Pophale) SiO2 
 PCOD8189509
Probable space group: I M M 2
;
_chemical_formula_sum "Si O2"
_cell_formula_units_Z 56
_cell_length_a 12.679275
_cell_length_b 15.681894
_cell_length_c 14.244459
_cell_angle_alpha 90.000000
_cell_angle_beta 90.000000
_cell_angle_gamma 90.000000
_cell_volume 2832.297668
_symmetry_space_group_name_H-M "I M M 2"
_symmetry_group_IT_number 44
_symmetry_cell_setting 'orthorhombic'
loop_
_space_group_symop_operation_xyz
x,y,z
-x,-y,z
-x,y,z
x,-y,z
1/2+x,1/2+y,1/2+z
1/2-x,1/2-y,1/2+z
1/2-x,1/2+y,1/2+z
1/2+x,1/2-y,1/2+z
loop_
_atom_site_type_symbol
_atom_site_label
_atom_site_fract_x
_atom_site_fract_y
_atom_site_fract_z
Si Si1 0.116557 0.902450 0.235910
Si Si2 0.114795 0.598479 0.432952
Si Si3 0.619421 0.752227 0.434096
Si Si4 0.308982 0.403389 0.316886
Si Si5 0.738295 0.811813 0.092786
Si Si6 0.770985 0.904473 0.422695
Si Si7 0.624903 0.644362 0.117328
O O1 0.210629 0.856138 0.182045
O O2 0.136388 0.893598 0.346852
O O3 0.000000 0.864168 0.214580
O O4 0.118885 0.000000 0.203308
O O5 0.093185 0.500000 0.439847
O O6 0.187377 0.620391 0.342596
O O7 0.173947 0.623830 0.527816
O O8 0.000000 0.644774 0.422604
O O9 0.500000 0.781389 0.447184
O O10 0.620284 0.669573 0.365491
O O11 0.666102 0.729351 0.535135
O O12 0.682623 0.834536 0.396545
O O13 0.335017 0.500000 0.354758
O O14 0.326045 0.405272 0.205741
O O15 0.654214 0.743159 0.129508
O O16 0.823213 0.892627 0.523936
O O17 0.721878 0.000000 0.417034
O O18 0.500000 0.631276 0.114757
#
# Coordination Sequence:
#
# PCOD8189509 Si02
#       7
#     8   8   8   8   8   8   8
#     4  10  20  35  56  81 111 148 188 235 289 336
#     4   9  18  35  58  82 110 143 180 227 281 334
#     4  10  21  37  56  80 111 145 182 229 285 340
#     4  10  21  36  56  84 114 144 183 229 277 334
#     4  10  20  35  54  82 112 143 185 231 276 337
#     4  10  22  39  58  81 110 147 194 240 280 331
#     4  11  22  36  56  81 112 150 189 232 280 329
#
# _framework density 19.771933000000001
#
# number of rings (size 3 to 8) (size 9 to 14) (size 15 to 20)
#    0.000    2.000    0.000    3.429    0.000    3.429 
#    0.000    9.286    0.000    5.143    0.000    0.000 
#    0.000    0.000    0.000    0.000    0.000    0.000 
#
# Total GULP energy -347086.782826 kJ/mol
# GULP energy per Si atom -12395.956530 kJ/mol
# Density = 1.972693 g / cm^3
# Si number density = 19.771933 Si / 1000 Ang^3
#
#
#
# Elastic Constant Matrix: (Units=GPa)
#
#
# Indices 1 2 3 4 5 6 
#
# 1 127.2642 30.6251 39.2199 0.0000 0.0000 0.0000
# 2 30.6251 76.0729 31.4084 0.0001 0.0000 0.0000
# 3 39.2199 31.4084 91.8015 0.0001 0.0000 0.0000
# 4 0.0000 0.0001 0.0001 27.2713 0.0000 0.0000
# 5 0.0000 0.0000 0.0000 0.0000 20.4408 0.0000
# 6 0.0000 0.0000 0.0000 0.0000 0.0000 22.1241
#
#
#
# Elastic Compliance Matrix: (Units=1/GPa)
#
#
# Indices 1 2 3 4 5 6 
#
# 1 0.009436 -0.002485 -0.003181 0.000000 0.000000 0.000000
# 2 -0.002485 0.015962 -0.004399 0.000000 0.000000 0.000000
# 3 -0.003181 -0.004399 0.013757 0.000000 0.000000 0.000000
# 4 0.000000 0.000000 0.000000 0.036669 0.000000 0.000000
# 5 0.000000 0.000000 0.000000 0.000000 0.048922 0.000000
# 6 0.000000 0.000000 0.000000 0.000000 0.000000 0.045200
#
#
# Mechanical properties :
#
#
# Convention : Reuss Voigt Hill
#
# Bulk Modulus (GPa) = 52.56519 55.29394 53.92956
# Shear Modulus (GPa) = 25.45587 26.89291 26.17439
#
# Velocity S-wave (km/s) = 3.59203 3.69203 3.64237
# Velocity P-wave (km/s) = 6.62171 6.79716 6.71001
#
# Compressibility (1/GPa) = 0.01902400
#
# Stress axis : x y z
#
# Youngs Moduli (GPa) = 105.97633 62.64783 72.68892
#
# Poissons Ratio (x) = 0.15570 0.23122
# Poissons Ratio (y) = 0.26339 0.31979
# Poissons Ratio (z) = 0.33711 0.27561
#
# Static dielectric constant tensor:
#      x y z
#    x 3.634080 0.000000 0.000000 
#    y 0.000000 3.740820 0.000000 
#    z 0.000000 0.000000 3.508610 
# 
# 
# High freq. dielectric constant tensor:
#      x y z
#    x 1.769500 0.000000 0.000000 
#    y 0.000000 1.775780 0.000000 
#    z 0.000000 0.000000 1.768000 
# 
# From -- ./inp_files/17763.got.cif
#   From: 2010.03.12/outbox.cif.g09.slc.cpg/sg44_9_cif.got.tgz:17763.got - 2010.04.14 02:36:11.
