data_PCOD8189232
_publ_section_title
;
Structure prediction by ZEFSAII (Michael W. Deem and Ramdas Pophale) SiO2 
 PCOD8189232
Probable space group: I M M 2
;
_chemical_formula_sum "Si O2"
_cell_formula_units_Z 40
_cell_length_a 13.523187
_cell_length_b 8.968013
_cell_length_c 18.615278
_cell_angle_alpha 90.000000
_cell_angle_beta 90.000000
_cell_angle_gamma 90.000000
_cell_volume 2257.588629
_symmetry_space_group_name_H-M "I M M 2"
_symmetry_group_IT_number 44
_symmetry_cell_setting 'orthorhombic'
loop_
_space_group_symop_operation_xyz
x,y,z
-x,-y,z
-x,y,z
x,-y,z
1/2+x,1/2+y,1/2+z
1/2-x,1/2-y,1/2+z
1/2-x,1/2+y,1/2+z
1/2+x,1/2-y,1/2+z
loop_
_atom_site_type_symbol
_atom_site_label
_atom_site_fract_x
_atom_site_fract_y
_atom_site_fract_z
Si Si1 0.615013 0.674368 0.556630
Si Si2 0.113131 0.671601 0.347633
Si Si3 0.607947 0.175910 0.280079
Si Si4 0.284973 0.823692 0.422993
Si Si5 0.305423 0.324019 0.710911
O O1 0.500000 0.715714 0.554513
O O2 0.632463 0.500000 0.543373
O O3 0.672497 0.767193 0.497528
O O4 0.659428 0.725518 0.632687
O O5 0.145404 0.500000 0.343276
O O6 0.177662 0.753255 0.408460
O O7 0.126706 0.743966 0.269421
O O8 0.000000 0.688980 0.371472
O O9 0.500000 0.247353 0.262431
O O10 0.641762 0.228171 0.359224
O O11 0.690425 0.224901 0.221802
O O12 0.597907 0.000000 0.279578
O O13 0.273157 0.000000 0.425522
O O14 0.318312 0.500000 0.722842
#
# Coordination Sequence:
#
# PCOD8189232 Si02
#       5
#     8   8   8   8   8
#     4  10  20  33  49  72 105 139 169 209 259 304
#     4  10  20  34  53  76 101 130 167 212 258 304
#     4   8  14  27  48  72  95 122 161 206 247 289
#     4  10  20  33  51  74 100 131 170 214 255 304
#     4   9  18  32  51  75 103 136 172 208 249 300
#
# _framework density 17.718019999999999
#
# number of rings (size 3 to 8) (size 9 to 14) (size 15 to 20)
#    0.000    2.600    0.000    3.600    0.000    4.400 
#    0.000    1.000    0.000    9.000    0.000    0.000 
#    0.000    0.000    0.000    0.000    0.000    0.000 
#
# Total GULP energy -247969.714893 kJ/mol
# GULP energy per Si atom -12398.485745 kJ/mol
# Density = 1.767769 g / cm^3
# Si number density = 17.718020 Si / 1000 Ang^3
#
#
#
# Elastic Constant Matrix: (Units=GPa)
#
#
# Indices 1 2 3 4 5 6 
#
# 1 132.9300 48.4832 68.8934 0.0000 0.0000 0.0000
# 2 48.4832 65.9271 51.2600 0.0000 0.0000 0.0000
# 3 68.8934 51.2600 125.3330 0.0000 0.0000 0.0000
# 4 0.0000 0.0000 0.0000 29.3116 0.0000 0.0000
# 5 0.0000 0.0000 0.0000 0.0000 23.3799 0.0000
# 6 0.0000 0.0000 0.0000 0.0000 0.0000 22.5896
#
#
#
# Elastic Compliance Matrix: (Units=1/GPa)
#
#
# Indices 1 2 3 4 5 6 
#
# 1 0.011643 -0.005258 -0.004249 0.000000 0.000000 0.000000
# 2 -0.005258 0.024616 -0.007177 0.000000 0.000000 0.000000
# 3 -0.004249 -0.007177 0.013250 0.000000 0.000000 0.000000
# 4 0.000000 0.000000 0.000000 0.034116 0.000000 0.000000
# 5 0.000000 0.000000 0.000000 0.000000 0.042772 0.000000
# 6 0.000000 0.000000 0.000000 0.000000 0.000000 0.044268
#
#
# Mechanical properties :
#
#
# Convention : Reuss Voigt Hill
#
# Bulk Modulus (GPa) = 61.96205 73.49592 67.72899
# Shear Modulus (GPa) = 23.87618 25.42647 24.65133
#
# Velocity S-wave (km/s) = 3.67490 3.79233 3.73408
# Velocity P-wave (km/s) = 7.28379 7.79401 7.54322
#
# Compressibility (1/GPa) = 0.01613891
#
# Stress axis : x y z
#
# Youngs Moduli (GPa) = 85.88948 40.62452 75.47228
#
# Poissons Ratio (x) = 0.21362 0.32070
# Poissons Ratio (y) = 0.45163 0.54168
# Poissons Ratio (z) = 0.36497 0.29157
#
# Static dielectric constant tensor:
#      x y z
#    x 3.628450 0.000000 0.000000 
#    y 0.000000 3.151440 0.000000 
#    z 0.000000 0.000000 3.206800 
# 
# 
# High freq. dielectric constant tensor:
#      x y z
#    x 1.696810 0.000000 0.000000 
#    y 0.000000 1.671210 0.000000 
#    z 0.000000 0.000000 1.673020 
# 
# From -- ./inp_files/15786.got.cif
#   From: 2010.03.12/outbox.cif.g09.slc.cpg/sg44_8_cif.got.tgz:15786.got - 2010.04.14 02:36:11.
