data_PCOD8189463
_publ_section_title
;
Structure prediction by ZEFSAII (Michael W. Deem and Ramdas Pophale) SiO2 
 PCOD8189463
Probable space group: I M M 2
;
_chemical_formula_sum "Si O2"
_cell_formula_units_Z 64
_cell_length_a 8.743140
_cell_length_b 19.317144
_cell_length_c 20.773510
_cell_angle_alpha 90.000000
_cell_angle_beta 90.000000
_cell_angle_gamma 90.000000
_cell_volume 3508.489921
_symmetry_space_group_name_H-M "I M M 2"
_symmetry_group_IT_number 44
_symmetry_cell_setting 'orthorhombic'
loop_
_space_group_symop_operation_xyz
x,y,z
-x,-y,z
-x,y,z
x,-y,z
1/2+x,1/2+y,1/2+z
1/2-x,1/2-y,1/2+z
1/2-x,1/2+y,1/2+z
1/2+x,1/2-y,1/2+z
loop_
_atom_site_type_symbol
_atom_site_label
_atom_site_fract_x
_atom_site_fract_y
_atom_site_fract_z
Si Si1 0.318434 0.575064 0.979640
Si Si2 0.679983 0.209130 0.290020
Si Si3 0.322738 0.078677 0.100296
Si Si4 0.178454 0.078263 0.625457
Si Si5 0.681448 0.716161 0.922202
Si Si6 0.678339 0.421694 0.738684
Si Si7 0.819546 0.793883 0.041562
Si Si8 0.679028 0.787745 0.670280
O O1 0.500000 0.574463 0.980997
O O2 0.259340 0.500000 0.953774
O O3 0.258938 0.637561 0.935345
O O4 0.260635 0.586001 0.052524
O O5 0.500000 0.212612 0.293748
O O6 0.749067 0.242190 0.354931
O O7 0.734932 0.129463 0.286752
O O8 0.735624 0.251313 0.228628
O O9 0.500000 0.097937 0.109361
O O10 0.238052 0.090562 0.167270
O O11 0.302779 0.000000 0.076133
O O12 0.242985 0.128136 0.048542
O O13 0.272818 0.131778 0.669146
O O14 0.000000 0.096795 0.630072
O O15 0.208388 0.000000 0.650258
O O16 0.500000 0.719805 0.918976
O O17 0.739224 0.764833 0.978662
O O18 0.500000 0.403585 0.739718
O O19 0.709461 0.500000 0.761867
O O20 0.000000 0.794451 0.031501
O O21 0.771273 0.748831 0.103695
O O22 0.500000 0.780814 0.682327
#
# Coordination Sequence:
#
# PCOD8189463 Si02
#       8
#     8   8   8   8   8   8   8   8
#     4   8  15  29  51  79 109 144 184 221 262 321
#     4  12  25  39  56  79 114 152 193 237 285 340
#     4  10  20  34  56  86 115 145 185 233 285 337
#     4   9  17  32  56  85 114 145 184 228 278 333
#     4  11  22  37  58  81 113 151 192 235 283 337
#     4  10  20  35  55  80 112 150 191 232 279 337
#     4  11  22  36  57  84 115 149 189 235 283 335
#     4  11  22  36  57  84 114 148 190 235 281 331
#
# _framework density 18.241465999999999
#
# number of rings (size 3 to 8) (size 9 to 14) (size 15 to 20)
#    0.000    1.750    2.500    3.750    0.000    3.250 
#    0.000    1.250    0.000    1.875    0.000    0.000 
#    0.000    0.000    0.000    0.000    0.000    0.000 
#
# Total GULP energy -396833.777670 kJ/mol
# GULP energy per Si atom -12401.055552 kJ/mol
# Density = 1.819995 g / cm^3
# Si number density = 18.241466 Si / 1000 Ang^3
#
#
#
# Elastic Constant Matrix: (Units=GPa)
#
#
# Indices 1 2 3 4 5 6 
#
# 1 98.9251 44.2272 52.6923 0.0000 0.0000 0.0000
# 2 44.2272 95.9586 49.6787 0.0000 0.0000 0.0000
# 3 52.6923 49.6787 108.4279 0.0000 0.0000 0.0000
# 4 0.0000 0.0000 0.0000 25.3624 0.0000 0.0000
# 5 0.0000 0.0000 0.0000 0.0000 27.9325 0.0000
# 6 0.0000 0.0000 0.0000 0.0000 0.0000 28.7349
#
#
#
# Elastic Compliance Matrix: (Units=1/GPa)
#
#
# Indices 1 2 3 4 5 6 
#
# 1 0.014748 -0.004047 -0.005313 0.000000 0.000000 0.000000
# 2 -0.004047 0.014772 -0.004802 0.000000 0.000000 0.000000
# 3 -0.005313 -0.004802 0.014005 0.000000 0.000000 0.000000
# 4 0.000000 0.000000 0.000000 0.039428 0.000000 0.000000
# 5 0.000000 0.000000 0.000000 0.000000 0.035801 0.000000
# 6 0.000000 0.000000 0.000000 0.000000 0.000000 0.034801
#
#
# Mechanical properties :
#
#
# Convention : Reuss Voigt Hill
#
# Bulk Modulus (GPa) = 65.78036 66.27867 66.02951
# Shear Modulus (GPa) = 26.74600 26.85353 26.79976
#
# Velocity S-wave (km/s) = 3.83328 3.84098 3.83713
# Velocity P-wave (km/s) = 7.46533 7.48891 7.47713
#
# Compressibility (1/GPa) = 0.01520211
#
# Stress axis : x y z
#
# Youngs Moduli (GPa) = 67.80714 67.69502 71.40546
#
# Poissons Ratio (x) = 0.27394 0.37936
# Poissons Ratio (y) = 0.27440 0.34286
# Poissons Ratio (z) = 0.36024 0.32505
#
# Static dielectric constant tensor:
#      x y z
#    x 3.300650 0.000000 0.000000 
#    y 0.000000 3.596860 0.000000 
#    z 0.000000 0.000000 3.180140 
# 
# 
# High freq. dielectric constant tensor:
#      x y z
#    x 1.707750 0.000000 0.000000 
#    y 0.000000 1.711030 0.000000 
#    z 0.000000 0.000000 1.683940 
# 
# From -- ./inp_files/20794.got.cif
#   From: 2010.03.12/outbox.cif.g09.slc.cpg/sg44_11_cif.got.tgz:20794.got - 2010.04.14 02:36:11.
