data_PCOD8189708
_publ_section_title
;
Structure prediction by ZEFSAII (Michael W. Deem and Ramdas Pophale) SiO2 
 PCOD8189708
Probable space group: I M M 2
;
_chemical_formula_sum "Si O2"
_cell_formula_units_Z 48
_cell_length_a 14.161982
_cell_length_b 19.494989
_cell_length_c 7.921521
_cell_angle_alpha 90.000000
_cell_angle_beta 90.000000
_cell_angle_gamma 90.000000
_cell_volume 2187.034381
_symmetry_space_group_name_H-M "I M M 2"
_symmetry_group_IT_number 44
_symmetry_cell_setting 'orthorhombic'
loop_
_space_group_symop_operation_xyz
x,y,z
-x,-y,z
-x,y,z
x,-y,z
1/2+x,1/2+y,1/2+z
1/2-x,1/2-y,1/2+z
1/2-x,1/2+y,1/2+z
1/2+x,1/2-y,1/2+z
loop_
_atom_site_type_symbol
_atom_site_label
_atom_site_fract_x
_atom_site_fract_y
_atom_site_fract_z
Si Si1 0.702526 0.655295 0.519570
Si Si2 0.890853 0.147191 0.672975
Si Si3 0.604085 0.209466 0.019990
Si Si4 0.395911 0.781247 0.640693
Si Si5 0.893640 0.423902 0.995519
Si Si6 0.699203 0.577893 0.847319
O O1 0.663675 0.624803 0.344031
O O2 0.816206 0.651098 0.534461
O O3 0.675565 0.736125 0.530079
O O4 0.659681 0.614375 0.678548
O O5 0.880344 0.229099 0.652364
O O6 0.844488 0.108986 0.516144
O O7 0.000000 0.125487 0.687400
O O8 0.500000 0.176151 0.046508
O O9 0.611426 0.242240 0.833721
O O10 0.500000 0.765616 0.568258
O O11 0.374175 0.862900 0.629664
O O12 0.883798 0.500000 0.081051
O O13 0.813961 0.416431 0.851352
O O14 0.000000 0.416019 0.918818
O O15 0.665512 0.500000 0.836070
#
# Coordination Sequence:
#
# PCOD8189708 Si02
#       6
#     8   8   8   8   8   8
#     4  12  23  39  65  96 129 168 216 271 321 381
#     4  11  25  43  64  94 130 167 216 272 322 380
#     4  10  21  37  60  95 132 165 207 265 325 379
#     4  10  20  36  62  94 128 168 214 266 318 379
#     4   9  19  37  63  97 134 172 212 257 320 393
#     4  11  25  44  66  92 130 176 218 266 324 384
#
# _framework density 21.947528999999999
#
# number of rings (size 3 to 8) (size 9 to 14) (size 15 to 20)
#    0.000    1.500    1.667    3.500    2.333    2.333 
#    0.000    0.833    0.000    1.000    0.000    4.667 
#    0.000    0.000    0.000    0.000    0.000    0.000 
#
# Total GULP energy -297466.682015 kJ/mol
# GULP energy per Si atom -12394.445084 kJ/mol
# Density = 2.189758 g / cm^3
# Si number density = 21.947529 Si / 1000 Ang^3
#
#
#
# Elastic Constant Matrix: (Units=GPa)
#
#
# Indices 1 2 3 4 5 6 
#
# 1 128.8391 44.2284 55.0135 0.0000 0.0000 0.0000
# 2 44.2284 82.7841 54.8160 0.0000 0.0000 0.0000
# 3 55.0135 54.8160 153.7777 0.0000 0.0000 0.0000
# 4 0.0000 0.0000 0.0000 18.7105 0.0000 0.0000
# 5 0.0000 0.0000 0.0000 0.0000 26.0859 0.0000
# 6 0.0000 0.0000 0.0000 0.0000 0.0000 21.7491
#
#
#
# Elastic Compliance Matrix: (Units=1/GPa)
#
#
# Indices 1 2 3 4 5 6 
#
# 1 0.010043 -0.003909 -0.002199 0.000000 0.000000 0.000000
# 2 -0.003909 0.017333 -0.004780 0.000000 0.000000 0.000000
# 3 -0.002199 -0.004780 0.008994 0.000000 0.000000 0.000000
# 4 0.000000 0.000000 0.000000 0.053446 0.000000 0.000000
# 5 0.000000 0.000000 0.000000 0.000000 0.038335 0.000000
# 6 0.000000 0.000000 0.000000 0.000000 0.000000 0.045979
#
#
# Mechanical properties :
#
#
# Convention : Reuss Voigt Hill
#
# Bulk Modulus (GPa) = 68.52876 74.83517 71.68197
# Shear Modulus (GPa) = 24.90402 27.39863 26.15133
#
# Velocity S-wave (km/s) = 3.37220 3.53706 3.45561
# Velocity P-wave (km/s) = 6.81571 7.13109 6.97518
#
# Compressibility (1/GPa) = 0.01459241
#
# Stress axis : x y z
#
# Youngs Moduli (GPa) = 99.57544 57.69223 111.18977
#
# Poissons Ratio (x) = 0.22553 0.24454
# Poissons Ratio (y) = 0.38925 0.53151
# Poissons Ratio (z) = 0.21899 0.27578
#
# Static dielectric constant tensor:
#      x y z
#    x 4.265260 0.000000 0.000000 
#    y 0.000000 3.732500 0.000000 
#    z 0.000000 0.000000 3.704250 
# 
# 
# High freq. dielectric constant tensor:
#      x y z
#    x 1.880110 0.000000 0.000000 
#    y 0.000000 1.836880 0.000000 
#    z 0.000000 0.000000 1.848680 
# 
# From -- ./inp_files/7119.got.cif
#   From: 2010.03.12/outbox.cif.g09.slc.cpg/sg44_4_cif.got.tgz:7119.got - 2010.04.14 02:36:11.
