data_PCOD8189956
_publ_section_title
;
Structure prediction by ZEFSAII (Michael W. Deem and Ramdas Pophale) SiO2 
 PCOD8189956
Probable space group: I M M 2
;
_chemical_formula_sum "Si O2"
_cell_formula_units_Z 48
_cell_length_a 8.721243
_cell_length_b 14.575278
_cell_length_c 20.296058
_cell_angle_alpha 90.000000
_cell_angle_beta 90.000000
_cell_angle_gamma 90.000000
_cell_volume 2579.924101
_symmetry_space_group_name_H-M "I M M 2"
_symmetry_group_IT_number 44
_symmetry_cell_setting 'orthorhombic'
loop_
_space_group_symop_operation_xyz
x,y,z
-x,-y,z
-x,y,z
x,-y,z
1/2+x,1/2+y,1/2+z
1/2-x,1/2-y,1/2+z
1/2-x,1/2+y,1/2+z
1/2+x,1/2-y,1/2+z
loop_
_atom_site_type_symbol
_atom_site_label
_atom_site_fract_x
_atom_site_fract_y
_atom_site_fract_z
Si Si1 0.822348 0.188663 0.134910
Si Si2 0.317824 0.000000 0.177054
Si Si3 0.681639 0.312490 0.244271
Si Si4 0.318110 0.000000 0.784716
Si Si5 0.680084 0.000000 0.933939
Si Si6 0.182015 0.500000 0.828354
Si Si7 0.176676 0.818775 0.985252
Si Si8 0.818001 0.694692 0.868095
O O1 0.731376 0.262440 0.177625
O O2 0.000000 0.187155 0.155639
O O3 0.751364 0.088381 0.142141
O O4 0.801535 0.218263 0.058979
O O5 0.266238 0.000000 0.252740
O O6 0.500000 0.000000 0.169151
O O7 0.500000 0.322626 0.245487
O O8 0.757302 0.411990 0.245851
O O9 0.742631 0.253937 0.306441
O O10 0.252435 0.000000 0.859550
O O11 0.500000 0.000000 0.783542
O O12 0.731813 0.088200 0.974357
O O13 0.500000 0.000000 0.929606
O O14 0.249073 0.408768 0.863434
O O15 0.000000 0.500000 0.832430
O O16 0.239705 0.740420 0.935803
O O17 0.000000 0.840337 0.969465
O O18 0.000000 0.690056 0.864800
#
# Coordination Sequence:
#
# PCOD8189956 Si02
#       8
#     8   4   8   4   4   4   8   8
#     4  11  23  37  54  83 122 156 187 235 298 347
#     4  11  20  34  57  85 113 147 193 235 281 349
#     4  11  21  37  62  85 110 153 199 237 278 340
#     4  11  23  38  57  88 122 148 185 243 302 343
#     4  11  22  34  55  87 117 147 185 242 299 339
#     4   9  16  30  55  86 106 126 179 242 278 313
#     4  10  21  37  56  80 114 155 192 228 281 351
#     4   9  17  32  56  82 107 141 190 236 271 326
#
# _framework density 18.605198000000001
#
# number of rings (size 3 to 8) (size 9 to 14) (size 15 to 20)
#    0.000    1.667    3.333    2.250    0.000    4.000 
#    0.000    0.833    0.000    3.000    0.000    0.000 
#    0.000    0.000    0.000    0.000    0.000    0.000 
#
# Total GULP energy -297659.527815 kJ/mol
# GULP energy per Si atom -12402.480326 kJ/mol
# Density = 1.856285 g / cm^3
# Si number density = 18.605198 Si / 1000 Ang^3
#
#
#
# Elastic Constant Matrix: (Units=GPa)
#
#
# Indices 1 2 3 4 5 6 
#
# 1 56.0380 28.0526 28.5856 0.0000 0.0000 0.0000
# 2 28.0526 153.0308 60.7200 0.0000 0.0000 0.0000
# 3 28.5856 60.7200 115.5548 0.0000 0.0000 0.0000
# 4 0.0000 0.0000 0.0000 29.0329 0.0000 0.0000
# 5 0.0000 0.0000 0.0000 0.0000 25.2584 0.0000
# 6 0.0000 0.0000 0.0000 0.0000 0.0000 22.7807
#
#
#
# Elastic Compliance Matrix: (Units=1/GPa)
#
#
# Indices 1 2 3 4 5 6 
#
# 1 0.021024 -0.002262 -0.004012 0.000000 0.000000 0.000000
# 2 -0.002262 0.008499 -0.003907 0.000000 0.000000 0.000000
# 3 -0.004012 -0.003907 0.011699 0.000000 0.000000 0.000000
# 4 0.000000 0.000000 0.000000 0.034444 0.000000 0.000000
# 5 0.000000 0.000000 0.000000 0.000000 0.039591 0.000000
# 6 0.000000 0.000000 0.000000 0.000000 0.000000 0.043897
#
#
# Mechanical properties :
#
#
# Convention : Reuss Voigt Hill
#
# Bulk Modulus (GPa) = 47.93634 62.14890 55.04262
# Shear Modulus (GPa) = 26.81407 29.23209 28.02308
#
# Velocity S-wave (km/s) = 3.80045 3.96811 3.88518
# Velocity P-wave (km/s) = 6.71408 7.38045 7.05514
#
# Compressibility (1/GPa) = 0.02086100
#
# Stress axis : x y z
#
# Youngs Moduli (GPa) = 47.56451 117.65630 85.47599
#
# Poissons Ratio (x) = 0.26614 0.34295
# Poissons Ratio (y) = 0.10759 0.33392
# Poissons Ratio (z) = 0.19084 0.45963
#
# Static dielectric constant tensor:
#      x y z
#    x 3.243570 0.000000 0.000000 
#    y 0.000000 3.620580 0.000000 
#    z 0.000000 0.000000 3.502500 
# 
# 
# High freq. dielectric constant tensor:
#      x y z
#    x 1.705830 0.000000 0.000000 
#    y 0.000000 1.726820 0.000000 
#    z 0.000000 0.000000 1.722090 
# 
# From -- ./inp_files/20395.got.cif
#   From: 2010.03.12/outbox.cif.g09.slc.cpg/sg44_11_cif.got.tgz:20395.got - 2010.04.14 02:36:11.
