data_PCOD8189845
_publ_section_title
;
Structure prediction by ZEFSAII (Michael W. Deem and Ramdas Pophale) SiO2 
 PCOD8189845
Probable space group: I M M 2
;
_chemical_formula_sum "Si O2"
_cell_formula_units_Z 64
_cell_length_a 9.112954
_cell_length_b 14.734530
_cell_length_c 24.516680
_cell_angle_alpha 90.000000
_cell_angle_beta 90.000000
_cell_angle_gamma 90.000000
_cell_volume 3291.979514
_symmetry_space_group_name_H-M "I M M 2"
_symmetry_group_IT_number 44
_symmetry_cell_setting 'orthorhombic'
loop_
_space_group_symop_operation_xyz
x,y,z
-x,-y,z
-x,y,z
x,-y,z
1/2+x,1/2+y,1/2+z
1/2-x,1/2-y,1/2+z
1/2-x,1/2+y,1/2+z
1/2+x,1/2-y,1/2+z
loop_
_atom_site_type_symbol
_atom_site_label
_atom_site_fract_x
_atom_site_fract_y
_atom_site_fract_z
Si Si1 0.329286 0.258281 0.618310
Si Si2 0.672755 0.251402 0.742017
Si Si3 0.671823 0.394096 0.308397
Si Si4 0.672361 0.395273 0.525686
Si Si5 0.325829 0.397623 0.826481
Si Si6 0.671651 0.605652 0.060626
Si Si7 0.673541 0.600676 0.943514
Si Si8 0.334632 0.892303 0.917421
O O1 0.500000 0.243772 0.609836
O O2 0.291460 0.282494 0.680600
O O3 0.273790 0.338617 0.578470
O O4 0.253762 0.162534 0.606271
O O5 0.500000 0.234526 0.750689
O O6 0.757912 0.159391 0.757544
O O7 0.735747 0.332508 0.779621
O O8 0.500000 0.373927 0.312568
O O9 0.702997 0.500000 0.298383
O O10 0.747272 0.359105 0.364177
O O11 0.500000 0.384491 0.514903
O O12 0.713223 0.500000 0.537007
O O13 0.755605 0.357016 0.472249
O O14 0.500000 0.402587 0.822544
O O15 0.262903 0.500000 0.819147
O O16 0.279594 0.353534 0.885854
O O17 0.500000 0.620466 0.068846
O O18 0.712659 0.500000 0.066937
O O19 0.726149 0.644374 0.000885
O O20 0.500000 0.594166 0.947201
O O21 0.739257 0.500000 0.940974
O O22 0.500000 0.852199 0.915562
O O23 0.337368 0.000000 0.918417
#
# Coordination Sequence:
#
# PCOD8189845 Si02
#       8
#     8   8   8   8   8   8   8   8
#     4  10  22  36  49  72 105 139 178 221 261 300
#     4  10  21  35  51  75 105 136 176 222 260 299
#     4  10  21  37  56  77 104 139 175 213 262 319
#     4   9  18  34  54  75 105 144 179 213 258 313
#     4   8  14  27  50  78 104 128 157 199 252 307
#     4   9  18  33  53  75  99 129 166 210 260 314
#     4   7  11  23  45  73  99 119 147 193 246 297
#     4   9  17  31  54  83 109 132 166 214 265 316
#
# _framework density 19.441189000000001
#
# number of rings (size 3 to 8) (size 9 to 14) (size 15 to 20)
#    0.000    3.000    0.000    2.250    0.000    5.500 
#    0.000    6.250    0.000    0.375    0.000    3.500 
#    0.000    0.000    0.000    0.000    0.000    0.000 
#
# Total GULP energy -396541.249937 kJ/mol
# GULP energy per Si atom -12391.914061 kJ/mol
# Density = 1.939694 g / cm^3
# Si number density = 19.441189 Si / 1000 Ang^3
#
#
#
# Elastic Constant Matrix: (Units=GPa)
#
#
# Indices 1 2 3 4 5 6 
#
# 1 48.6107 19.5955 30.1665 0.0000 0.0000 0.0000
# 2 19.5955 50.9968 22.0687 0.0000 0.0000 0.0000
# 3 30.1665 22.0687 90.1591 0.0000 0.0000 0.0000
# 4 0.0000 0.0000 0.0000 35.1772 0.0000 0.0000
# 5 0.0000 0.0000 0.0000 0.0000 26.9741 0.0000
# 6 0.0000 0.0000 0.0000 0.0000 0.0000 19.2866
#
#
#
# Elastic Compliance Matrix: (Units=1/GPa)
#
#
# Indices 1 2 3 4 5 6 
#
# 1 0.028371 -0.007599 -0.007633 0.000000 0.000000 0.000000
# 2 -0.007599 0.023967 -0.003324 0.000000 0.000000 0.000000
# 3 -0.007633 -0.003324 0.014459 0.000000 0.000000 0.000000
# 4 0.000000 0.000000 0.000000 0.028428 0.000000 0.000000
# 5 0.000000 0.000000 0.000000 0.000000 0.037073 0.000000
# 6 0.000000 0.000000 0.000000 0.000000 0.000000 0.051850
#
#
# Mechanical properties :
#
#
# Convention : Reuss Voigt Hill
#
# Bulk Modulus (GPa) = 33.68534 37.04755 35.36644
# Shear Modulus (GPa) = 21.63055 24.14997 22.89026
#
# Velocity S-wave (km/s) = 3.33921 3.52832 3.43506
# Velocity P-wave (km/s) = 5.67728 5.97464 5.82785
#
# Compressibility (1/GPa) = 0.02968651
#
# Stress axis : x y z
#
# Youngs Moduli (GPa) = 35.24667 41.72341 69.16065
#
# Poissons Ratio (x) = 0.31704 0.52790
# Poissons Ratio (y) = 0.26783 0.22990
# Poissons Ratio (z) = 0.26903 0.13870
#
# Static dielectric constant tensor:
#      x y z
#    x 3.223170 0.000000 0.000000 
#    y 0.000000 3.480210 0.000000 
#    z 0.000000 0.000000 3.816420 
# 
# 
# High freq. dielectric constant tensor:
#      x y z
#    x 1.720380 0.000000 0.000000 
#    y 0.000000 1.747500 0.000000 
#    z 0.000000 0.000000 1.765960 
# 
# From -- ./inp_files/25078.got.cif
#   From: 2010.03.12/outbox.cif.g09.slc.cpg/sg44_13_cif.got.tgz:25078.got - 2010.04.14 02:36:11.
