data_PCOD8189354
_publ_section_title
;
Structure prediction by ZEFSAII (Michael W. Deem and Ramdas Pophale) SiO2 
 PCOD8189354
Probable space group: I M M 2
;
_chemical_formula_sum "Si O2"
_cell_formula_units_Z 64
_cell_length_a 8.963987
_cell_length_b 33.851504
_cell_length_c 11.528559
_cell_angle_alpha 90.000000
_cell_angle_beta 90.000000
_cell_angle_gamma 90.000000
_cell_volume 3498.277150
_symmetry_space_group_name_H-M "I M M 2"
_symmetry_group_IT_number 44
_symmetry_cell_setting 'orthorhombic'
loop_
_space_group_symop_operation_xyz
x,y,z
-x,-y,z
-x,y,z
x,-y,z
1/2+x,1/2+y,1/2+z
1/2-x,1/2-y,1/2+z
1/2-x,1/2+y,1/2+z
1/2+x,1/2-y,1/2+z
loop_
_atom_site_type_symbol
_atom_site_label
_atom_site_fract_x
_atom_site_fract_y
_atom_site_fract_z
Si Si1 0.672212 0.307351 0.228240
Si Si2 0.677529 0.155470 0.126129
Si Si3 0.822893 0.455805 0.263926
Si Si4 0.323040 0.125172 0.874024
Si Si5 0.831436 0.226624 0.246057
Si Si6 0.822653 0.456371 0.004109
Si Si7 0.173465 0.610589 0.846884
Si Si8 0.835792 0.174992 0.467430
O O1 0.500000 0.307325 0.265403
O O2 0.749085 0.345888 0.281600
O O3 0.748781 0.267488 0.269558
O O4 0.695539 0.306608 0.091268
O O5 0.500000 0.160652 0.134039
O O6 0.749900 0.198155 0.152419
O O7 0.738543 0.123734 0.221703
O O8 0.728439 0.138437 0.002294
O O9 0.764911 0.500000 0.302465
O O10 0.769528 0.420250 0.349097
O O11 0.763994 0.445977 0.133674
O O12 0.000000 0.457375 0.262709
O O13 0.500000 0.128415 0.860981
O O14 0.829775 0.209387 0.374189
O O15 0.000000 0.233456 0.201266
O O16 0.771076 0.500000 0.970201
O O17 0.000000 0.452208 0.005531
O O18 0.753950 0.428864 0.902301
O O19 0.205825 0.644047 0.941574
O O20 0.000000 0.604387 0.831349
O O21 0.000000 0.154583 0.464022
#
# Coordination Sequence:
#
# PCOD8189354 Si02
#       8
#     8   8   8   8   8   8   8   8
#     4  11  23  36  52  76 103 129 163 212 260 303
#     4   9  19  34  50  71 103 137 170 214 258 297
#     4   8  14  26  46  73 103 135 173 217 261 304
#     4  10  20  34  52  75 104 140 178 215 257 308
#     4  10  21  37  55  74  96 130 169 204 254 314
#     4   8  13  22  41  71 102 127 159 209 258 297
#     4   9  16  29  50  72  95 128 168 203 243 299
#     4   9  20  36  51  69  96 125 155 200 253 295
#
# _framework density 18.294719000000001
#
# number of rings (size 3 to 8) (size 9 to 14) (size 15 to 20)
#    0.000    2.750    0.000    2.250    1.750    3.000 
#    0.000    0.625    0.000    4.500    0.000    3.500 
#    0.000    3.000    0.000    0.000    0.000    0.000 
#
# Total GULP energy -396521.166731 kJ/mol
# GULP energy per Si atom -12391.286460 kJ/mol
# Density = 1.825308 g / cm^3
# Si number density = 18.294719 Si / 1000 Ang^3
#
#
#
# Elastic Constant Matrix: (Units=GPa)
#
#
# Indices 1 2 3 4 5 6 
#
# 1 30.9351 27.6050 27.1289 -0.0003 0.0000 0.0000
# 2 27.6050 135.1035 53.8102 -0.0014 0.0001 0.0001
# 3 27.1289 53.8102 82.3178 -0.0040 0.0002 0.0004
# 4 -0.0003 -0.0014 -0.0040 26.2561 0.0001 0.0002
# 5 0.0000 0.0001 0.0002 0.0001 18.1155 -0.0005
# 6 0.0000 0.0001 0.0004 0.0002 -0.0005 16.7456
#
#
#
# Elastic Compliance Matrix: (Units=1/GPa)
#
#
# Indices 1 2 3 4 5 6 
#
# 1 0.047575 -0.004700 -0.012607 -0.000002 0.000000 0.000000
# 2 -0.004700 0.010471 -0.005296 0.000000 0.000000 0.000000
# 3 -0.012607 -0.005296 0.019765 0.000003 0.000000 0.000000
# 4 -0.000002 0.000000 0.000003 0.038086 0.000000 0.000000
# 5 0.000000 0.000000 0.000000 0.000000 0.055201 0.000002
# 6 0.000000 0.000000 0.000000 0.000000 0.000002 0.059717
#
#
# Mechanical properties :
#
#
# Convention : Reuss Voigt Hill
#
# Bulk Modulus (GPa) = 30.66918 51.71605 41.19262
# Shear Modulus (GPa) = 17.42823 21.54426 19.48625
#
# Velocity S-wave (km/s) = 3.08983 3.43537 3.26717
# Velocity P-wave (km/s) = 5.43413 6.63818 6.06610
#
# Compressibility (1/GPa) = 0.03260602
#
# Stress axis : x y z
#
# Youngs Moduli (GPa) = 21.01932 95.49825 50.59473
#
# Poissons Ratio (x) = 0.44880 0.63785
# Poissons Ratio (y) = 0.09878 0.26796
# Poissons Ratio (z) = 0.26499 0.50578
#
# Static dielectric constant tensor:
#      x y z
#    x 3.172280 0.000000 0.000000 
#    y 0.000000 3.621590 0.000000 
#    z 0.000000 0.000000 3.546100 
# 
# 
# High freq. dielectric constant tensor:
#      x y z
#    x 1.678530 0.000000 0.000000 
#    y 0.000000 1.713150 0.000000 
#    z 0.000000 0.000000 1.707520 
# 
# From -- ./inp_files/11502.got.cif
#   From: 2010.03.12/outbox.cif.g09.slc.cpg/sg44_6_cif.got.tgz:11502.got - 2010.04.14 02:36:11.
