data_PCOD8189169
_publ_section_title
;
Structure prediction by ZEFSAII (Michael W. Deem and Ramdas Pophale) SiO2 
 PCOD8189169
Probable space group: I M M 2
;
_chemical_formula_sum "Si O2"
_cell_formula_units_Z 64
_cell_length_a 9.073546
_cell_length_b 13.474909
_cell_length_c 24.610302
_cell_angle_alpha 90.000000
_cell_angle_beta 90.000000
_cell_angle_gamma 90.000000
_cell_volume 3008.983660
_symmetry_space_group_name_H-M "I M M 2"
_symmetry_group_IT_number 44
_symmetry_cell_setting 'orthorhombic'
loop_
_space_group_symop_operation_xyz
x,y,z
-x,-y,z
-x,y,z
x,-y,z
1/2+x,1/2+y,1/2+z
1/2-x,1/2-y,1/2+z
1/2-x,1/2+y,1/2+z
1/2+x,1/2-y,1/2+z
loop_
_atom_site_type_symbol
_atom_site_label
_atom_site_fract_x
_atom_site_fract_y
_atom_site_fract_z
Si Si1 0.325884 0.197530 0.123110
Si Si2 0.829606 0.612767 0.405321
Si Si3 0.332892 0.388776 0.718819
Si Si4 0.339753 0.612410 0.011886
Si Si5 0.839349 0.614890 0.915426
Si Si6 0.829684 0.789432 0.327378
Si Si7 0.672515 0.384476 0.517401
Si Si8 0.172510 0.389566 0.120621
O O1 0.500000 0.195932 0.118953
O O2 0.272300 0.116585 0.166361
O O3 0.258431 0.179483 0.063036
O O4 0.267935 0.302822 0.148627
O O5 0.794668 0.500000 0.387356
O O6 0.790407 0.681256 0.352716
O O7 0.732503 0.642762 0.457556
O O8 0.000000 0.624842 0.421779
O O9 0.500000 0.371547 0.698732
O O10 0.315256 0.500000 0.743265
O O11 0.292086 0.304232 0.763621
O O12 0.500000 0.660888 0.027755
O O13 0.371972 0.500000 0.995586
O O14 0.268272 0.667348 0.959757
O O15 0.217689 0.616926 0.058038
O O16 0.857296 0.500000 0.928925
O O17 0.768341 0.628159 0.856748
O O18 0.000000 0.666024 0.917741
O O19 0.000000 0.814930 0.337032
O O20 0.500000 0.358881 0.520388
O O21 0.702192 0.500000 0.529757
O O22 0.210586 0.500000 0.143821
O O23 0.000000 0.367705 0.127091
#
# Coordination Sequence:
#
# PCOD8189169 Si02
#       8
#     8   8   8   8   8   8   8   8
#     4  12  25  39  61  90 122 162 206 254 310 370
#     4   9  19  37  60  88 123 158 196 247 304 366
#     4  10  22  42  65  89 121 159 202 256 313 370
#     4   9  17  30  49  74 108 149 190 233 284 343
#     4  10  20  32  48  75 112 152 193 238 290 351
#     4  10  21  37  60  86 115 154 200 249 305 363
#     4  10  21  38  61  89 122 161 205 255 310 368
#     4  10  21  38  59  83 115 155 199 247 297 353
#
# _framework density 21.269642000000001
#
# number of rings (size 3 to 8) (size 9 to 14) (size 15 to 20)
#    0.000    2.000    0.000    3.375    1.750    7.000 
#    0.000    0.625    0.000    2.250    0.000    0.000 
#    0.000    0.000    0.000    0.000    0.000    0.000 
#
# Total GULP energy -396575.869603 kJ/mol
# GULP energy per Si atom -12392.995925 kJ/mol
# Density = 2.122123 g / cm^3
# Si number density = 21.269642 Si / 1000 Ang^3
#
#
#
# Elastic Constant Matrix: (Units=GPa)
#
#
# Indices 1 2 3 4 5 6 
#
# 1 112.2975 41.3282 39.3181 0.0000 0.0000 0.0000
# 2 41.3282 94.0752 33.2554 0.0000 0.0000 0.0000
# 3 39.3181 33.2554 93.5250 0.0000 0.0000 0.0000
# 4 0.0000 0.0000 0.0000 29.9523 0.0000 0.0000
# 5 0.0000 0.0000 0.0000 0.0000 29.1453 0.0000
# 6 0.0000 0.0000 0.0000 0.0000 0.0000 23.4325
#
#
#
# Elastic Compliance Matrix: (Units=1/GPa)
#
#
# Indices 1 2 3 4 5 6 
#
# 1 0.011537 -0.003836 -0.003486 0.000000 0.000000 0.000000
# 2 -0.003836 0.013433 -0.003164 0.000000 0.000000 0.000000
# 3 -0.003486 -0.003164 0.013283 0.000000 0.000000 0.000000
# 4 0.000000 0.000000 0.000000 0.033386 0.000000 0.000000
# 5 0.000000 0.000000 0.000000 0.000000 0.034311 0.000000
# 6 0.000000 0.000000 0.000000 0.000000 0.000000 0.042676
#
#
# Mechanical properties :
#
#
# Convention : Reuss Voigt Hill
#
# Bulk Modulus (GPa) = 57.86647 58.63348 58.24997
# Shear Modulus (GPa) = 28.51281 28.90576 28.70928
#
# Velocity S-wave (km/s) = 3.66531 3.69048 3.67792
# Velocity P-wave (km/s) = 6.72145 6.76654 6.74403
#
# Compressibility (1/GPa) = 0.01728116
#
# Stress axis : x y z
#
# Youngs Moduli (GPa) = 86.67531 74.44096 75.28419
#
# Poissons Ratio (x) = 0.28556 0.26246
# Poissons Ratio (y) = 0.33249 0.23820
# Poissons Ratio (z) = 0.30218 0.23553
#
# Static dielectric constant tensor:
#      x y z
#    x 4.034100 0.000000 0.000000 
#    y 0.000000 4.175980 0.000000 
#    z 0.000000 0.000000 3.551060 
# 
# 
# High freq. dielectric constant tensor:
#      x y z
#    x 1.837920 0.000000 0.000000 
#    y 0.000000 1.842160 0.000000 
#    z 0.000000 0.000000 1.803930 
# 
# From -- ./inp_files/25175.got.cif
#   From: 2010.03.12/outbox.cif.g09.slc.cpg/sg44_13_cif.got.tgz:25175.got - 2010.04.14 02:36:11.
