data_PCOD8189729
_publ_section_title
;
Structure prediction by ZEFSAII (Michael W. Deem and Ramdas Pophale) SiO2 
 PCOD8189729
Probable space group: I M M 2
;
_chemical_formula_sum "Si O2"
_cell_formula_units_Z 48
_cell_length_a 9.968863
_cell_length_b 8.994511
_cell_length_c 28.011469
_cell_angle_alpha 90.000000
_cell_angle_beta 90.000000
_cell_angle_gamma 90.000000
_cell_volume 2511.649710
_symmetry_space_group_name_H-M "I M M 2"
_symmetry_group_IT_number 44
_symmetry_cell_setting 'orthorhombic'
loop_
_space_group_symop_operation_xyz
x,y,z
-x,-y,z
-x,y,z
x,-y,z
1/2+x,1/2+y,1/2+z
1/2-x,1/2-y,1/2+z
1/2-x,1/2+y,1/2+z
1/2+x,1/2-y,1/2+z
loop_
_atom_site_type_symbol
_atom_site_label
_atom_site_fract_x
_atom_site_fract_y
_atom_site_fract_z
Si Si1 0.766518 0.674136 0.506940
Si Si2 0.751642 0.176210 0.727567
Si Si3 0.500000 0.823951 0.666453
Si Si4 0.500000 0.671827 0.563374
Si Si5 0.500000 0.323823 0.062722
Si Si6 0.157048 0.827034 0.411444
Si Si7 0.000000 0.176556 0.668424
Si Si8 0.155422 0.673514 0.821653
O O1 0.798599 0.500000 0.509246
O O2 0.624246 0.713883 0.529855
O O3 0.778259 0.727644 0.452739
O O4 0.869689 0.766843 0.537258
O O5 0.623849 0.232030 0.698102
O O6 0.873026 0.237478 0.696285
O O7 0.764601 0.246136 0.779512
O O8 0.751484 0.000000 0.733852
O O9 0.500000 0.759258 0.613188
O O10 0.500000 0.000000 0.659988
O O11 0.500000 0.500000 0.577454
O O12 0.500000 0.500000 0.062088
O O13 0.500000 0.256747 0.115691
O O14 0.252949 0.789854 0.367134
O O15 0.000000 0.784892 0.401741
O O16 0.166416 0.000000 0.425490
O O17 0.000000 0.000000 0.666127
O O18 0.153336 0.500000 0.810779
O O19 0.000000 0.730340 0.827735
#
# Coordination Sequence:
#
# PCOD8189729 Si02
#       8
#     8   8   4   4   4   8   4   8
#     4  11  23  40  60  87 122 156 196 247 297 353
#     4  10  20  37  58  84 117 152 192 240 290 343
#     4  10  22  38  59  88 119 154 201 248 287 342
#     4  10  24  42  59  86 125 163 199 243 299 354
#     4  11  21  37  62  89 116 155 199 241 296 353
#     4  10  22  40  61  86 116 152 195 241 294 357
#     4   9  18  33  56  81 110 148 189 232 282 343
#     4  10  22  39  59  87 118 150 193 242 292 349
#
# _framework density 19.110944
#
# number of rings (size 3 to 8) (size 9 to 14) (size 15 to 20)
#    0.000    1.833    1.667    1.750    2.333    4.000 
#    0.000    1.667    0.000    0.000    0.000    0.000 
#    0.000    0.000    0.000    0.000    0.000    0.000 
#
# Total GULP energy -297548.594747 kJ/mol
# GULP energy per Si atom -12397.858114 kJ/mol
# Density = 1.906745 g / cm^3
# Si number density = 19.110944 Si / 1000 Ang^3
#
#
#
# Elastic Constant Matrix: (Units=GPa)
#
#
# Indices 1 2 3 4 5 6 
#
# 1 166.3308 42.8720 79.2571 0.0000 0.0000 0.0000
# 2 42.8720 53.7232 51.8749 0.0000 0.0000 0.0000
# 3 79.2571 51.8749 154.3999 0.0000 0.0000 0.0000
# 4 0.0000 0.0000 0.0000 36.6039 0.0000 0.0000
# 5 0.0000 0.0000 0.0000 0.0000 42.2626 0.0000
# 6 0.0000 0.0000 0.0000 0.0000 0.0000 45.9711
#
#
#
# Elastic Compliance Matrix: (Units=1/GPa)
#
#
# Indices 1 2 3 4 5 6 
#
# 1 0.008448 -0.003781 -0.003066 0.000000 0.000000 0.000000
# 2 -0.003781 0.029244 -0.007885 0.000000 0.000000 0.000000
# 3 -0.003066 -0.007885 0.010700 0.000000 0.000000 0.000000
# 4 0.000000 0.000000 0.000000 0.027319 0.000000 0.000000
# 5 0.000000 0.000000 0.000000 0.000000 0.023662 0.000000
# 6 0.000000 0.000000 0.000000 0.000000 0.000000 0.021753
#
#
# Mechanical properties :
#
#
# Convention : Reuss Voigt Hill
#
# Bulk Modulus (GPa) = 52.83005 80.27353 66.55179
# Shear Modulus (GPa) = 31.86778 38.33088 35.09933
#
# Velocity S-wave (km/s) = 4.08795 4.48337 4.29022
# Velocity P-wave (km/s) = 7.07006 8.30036 7.70979
#
# Compressibility (1/GPa) = 0.01892862
#
# Stress axis : x y z
#
# Youngs Moduli (GPa) = 118.37671 34.19451 93.46058
#
# Poissons Ratio (x) = 0.12928 0.28656
# Poissons Ratio (y) = 0.44755 0.73691
# Poissons Ratio (z) = 0.36296 0.26962
#
# Static dielectric constant tensor:
#      x y z
#    x 3.759130 0.000000 0.000000 
#    y 0.000000 3.359250 0.000000 
#    z 0.000000 0.000000 3.675490 
# 
# 
# High freq. dielectric constant tensor:
#      x y z
#    x 1.761470 0.000000 0.000000 
#    y 0.000000 1.729230 0.000000 
#    z 0.000000 0.000000 1.758210 
# 
# From -- ./inp_files/27069.got.cif
#   From: 2010.03.12/outbox.cif.g09.slc.cpg/sg44_14_cif.got.tgz:27069.got - 2010.04.14 02:36:11.
