data_PCOD8189023
_publ_section_title
;
Structure prediction by ZEFSAII (Michael W. Deem and Ramdas Pophale) SiO2 
 PCOD8189023
Probable space group: I M M 2
;
_chemical_formula_sum "Si O2"
_cell_formula_units_Z 48
_cell_length_a 18.226614
_cell_length_b 8.628811
_cell_length_c 14.975522
_cell_angle_alpha 90.000000
_cell_angle_beta 90.000000
_cell_angle_gamma 90.000000
_cell_volume 2355.260357
_symmetry_space_group_name_H-M "I M M 2"
_symmetry_group_IT_number 44
_symmetry_cell_setting 'orthorhombic'
loop_
_space_group_symop_operation_xyz
x,y,z
-x,-y,z
-x,y,z
x,-y,z
1/2+x,1/2+y,1/2+z
1/2-x,1/2-y,1/2+z
1/2-x,1/2+y,1/2+z
1/2+x,1/2-y,1/2+z
loop_
_atom_site_type_symbol
_atom_site_label
_atom_site_fract_x
_atom_site_fract_y
_atom_site_fract_z
Si Si1 0.078765 0.816183 0.854910
Si Si2 0.733148 0.824488 0.097144
Si Si3 0.000000 0.685086 0.380087
Si Si4 0.233558 0.815515 0.788813
Si Si5 0.395328 0.673391 0.549092
Si Si6 0.500000 0.820084 0.681274
Si Si7 0.653846 0.316582 0.935305
O O1 0.150724 0.750221 0.805887
O O2 0.000000 0.767219 0.809868
O O3 0.086358 0.000000 0.856657
O O4 0.076403 0.754587 0.956375
O O5 0.751467 0.741000 0.189931
O O6 0.808265 0.825985 0.042604
O O7 0.704697 0.000000 0.112970
O O8 0.676870 0.729845 0.035839
O O9 0.072442 0.749911 0.426870
O O10 0.000000 0.500000 0.385683
O O11 0.000000 0.752884 0.279605
O O12 0.291715 0.750319 0.859835
O O13 0.238038 0.000000 0.794214
O O14 0.425503 0.500000 0.562696
O O15 0.426054 0.773300 0.630413
O O16 0.500000 0.000000 0.694709
O O17 0.653309 0.500000 0.925801
#
# Coordination Sequence:
#
# PCOD8189023 Si02
#       7
#     8   8   4   8   8   4   8
#     4   9  17  34  60  87 116 157 202 249 304 365
#     4  11  23  41  64  92 124 166 216 264 319 381
#     4  11  25  45  65  88 125 168 211 265 326 381
#     4  11  22  40  65  94 127 167 215 266 319 381
#     4  10  19  35  60  85 116 160 204 246 303 376
#     4  11  23  35  55  92 127 156 195 257 324 375
#     4  12  25  43  67  95 128 168 215 267 325 391
#
# _framework density 20.379912000000001
#
# number of rings (size 3 to 8) (size 9 to 14) (size 15 to 20)
#    0.000    1.333    2.500    4.000    0.000    5.333 
#    1.500    0.000    0.000    0.000    0.000    0.000 
#    0.000    0.000    0.000    0.000    0.000    0.000 
#
# Total GULP energy -297514.547630 kJ/mol
# GULP energy per Si atom -12396.439485 kJ/mol
# Density = 2.033353 g / cm^3
# Si number density = 20.379912 Si / 1000 Ang^3
#
#
#
# Elastic Constant Matrix: (Units=GPa)
#
#
# Indices 1 2 3 4 5 6 
#
# 1 140.5487 36.7650 28.2716 0.0000 0.0000 0.0000
# 2 36.7650 98.2010 28.2261 0.0000 0.0000 0.0000
# 3 28.2716 28.2261 77.4476 0.0000 0.0000 0.0000
# 4 0.0000 0.0000 0.0000 30.3606 0.0000 0.0000
# 5 0.0000 0.0000 0.0000 0.0000 -40.5797 0.0000
# 6 0.0000 0.0000 0.0000 0.0000 0.0000 28.3575
#
#
#
# Elastic Compliance Matrix: (Units=1/GPa)
#
#
# Indices 1 2 3 4 5 6 
#
# 1 0.008179 -0.002462 -0.002088 0.000000 0.000000 0.000000
# 2 -0.002462 0.012116 -0.003517 0.000000 0.000000 0.000000
# 3 -0.002088 -0.003517 0.014956 0.000000 0.000000 0.000000
# 4 0.000000 0.000000 0.000000 0.032937 0.000000 0.000000
# 5 0.000000 0.000000 0.000000 0.000000 -0.024643 0.000000
# 6 0.000000 0.000000 0.000000 0.000000 0.000000 0.035264
#
#
# Mechanical properties :
#
#
# Convention : Reuss Voigt Hill
#
# Bulk Modulus (GPa) = 52.31114 55.85808 54.08461
# Shear Modulus (GPa) = 49.35049 18.48999 33.92024
#
# Velocity S-wave (km/s) = 4.92624 3.01535 4.08413
# Velocity P-wave (km/s) = 7.62108 6.29214 6.98827
#
# Compressibility (1/GPa) = 0.01911639
#
# Stress axis : x y z
#
# Youngs Moduli (GPa) = 122.26373 82.53719 66.86230
#
# Poissons Ratio (x) = 0.20319 0.13964
# Poissons Ratio (y) = 0.30099 0.23515
# Poissons Ratio (z) = 0.25534 0.29028
#
# Static dielectric constant tensor:
#      x y z
#    x 4.297950 0.000000 0.000000 
#    y 0.000000 3.567350 0.000000 
#    z 0.000000 0.000000 3.655030 
# 
# 
# High freq. dielectric constant tensor:
#      x y z
#    x 1.813340 0.000000 0.000000 
#    y 0.000000 1.782390 0.000000 
#    z 0.000000 0.000000 1.792010 
# 
# From -- ./inp_files/18831.got.cif
#   From: 2010.03.12/outbox.cif.g09.slc.cpg/sg44_10_cif.got.tgz:18831.got - 2010.04.14 02:36:11.
