data_PCOD8189288
_publ_section_title
;
Structure prediction by ZEFSAII (Michael W. Deem and Ramdas Pophale) SiO2 
 PCOD8189288
Probable space group: I M M 2
;
_chemical_formula_sum "Si O2"
_cell_formula_units_Z 64
_cell_length_a 8.890896
_cell_length_b 19.446881
_cell_length_c 20.617953
_cell_angle_alpha 90.000000
_cell_angle_beta 90.000000
_cell_angle_gamma 90.000000
_cell_volume 3564.848125
_symmetry_space_group_name_H-M "I M M 2"
_symmetry_group_IT_number 44
_symmetry_cell_setting 'orthorhombic'
loop_
_space_group_symop_operation_xyz
x,y,z
-x,-y,z
-x,y,z
x,-y,z
1/2+x,1/2+y,1/2+z
1/2-x,1/2-y,1/2+z
1/2-x,1/2+y,1/2+z
1/2+x,1/2-y,1/2+z
loop_
_atom_site_type_symbol
_atom_site_label
_atom_site_fract_x
_atom_site_fract_y
_atom_site_fract_z
Si Si1 0.674317 0.577802 0.974410
Si Si2 0.327563 0.215113 0.283164
Si Si3 0.328028 0.076240 0.219575
Si Si4 0.671039 0.075950 0.608293
Si Si5 0.174927 0.707326 0.929326
Si Si6 0.324078 0.422371 0.584918
Si Si7 0.677637 0.790624 0.044098
Si Si8 0.673563 0.782958 0.665622
O O1 0.500000 0.596181 0.966074
O O2 0.709348 0.500000 0.952433
O O3 0.773592 0.628016 0.930487
O O4 0.716196 0.588845 0.049344
O O5 0.500000 0.231077 0.265980
O O6 0.294100 0.133658 0.273680
O O7 0.292087 0.235384 0.357204
O O8 0.224881 0.260938 0.236861
O O9 0.500000 0.081417 0.194809
O O10 0.220042 0.091120 0.159258
O O11 0.296028 0.000000 0.248680
O O12 0.500000 0.081557 0.581846
O O13 0.700887 0.134773 0.661547
O O14 0.698979 0.000000 0.639015
O O15 0.268095 0.750782 0.980764
O O16 0.000000 0.712097 0.946946
O O17 0.500000 0.409367 0.577267
O O18 0.280045 0.500000 0.564126
O O19 0.236673 0.368918 0.539069
O O20 0.500000 0.790177 0.045446
O O21 0.735527 0.755978 0.109916
O O22 0.500000 0.763819 0.655969
#
# Coordination Sequence:
#
# PCOD8189288 Si02
#       8
#     8   8   8   8   8   8   8   8
#     4  10  20  33  51  78 111 147 185 225 272 328
#     4  10  22  37  54  78 110 148 187 229 275 328
#     4   9  17  31  51  76 108 146 184 220 263 319
#     4   9  18  33  54  80 109 142 180 224 272 324
#     4  11  23  38  55  78 110 149 192 233 277 326
#     4  10  20  34  55  84 113 141 178 226 277 327
#     4  12  23  36  57  82 111 146 185 230 278 327
#     4  11  21  34  57  84 110 142 183 230 277 329
#
# _framework density 17.953078000000001
#
# number of rings (size 3 to 8) (size 9 to 14) (size 15 to 20)
#    0.000    1.750    2.500    2.625    0.000    3.500 
#    0.000    1.250    0.000    2.250    0.000    3.500 
#    0.000    0.000    0.000    0.000    0.000    0.000 
#
# Total GULP energy -396802.216126 kJ/mol
# GULP energy per Si atom -12400.069254 kJ/mol
# Density = 1.791222 g / cm^3
# Si number density = 17.953078 Si / 1000 Ang^3
#
#
#
# Elastic Constant Matrix: (Units=GPa)
#
#
# Indices 1 2 3 4 5 6 
#
# 1 103.7503 52.7634 44.3995 0.0000 0.0000 0.0000
# 2 52.7634 109.6080 47.0528 0.0000 0.0000 0.0000
# 3 44.3995 47.0528 79.1339 0.0000 0.0000 0.0000
# 4 0.0000 0.0000 0.0000 23.7848 0.0000 0.0000
# 5 0.0000 0.0000 0.0000 0.0000 26.6364 0.0000
# 6 0.0000 0.0000 0.0000 0.0000 0.0000 28.8724
#
#
#
# Elastic Compliance Matrix: (Units=1/GPa)
#
#
# Indices 1 2 3 4 5 6 
#
# 1 0.014220 -0.004592 -0.005248 0.000000 0.000000 0.000000
# 2 -0.004592 0.013734 -0.005589 0.000000 0.000000 0.000000
# 3 -0.005248 -0.005589 0.018904 0.000000 0.000000 0.000000
# 4 0.000000 0.000000 0.000000 0.042044 0.000000 0.000000
# 5 0.000000 0.000000 0.000000 0.000000 0.037543 0.000000
# 6 0.000000 0.000000 0.000000 0.000000 0.000000 0.034635
#
#
# Mechanical properties :
#
#
# Convention : Reuss Voigt Hill
#
# Bulk Modulus (GPa) = 62.50341 64.54708 63.52525
# Shear Modulus (GPa) = 25.34588 25.74381 25.54484
#
# Velocity S-wave (km/s) = 3.76145 3.79086 3.77618
# Velocity P-wave (km/s) = 7.33179 7.42914 7.38062
#
# Compressibility (1/GPa) = 0.01599913
#
# Stress axis : x y z
#
# Youngs Moduli (GPa) = 70.32475 72.81462 52.89770
#
# Poissons Ratio (x) = 0.33440 0.27759
# Poissons Ratio (y) = 0.32296 0.29566
# Poissons Ratio (z) = 0.36904 0.40698
#
# Static dielectric constant tensor:
#      x y z
#    x 3.396180 0.000000 0.000000 
#    y 0.000000 3.665670 0.000000 
#    z 0.000000 0.000000 2.997190 
# 
# 
# High freq. dielectric constant tensor:
#      x y z
#    x 1.705480 0.000000 0.000000 
#    y 0.000000 1.704680 0.000000 
#    z 0.000000 0.000000 1.657890 
# 
# From -- ./inp_files/20798.got.cif
#   From: 2010.03.12/outbox.cif.g09.slc.cpg/sg44_11_cif.got.tgz:20798.got - 2010.04.14 02:36:11.
