data_PCOD8189487
_publ_section_title
;
Structure prediction by ZEFSAII (Michael W. Deem and Ramdas Pophale) SiO2 
 PCOD8189487
Probable space group: I M M 2
;
_chemical_formula_sum "Si O2"
_cell_formula_units_Z 38
_cell_length_a 12.005586
_cell_length_b 11.437912
_cell_length_c 14.668671
_cell_angle_alpha 90.000000
_cell_angle_beta 90.000000
_cell_angle_gamma 90.000000
_cell_volume 2014.284830
_symmetry_space_group_name_H-M "I M M 2"
_symmetry_group_IT_number 44
_symmetry_cell_setting 'orthorhombic'
loop_
_space_group_symop_operation_xyz
x,y,z
-x,-y,z
-x,y,z
x,-y,z
1/2+x,1/2+y,1/2+z
1/2-x,1/2-y,1/2+z
1/2-x,1/2+y,1/2+z
1/2+x,1/2-y,1/2+z
loop_
_atom_site_type_symbol
_atom_site_label
_atom_site_fract_x
_atom_site_fract_y
_atom_site_fract_z
Si Si1 0.281880 0.639827 0.898210
Si Si2 0.000000 0.363708 0.643141
Si Si3 0.736063 0.862534 0.193940
Si Si4 0.000000 0.726498 0.444454
Si Si5 0.123142 0.500000 0.149067
Si Si6 0.866946 0.275331 0.052290
Si Si7 0.000000 0.500000 0.321305
O O1 0.270895 0.500000 0.911214
O O2 0.282832 0.676623 0.792001
O O3 0.396006 0.687090 0.938938
O O4 0.180986 0.706955 0.950295
O O5 0.112271 0.306376 0.684534
O O6 0.000000 0.344292 0.536514
O O7 0.000000 0.500000 0.665224
O O8 0.816309 0.832668 0.108602
O O9 0.724858 0.000000 0.190256
O O10 0.000000 0.622386 0.372080
O O11 0.181119 0.616337 0.112182
O O12 0.000000 0.500000 0.103331
O O13 0.112119 0.500000 0.258828
O O14 0.000000 0.261089 0.047535
#
# Coordination Sequence:
#
# PCOD8189487 Si02
#       7
#     8   4   8   4   4   8   2
#     4  11  24  39  60  87 121 158 197 249 302 355
#     4  10  20  39  58  84 117 152 195 241 299 353
#     4  10  23  40  60  87 118 157 196 248 301 359
#     4  12  21  38  61  89 121 152 203 246 301 361
#     4   8  18  34  54  84 111 144 191 240 285 333
#     4  11  21  38  61  87 117 153 199 244 295 358
#     4  10  20  34  62  88 114 152 194 262 284 348
#
# _framework density 18.865255999999999
#
# number of rings (size 3 to 8) (size 9 to 14) (size 15 to 20)
#    0.316    1.263    3.684    1.579    2.947    0.421 
#    0.000    0.000    0.000    0.000    0.000    0.000 
#    0.000    0.000    0.000    0.000    0.000    0.000 
#
# Total GULP energy -235433.391042 kJ/mol
# GULP energy per Si atom -12391.231107 kJ/mol
# Density = 1.882232 g / cm^3
# Si number density = 18.865256 Si / 1000 Ang^3
#
#
#
# Elastic Constant Matrix: (Units=GPa)
#
#
# Indices 1 2 3 4 5 6 
#
# 1 123.4488 21.5395 21.6087 0.0000 0.0000 0.0000
# 2 21.5395 35.2219 23.1400 0.0000 0.0000 0.0000
# 3 21.6087 23.1400 71.8260 0.0000 0.0000 0.0000
# 4 0.0000 0.0000 0.0000 28.6842 0.0000 0.0000
# 5 0.0000 0.0000 0.0000 0.0000 41.2192 0.0000
# 6 0.0000 0.0000 0.0000 0.0000 0.0000 23.1814
#
#
#
# Elastic Compliance Matrix: (Units=1/GPa)
#
#
# Indices 1 2 3 4 5 6 
#
# 1 0.009150 -0.004804 -0.001205 0.000000 0.000000 0.000000
# 2 -0.004804 0.038536 -0.010970 0.000000 0.000000 0.000000
# 3 -0.001205 -0.010970 0.017819 0.000000 0.000000 0.000000
# 4 0.000000 0.000000 0.000000 0.034862 0.000000 0.000000
# 5 0.000000 0.000000 0.000000 0.000000 0.024261 0.000000
# 6 0.000000 0.000000 0.000000 0.000000 0.000000 0.043138
#
#
# Mechanical properties :
#
#
# Convention : Reuss Voigt Hill
#
# Bulk Modulus (GPa) = 31.69809 40.34146 36.01977
# Shear Modulus (GPa) = 23.55838 29.56419 26.56129
#
# Velocity S-wave (km/s) = 3.53763 3.96299 3.75633
# Velocity P-wave (km/s) = 5.79010 6.50928 6.16020
#
# Compressibility (1/GPa) = 0.03154765
#
# Stress axis : x y z
#
# Youngs Moduli (GPa) = 109.29434 25.94981 56.11925
#
# Poissons Ratio (x) = 0.12465 0.06763
# Poissons Ratio (y) = 0.52501 0.61562
# Poissons Ratio (z) = 0.13171 0.28467
#
# Static dielectric constant tensor:
#      x y z
#    x 3.498910 0.000000 0.000000 
#    y 0.000000 3.358620 0.000000 
#    z 0.000000 0.000000 3.539580 
# 
# 
# High freq. dielectric constant tensor:
#      x y z
#    x 1.729020 0.000000 0.000000 
#    y 0.000000 1.722020 0.000000 
#    z 0.000000 0.000000 1.738410 
# 
# From -- ./inp_files/17527.got.cif
#   From: 2010.03.12/outbox.cif.g09.slc.cpg/sg44_9_cif.got.tgz:17527.got - 2010.04.14 02:36:11.
