data_PCOD8189211
_publ_section_title
;
Structure prediction by ZEFSAII (Michael W. Deem and Ramdas Pophale) SiO2 
 PCOD8189211
Probable space group: I M M 2
;
_chemical_formula_sum "Si O2"
_cell_formula_units_Z 64
_cell_length_a 8.998143
_cell_length_b 29.868755
_cell_length_c 14.724585
_cell_angle_alpha 90.000000
_cell_angle_beta 90.000000
_cell_angle_gamma 90.000000
_cell_volume 3957.428479
_symmetry_space_group_name_H-M "I M M 2"
_symmetry_group_IT_number 44
_symmetry_cell_setting 'orthorhombic'
loop_
_space_group_symop_operation_xyz
x,y,z
-x,-y,z
-x,y,z
x,-y,z
1/2+x,1/2+y,1/2+z
1/2-x,1/2-y,1/2+z
1/2-x,1/2+y,1/2+z
1/2+x,1/2-y,1/2+z
loop_
_atom_site_type_symbol
_atom_site_label
_atom_site_fract_x
_atom_site_fract_y
_atom_site_fract_z
Si Si1 0.166414 0.673760 0.506710
Si Si2 0.173979 0.866817 0.174291
Si Si3 0.673082 0.050009 0.113139
Si Si4 0.326466 0.705854 0.195815
Si Si5 0.672757 0.949088 0.903733
Si Si6 0.322761 0.287185 0.802249
Si Si7 0.672017 0.365995 0.340120
Si Si8 0.664873 0.721385 0.001285
O O1 0.277589 0.654664 0.580313
O O2 0.228715 0.662550 0.408357
O O3 0.159973 0.726194 0.517675
O O4 0.000000 0.653240 0.518139
O O5 0.248535 0.915779 0.182742
O O6 0.223589 0.833975 0.255558
O O7 0.000000 0.873974 0.174104
O O8 0.500000 0.050407 0.134007
O O9 0.736460 0.000000 0.129523
O O10 0.703100 0.064501 0.008589
O O11 0.500000 0.719300 0.191100
O O12 0.244920 0.745123 0.249960
O O13 0.304889 0.657548 0.242703
O O14 0.259929 0.701082 0.092863
O O15 0.500000 0.943494 0.880362
O O16 0.769181 0.917089 0.838307
O O17 0.723615 0.000000 0.886328
O O18 0.500000 0.280111 0.802964
O O19 0.255414 0.289555 0.905111
O O20 0.500000 0.365282 0.369331
O O21 0.500000 0.701107 0.993466
#
# Coordination Sequence:
#
# PCOD8189211 Si02
#       8
#     8   8   8   8   8   8   8   8
#     4  11  19  29  48  66  91 132 168 190 221 281
#     4  11  21  30  45  72 100 123 154 200 242 271
#     4   9  18  32  49  68  92 125 161 190 225 285
#     4  10  20  33  48  68  94 125 162 196 230 274
#     4   9  18  32  49  68  92 125 161 190 225 285
#     4  10  20  33  48  68  94 125 162 196 230 274
#     4  11  21  30  45  72 100 123 154 200 242 271
#     4   9  18  33  49  64  89 130 167 192 225 271
#
# _framework density 16.172118000000001
#
# number of rings (size 3 to 8) (size 9 to 14) (size 15 to 20)
#    0.000    2.000    3.750    1.875    0.000    1.500 
#    0.000    1.875    0.000    0.000    0.000    0.875 
#    0.000    7.000    0.000    0.000    0.000    0.000 
#
# Total GULP energy -396633.241254 kJ/mol
# GULP energy per Si atom -12394.788789 kJ/mol
# Density = 1.613531 g / cm^3
# Si number density = 16.172118 Si / 1000 Ang^3
#
#
#
# Elastic Constant Matrix: (Units=GPa)
#
#
# Indices 1 2 3 4 5 6 
#
# 1 34.0466 35.0025 14.6451 0.0000 0.0000 0.0000
# 2 35.0025 103.0903 49.1662 0.0002 0.0001 0.0000
# 3 14.6451 49.1662 97.2658 0.0010 -0.0001 -0.0001
# 4 0.0000 0.0002 0.0010 17.2406 -0.0001 0.0000
# 5 0.0000 0.0001 -0.0001 -0.0001 15.0217 0.0000
# 6 0.0000 0.0000 -0.0001 0.0000 0.0000 27.3344
#
#
#
# Elastic Compliance Matrix: (Units=1/GPa)
#
#
# Indices 1 2 3 4 5 6 
#
# 1 0.045238 -0.015958 0.001255 0.000000 0.000000 0.000000
# 2 -0.015958 0.018411 -0.006904 0.000000 0.000000 0.000000
# 3 0.001255 -0.006904 0.013582 -0.000001 0.000000 0.000000
# 4 0.000000 0.000000 -0.000001 0.058003 0.000000 0.000000
# 5 0.000000 0.000000 0.000000 0.000000 0.066570 0.000000
# 6 0.000000 0.000000 0.000000 0.000000 0.000000 0.036584
#
#
# Mechanical properties :
#
#
# Convention : Reuss Voigt Hill
#
# Bulk Modulus (GPa) = 29.39676 48.00334 38.70005
# Shear Modulus (GPa) = 17.06830 20.95860 19.01345
#
# Velocity S-wave (km/s) = 3.25224 3.60387 3.43256
# Velocity P-wave (km/s) = 5.68504 6.86035 6.30016
#
# Compressibility (1/GPa) = 0.03401736
#
# Stress axis : x y z
#
# Youngs Moduli (GPa) = 22.10530 54.31484 73.62795
#
# Poissons Ratio (x) = 0.86678 -0.09243
# Poissons Ratio (y) = 0.35277 0.50831
# Poissons Ratio (z) = -0.02775 0.37497
#
# Static dielectric constant tensor:
#      x y z
#    x 3.024940 0.000000 0.000000 
#    y 0.000000 3.160450 0.000000 
#    z 0.000000 0.000000 3.125790 
# 
# 
# High freq. dielectric constant tensor:
#      x y z
#    x 1.614250 0.000000 0.000000 
#    y 0.000000 1.618450 0.000000 
#    z 0.000000 0.000000 1.598840 
# 
# From -- ./inp_files/17074.got.cif
#   From: 2010.03.12/outbox.cif.g09.slc.cpg/sg44_9_cif.got.tgz:17074.got - 2010.04.14 02:36:11.
