data_PCOD8189474
_publ_section_title
;
Structure prediction by ZEFSAII (Michael W. Deem and Ramdas Pophale) SiO2 
 PCOD8189474
Probable space group: I M M 2
;
_chemical_formula_sum "Si O2"
_cell_formula_units_Z 64
_cell_length_a 28.916353
_cell_length_b 9.098666
_cell_length_c 12.759779
_cell_angle_alpha 90.000000
_cell_angle_beta 90.000000
_cell_angle_gamma 90.000000
_cell_volume 3357.100890
_symmetry_space_group_name_H-M "I M M 2"
_symmetry_group_IT_number 44
_symmetry_cell_setting 'orthorhombic'
loop_
_space_group_symop_operation_xyz
x,y,z
-x,-y,z
-x,y,z
x,-y,z
1/2+x,1/2+y,1/2+z
1/2-x,1/2-y,1/2+z
1/2-x,1/2+y,1/2+z
1/2+x,1/2-y,1/2+z
loop_
_atom_site_type_symbol
_atom_site_label
_atom_site_fract_x
_atom_site_fract_y
_atom_site_fract_z
Si Si1 0.619193 0.325764 0.780870
Si Si2 0.246354 0.332062 0.032462
Si Si3 0.294959 0.339756 0.232539
Si Si4 0.948468 0.674857 0.673407
Si Si5 0.707346 0.163484 0.855681
Si Si6 0.054674 0.332711 0.438457
Si Si7 0.858217 0.327661 0.071611
Si Si8 0.125842 0.673307 0.837786
O O1 0.618444 0.500000 0.772430
O O2 0.665516 0.274539 0.839271
O O3 0.576485 0.272689 0.851362
O O4 0.615535 0.258903 0.663958
O O5 0.244147 0.500000 0.991121
O O6 0.290738 0.310051 0.108823
O O7 0.195991 0.288805 0.077263
O O8 0.256825 0.218134 0.941963
O O9 0.317013 0.500000 0.256857
O O10 0.240016 0.341815 0.254985
O O11 0.324262 0.218770 0.293072
O O12 0.949815 0.500000 0.679218
O O13 0.931471 0.720293 0.556534
O O14 0.914331 0.740179 0.762942
O O15 0.000000 0.737267 0.695192
O O16 0.688018 0.000000 0.881467
O O17 0.071609 0.500000 0.420266
O O18 0.000000 0.322903 0.426296
O O19 0.866711 0.500000 0.090461
O O20 0.879348 0.276663 0.958840
O O21 0.124482 0.500000 0.832419
#
# Coordination Sequence:
#
# PCOD8189474 Si02
#       8
#     8   8   8   8   8   8   8   8
#     4  12  25  38  57  84 115 152 195 240 286 340
#     4  10  20  36  52  74 112 151 188 237 284 330
#     4  10  21  35  51  74 110 150 187 231 280 332
#     4   8  16  34  60  89 115 139 176 227 280 336
#     4  11  22  37  55  78 110 151 194 235 281 339
#     4   9  19  39  65  88 114 147 183 231 291 349
#     4  10  20  37  56  78 115 154 192 236 280 335
#     4  10  20  34  57  85 111 145 188 235 282 335
#
# _framework density 19.064067000000001
#
# number of rings (size 3 to 8) (size 9 to 14) (size 15 to 20)
#    0.000    2.000    2.500    2.250    1.750    2.250 
#    0.000    0.625    0.000    3.375    0.000    0.000 
#    0.000    0.000    0.000    0.000    0.000    0.000 
#
# Total GULP energy -396611.006590 kJ/mol
# GULP energy per Si atom -12394.093956 kJ/mol
# Density = 1.902068 g / cm^3
# Si number density = 19.064067 Si / 1000 Ang^3
#
#
#
# Elastic Constant Matrix: (Units=GPa)
#
#
# Indices 1 2 3 4 5 6 
#
# 1 73.4611 31.3876 56.9577 0.0000 0.0000 0.0000
# 2 31.3876 70.8432 51.7427 0.0000 0.0000 0.0000
# 3 56.9577 51.7427 136.0301 0.0000 0.0000 0.0000
# 4 0.0000 0.0000 0.0000 23.9810 0.0000 0.0000
# 5 0.0000 0.0000 0.0000 0.0000 34.3594 0.0000
# 6 0.0000 0.0000 0.0000 0.0000 0.0000 22.9754
#
#
#
# Elastic Compliance Matrix: (Units=1/GPa)
#
#
# Indices 1 2 3 4 5 6 
#
# 1 0.020936 -0.003978 -0.007253 0.000000 0.000000 0.000000
# 2 -0.003978 0.020302 -0.006057 0.000000 0.000000 0.000000
# 3 -0.007253 -0.006057 0.012692 0.000000 0.000000 0.000000
# 4 0.000000 0.000000 0.000000 0.041700 0.000000 0.000000
# 5 0.000000 0.000000 0.000000 0.000000 0.029104 0.000000
# 6 0.000000 0.000000 0.000000 0.000000 0.000000 0.043525
#
#
# Mechanical properties :
#
#
# Convention : Reuss Voigt Hill
#
# Bulk Modulus (GPa) = 51.66853 62.27893 56.97373
# Shear Modulus (GPa) = 23.89078 25.61292 24.75185
#
# Velocity S-wave (km/s) = 3.54387 3.66938 3.60717
# Velocity P-wave (km/s) = 6.62622 7.11980 6.87744
#
# Compressibility (1/GPa) = 0.01935414
#
# Stress axis : x y z
#
# Youngs Moduli (GPa) = 47.76460 49.25628 78.78992
#
# Poissons Ratio (x) = 0.19596 0.57145
# Poissons Ratio (y) = 0.19003 0.47720
# Poissons Ratio (z) = 0.34643 0.29832
#
# Static dielectric constant tensor:
#      x y z
#    x 3.413060 0.000000 0.000000 
#    y 0.000000 3.234390 0.000000 
#    z 0.000000 0.000000 3.743920 
# 
# 
# High freq. dielectric constant tensor:
#      x y z
#    x 1.723970 0.000000 0.000000 
#    y 0.000000 1.718500 0.000000 
#    z 0.000000 0.000000 1.754640 
# 
# From -- ./inp_files/15033.got.cif
#   From: 2010.03.12/outbox.cif.g09.slc.cpg/sg44_8_cif.got.tgz:15033.got - 2010.04.14 02:36:11.
