data_PCOD8189257
_publ_section_title
;
Structure prediction by ZEFSAII (Michael W. Deem and Ramdas Pophale) SiO2 
 PCOD8189257
Probable space group: I M M 2
;
_chemical_formula_sum "Si O2"
_cell_formula_units_Z 64
_cell_length_a 27.212143
_cell_length_b 8.729246
_cell_length_c 14.670792
_cell_angle_alpha 90.000000
_cell_angle_beta 90.000000
_cell_angle_gamma 90.000000
_cell_volume 3484.921798
_symmetry_space_group_name_H-M "I M M 2"
_symmetry_group_IT_number 44
_symmetry_cell_setting 'orthorhombic'
loop_
_space_group_symop_operation_xyz
x,y,z
-x,-y,z
-x,y,z
x,-y,z
1/2+x,1/2+y,1/2+z
1/2-x,1/2-y,1/2+z
1/2-x,1/2+y,1/2+z
1/2+x,1/2-y,1/2+z
loop_
_atom_site_type_symbol
_atom_site_label
_atom_site_fract_x
_atom_site_fract_y
_atom_site_fract_z
Si Si1 0.357489 0.818782 0.216310
Si Si2 0.053963 0.318215 0.593053
Si Si3 0.216880 0.678969 0.398286
Si Si4 0.669104 0.320859 0.397395
Si Si5 0.442982 0.823509 0.887669
Si Si6 0.167419 0.322013 0.086015
Si Si7 0.138379 0.820749 0.268141
Si Si8 0.718657 0.321806 0.086645
O O1 0.405713 0.756452 0.163811
O O2 0.361890 0.769709 0.321375
O O3 0.309808 0.737036 0.174949
O O4 0.352052 0.000000 0.207088
O O5 0.051974 0.500000 0.594512
O O6 0.067307 0.265732 0.490584
O O7 0.000000 0.253643 0.620472
O O8 0.206800 0.500000 0.386613
O O9 0.273711 0.722010 0.385476
O O10 0.186315 0.767610 0.322712
O O11 0.199330 0.729938 0.498576
O O12 0.659889 0.500000 0.386240
O O13 0.650009 0.266873 0.495687
O O14 0.500000 0.803494 0.862604
O O15 0.426623 0.000000 0.876731
O O16 0.411407 0.719138 0.820820
O O17 0.157112 0.500000 0.070938
O O18 0.135939 0.261733 0.170559
O O19 0.224464 0.288364 0.105770
O O20 0.141844 0.000000 0.251756
O O21 0.708590 0.500000 0.070246
#
# Coordination Sequence:
#
# PCOD8189257 Si02
#       8
#     8   8   8   8   8   8   8   8
#     4  11  20  30  51  78 103 136 173 208 250 306
#     4   8  16  32  53  77 103 131 166 206 246 293
#     4  10  20  34  51  72 102 140 177 211 251 305
#     4  10  21  36  52  72 102 137 173 217 262 301
#     4   9  18  35  58  80 104 136 172 210 255 309
#     4  10  21  37  54  72  99 136 177 216 255 305
#     4  12  23  33  51  78 107 138 172 213 259 306
#     4  10  20  33  50  75 106 136 168 213 262 305
#
# _framework density 18.364830999999999
#
# number of rings (size 3 to 8) (size 9 to 14) (size 15 to 20)
#    0.000    2.000    0.000    5.250    0.000    7.250 
#    0.000    0.625    0.000    3.750    0.000    1.750 
#    0.000    0.000    0.000    0.000    0.000    0.000 
#
# Total GULP energy -396920.554640 kJ/mol
# GULP energy per Si atom -12403.767333 kJ/mol
# Density = 1.832303 g / cm^3
# Si number density = 18.364831 Si / 1000 Ang^3
#
#
#
# Elastic Constant Matrix: (Units=GPa)
#
#
# Indices 1 2 3 4 5 6 
#
# 1 65.2492 25.0123 49.8486 0.0000 0.0000 0.0000
# 2 25.0123 49.9546 14.2571 0.0000 0.0000 0.0000
# 3 49.8486 14.2571 114.0863 0.0000 0.0000 0.0000
# 4 0.0000 0.0000 0.0000 34.5116 0.0000 0.0000
# 5 0.0000 0.0000 0.0000 0.0000 25.9890 0.0000
# 6 0.0000 0.0000 0.0000 0.0000 0.0000 21.4659
#
#
#
# Elastic Compliance Matrix: (Units=1/GPa)
#
#
# Indices 1 2 3 4 5 6 
#
# 1 0.027666 -0.010787 -0.010740 0.000000 0.000000 0.000000
# 2 -0.010787 0.024965 0.001594 0.000000 0.000000 0.000000
# 3 -0.010740 0.001594 0.013259 0.000000 0.000000 0.000000
# 4 0.000000 0.000000 0.000000 0.028976 0.000000 0.000000
# 5 0.000000 0.000000 0.000000 0.000000 0.038478 0.000000
# 6 0.000000 0.000000 0.000000 0.000000 0.000000 0.046586
#
#
# Mechanical properties :
#
#
# Convention : Reuss Voigt Hill
#
# Bulk Modulus (GPa) = 38.42929 45.28069 41.85499
# Shear Modulus (GPa) = 21.88460 25.73811 23.81135
#
# Velocity S-wave (km/s) = 3.45579 3.74771 3.60470
# Velocity P-wave (km/s) = 6.07406 6.59066 6.33763
#
# Compressibility (1/GPa) = 0.02602182
#
# Stress axis : x y z
#
# Youngs Moduli (GPa) = 36.14499 40.05677 75.42027
#
# Poissons Ratio (x) = 0.43210 0.81004
# Poissons Ratio (y) = 0.38990 -0.12019
# Poissons Ratio (z) = 0.38821 -0.06383
#
# Static dielectric constant tensor:
#      x y z
#    x 3.337840 0.000000 0.000000 
#    y 0.000000 3.280010 0.000000 
#    z 0.000000 0.000000 3.471950 
# 
# 
# High freq. dielectric constant tensor:
#      x y z
#    x 1.688050 0.000000 0.000000 
#    y 0.000000 1.710360 0.000000 
#    z 0.000000 0.000000 1.716980 
# 
# From -- ./inp_files/19700.got.cif
#   From: 2010.03.12/outbox.cif.g09.slc.cpg/sg44_10_cif.got.tgz:19700.got - 2010.04.14 02:36:11.
