data_PCOD8189785
_publ_section_title
;
Structure prediction by ZEFSAII (Michael W. Deem and Ramdas Pophale) SiO2 
 PCOD8189785
Probable space group: I M M 2
;
_chemical_formula_sum "Si O2"
_cell_formula_units_Z 64
_cell_length_a 24.773769
_cell_length_b 8.825706
_cell_length_c 15.120069
_cell_angle_alpha 90.000000
_cell_angle_beta 90.000000
_cell_angle_gamma 90.000000
_cell_volume 3305.942632
_symmetry_space_group_name_H-M "I M M 2"
_symmetry_group_IT_number 44
_symmetry_cell_setting 'orthorhombic'
loop_
_space_group_symop_operation_xyz
x,y,z
-x,-y,z
-x,y,z
x,-y,z
1/2+x,1/2+y,1/2+z
1/2-x,1/2-y,1/2+z
1/2-x,1/2+y,1/2+z
1/2+x,1/2-y,1/2+z
loop_
_atom_site_type_symbol
_atom_site_label
_atom_site_fract_x
_atom_site_fract_y
_atom_site_fract_z
Si Si1 0.437514 0.678071 0.078840
Si Si2 0.937640 0.174685 0.208611
Si Si3 0.262232 0.328957 0.127076
Si Si4 0.355516 0.822006 0.580145
Si Si5 0.165187 0.178077 0.896445
Si Si6 0.605800 0.679218 0.893401
Si Si7 0.224279 0.172010 0.422753
Si Si8 0.358096 0.177953 0.219052
O O1 0.500000 0.714134 0.095441
O O2 0.425293 0.500000 0.083887
O O3 0.403273 0.759072 0.153943
O O4 0.420734 0.745554 0.982792
O O5 0.905734 0.277285 0.139825
O O6 0.926913 0.235984 0.307773
O O7 0.000000 0.193607 0.185868
O O8 0.919070 0.000000 0.199950
O O9 0.268312 0.500000 0.163728
O O10 0.199933 0.274700 0.129679
O O11 0.297679 0.218448 0.186997
O O12 0.283942 0.320442 0.027617
O O13 0.360673 0.738596 0.486735
O O14 0.354599 0.000000 0.560696
O O15 0.228406 0.219924 0.888955
O O16 0.132253 0.250788 0.815546
O O17 0.158322 0.000000 0.892890
O O18 0.602217 0.500000 0.900767
O O19 0.668071 0.729927 0.881280
O O20 0.238387 0.000000 0.394010
O O21 0.364153 0.000000 0.225515
#
# Coordination Sequence:
#
# PCOD8189785 Si02
#       8
#     8   8   8   8   8   8   8   8
#     4  10  20  38  63  87 117 160 204 244 291 346
#     4  10  21  37  59  89 121 156 202 247 290 348
#     4   9  18  35  57  83 116 152 192 239 288 348
#     4  10  22  41  62  85 116 153 197 248 302 352
#     4  11  23  39  60  85 118 153 195 246 299 358
#     4   9  17  33  58  88 120 156 196 238 283 341
#     4   9  17  33  56  85 121 155 191 236 287 343
#     4  12  24  37  57  86 122 159 197 242 295 351
#
# _framework density 19.359078
#
# number of rings (size 3 to 8) (size 9 to 14) (size 15 to 20)
#    0.000    2.000    1.250    3.750    1.750    4.500 
#    0.000    1.250    0.000    5.250    0.000    0.000 
#    0.000    0.000    0.000    0.000    0.000    0.000 
#
# Total GULP energy -396871.310550 kJ/mol
# GULP energy per Si atom -12402.228455 kJ/mol
# Density = 1.931502 g / cm^3
# Si number density = 19.359078 Si / 1000 Ang^3
#
#
#
# Elastic Constant Matrix: (Units=GPa)
#
#
# Indices 1 2 3 4 5 6 
#
# 1 95.2373 44.8330 65.1022 0.0000 0.0000 0.0000
# 2 44.8330 88.7464 55.5866 0.0000 0.0000 0.0000
# 3 65.1022 55.5866 124.0231 0.0000 0.0000 0.0000
# 4 0.0000 0.0000 0.0000 26.3391 0.0000 0.0000
# 5 0.0000 0.0000 0.0000 0.0000 30.4402 0.0000
# 6 0.0000 0.0000 0.0000 0.0000 0.0000 28.3593
#
#
#
# Elastic Compliance Matrix: (Units=1/GPa)
#
#
# Indices 1 2 3 4 5 6 
#
# 1 0.017475 -0.004286 -0.007252 0.000000 0.000000 0.000000
# 2 -0.004286 0.016717 -0.005243 0.000000 0.000000 0.000000
# 3 -0.007252 -0.005243 0.014220 0.000000 0.000000 0.000000
# 4 0.000000 0.000000 0.000000 0.037966 0.000000 0.000000
# 5 0.000000 0.000000 0.000000 0.000000 0.032851 0.000000
# 6 0.000000 0.000000 0.000000 0.000000 0.000000 0.035262
#
#
# Mechanical properties :
#
#
# Convention : Reuss Voigt Hill
#
# Bulk Modulus (GPa) = 67.33875 71.00563 69.17219
# Shear Modulus (GPa) = 25.90642 26.52673 26.21657
#
# Velocity S-wave (km/s) = 3.66212 3.70570 3.68397
# Velocity P-wave (km/s) = 7.26230 7.42075 7.34195
#
# Compressibility (1/GPa) = 0.01485029
#
# Stress axis : x y z
#
# Youngs Moduli (GPa) = 57.22469 59.81953 70.32515
#
# Poissons Ratio (x) = 0.25636 0.51001
# Poissons Ratio (y) = 0.24524 0.36871
# Poissons Ratio (z) = 0.41500 0.31363
#
# Static dielectric constant tensor:
#      x y z
#    x 3.487130 0.000000 0.000000 
#    y 0.000000 3.309200 0.000000 
#    z 0.000000 0.000000 3.608630 
# 
# 
# High freq. dielectric constant tensor:
#      x y z
#    x 1.748040 0.000000 0.000000 
#    y 0.000000 1.734360 0.000000 
#    z 0.000000 0.000000 1.758690 
# 
# From -- ./inp_files/16802.got.cif
#   From: 2010.03.12/outbox.cif.g09.slc.cpg/sg44_9_cif.got.tgz:16802.got - 2010.04.14 02:36:11.
