data_PCOD8189901
_publ_section_title
;
Structure prediction by ZEFSAII (Michael W. Deem and Ramdas Pophale) SiO2 
 PCOD8189901
Probable space group: I M M 2
;
_chemical_formula_sum "Si O2"
_cell_formula_units_Z 40
_cell_length_a 16.656592
_cell_length_b 9.781242
_cell_length_c 12.675686
_cell_angle_alpha 90.000000
_cell_angle_beta 90.000000
_cell_angle_gamma 90.000000
_cell_volume 2065.150108
_symmetry_space_group_name_H-M "I M M 2"
_symmetry_group_IT_number 44
_symmetry_cell_setting 'orthorhombic'
loop_
_space_group_symop_operation_xyz
x,y,z
-x,-y,z
-x,y,z
x,-y,z
1/2+x,1/2+y,1/2+z
1/2-x,1/2-y,1/2+z
1/2-x,1/2+y,1/2+z
1/2+x,1/2-y,1/2+z
loop_
_atom_site_type_symbol
_atom_site_label
_atom_site_fract_x
_atom_site_fract_y
_atom_site_fract_z
Si Si1 0.166674 0.660298 0.535610
Si Si2 0.908277 0.148133 0.914016
Si Si3 0.660798 0.659211 0.626809
Si Si4 0.406456 0.849535 0.245270
Si Si5 0.594869 0.161957 0.816133
O O1 0.155908 0.500000 0.525104
O O2 0.256617 0.701448 0.568236
O O3 0.109721 0.714714 0.630168
O O4 0.135816 0.719304 0.423908
O O5 0.865618 0.256219 0.835998
O O6 0.000000 0.136085 0.879263
O O7 0.865180 0.000000 0.899482
O O8 0.905191 0.189390 0.036737
O O9 0.661179 0.500000 0.663023
O O10 0.640350 0.756361 0.724056
O O11 0.500000 0.863084 0.265743
O O12 0.365919 0.000000 0.253475
O O13 0.500000 0.196218 0.817476
O O14 0.608450 0.000000 0.799519
#
# Coordination Sequence:
#
# PCOD8189901 Si02
#       5
#     8   8   8   8   8
#     4   9  19  35  55  79 109 143 179 221 273 326
#     4   9  18  32  50  73 103 138 172 210 262 321
#     4  10  21  36  55  79 110 146 182 222 272 327
#     4   9  17  31  53  77 101 133 174 218 263 316
#     4  10  21  38  60  84 111 146 188 231 275 328
#
# _framework density 19.369053000000001
#
# number of rings (size 3 to 8) (size 9 to 14) (size 15 to 20)
#    0.000    2.600    0.000    1.200    2.800    4.400 
#    0.000    4.000    0.000    2.400    0.000    0.000 
#    0.000    0.000    0.000    0.000    0.000    0.000 
#
# Total GULP energy -247811.283804 kJ/mol
# GULP energy per Si atom -12390.564190 kJ/mol
# Density = 1.932497 g / cm^3
# Si number density = 19.369053 Si / 1000 Ang^3
#
#
#
# Elastic Constant Matrix: (Units=GPa)
#
#
# Indices 1 2 3 4 5 6 
#
# 1 62.3347 28.0456 40.6623 0.0000 0.0000 0.0000
# 2 28.0456 76.6812 81.6215 0.0000 0.0000 0.0000
# 3 40.6623 81.6215 183.3638 0.0000 0.0000 0.0000
# 4 0.0000 0.0000 0.0000 26.6475 0.0000 0.0000
# 5 0.0000 0.0000 0.0000 0.0000 34.0187 0.0000
# 6 0.0000 0.0000 0.0000 0.0000 0.0000 17.5205
#
#
#
# Elastic Compliance Matrix: (Units=1/GPa)
#
#
# Indices 1 2 3 4 5 6 
#
# 1 0.019659 -0.004846 -0.002203 0.000000 0.000000 0.000000
# 2 -0.004846 0.025978 -0.010489 0.000000 0.000000 0.000000
# 3 -0.002203 -0.010489 0.010611 0.000000 0.000000 0.000000
# 4 0.000000 0.000000 0.000000 0.037527 0.000000 0.000000
# 5 0.000000 0.000000 0.000000 0.000000 0.029396 0.000000
# 6 0.000000 0.000000 0.000000 0.000000 0.000000 0.057076
#
#
# Mechanical properties :
#
#
# Convention : Reuss Voigt Hill
#
# Bulk Modulus (GPa) = 47.22837 69.22650 58.22744
# Shear Modulus (GPa) = 22.48395 27.10735 24.79565
#
# Velocity S-wave (km/s) = 3.41077 3.74507 3.58183
# Velocity P-wave (km/s) = 6.32041 7.38371 6.87265
#
# Compressibility (1/GPa) = 0.02117371
#
# Stress axis : x y z
#
# Youngs Moduli (GPa) = 50.86611 38.49360 94.23997
#
# Poissons Ratio (x) = 0.18653 0.20757
# Poissons Ratio (y) = 0.24649 0.98851
# Poissons Ratio (z) = 0.11204 0.40377
#
# Static dielectric constant tensor:
#      x y z
#    x 3.423780 0.000000 0.000000 
#    y 0.000000 3.660970 0.000000 
#    z 0.000000 0.000000 3.771480 
# 
# 
# High freq. dielectric constant tensor:
#      x y z
#    x 1.746790 0.000000 0.000000 
#    y 0.000000 1.725260 0.000000 
#    z 0.000000 0.000000 1.766420 
# 
# From -- ./inp_files/5631.got.cif
#   From: 2010.03.12/outbox.cif.g09.slc.cpg/sg44_3_cif.got.tgz:5631.got - 2010.04.14 02:36:11.
