data_PCOD8189468
_publ_section_title
;
Structure prediction by ZEFSAII (Michael W. Deem and Ramdas Pophale) SiO2 
 PCOD8189468
Probable space group: I M M 2
;
_chemical_formula_sum "Si O2"
_cell_formula_units_Z 64
_cell_length_a 28.382517
_cell_length_b 8.675871
_cell_length_c 12.657339
_cell_angle_alpha 90.000000
_cell_angle_beta 90.000000
_cell_angle_gamma 90.000000
_cell_volume 3116.781838
_symmetry_space_group_name_H-M "I M M 2"
_symmetry_group_IT_number 44
_symmetry_cell_setting 'orthorhombic'
loop_
_space_group_symop_operation_xyz
x,y,z
-x,-y,z
-x,y,z
x,-y,z
1/2+x,1/2+y,1/2+z
1/2-x,1/2-y,1/2+z
1/2-x,1/2+y,1/2+z
1/2+x,1/2-y,1/2+z
loop_
_atom_site_type_symbol
_atom_site_label
_atom_site_fract_x
_atom_site_fract_y
_atom_site_fract_z
Si Si1 0.795361 0.822125 0.535960
Si Si2 0.202264 0.820366 0.108104
Si Si3 0.320238 0.823546 0.829312
Si Si4 0.382192 0.819940 0.502386
Si Si5 0.412493 0.325985 0.880969
Si Si6 0.599054 0.675374 0.109680
Si Si7 0.553388 0.181408 0.311060
Si Si8 0.448348 0.325558 0.661678
O O1 0.756925 0.714572 0.590632
O O2 0.792034 0.783055 0.411738
O O3 0.846405 0.781631 0.585585
O O4 0.782468 0.000000 0.553686
O O5 0.187766 0.728703 0.211189
O O6 0.194474 0.000000 0.125582
O O7 0.168621 0.763784 0.011345
O O8 0.375010 0.805089 0.854532
O O9 0.304593 0.000000 0.843583
O O10 0.412834 0.752636 0.404177
O O11 0.411081 0.789840 0.610209
O O12 0.372724 0.000000 0.488828
O O13 0.389740 0.500000 0.879127
O O14 0.451482 0.310977 0.789611
O O15 0.431065 0.299418 0.000892
O O16 0.595162 0.500000 0.149426
O O17 0.577004 0.782509 0.198832
O O18 0.500000 0.250788 0.318542
O O19 0.550104 0.000000 0.324240
O O20 0.500000 0.284861 0.617642
O O21 0.433877 0.500000 0.630878
#
# Coordination Sequence:
#
# PCOD8189468 Si02
#       8
#     8   8   8   8   8   8   8   8
#     4  10  22  41  62  89 123 160 205 258 314 372
#     4  12  24  39  61  90 123 160 205 257 315 378
#     4  11  21  36  59  86 117 155 196 242 301 366
#     4  11  23  40  60  84 117 160 209 260 312 370
#     4   9  18  35  57  83 117 153 191 243 303 357
#     4   9  20  38  62  89 119 156 202 252 303 364
#     4  10  23  42  62  86 122 167 211 260 315 371
#     4  10  20  34  56  86 118 152 192 242 304 368
#
# _framework density 20.533999000000001
#
# number of rings (size 3 to 8) (size 9 to 14) (size 15 to 20)
#    0.000    1.750    1.250    4.125    0.000    6.000 
#    0.000    3.750    0.000    0.000    0.000    0.000 
#    0.000    0.000    0.000    0.000    0.000    0.000 
#
# Total GULP energy -396657.879373 kJ/mol
# GULP energy per Si atom -12395.558730 kJ/mol
# Density = 2.048726 g / cm^3
# Si number density = 20.533999 Si / 1000 Ang^3
#
#
#
# Elastic Constant Matrix: (Units=GPa)
#
#
# Indices 1 2 3 4 5 6 
#
# 1 74.0773 21.4431 28.4545 0.0000 0.0000 0.0000
# 2 21.4431 34.8841 8.1925 0.0000 0.0000 0.0000
# 3 28.4545 8.1925 103.8010 0.0000 0.0000 0.0000
# 4 0.0000 0.0000 0.0000 31.8646 0.0000 0.0000
# 5 0.0000 0.0000 0.0000 0.0000 20.8732 0.0000
# 6 0.0000 0.0000 0.0000 0.0000 0.0000 27.0760
#
#
#
# Elastic Compliance Matrix: (Units=1/GPa)
#
#
# Indices 1 2 3 4 5 6 
#
# 1 0.018014 -0.010101 -0.004141 0.000000 0.000000 0.000000
# 2 -0.010101 0.034871 0.000017 0.000000 0.000000 0.000000
# 3 -0.004141 0.000017 0.010768 0.000000 0.000000 0.000000
# 4 0.000000 0.000000 0.000000 0.031383 0.000000 0.000000
# 5 0.000000 0.000000 0.000000 0.000000 0.047908 0.000000
# 6 0.000000 0.000000 0.000000 0.000000 0.000000 0.036933
#
#
# Mechanical properties :
#
#
# Convention : Reuss Voigt Hill
#
# Bulk Modulus (GPa) = 28.40664 36.54919 32.47792
# Shear Modulus (GPa) = 22.72102 26.27426 24.49764
#
# Velocity S-wave (km/s) = 3.33003 3.58096 3.45777
# Velocity P-wave (km/s) = 5.35252 5.91064 5.63849
#
# Compressibility (1/GPa) = 0.03520303
#
# Stress axis : x y z
#
# Youngs Moduli (GPa) = 55.51309 28.67699 92.87107
#
# Poissons Ratio (x) = 0.28965 0.38456
# Poissons Ratio (y) = 0.56071 -0.00154
# Poissons Ratio (z) = 0.22987 -0.00048
#
# Static dielectric constant tensor:
#      x y z
#    x 3.846490 0.000000 0.000000 
#    y 0.000000 3.586680 0.000000 
#    z 0.000000 0.000000 3.903810 
# 
# 
# High freq. dielectric constant tensor:
#      x y z
#    x 1.793510 0.000000 0.000000 
#    y 0.000000 1.794230 0.000000 
#    z 0.000000 0.000000 1.806510 
# 
# From -- ./inp_files/15046.got.cif
#   From: 2010.03.12/outbox.cif.g09.slc.cpg/sg44_8_cif.got.tgz:15046.got - 2010.04.14 02:36:11.
