data_PCOD8189077
_publ_section_title
;
Structure prediction by ZEFSAII (Michael W. Deem and Ramdas Pophale) SiO2 
 PCOD8189077
Probable space group: I M M 2
;
_chemical_formula_sum "Si O2"
_cell_formula_units_Z 40
_cell_length_a 11.453421
_cell_length_b 8.775026
_cell_length_c 19.719879
_cell_angle_alpha 90.000000
_cell_angle_beta 90.000000
_cell_angle_gamma 90.000000
_cell_volume 1981.928042
_symmetry_space_group_name_H-M "I M M 2"
_symmetry_group_IT_number 44
_symmetry_cell_setting 'orthorhombic'
loop_
_space_group_symop_operation_xyz
x,y,z
-x,-y,z
-x,y,z
x,-y,z
1/2+x,1/2+y,1/2+z
1/2-x,1/2-y,1/2+z
1/2-x,1/2+y,1/2+z
1/2+x,1/2-y,1/2+z
loop_
_atom_site_type_symbol
_atom_site_label
_atom_site_fract_x
_atom_site_fract_y
_atom_site_fract_z
Si Si1 0.279635 0.677346 0.188580
Si Si2 0.740523 0.820568 0.939936
Si Si3 0.000000 0.819643 0.605511
Si Si4 0.500000 0.318949 0.953315
Si Si5 0.132759 0.322202 0.063703
Si Si6 0.365884 0.822953 0.318167
O O1 0.293265 0.500000 0.207082
O O2 0.387070 0.739724 0.144474
O O3 0.165110 0.707883 0.142727
O O4 0.278038 0.770782 0.258459
O O5 0.616969 0.745645 0.918527
O O6 0.837421 0.768166 0.886318
O O7 0.726717 0.000000 0.938354
O O8 0.781604 0.769594 0.014548
O O9 0.000000 0.754257 0.529856
O O10 0.000000 0.000000 0.600514
O O11 0.500000 0.500000 0.947671
O O12 0.149907 0.500000 0.046816
O O13 0.000000 0.269260 0.052608
O O14 0.500000 0.786665 0.298109
O O15 0.346870 0.000000 0.332744
#
# Coordination Sequence:
#
# PCOD8189077 Si02
#       6
#     8   8   4   4   8   8
#     4  10  19  36  61  89 119 155 198 248 305 366
#     4  12  25  40  61  91 123 159 202 251 303 361
#     4   9  16  31  61  91 115 146 189 238 301 363
#     4  11  21  41  67  91 121 158 197 244 301 361
#     4  10  21  39  63  90 122 163 205 248 301 362
#     4  11  24  41  61  87 119 160 207 255 306 359
#
# _framework density 20.182366999999999
#
# number of rings (size 3 to 8) (size 9 to 14) (size 15 to 20)
#    0.000    1.400    3.000    3.300    0.000    4.800 
#    1.800    0.000    0.000    0.000    0.000    0.000 
#    0.000    0.000    0.000    0.000    0.000    0.000 
#
# Total GULP energy -248055.793340 kJ/mol
# GULP energy per Si atom -12402.789667 kJ/mol
# Density = 2.013643 g / cm^3
# Si number density = 20.182367 Si / 1000 Ang^3
#
#
#
# Elastic Constant Matrix: (Units=GPa)
#
#
# Indices 1 2 3 4 5 6 
#
# 1 101.8230 45.5147 19.6446 0.0000 0.0000 0.0000
# 2 45.5147 108.6782 38.2372 0.0000 0.0000 0.0000
# 3 19.6446 38.2372 90.3622 0.0000 0.0000 0.0000
# 4 0.0000 0.0000 0.0000 34.5187 0.0000 0.0000
# 5 0.0000 0.0000 0.0000 0.0000 31.6545 0.0000
# 6 0.0000 0.0000 0.0000 0.0000 0.0000 25.7850
#
#
#
# Elastic Compliance Matrix: (Units=1/GPa)
#
#
# Indices 1 2 3 4 5 6 
#
# 1 0.012108 -0.004870 -0.000572 0.000000 0.000000 0.000000
# 2 -0.004870 0.012770 -0.004345 0.000000 0.000000 0.000000
# 3 -0.000572 -0.004345 0.013029 0.000000 0.000000 0.000000
# 4 0.000000 0.000000 0.000000 0.028970 0.000000 0.000000
# 5 0.000000 0.000000 0.000000 0.000000 0.031591 0.000000
# 6 0.000000 0.000000 0.000000 0.000000 0.000000 0.038782
#
#
# Mechanical properties :
#
#
# Convention : Reuss Voigt Hill
#
# Bulk Modulus (GPa) = 54.54164 56.40625 55.47395
# Shear Modulus (GPa) = 30.68724 31.55609 31.12167
#
# Velocity S-wave (km/s) = 3.90359 3.95846 3.93112
# Velocity P-wave (km/s) = 6.88479 6.99296 6.93909
#
# Compressibility (1/GPa) = 0.01833461
#
# Stress axis : x y z
#
# Youngs Moduli (GPa) = 82.58987 78.31079 76.74962
#
# Poissons Ratio (x) = 0.38135 0.04387
# Poissons Ratio (y) = 0.40219 0.33347
# Poissons Ratio (z) = 0.04721 0.34025
#
# Static dielectric constant tensor:
#      x y z
#    x 3.712340 0.000000 0.000000 
#    y 0.000000 3.439980 0.000000 
#    z 0.000000 0.000000 3.617550 
# 
# 
# High freq. dielectric constant tensor:
#      x y z
#    x 1.788330 0.000000 0.000000 
#    y 0.000000 1.773050 0.000000 
#    z 0.000000 0.000000 1.786360 
# 
# From -- ./inp_files/22805.got.cif
#   From: 2010.03.12/outbox.cif.g09.slc.cpg/sg44_12_cif.got.tgz:22805.got - 2010.04.14 02:36:11.
