data_PCOD8189048
_publ_section_title
;
Structure prediction by ZEFSAII (Michael W. Deem and Ramdas Pophale) SiO2 
 PCOD8189048
Probable space group: I M M 2
;
_chemical_formula_sum "Si O2"
_cell_formula_units_Z 48
_cell_length_a 28.045256
_cell_length_b 8.864910
_cell_length_c 10.349817
_cell_angle_alpha 90.000000
_cell_angle_beta 90.000000
_cell_angle_gamma 90.000000
_cell_volume 2573.157741
_symmetry_space_group_name_H-M "I M M 2"
_symmetry_group_IT_number 44
_symmetry_cell_setting 'orthorhombic'
loop_
_space_group_symop_operation_xyz
x,y,z
-x,-y,z
-x,y,z
x,-y,z
1/2+x,1/2+y,1/2+z
1/2-x,1/2-y,1/2+z
1/2-x,1/2+y,1/2+z
1/2+x,1/2-y,1/2+z
loop_
_atom_site_type_symbol
_atom_site_label
_atom_site_fract_x
_atom_site_fract_y
_atom_site_fract_z
Si Si1 0.445858 0.675624 0.692330
Si Si2 0.298973 0.821475 0.548692
Si Si3 0.852077 0.675224 0.790991
Si Si4 0.553207 0.171618 0.425011
Si Si5 0.690853 0.321841 0.043717
Si Si6 0.356526 0.821390 0.795802
O O1 0.500000 0.716774 0.731184
O O2 0.435531 0.500000 0.708567
O O3 0.436154 0.719563 0.544255
O O4 0.411125 0.767012 0.786955
O O5 0.323808 0.766456 0.417118
O O6 0.244974 0.761508 0.553373
O O7 0.327397 0.757252 0.672348
O O8 0.300495 0.000000 0.555102
O O9 0.840825 0.500000 0.761940
O O10 0.908599 0.701965 0.812335
O O11 0.836923 0.777950 0.672586
O O12 0.500000 0.199129 0.368854
O O13 0.559083 0.000000 0.476142
O O14 0.689171 0.500000 0.024598
O O15 0.666329 0.243556 0.923763
O O16 0.355092 0.000000 0.803008
#
# Coordination Sequence:
#
# PCOD8189048 Si02
#       6
#     8   8   8   8   8   8
#     4  10  20  34  55  85 116 143 178 228 283 334
#     4   9  19  36  58  82 109 142 189 237 276 324
#     4  10  19  36  57  80 110 144 182 228 277 331
#     4   9  17  32  57  84 108 139 182 229 273 325
#     4  11  23  37  53  80 116 150 185 231 283 333
#     4  11  21  38  60  83 111 149 192 232 274 330
#
# _framework density 18.654122999999998
#
# number of rings (size 3 to 8) (size 9 to 14) (size 15 to 20)
#    0.000    2.000    1.667    2.500    0.000    1.667 
#    0.000    4.167    0.000    3.000    0.000    0.000 
#    0.000    0.000    0.000    0.000    0.000    0.000 
#
# Total GULP energy -297649.207694 kJ/mol
# GULP energy per Si atom -12402.050321 kJ/mol
# Density = 1.861167 g / cm^3
# Si number density = 18.654123 Si / 1000 Ang^3
#
#
#
# Elastic Constant Matrix: (Units=GPa)
#
#
# Indices 1 2 3 4 5 6 
#
# 1 153.5226 46.7395 70.0820 0.0000 0.0000 0.0000
# 2 46.7395 63.0653 37.5438 0.0000 0.0000 0.0000
# 3 70.0820 37.5438 123.1542 0.0000 0.0000 0.0000
# 4 0.0000 0.0000 0.0000 24.1005 0.0000 0.0000
# 5 0.0000 0.0000 0.0000 0.0000 49.1698 0.0000
# 6 0.0000 0.0000 0.0000 0.0000 0.0000 26.6797
#
#
#
# Elastic Compliance Matrix: (Units=1/GPa)
#
#
# Indices 1 2 3 4 5 6 
#
# 1 0.009885 -0.004859 -0.004144 0.000000 0.000000 0.000000
# 2 -0.004859 0.021761 -0.003869 0.000000 0.000000 0.000000
# 3 -0.004144 -0.003869 0.011657 0.000000 0.000000 0.000000
# 4 0.000000 0.000000 0.000000 0.041493 0.000000 0.000000
# 5 0.000000 0.000000 0.000000 0.000000 0.020338 0.000000
# 6 0.000000 0.000000 0.000000 0.000000 0.000000 0.037482
#
#
# Mechanical properties :
#
#
# Convention : Reuss Voigt Hill
#
# Bulk Modulus (GPa) = 56.94793 72.05254 64.50023
# Shear Modulus (GPa) = 28.70085 32.34846 30.52466
#
# Velocity S-wave (km/s) = 3.92673 4.16879 4.04957
# Velocity P-wave (km/s) = 7.15217 7.86646 7.51780
#
# Compressibility (1/GPa) = 0.01755990
#
# Stress axis : x y z
#
# Youngs Moduli (GPa) = 101.16826 45.95411 85.78336
#
# Poissons Ratio (x) = 0.22329 0.35545
# Poissons Ratio (y) = 0.49157 0.33188
# Poissons Ratio (z) = 0.41920 0.17779
#
# Static dielectric constant tensor:
#      x y z
#    x 3.802370 0.000000 0.000000 
#    y 0.000000 3.300910 0.000000 
#    z 0.000000 0.000000 3.310930 
# 
# 
# High freq. dielectric constant tensor:
#      x y z
#    x 1.743110 0.000000 0.000000 
#    y 0.000000 1.712760 0.000000 
#    z 0.000000 0.000000 1.706870 
# 
# From -- ./inp_files/4920.got.cif
#   From: 2010.03.12/outbox.cif.g09.slc.cpg/sg44_3_cif.got.tgz:4920.got - 2010.04.14 02:36:11.
