data_PCOD8189382
_publ_section_title
;
Structure prediction by ZEFSAII (Michael W. Deem and Ramdas Pophale) SiO2 
 PCOD8189382
Probable space group: I M M 2
;
_chemical_formula_sum "Si O2"
_cell_formula_units_Z 64
_cell_length_a 13.770706
_cell_length_b 9.088216
_cell_length_c 24.270872
_cell_angle_alpha 90.000000
_cell_angle_beta 90.000000
_cell_angle_gamma 90.000000
_cell_volume 3037.527557
_symmetry_space_group_name_H-M "I M M 2"
_symmetry_group_IT_number 44
_symmetry_cell_setting 'orthorhombic'
loop_
_space_group_symop_operation_xyz
x,y,z
-x,-y,z
-x,y,z
x,-y,z
1/2+x,1/2+y,1/2+z
1/2-x,1/2-y,1/2+z
1/2-x,1/2+y,1/2+z
1/2+x,1/2-y,1/2+z
loop_
_atom_site_type_symbol
_atom_site_label
_atom_site_fract_x
_atom_site_fract_y
_atom_site_fract_z
Si Si1 0.612159 0.327016 0.786830
Si Si2 0.104302 0.664551 0.559709
Si Si3 0.892076 0.826600 0.163817
Si Si4 0.389898 0.340759 0.167867
Si Si5 0.776797 0.825257 0.854015
Si Si6 0.110754 0.328283 0.947444
Si Si7 0.113574 0.338952 0.765862
Si Si8 0.185110 0.168965 0.047570
O O1 0.500000 0.287721 0.797560
O O2 0.630055 0.500000 0.794367
O O3 0.642812 0.273099 0.724763
O O4 0.675288 0.240789 0.832331
O O5 0.105541 0.500000 0.585573
O O6 0.110515 0.785097 0.606335
O O7 0.203144 0.684567 0.524970
O O8 0.000000 0.686224 0.527402
O O9 0.822490 0.779709 0.112322
O O10 0.000000 0.763313 0.151692
O O11 0.898804 0.000000 0.167512
O O12 0.500000 0.360248 0.188546
O O13 0.337096 0.500000 0.170583
O O14 0.340220 0.223763 0.209082
O O15 0.809107 0.761939 0.913106
O O16 0.862651 0.775848 0.813513
O O17 0.768804 0.000000 0.857868
O O18 0.136152 0.500000 0.943993
O O19 0.000000 0.300890 0.927044
O O20 0.118213 0.272797 0.010463
O O21 0.161573 0.500000 0.776842
O O22 0.000000 0.360603 0.761877
O O23 0.149432 0.000000 0.042217
#
# Coordination Sequence:
#
# PCOD8189382 Si02
#       8
#     8   8   8   8   8   8   8   8
#     4   9  19  38  63  90 124 165 206 250 299 359
#     4   9  18  32  50  78 118 161 202 241 287 347
#     4   8  15  30  55  87 119 153 197 247 299 357
#     4   9  17  29  46  72 109 150 191 237 288 341
#     4  12  25  39  60  89 119 155 199 250 307 363
#     4  11  25  45  66  89 119 155 198 253 314 375
#     4  10  20  34  53  78 111 152 196 241 292 357
#     4  10  20  35  60  90 119 160 208 253 303 358
#
# _framework density 21.069769000000001
#
# number of rings (size 3 to 8) (size 9 to 14) (size 15 to 20)
#    0.000    2.250    0.000    3.750    1.750    6.000 
#    0.000    1.250    0.000    3.000    0.000    0.000 
#    0.000    0.000    0.000    0.000    0.000    0.000 
#
# Total GULP energy -396426.913849 kJ/mol
# GULP energy per Si atom -12388.341058 kJ/mol
# Density = 2.102181 g / cm^3
# Si number density = 21.069769 Si / 1000 Ang^3
#
#
#
# Elastic Constant Matrix: (Units=GPa)
#
#
# Indices 1 2 3 4 5 6 
#
# 1 105.3834 42.6852 28.7800 0.0000 0.0000 0.0000
# 2 42.6852 122.3713 44.9981 0.0000 0.0000 0.0000
# 3 28.7800 44.9981 85.2232 0.0000 0.0000 0.0000
# 4 0.0000 0.0000 0.0000 27.6469 0.0000 0.0000
# 5 0.0000 0.0000 0.0000 0.0000 24.2400 0.0000
# 6 0.0000 0.0000 0.0000 0.0000 0.0000 22.8189
#
#
#
# Elastic Compliance Matrix: (Units=1/GPa)
#
#
# Indices 1 2 3 4 5 6 
#
# 1 0.011363 -0.003168 -0.002165 0.000000 0.000000 0.000000
# 2 -0.003168 0.011024 -0.004751 0.000000 0.000000 0.000000
# 3 -0.002165 -0.004751 0.014973 0.000000 0.000000 0.000000
# 4 0.000000 0.000000 0.000000 0.036170 0.000000 0.000000
# 5 0.000000 0.000000 0.000000 0.000000 0.041254 0.000000
# 6 0.000000 0.000000 0.000000 0.000000 0.000000 0.043823
#
#
# Mechanical properties :
#
#
# Convention : Reuss Voigt Hill
#
# Bulk Modulus (GPa) = 58.16057 60.65606 59.40832
# Shear Modulus (GPa) = 27.09926 28.04211 27.57069
#
# Velocity S-wave (km/s) = 3.59021 3.65213 3.62130
# Velocity P-wave (km/s) = 6.69700 6.82897 6.76331
#
# Compressibility (1/GPa) = 0.01719378
#
# Stress axis : x y z
#
# Youngs Moduli (GPa) = 88.00145 90.71306 66.78483
#
# Poissons Ratio (x) = 0.28735 0.14458
# Poissons Ratio (y) = 0.27876 0.31729
# Poissons Ratio (z) = 0.19051 0.43096
#
# Static dielectric constant tensor:
#      x y z
#    x 3.986620 0.000000 0.000000 
#    y 0.000000 3.766250 0.000000 
#    z 0.000000 0.000000 3.583540 
# 
# 
# High freq. dielectric constant tensor:
#      x y z
#    x 1.832340 0.000000 0.000000 
#    y 0.000000 1.811440 0.000000 
#    z 0.000000 0.000000 1.797780 
# 
# From -- ./inp_files/25801.got.cif
#   From: 2010.03.12/outbox.cif.g09.slc.cpg/sg44_13_cif.got.tgz:25801.got - 2010.04.14 02:36:11.
