data_PCOD8189384
_publ_section_title
;
Structure prediction by ZEFSAII (Michael W. Deem and Ramdas Pophale) SiO2 
 PCOD8189384
Probable space group: I M M 2
;
_chemical_formula_sum "Si O2"
_cell_formula_units_Z 64
_cell_length_a 8.828758
_cell_length_b 19.512838
_cell_length_c 20.749104
_cell_angle_alpha 90.000000
_cell_angle_beta 90.000000
_cell_angle_gamma 90.000000
_cell_volume 3574.533728
_symmetry_space_group_name_H-M "I M M 2"
_symmetry_group_IT_number 44
_symmetry_cell_setting 'orthorhombic'
loop_
_space_group_symop_operation_xyz
x,y,z
-x,-y,z
-x,y,z
x,-y,z
1/2+x,1/2+y,1/2+z
1/2-x,1/2-y,1/2+z
1/2-x,1/2+y,1/2+z
1/2+x,1/2-y,1/2+z
loop_
_atom_site_type_symbol
_atom_site_label
_atom_site_fract_x
_atom_site_fract_y
_atom_site_fract_z
Si Si1 0.177888 0.206723 0.072820
Si Si2 0.820695 0.574132 0.772953
Si Si3 0.327428 0.924166 0.754596
Si Si4 0.321706 0.206660 0.942039
Si Si5 0.176074 0.577968 0.627763
Si Si6 0.175283 0.716673 0.200792
Si Si7 0.821383 0.715853 0.823383
Si Si8 0.323764 0.422220 0.388512
O O1 0.227633 0.128152 0.082825
O O2 0.231269 0.253952 0.132537
O O3 0.000000 0.210289 0.062727
O O4 0.256593 0.236405 0.008773
O O5 0.759779 0.500000 0.798527
O O6 0.761281 0.587142 0.700496
O O7 0.770559 0.635851 0.819589
O O8 0.000000 0.571059 0.768024
O O9 0.500000 0.920650 0.780295
O O10 0.301311 0.866020 0.700386
O O11 0.218814 0.908386 0.814444
O O12 0.292994 0.000000 0.725497
O O13 0.500000 0.210043 0.943528
O O14 0.263582 0.252231 0.883418
O O15 0.269258 0.127987 0.934623
O O16 0.202000 0.500000 0.604435
O O17 0.000000 0.598217 0.622672
O O18 0.276162 0.748000 0.257154
O O19 0.000000 0.735993 0.213091
O O20 0.000000 0.724030 0.833359
O O21 0.500000 0.406011 0.396736
O O22 0.283933 0.500000 0.408166
#
# Coordination Sequence:
#
# PCOD8189384 Si02
#       8
#     8   8   8   8   8   8   8   8
#     4  11  23  37  53  76 109 144 183 226 271 319
#     4   8  15  29  52  82 111 138 173 216 261 316
#     4   9  17  31  53  80 109 141 174 212 263 320
#     4  12  25  39  54  74 107 147 188 226 271 324
#     4   9  17  32  53  77 107 143 181 216 259 319
#     4  10  20  34  54  81 110 140 175 221 268 318
#     4  11  20  33  58  84 108 140 179 223 270 317
#     4  10  20  34  53  79 109 140 178 222 267 318
#
# _framework density 17.904433999999998
#
# number of rings (size 3 to 8) (size 9 to 14) (size 15 to 20)
#    0.000    2.000    2.500    3.000    0.000    2.000 
#    0.000    0.000    0.000    2.250    0.000    3.500 
#    0.000    0.000    0.000    0.000    0.000    0.000 
#
# Total GULP energy -396748.164107 kJ/mol
# GULP energy per Si atom -12398.380128 kJ/mol
# Density = 1.786368 g / cm^3
# Si number density = 17.904434 Si / 1000 Ang^3
#
#
#
# Elastic Constant Matrix: (Units=GPa)
#
#
# Indices 1 2 3 4 5 6 
#
# 1 81.2186 37.5231 48.2841 0.0000 0.0000 0.0000
# 2 37.5231 108.0182 58.6996 0.0000 0.0000 0.0000
# 3 48.2841 58.6996 114.9114 0.0000 0.0000 0.0000
# 4 0.0000 0.0000 0.0000 19.2914 0.0000 0.0000
# 5 0.0000 0.0000 0.0000 0.0000 26.5929 0.0000
# 6 0.0000 0.0000 0.0000 0.0000 0.0000 18.1261
#
#
#
# Elastic Compliance Matrix: (Units=1/GPa)
#
#
# Indices 1 2 3 4 5 6 
#
# 1 0.017003 -0.002802 -0.005713 0.000000 0.000000 0.000000
# 2 -0.002802 0.013277 -0.005605 0.000000 0.000000 0.000000
# 3 -0.005713 -0.005605 0.013966 0.000000 0.000000 0.000000
# 4 0.000000 0.000000 0.000000 0.051837 0.000000 0.000000
# 5 0.000000 0.000000 0.000000 0.000000 0.037604 0.000000
# 6 0.000000 0.000000 0.000000 0.000000 0.000000 0.055169
#
#
# Mechanical properties :
#
#
# Convention : Reuss Voigt Hill
#
# Bulk Modulus (GPa) = 62.47531 65.90684 64.19108
# Shear Modulus (GPa) = 22.47881 23.44483 22.96182
#
# Velocity S-wave (km/s) = 3.54713 3.62255 3.58504
# Velocity P-wave (km/s) = 7.19345 7.37478 7.28468
#
# Compressibility (1/GPa) = 0.01600632
#
# Stress axis : x y z
#
# Youngs Moduli (GPa) = 58.81153 75.31949 71.60198
#
# Poissons Ratio (x) = 0.21103 0.40909
# Poissons Ratio (y) = 0.16478 0.40132
# Poissons Ratio (z) = 0.33601 0.42215
#
# Static dielectric constant tensor:
#      x y z
#    x 3.228440 0.000000 0.000000 
#    y 0.000000 3.777230 0.000000 
#    z 0.000000 0.000000 3.173220 
# 
# 
# High freq. dielectric constant tensor:
#      x y z
#    x 1.688170 0.000000 0.000000 
#    y 0.000000 1.699400 0.000000 
#    z 0.000000 0.000000 1.666310 
# 
# From -- ./inp_files/20723.got.cif
#   From: 2010.03.12/outbox.cif.g09.slc.cpg/sg44_11_cif.got.tgz:20723.got - 2010.04.14 02:36:11.
