data_PCOD8189259
_publ_section_title
;
Structure prediction by ZEFSAII (Michael W. Deem and Ramdas Pophale) SiO2 
 PCOD8189259
Probable space group: I M M 2
;
_chemical_formula_sum "Si O2"
_cell_formula_units_Z 64
_cell_length_a 9.315666
_cell_length_b 13.511903
_cell_length_c 24.285394
_cell_angle_alpha 90.000000
_cell_angle_beta 90.000000
_cell_angle_gamma 90.000000
_cell_volume 3056.860230
_symmetry_space_group_name_H-M "I M M 2"
_symmetry_group_IT_number 44
_symmetry_cell_setting 'orthorhombic'
loop_
_space_group_symop_operation_xyz
x,y,z
-x,-y,z
-x,y,z
x,-y,z
1/2+x,1/2+y,1/2+z
1/2-x,1/2-y,1/2+z
1/2-x,1/2+y,1/2+z
1/2+x,1/2-y,1/2+z
loop_
_atom_site_type_symbol
_atom_site_label
_atom_site_fract_x
_atom_site_fract_y
_atom_site_fract_z
Si Si1 0.335381 0.885400 0.747330
Si Si2 0.343501 0.112616 0.248593
Si Si3 0.336488 0.819604 0.627240
Si Si4 0.342641 0.614616 0.843952
Si Si5 0.832649 0.887792 0.855756
Si Si6 0.669736 0.210704 0.434241
Si Si7 0.340396 0.393432 0.643198
Si Si8 0.833255 0.887309 0.528604
O O1 0.500000 0.865742 0.762089
O O2 0.290488 0.825703 0.691845
O O3 0.245011 0.850355 0.800326
O O4 0.305369 0.000000 0.734492
O O5 0.500000 0.165132 0.249928
O O6 0.234204 0.165687 0.291066
O O7 0.282220 0.115154 0.187948
O O8 0.362528 0.000000 0.268361
O O9 0.500000 0.859382 0.620698
O O10 0.325699 0.704764 0.605937
O O11 0.228932 0.883889 0.590572
O O12 0.500000 0.664050 0.853309
O O13 0.366725 0.500000 0.833008
O O14 0.238800 0.627332 0.895743
O O15 0.792827 0.818100 0.907942
O O16 0.000000 0.881121 0.843277
O O17 0.785884 0.000000 0.870931
O O18 0.500000 0.194476 0.440123
O O19 0.744110 0.193058 0.493204
O O20 0.500000 0.391745 0.670551
O O21 0.321396 0.500000 0.611397
O O22 0.000000 0.856973 0.528578
O O23 0.814983 0.000000 0.506749
#
# Coordination Sequence:
#
# PCOD8189259 Si02
#       8
#     8   8   8   8   8   8   8   8
#     4   9  18  33  55  85 118 152 194 244 296 348
#     4   9  17  29  46  71 106 147 189 232 278 330
#     4  10  21  37  60  88 117 157 204 247 294 347
#     4  10  20  33  50  75 110 150 189 231 281 340
#     4   9  20  39  60  85 119 155 193 239 291 349
#     4  11  23  38  60  87 113 149 194 239 292 350
#     4   9  18  33  52  78 115 156 196 237 285 341
#     4  11  25  44  64  88 118 152 192 242 300 359
#
# _framework density 20.936515
#
# number of rings (size 3 to 8) (size 9 to 14) (size 15 to 20)
#    0.000    2.250    0.000    2.250    1.750    7.250 
#    0.000    1.875    0.000    3.750    0.000    0.000 
#    0.000    0.000    0.000    0.000    0.000    0.000 
#
# Total GULP energy -396556.418191 kJ/mol
# GULP energy per Si atom -12392.388068 kJ/mol
# Density = 2.088886 g / cm^3
# Si number density = 20.936515 Si / 1000 Ang^3
#
#
#
# Elastic Constant Matrix: (Units=GPa)
#
#
# Indices 1 2 3 4 5 6 
#
# 1 132.2143 40.3686 51.3172 0.0000 0.0000 0.0000
# 2 40.3686 89.5002 27.1018 0.0000 0.0000 0.0000
# 3 51.3172 27.1018 86.2409 0.0000 0.0000 0.0000
# 4 0.0000 0.0000 0.0000 24.3129 0.0000 0.0000
# 5 0.0000 0.0000 0.0000 0.0000 34.0458 0.0000
# 6 0.0000 0.0000 0.0000 0.0000 0.0000 19.9547
#
#
#
# Elastic Compliance Matrix: (Units=1/GPa)
#
#
# Indices 1 2 3 4 5 6 
#
# 1 0.010591 -0.003170 -0.005306 0.000000 0.000000 0.000000
# 2 -0.003170 0.013297 -0.002292 0.000000 0.000000 0.000000
# 3 -0.005306 -0.002292 0.015473 0.000000 0.000000 0.000000
# 4 0.000000 0.000000 0.000000 0.041130 0.000000 0.000000
# 5 0.000000 0.000000 0.000000 0.000000 0.029372 0.000000
# 6 0.000000 0.000000 0.000000 0.000000 0.000000 0.050113
#
#
# Mechanical properties :
#
#
# Convention : Reuss Voigt Hill
#
# Bulk Modulus (GPa) = 56.10290 60.61451 58.35871
# Shear Modulus (GPa) = 26.67307 28.27387 27.47347
#
# Velocity S-wave (km/s) = 3.57318 3.67884 3.62640
# Velocity P-wave (km/s) = 6.62407 6.86000 6.74307
#
# Compressibility (1/GPa) = 0.01782439
#
# Stress axis : x y z
#
# Youngs Moduli (GPa) = 94.42163 75.20359 64.62901
#
# Poissons Ratio (x) = 0.23842 0.34290
# Poissons Ratio (y) = 0.29934 0.14815
# Poissons Ratio (z) = 0.50097 0.17239
#
# Static dielectric constant tensor:
#      x y z
#    x 3.962220 0.000000 0.000000 
#    y 0.000000 3.958030 0.000000 
#    z 0.000000 0.000000 3.440870 
# 
# 
# High freq. dielectric constant tensor:
#      x y z
#    x 1.825760 0.000000 0.000000 
#    y 0.000000 1.823890 0.000000 
#    z 0.000000 0.000000 1.784840 
# 
# From -- ./inp_files/25177.got.cif
#   From: 2010.03.12/outbox.cif.g09.slc.cpg/sg44_13_cif.got.tgz:25177.got - 2010.04.14 02:36:11.
