data_PCOD8189245
_publ_section_title
;
Structure prediction by ZEFSAII (Michael W. Deem and Ramdas Pophale) SiO2 
 PCOD8189245
Probable space group: I M M 2
;
_chemical_formula_sum "Si O2"
_cell_formula_units_Z 64
_cell_length_a 9.335687
_cell_length_b 9.453954
_cell_length_c 41.147574
_cell_angle_alpha 90.000000
_cell_angle_beta 90.000000
_cell_angle_gamma 90.000000
_cell_volume 3631.650130
_symmetry_space_group_name_H-M "I M M 2"
_symmetry_group_IT_number 44
_symmetry_cell_setting 'orthorhombic'
loop_
_space_group_symop_operation_xyz
x,y,z
-x,-y,z
-x,y,z
x,-y,z
1/2+x,1/2+y,1/2+z
1/2-x,1/2-y,1/2+z
1/2-x,1/2+y,1/2+z
1/2+x,1/2-y,1/2+z
loop_
_atom_site_type_symbol
_atom_site_label
_atom_site_fract_x
_atom_site_fract_y
_atom_site_fract_z
Si Si1 0.667136 0.163615 0.767390
Si Si2 0.833137 0.836303 0.329109
Si Si3 0.662092 0.168092 0.017488
Si Si4 0.833334 0.166489 0.080299
Si Si5 0.834183 0.834859 0.955119
Si Si6 0.666339 0.836769 0.392398
Si Si7 0.833060 0.834826 0.633994
Si Si8 0.341979 0.332137 0.206658
O O1 0.500000 0.187814 0.763085
O O2 0.725701 0.248922 0.798391
O O3 0.737681 0.226291 0.734625
O O4 0.706512 0.000000 0.772716
O O5 0.751777 0.782025 0.361049
O O6 0.000000 0.807534 0.334742
O O7 0.800131 0.000000 0.322394
O O8 0.500000 0.227723 0.018743
O O9 0.740510 0.223162 0.985076
O O10 0.661854 0.000000 0.017376
O O11 0.750115 0.223206 0.048546
O O12 0.768793 0.244384 0.111210
O O13 0.000000 0.204466 0.076435
O O14 0.810443 0.000000 0.084979
O O15 0.781665 0.752827 0.923230
O O16 0.000000 0.803144 0.962953
O O17 0.808236 0.000000 0.949017
O O18 0.500000 0.811536 0.385365
O O19 0.700939 0.000000 0.399636
O O20 0.791514 0.787169 0.670637
O O21 0.000000 0.801906 0.627066
O O22 0.801729 0.000000 0.628467
O O23 0.500000 0.270870 0.213553
O O24 0.346307 0.500000 0.207689
#
# Coordination Sequence:
#
# PCOD8189245 Si02
#       8
#     8   8   8   8   8   8   8   8
#     4   9  17  29  46  68  91 116 150 190 228 268
#     4   9  18  32  47  63  88 122 153 182 223 272
#     4   9  17  30  49  71  94 123 158 194 234 279
#     4  10  20  33  50  73 100 130 164 200 239 285
#     4   9  17  30  48  69  92 117 148 188 231 274
#     4   9  18  32  48  66  90 120 151 183 223 272
#     4   9  18  33  52  73  98 128 162 200 242 288
#     4   8  15  29  48  69  93 121 152 188 232 279
#
# _framework density 17.622841999999999
#
# number of rings (size 3 to 8) (size 9 to 14) (size 15 to 20)
#    0.000    3.000    0.000    1.500    0.000    4.500 
#    0.000    2.500    0.000    4.500    0.000    0.000 
#    0.000    0.000    0.000    0.000    0.000    0.000 
#
# Total GULP energy -396768.464703 kJ/mol
# GULP energy per Si atom -12399.014522 kJ/mol
# Density = 1.758273 g / cm^3
# Si number density = 17.622842 Si / 1000 Ang^3
#
#
#
# Elastic Constant Matrix: (Units=GPa)
#
#
# Indices 1 2 3 4 5 6 
#
# 1 94.6810 37.0140 90.0838 0.0000 0.0000 0.0000
# 2 37.0140 38.4246 54.7197 0.0000 0.0000 0.0000
# 3 90.0838 54.7197 188.8830 0.0000 0.0000 0.0000
# 4 0.0000 0.0000 0.0000 30.5031 0.0000 0.0000
# 5 0.0000 0.0000 0.0000 0.0000 40.7633 0.0000
# 6 0.0000 0.0000 0.0000 0.0000 0.0000 20.2223
#
#
#
# Elastic Compliance Matrix: (Units=1/GPa)
#
#
# Indices 1 2 3 4 5 6 
#
# 1 0.021534 -0.010415 -0.007253 0.000000 0.000000 0.000000
# 2 -0.010415 0.049339 -0.009327 0.000000 0.000000 0.000000
# 3 -0.007253 -0.009327 0.011455 0.000000 0.000000 0.000000
# 4 0.000000 0.000000 0.000000 0.032784 0.000000 0.000000
# 5 0.000000 0.000000 0.000000 0.000000 0.024532 0.000000
# 6 0.000000 0.000000 0.000000 0.000000 0.000000 0.049450
#
#
# Mechanical properties :
#
#
# Convention : Reuss Voigt Hill
#
# Bulk Modulus (GPa) = 35.28572 76.18039 55.73305
# Shear Modulus (GPa) = 19.79962 27.64247 23.72105
#
# Velocity S-wave (km/s) = 3.35553 3.96480 3.67282
# Velocity P-wave (km/s) = 5.92275 8.01758 7.04842
#
# Compressibility (1/GPa) = 0.02834008
#
# Stress axis : x y z
#
# Youngs Moduli (GPa) = 46.43781 20.26787 87.29473
#
# Poissons Ratio (x) = 0.21108 0.63316
# Poissons Ratio (y) = 0.48363 0.81416
# Poissons Ratio (z) = 0.33682 0.18903
#
# Static dielectric constant tensor:
#      x y z
#    x 3.337010 0.000000 0.000000 
#    y 0.000000 2.981110 0.000000 
#    z 0.000000 0.000000 3.519360 
# 
# 
# High freq. dielectric constant tensor:
#      x y z
#    x 1.680630 0.000000 0.000000 
#    y 0.000000 1.647760 0.000000 
#    z 0.000000 0.000000 1.694420 
# 
# From -- ./inp_files/27202.got.cif
#   From: 2010.03.12/outbox.cif.g09.slc.cpg/sg44_14_cif.got.tgz:27202.got - 2010.04.14 02:36:11.
