data_PCOD8189776
_publ_section_title
;
Structure prediction by ZEFSAII (Michael W. Deem and Ramdas Pophale) SiO2 
 PCOD8189776
Probable space group: I M M 2
;
_chemical_formula_sum "Si O2"
_cell_formula_units_Z 64
_cell_length_a 12.843576
_cell_length_b 15.579805
_cell_length_c 15.981293
_cell_angle_alpha 90.000000
_cell_angle_beta 90.000000
_cell_angle_gamma 90.000000
_cell_volume 3197.863275
_symmetry_space_group_name_H-M "I M M 2"
_symmetry_group_IT_number 44
_symmetry_cell_setting 'orthorhombic'
loop_
_space_group_symop_operation_xyz
x,y,z
-x,-y,z
-x,y,z
x,-y,z
1/2+x,1/2+y,1/2+z
1/2-x,1/2-y,1/2+z
1/2-x,1/2+y,1/2+z
1/2+x,1/2-y,1/2+z
loop_
_atom_site_type_symbol
_atom_site_label
_atom_site_fract_x
_atom_site_fract_y
_atom_site_fract_z
Si Si1 0.385161 0.406046 0.524740
Si Si2 0.241141 0.399162 0.677504
Si Si3 0.616295 0.098630 0.589523
Si Si4 0.688904 0.599502 0.194236
Si Si5 0.384068 0.399326 0.831311
Si Si6 0.751052 0.692538 0.954375
Si Si7 0.382408 0.759020 0.094446
Si Si8 0.881483 0.807896 0.854357
O O1 0.500000 0.405482 0.564653
O O2 0.355495 0.500000 0.491069
O O3 0.309757 0.377674 0.597405
O O4 0.379919 0.343902 0.447316
O O5 0.206135 0.500000 0.681872
O O6 0.307475 0.370020 0.757152
O O7 0.145612 0.332483 0.664014
O O8 0.500000 0.133088 0.610251
O O9 0.688988 0.111533 0.671330
O O10 0.660814 0.147314 0.509375
O O11 0.612038 0.000000 0.563461
O O12 0.654160 0.500000 0.180420
O O13 0.623895 0.663775 0.135258
O O14 0.669637 0.625052 0.290269
O O15 0.500000 0.358686 0.820694
O O16 0.394855 0.500000 0.829301
O O17 0.336181 0.372983 0.920815
O O18 0.806400 0.726667 0.868769
O O19 0.690836 0.762898 0.011863
O O20 0.500000 0.776327 0.066051
O O21 0.000000 0.784827 0.826443
#
# Coordination Sequence:
#
# PCOD8189776 Si02
#       8
#     8   8   8   8   8   8   8   8
#     4   9  17  31  54  82 110 143 184 232 285 339
#     4  10  20  38  60  83 114 151 192 242 294 348
#     4   9  19  38  62  84 111 150 195 241 287 339
#     4  10  22  39  60  86 117 151 192 242 293 341
#     4  10  21  37  59  86 115 148 190 243 301 353
#     4  11  21  37  55  85 118 153 189 239 287 347
#     4  11  23  39  58  82 115 155 199 241 286 348
#     4  11  21  34  55  84 118 150 187 236 288 345
#
# _framework density 20.013362999999998
#
# number of rings (size 3 to 8) (size 9 to 14) (size 15 to 20)
#    0.000    1.875    1.250    3.000    0.000    3.750 
#    0.000    5.000    0.000    1.500    0.000    0.000 
#    0.000    0.000    0.000    0.000    0.000    0.000 
#
# Total GULP energy -396571.236156 kJ/mol
# GULP energy per Si atom -12392.851130 kJ/mol
# Density = 1.996781 g / cm^3
# Si number density = 20.013363 Si / 1000 Ang^3
#
#
#
# Elastic Constant Matrix: (Units=GPa)
#
#
# Indices 1 2 3 4 5 6 
#
# 1 135.0933 46.4784 41.1614 0.0000 0.0000 0.0000
# 2 46.4784 66.8786 32.5133 0.0000 0.0000 0.0000
# 3 41.1614 32.5133 65.2605 0.0000 0.0000 0.0000
# 4 0.0000 0.0000 0.0000 34.0508 0.0000 0.0000
# 5 0.0000 0.0000 0.0000 0.0000 -9.0830 0.0000
# 6 0.0000 0.0000 0.0000 0.0000 0.0000 25.1401
#
#
#
# Elastic Compliance Matrix: (Units=1/GPa)
#
#
# Indices 1 2 3 4 5 6 
#
# 1 0.010436 -0.005348 -0.003918 0.000000 0.000000 0.000000
# 2 -0.005348 0.022472 -0.007823 0.000000 0.000000 0.000000
# 3 -0.003918 -0.007823 0.021692 0.000000 0.000000 0.000000
# 4 0.000000 0.000000 0.000000 0.029368 0.000000 0.000000
# 5 0.000000 0.000000 0.000000 0.000000 -0.110095 0.000000
# 6 0.000000 0.000000 0.000000 0.000000 0.000000 0.039777
#
#
# Mechanical properties :
#
#
# Convention : Reuss Voigt Hill
#
# Bulk Modulus (GPa) = 48.96507 56.39318 52.67913
# Shear Modulus (GPa) = 91.51792 19.82685 55.67238
#
# Velocity S-wave (km/s) = 6.76961 3.15092 5.27996
# Velocity P-wave (km/s) = 9.25326 6.44024 7.97181
#
# Compressibility (1/GPa) = 0.02042272
#
# Stress axis : x y z
#
# Youngs Moduli (GPa) = 95.82260 44.49943 46.10077
#
# Poissons Ratio (x) = 0.23798 0.18061
# Poissons Ratio (y) = 0.51246 0.36063
# Poissons Ratio (z) = 0.37541 0.34811
#
# Static dielectric constant tensor:
#      x y z
#    x 4.180100 0.000000 0.000000 
#    y 0.000000 3.727020 0.000000 
#    z 0.000000 0.000000 3.661200 
# 
# 
# High freq. dielectric constant tensor:
#      x y z
#    x 1.782090 0.000000 0.000000 
#    y 0.000000 1.777180 0.000000 
#    z 0.000000 0.000000 1.778200 
# 
# From -- ./inp_files/17938.got.cif
#   From: 2010.03.12/outbox.cif.g09.slc.cpg/sg44_9_cif.got.tgz:17938.got - 2010.04.14 02:36:11.
