data_PCOD8189370
_publ_section_title
;
Structure prediction by ZEFSAII (Michael W. Deem and Ramdas Pophale) SiO2 
 PCOD8189370
Probable space group: I M M 2
;
_chemical_formula_sum "Si O2"
_cell_formula_units_Z 64
_cell_length_a 32.625191
_cell_length_b 8.979119
_cell_length_c 11.724266
_cell_angle_alpha 90.000000
_cell_angle_beta 90.000000
_cell_angle_gamma 90.000000
_cell_volume 3434.570642
_symmetry_space_group_name_H-M "I M M 2"
_symmetry_group_IT_number 44
_symmetry_cell_setting 'orthorhombic'
loop_
_space_group_symop_operation_xyz
x,y,z
-x,-y,z
-x,y,z
x,-y,z
1/2+x,1/2+y,1/2+z
1/2-x,1/2-y,1/2+z
1/2-x,1/2+y,1/2+z
1/2+x,1/2-y,1/2+z
loop_
_atom_site_type_symbol
_atom_site_label
_atom_site_fract_x
_atom_site_fract_y
_atom_site_fract_z
Si Si1 0.047880 0.835754 0.887560
Si Si2 0.142189 0.825132 0.518654
Si Si3 0.692945 0.676869 0.584184
Si Si4 0.817022 0.668938 0.853674
Si Si5 0.276506 0.323910 0.153033
Si Si6 0.125590 0.176875 0.266088
Si Si7 0.399732 0.833900 0.213250
Si Si8 0.545605 0.677700 0.640999
O O1 0.063938 0.731595 0.787931
O O2 0.000000 0.850145 0.869925
O O3 0.068261 0.000000 0.876983
O O4 0.056972 0.767296 0.013092
O O5 0.187077 0.781984 0.565340
O O6 0.136522 0.760126 0.391138
O O7 0.106564 0.757660 0.597280
O O8 0.135784 0.000000 0.518932
O O9 0.699671 0.500000 0.586184
O O10 0.675318 0.729174 0.463435
O O11 0.735403 0.761887 0.598996
O O12 0.660951 0.730505 0.680084
O O13 0.803433 0.500000 0.885171
O O14 0.782349 0.743575 0.774607
O O15 0.859068 0.669538 0.787087
O O16 0.273903 0.500000 0.172764
O O17 0.080830 0.237990 0.226453
O O18 0.124322 0.000000 0.267039
O O19 0.411915 0.000000 0.177950
O O20 0.500000 0.736053 0.677331
O O21 0.544743 0.500000 0.638846
#
# Coordination Sequence:
#
# PCOD8189370 Si02
#       8
#     8   8   8   8   8   8   8   8
#     4   9  17  30  52  81 109 138 173 217 268 324
#     4   9  19  36  55  73 102 143 180 216 265 326
#     4  11  22  34  54  81 108 139 177 224 275 329
#     4  10  21  37  54  74 103 137 178 223 268 324
#     4  10  21  36  54  76 103 140 181 224 275 324
#     4   9  18  32  51  77 106 141 179 219 269 323
#     4  10  20  34  53  76 103 138 176 220 269 314
#     4   8  14  27  50  80 110 136 169 217 267 314
#
# _framework density 18.634060999999999
#
# number of rings (size 3 to 8) (size 9 to 14) (size 15 to 20)
#    0.000    2.500    0.000    3.000    1.750    3.250 
#    0.000    1.875    0.000    3.000    0.000    0.000 
#    0.000    0.000    0.000    0.000    0.000    0.000 
#
# Total GULP energy -396753.238439 kJ/mol
# GULP energy per Si atom -12398.538701 kJ/mol
# Density = 1.859165 g / cm^3
# Si number density = 18.634061 Si / 1000 Ang^3
#
#
#
# Elastic Constant Matrix: (Units=GPa)
#
#
# Indices 1 2 3 4 5 6 
#
# 1 80.6125 29.7527 55.7963 0.0000 0.0000 0.0000
# 2 29.7527 44.2910 31.4478 0.0000 0.0000 0.0000
# 3 55.7963 31.4478 139.4268 0.0000 0.0000 0.0000
# 4 0.0000 0.0000 0.0000 19.6698 0.0000 0.0000
# 5 0.0000 0.0000 0.0000 0.0000 20.2879 0.0000
# 6 0.0000 0.0000 0.0000 0.0000 0.0000 21.6309
#
#
#
# Elastic Compliance Matrix: (Units=1/GPa)
#
#
# Indices 1 2 3 4 5 6 
#
# 1 0.019857 -0.009164 -0.005879 0.000000 0.000000 0.000000
# 2 -0.009164 0.031113 -0.003350 0.000000 0.000000 0.000000
# 3 -0.005879 -0.003350 0.010281 0.000000 0.000000 0.000000
# 4 0.000000 0.000000 0.000000 0.050839 0.000000 0.000000
# 5 0.000000 0.000000 0.000000 0.000000 0.049291 0.000000
# 6 0.000000 0.000000 0.000000 0.000000 0.000000 0.046230
#
#
# Mechanical properties :
#
#
# Convention : Reuss Voigt Hill
#
# Bulk Modulus (GPa) = 40.87862 55.36932 48.12397
# Shear Modulus (GPa) = 19.79788 22.13996 20.96892
#
# Velocity S-wave (km/s) = 3.26307 3.45069 3.35819
# Velocity P-wave (km/s) = 6.01515 6.75684 6.39675
#
# Compressibility (1/GPa) = 0.02446266
#
# Stress axis : x y z
#
# Youngs Moduli (GPa) = 50.36041 32.14105 97.27007
#
# Poissons Ratio (x) = 0.29455 0.57188
# Poissons Ratio (y) = 0.46152 0.32586
# Poissons Ratio (z) = 0.29609 0.10767
#
# Static dielectric constant tensor:
#      x y z
#    x 3.432160 0.000000 0.000000 
#    y 0.000000 3.366270 0.000000 
#    z 0.000000 0.000000 3.665120 
# 
# 
# High freq. dielectric constant tensor:
#      x y z
#    x 1.720320 0.000000 0.000000 
#    y 0.000000 1.701360 0.000000 
#    z 0.000000 0.000000 1.725110 
# 
# From -- ./inp_files/15083.got.cif
#   From: 2010.03.12/outbox.cif.g09.slc.cpg/sg44_8_cif.got.tgz:15083.got - 2010.04.14 02:36:11.
