data_PCOD8189498
_publ_section_title
;
Structure prediction by ZEFSAII (Michael W. Deem and Ramdas Pophale) SiO2 
 PCOD8189498
Probable space group: I M M 2
;
_chemical_formula_sum "Si O2"
_cell_formula_units_Z 48
_cell_length_a 9.643580
_cell_length_b 28.006843
_cell_length_c 10.223242
_cell_angle_alpha 90.000000
_cell_angle_beta 90.000000
_cell_angle_gamma 90.000000
_cell_volume 2761.156901
_symmetry_space_group_name_H-M "I M M 2"
_symmetry_group_IT_number 44
_symmetry_cell_setting 'orthorhombic'
loop_
_space_group_symop_operation_xyz
x,y,z
-x,-y,z
-x,y,z
x,-y,z
1/2+x,1/2+y,1/2+z
1/2-x,1/2-y,1/2+z
1/2-x,1/2+y,1/2+z
1/2+x,1/2-y,1/2+z
loop_
_atom_site_type_symbol
_atom_site_label
_atom_site_fract_x
_atom_site_fract_y
_atom_site_fract_z
Si Si1 0.840054 0.302081 0.145150
Si Si2 0.340497 0.149371 0.373565
Si Si3 0.161061 0.850303 0.867613
Si Si4 0.839748 0.809174 0.142526
Si Si5 0.841251 0.946983 0.742423
Si Si6 0.658569 0.946963 0.492648
O O1 0.746837 0.320507 0.262896
O O2 0.811328 0.246484 0.123988
O O3 0.000000 0.312336 0.179843
O O4 0.796650 0.328372 0.012210
O O5 0.500000 0.161476 0.341748
O O6 0.246701 0.171127 0.262407
O O7 0.314432 0.092143 0.379936
O O8 0.187685 0.907194 0.852753
O O9 0.000000 0.837077 0.847389
O O10 0.210778 0.835950 0.011835
O O11 0.000000 0.819900 0.171403
O O12 0.750221 0.934402 0.617359
O O13 0.000000 0.944819 0.695948
O O14 0.805076 0.000000 0.797735
O O15 0.500000 0.943636 0.540428
O O16 0.693060 0.000000 0.437643
#
# Coordination Sequence:
#
# PCOD8189498 Si02
#       6
#     8   8   8   8   8   8
#     4  10  20  35  54  76 101 132 175 218 253 298
#     4  10  20  35  54  77 105 135 169 211 256 304
#     4  10  20  35  54  76 104 136 170 211 257 305
#     4  10  22  36  50  73 107 140 170 209 255 304
#     4   9  17  30  51  78 103 129 166 211 255 301
#     4   9  17  31  53  78 102 130 166 210 256 300
#
# _framework density 17.384018000000001
#
# number of rings (size 3 to 8) (size 9 to 14) (size 15 to 20)
#    0.000    2.333    1.667    1.000    0.000    4.000 
#    0.000    0.833    0.000    1.000    0.000    0.000 
#    0.000    0.000    0.000    0.000    0.000    0.000 
#
# Total GULP energy -297589.001428 kJ/mol
# GULP energy per Si atom -12399.541726 kJ/mol
# Density = 1.734445 g / cm^3
# Si number density = 17.384018 Si / 1000 Ang^3
#
#
#
# Elastic Constant Matrix: (Units=GPa)
#
#
# Indices 1 2 3 4 5 6 
#
# 1 58.7619 39.1244 49.7860 0.0071 -0.0006 0.0000
# 2 39.1244 102.4618 43.8912 0.0145 -0.0025 -0.0004
# 3 49.7860 43.8912 91.3940 -0.0189 0.0032 0.0005
# 4 0.0071 0.0145 -0.0189 -2.8033 -0.0022 0.0007
# 5 -0.0006 -0.0025 0.0032 -0.0022 30.4087 0.0000
# 6 0.0000 -0.0004 0.0005 0.0007 0.0000 26.5558
#
#
#
# Elastic Compliance Matrix: (Units=1/GPa)
#
#
# Indices 1 2 3 4 5 6 
#
# 1 0.034726 -0.006492 -0.015799 0.000160 0.000002 0.000000
# 2 -0.006492 0.013501 -0.002947 0.000074 0.000001 0.000000
# 3 -0.015799 -0.002947 0.020963 -0.000196 -0.000003 0.000000
# 4 0.000160 0.000074 -0.000196 -0.356723 -0.000026 0.000009
# 5 0.000002 0.000001 -0.000003 -0.000026 0.032885 0.000000
# 6 0.000000 0.000000 0.000000 0.000009 0.000000 0.037657
#
#
# Mechanical properties :
#
#
# Convention : Reuss Voigt Hill
#
# Bulk Modulus (GPa) = 53.43624 57.58009 55.50817
# Shear Modulus (GPa) = -31.19621 18.81997 -6.18812
#
# Velocity S-wave (km/s) = -4.24079 3.29386 -1.88875
# Velocity P-wave (km/s) = 2.61273 6.90365 5.21952
#
# Compressibility (1/GPa) = 0.01871389
#
# Stress axis : x y z
#
# Youngs Moduli (GPa) = 28.79696 74.06712 47.70267
#
# Poissons Ratio (x) = 0.48086 0.75364
# Poissons Ratio (y) = 0.18696 0.14059
# Poissons Ratio (z) = 0.45495 0.21830
#
# Static dielectric constant tensor:
#      x y z
#    x 3.269330 0.000010 0.000000 
#    y 0.000010 3.759240 0.000020 
#    z 0.000000 0.000020 3.023710 
# 
# 
# High freq. dielectric constant tensor:
#      x y z
#    x 1.672420 0.000000 0.000000 
#    y 0.000000 1.693820 0.000000 
#    z 0.000000 0.000000 1.645490 
# 
# From -- ./inp_files/4881.got.cif
#   From: 2010.03.12/outbox.cif.g09.slc.cpg/sg44_3_cif.got.tgz:4881.got - 2010.04.14 02:36:11.
