data_PCOD8189408
_publ_section_title
;
Structure prediction by ZEFSAII (Michael W. Deem and Ramdas Pophale) SiO2 
 PCOD8189408
Probable space group: I M M 2
;
_chemical_formula_sum "Si O2"
_cell_formula_units_Z 48
_cell_length_a 9.156596
_cell_length_b 8.604879
_cell_length_c 30.818362
_cell_angle_alpha 90.000000
_cell_angle_beta 90.000000
_cell_angle_gamma 90.000000
_cell_volume 2428.221907
_symmetry_space_group_name_H-M "I M M 2"
_symmetry_group_IT_number 44
_symmetry_cell_setting 'orthorhombic'
loop_
_space_group_symop_operation_xyz
x,y,z
-x,-y,z
-x,y,z
x,-y,z
1/2+x,1/2+y,1/2+z
1/2-x,1/2-y,1/2+z
1/2-x,1/2+y,1/2+z
1/2+x,1/2-y,1/2+z
loop_
_atom_site_type_symbol
_atom_site_label
_atom_site_fract_x
_atom_site_fract_y
_atom_site_fract_z
Si Si1 0.163429 0.316411 0.185150
Si Si2 0.328904 0.819830 0.946817
Si Si3 0.667885 0.819080 0.105084
Si Si4 0.161628 0.684481 0.349782
Si Si5 0.336312 0.685587 0.268104
Si Si6 0.330801 0.180185 0.525425
O O1 0.154772 0.500000 0.188693
O O2 0.252915 0.274934 0.142617
O O3 0.243046 0.248577 0.227777
O O4 0.000000 0.246078 0.182395
O O5 0.500000 0.790419 0.955144
O O6 0.285543 0.768508 0.897933
O O7 0.290992 0.000000 0.954929
O O8 0.232731 0.713274 0.977952
O O9 0.500000 0.765540 0.102748
O O10 0.743195 0.783848 0.059473
O O11 0.681252 0.000000 0.115311
O O12 0.154142 0.500000 0.347023
O O13 0.269927 0.750844 0.313131
O O14 0.000000 0.752289 0.340911
O O15 0.500000 0.750299 0.263655
O O16 0.335499 0.500000 0.268045
O O17 0.500000 0.227815 0.526805
O O18 0.309972 0.000000 0.536982
#
# Coordination Sequence:
#
# PCOD8189408 Si02
#       6
#     8   8   8   8   8   8
#     4  10  20  34  54  80 109 141 177 216 259 308
#     4   9  18  33  54  80 108 139 177 219 263 311
#     4  11  24  40  58  80 105 134 171 215 263 315
#     4   8  14  26  45  71 104 138 172 214 261 307
#     4   9  16  26  44  73 107 141 177 216 258 304
#     4  11  24  39  55  78 107 138 174 215 260 312
#
# _framework density 19.76755
#
# number of rings (size 3 to 8) (size 9 to 14) (size 15 to 20)
#    0.000    2.333    0.000    4.000    0.000   10.667 
#    0.000    1.667    0.000    1.000    0.000    4.667 
#    0.000    0.000    0.000    0.000    0.000    0.000 
#
# Total GULP energy -297615.255316 kJ/mol
# GULP energy per Si atom -12400.635638 kJ/mol
# Density = 1.972256 g / cm^3
# Si number density = 19.767550 Si / 1000 Ang^3
#
#
#
# Elastic Constant Matrix: (Units=GPa)
#
#
# Indices 1 2 3 4 5 6 
#
# 1 151.7500 19.3949 77.3784 0.0000 0.0000 0.0000
# 2 19.3949 17.0844 6.6213 0.0000 0.0000 0.0000
# 3 77.3784 6.6213 144.4880 0.0000 0.0000 0.0000
# 4 0.0000 0.0000 0.0000 22.0685 0.0000 0.0000
# 5 0.0000 0.0000 0.0000 0.0000 42.1953 0.0000
# 6 0.0000 0.0000 0.0000 0.0000 0.0000 20.2064
#
#
#
# Elastic Compliance Matrix: (Units=1/GPa)
#
#
# Indices 1 2 3 4 5 6 
#
# 1 0.010489 -0.009906 -0.005163 0.000000 0.000000 0.000000
# 2 -0.009906 0.068947 0.002145 0.000000 0.000000 0.000000
# 3 -0.005163 0.002145 0.009588 0.000000 0.000000 0.000000
# 4 0.000000 0.000000 0.000000 0.045313 0.000000 0.000000
# 5 0.000000 0.000000 0.000000 0.000000 0.023699 0.000000
# 6 0.000000 0.000000 0.000000 0.000000 0.000000 0.049489
#
#
# Mechanical properties :
#
#
# Convention : Reuss Voigt Hill
#
# Bulk Modulus (GPa) = 15.82875 57.79017 36.80946
# Shear Modulus (GPa) = 19.65168 30.88923 25.27046
#
# Velocity S-wave (km/s) = 3.15642 3.95729 3.57932
# Velocity P-wave (km/s) = 4.61614 7.08368 5.97860
#
# Compressibility (1/GPa) = 0.06317619
#
# Stress axis : x y z
#
# Youngs Moduli (GPa) = 95.34240 14.50387 104.30082
#
# Poissons Ratio (x) = 0.14368 0.53851
# Poissons Ratio (y) = 0.94446 -0.22377
# Poissons Ratio (z) = 0.49225 -0.03112
#
# Static dielectric constant tensor:
#      x y z
#    x 3.830010 0.000000 0.000000 
#    y 0.000000 3.108690 0.000000 
#    z 0.000000 0.000000 3.781660 
# 
# 
# High freq. dielectric constant tensor:
#      x y z
#    x 1.779700 0.000000 0.000000 
#    y 0.000000 1.725020 0.000000 
#    z 0.000000 0.000000 1.787670 
# 
# From -- ./inp_files/26855.got.cif
#   From: 2010.03.12/outbox.cif.g09.slc.cpg/sg44_14_cif.got.tgz:26855.got - 2010.04.14 02:36:11.
