data_PCOD8189933
_publ_section_title
;
Structure prediction by ZEFSAII (Michael W. Deem and Ramdas Pophale) SiO2 
 PCOD8189933
Probable space group: I M M 2
;
_chemical_formula_sum "Si O2"
_cell_formula_units_Z 64
_cell_length_a 25.592097
_cell_length_b 13.370990
_cell_length_c 9.010658
_cell_angle_alpha 90.000000
_cell_angle_beta 90.000000
_cell_angle_gamma 90.000000
_cell_volume 3083.372136
_symmetry_space_group_name_H-M "I M M 2"
_symmetry_group_IT_number 44
_symmetry_cell_setting 'orthorhombic'
loop_
_space_group_symop_operation_xyz
x,y,z
-x,-y,z
-x,y,z
x,-y,z
1/2+x,1/2+y,1/2+z
1/2-x,1/2-y,1/2+z
1/2-x,1/2+y,1/2+z
1/2+x,1/2-y,1/2+z
loop_
_atom_site_type_symbol
_atom_site_label
_atom_site_fract_x
_atom_site_fract_y
_atom_site_fract_z
Si Si1 0.440066 0.234324 0.423060
Si Si2 0.144207 0.694243 0.426506
Si Si3 0.370215 0.882347 0.606776
Si Si4 0.253355 0.118911 0.083448
Si Si5 0.224119 0.615605 0.908714
Si Si6 0.328748 0.386327 0.069940
Si Si7 0.348973 0.383877 0.413192
Si Si8 0.058877 0.612447 0.631039
O O1 0.500000 0.267573 0.441704
O O2 0.427160 0.148409 0.544942
O O3 0.403033 0.329192 0.452859
O O4 0.429049 0.190512 0.260499
O O5 0.142609 0.681817 0.251243
O O6 0.199874 0.656606 0.482212
O O7 0.135859 0.810765 0.472475
O O8 0.097641 0.629163 0.494950
O O9 0.330393 0.845790 0.476678
O O10 0.366193 0.000000 0.641747
O O11 0.261274 0.164533 0.249411
O O12 0.252702 0.000000 0.081965
O O13 0.198855 0.158328 0.013540
O O14 0.217298 0.500000 0.875176
O O15 0.268513 0.635528 0.030398
O O16 0.344877 0.500000 0.027996
O O17 0.334567 0.365217 0.242721
O O18 0.358457 0.500000 0.446282
O O19 0.067063 0.500000 0.692959
O O20 0.000000 0.626498 0.571485
#
# Coordination Sequence:
#
# PCOD8189933 Si02
#       8
#     8   8   8   8   8   8   8   8
#     4  11  24  42  64  91 120 163 216 263 326 383
#     4  12  23  37  65  94 127 171 212 255 308 376
#     4  11  24  40  61  92 131 169 209 256 312 380
#     4  10  21  36  62  97 130 165 208 257 312 380
#     4   9  20  37  58  90 130 169 204 244 305 377
#     4  10  22  39  59  90 129 168 205 255 311 364
#     4  10  22  42  65  93 128 165 212 265 315 371
#     4  10  21  40  65  92 125 162 208 264 317 377
#
# _framework density 20.756495000000001
#
# number of rings (size 3 to 8) (size 9 to 14) (size 15 to 20)
#    0.000    1.625    1.250    3.000    3.500    4.500 
#    0.000    0.000    0.000    0.375    0.000    0.000 
#    0.000    0.000    0.000    0.000    0.000    0.000 
#
# Total GULP energy -396832.381779 kJ/mol
# GULP energy per Si atom -12401.011931 kJ/mol
# Density = 2.070925 g / cm^3
# Si number density = 20.756495 Si / 1000 Ang^3
#
#
#
# Elastic Constant Matrix: (Units=GPa)
#
#
# Indices 1 2 3 4 5 6 
#
# 1 139.6948 57.1920 65.3388 0.0000 0.0000 0.0000
# 2 57.1920 54.7484 28.6174 0.0000 0.0000 0.0000
# 3 65.3388 28.6174 128.4040 0.0000 0.0000 0.0000
# 4 0.0000 0.0000 0.0000 29.7402 0.0000 0.0000
# 5 0.0000 0.0000 0.0000 0.0000 18.3368 0.0000
# 6 0.0000 0.0000 0.0000 0.0000 0.0000 33.4961
#
#
#
# Elastic Compliance Matrix: (Units=1/GPa)
#
#
# Indices 1 2 3 4 5 6 
#
# 1 0.014519 -0.012796 -0.004536 0.000000 0.000000 0.000000
# 2 -0.012796 0.031951 -0.000610 0.000000 0.000000 0.000000
# 3 -0.004536 -0.000610 0.010232 0.000000 0.000000 0.000000
# 4 0.000000 0.000000 0.000000 0.033624 0.000000 0.000000
# 5 0.000000 0.000000 0.000000 0.000000 0.054535 0.000000
# 6 0.000000 0.000000 0.000000 0.000000 0.000000 0.029854
#
#
# Mechanical properties :
#
#
# Convention : Reuss Voigt Hill
#
# Bulk Modulus (GPa) = 48.03416 69.46042 58.74729
# Shear Modulus (GPa) = 22.98444 27.76123 25.37284
#
# Velocity S-wave (km/s) = 3.33128 3.66111 3.50008
# Velocity P-wave (km/s) = 6.16348 7.16999 6.68570
#
# Compressibility (1/GPa) = 0.02081852
#
# Stress axis : x y z
#
# Youngs Moduli (GPa) = 68.87615 31.29793 97.73206
#
# Poissons Ratio (x) = 0.40048 0.44333
# Poissons Ratio (y) = 0.88132 0.05959
# Poissons Ratio (z) = 0.31243 0.01908
#
# Static dielectric constant tensor:
#      x y z
#    x 3.703200 0.000000 0.000000 
#    y 0.000000 3.926470 0.000000 
#    z 0.000000 0.000000 3.836590 
# 
# 
# High freq. dielectric constant tensor:
#      x y z
#    x 1.798170 0.000000 0.000000 
#    y 0.000000 1.824550 0.000000 
#    z 0.000000 0.000000 1.812150 
# 
# From -- ./inp_files/9478.got.cif
#   From: 2010.03.12/outbox.cif.g09.slc.cpg/sg44_5_cif.got.tgz:9478.got - 2010.04.14 02:36:11.
