data_PCOD8189212
_publ_section_title
;
Structure prediction by ZEFSAII (Michael W. Deem and Ramdas Pophale) SiO2 
 PCOD8189212
Probable space group: I M M 2
;
_chemical_formula_sum "Si O2"
_cell_formula_units_Z 64
_cell_length_a 18.557052
_cell_length_b 9.161631
_cell_length_c 20.820782
_cell_angle_alpha 90.000000
_cell_angle_beta 90.000000
_cell_angle_gamma 90.000000
_cell_volume 3539.800755
_symmetry_space_group_name_H-M "I M M 2"
_symmetry_group_IT_number 44
_symmetry_cell_setting 'orthorhombic'
loop_
_space_group_symop_operation_xyz
x,y,z
-x,-y,z
-x,y,z
x,-y,z
1/2+x,1/2+y,1/2+z
1/2-x,1/2-y,1/2+z
1/2-x,1/2+y,1/2+z
1/2+x,1/2-y,1/2+z
loop_
_atom_site_type_symbol
_atom_site_label
_atom_site_fract_x
_atom_site_fract_y
_atom_site_fract_z
Si Si1 0.584268 0.671392 0.807500
Si Si2 0.164941 0.672913 0.192442
Si Si3 0.083925 0.170782 0.561338
Si Si4 0.914491 0.335298 0.434668
Si Si5 0.580576 0.674421 0.303648
Si Si6 0.417858 0.170864 0.566000
Si Si7 0.914090 0.162210 0.943452
Si Si8 0.829714 0.827067 0.684939
O O1 0.500000 0.703888 0.796302
O O2 0.599665 0.500000 0.811386
O O3 0.628600 0.741818 0.750173
O O4 0.612575 0.744971 0.873084
O O5 0.156731 0.500000 0.204188
O O6 0.126763 0.723826 0.127166
O O7 0.247304 0.723131 0.185877
O O8 0.112966 0.256526 0.499128
O O9 0.129851 0.230739 0.621473
O O10 0.000000 0.202336 0.575266
O O11 0.096911 0.000000 0.548991
O O12 0.883610 0.500000 0.431598
O O13 0.000000 0.336897 0.435175
O O14 0.500000 0.734415 0.291211
O O15 0.579064 0.500000 0.303057
O O16 0.610166 0.725362 0.373764
O O17 0.631968 0.738480 0.248291
O O18 0.500000 0.221942 0.576435
O O19 0.384046 0.239936 0.501502
O O20 0.412181 0.000000 0.556890
O O21 0.000000 0.159693 0.943771
O O22 0.883091 0.000000 0.953690
O O23 0.836146 0.000000 0.686011
#
# Coordination Sequence:
#
# PCOD8189212 Si02
#       8
#     8   8   8   8   8   8   8   8
#     4  10  20  34  53  75  96 121 158 203 247 292
#     4  10  20  33  48  68  97 130 161 195 238 288
#     4   9  16  28  49  75 100 128 165 206 243 281
#     4   9  17  30  50  75 100 125 156 198 247 295
#     4   8  13  24  45  72  97 120 152 195 237 275
#     4   9  17  29  45  64  87 117 151 185 225 276
#     4   8  14  25  44  69  91 111 143 190 234 268
#     4   9  17  29  46  69  98 131 164 197 235 282
#
# _framework density 18.080113999999998
#
# number of rings (size 3 to 8) (size 9 to 14) (size 15 to 20)
#    0.000    3.000    0.000    2.250    0.000    4.750 
#    0.000    3.125    0.000    4.500    0.000    3.500 
#    0.000    0.000    0.000    0.000    0.000    0.000 
#
# Total GULP energy -396699.053348 kJ/mol
# GULP energy per Si atom -12396.845417 kJ/mol
# Density = 1.803896 g / cm^3
# Si number density = 18.080114 Si / 1000 Ang^3
#
#
#
# Elastic Constant Matrix: (Units=GPa)
#
#
# Indices 1 2 3 4 5 6 
#
# 1 79.9586 33.4714 78.8506 0.0000 0.0000 0.0000
# 2 33.4714 57.6463 63.5280 0.0000 0.0000 0.0000
# 3 78.8506 63.5280 213.6015 0.0000 0.0000 0.0000
# 4 0.0000 0.0000 0.0000 24.8535 0.0000 0.0000
# 5 0.0000 0.0000 0.0000 0.0000 -10.2213 0.0000
# 6 0.0000 0.0000 0.0000 0.0000 0.0000 12.7376
#
#
#
# Elastic Compliance Matrix: (Units=1/GPa)
#
#
# Indices 1 2 3 4 5 6 
#
# 1 0.020721 -0.005358 -0.006056 0.000000 0.000000 0.000000
# 2 -0.005358 0.027190 -0.006109 0.000000 0.000000 0.000000
# 3 -0.006056 -0.006109 0.008734 0.000000 0.000000 0.000000
# 4 0.000000 0.000000 0.000000 0.040236 0.000000 0.000000
# 5 0.000000 0.000000 0.000000 0.000000 -0.097835 0.000000
# 6 0.000000 0.000000 0.000000 0.000000 0.000000 0.078508
#
#
# Mechanical properties :
#
#
# Convention : Reuss Voigt Hill
#
# Bulk Modulus (GPa) = 46.29528 78.10068 62.19798
# Shear Modulus (GPa) = 41.73662 17.16439 29.45050
#
# Velocity S-wave (km/s) = 4.80982 3.08450 4.04033
# Velocity P-wave (km/s) = 7.51712 7.48173 7.49945
#
# Compressibility (1/GPa) = 0.02160048
#
# Stress axis : x y z
#
# Youngs Moduli (GPa) = 48.26015 36.77775 114.49606
#
# Poissons Ratio (x) = 0.19705 0.69335
# Poissons Ratio (y) = 0.25857 0.69945
# Poissons Ratio (z) = 0.29225 0.22467
#
# Static dielectric constant tensor:
#      x y z
#    x 3.204330 0.000000 0.000000 
#    y 0.000000 3.133010 0.000000 
#    z 0.000000 0.000000 3.728540 
# 
# 
# High freq. dielectric constant tensor:
#      x y z
#    x 1.667110 0.000000 0.000000 
#    y 0.000000 1.669670 0.000000 
#    z 0.000000 0.000000 1.721470 
# 
# From -- ./inp_files/24475.got.cif
#   From: 2010.03.12/outbox.cif.g09.slc.cpg/sg44_13_cif.got.tgz:24475.got - 2010.04.14 02:36:11.
