data_PCOD8189546
_publ_section_title
;
Structure prediction by ZEFSAII (Michael W. Deem and Ramdas Pophale) SiO2 
 PCOD8189546
Probable space group: I M M 2
;
_chemical_formula_sum "Si O2"
_cell_formula_units_Z 64
_cell_length_a 28.712563
_cell_length_b 8.783671
_cell_length_c 12.689535
_cell_angle_alpha 90.000000
_cell_angle_beta 90.000000
_cell_angle_gamma 90.000000
_cell_volume 3200.322388
_symmetry_space_group_name_H-M "I M M 2"
_symmetry_group_IT_number 44
_symmetry_cell_setting 'orthorhombic'
loop_
_space_group_symop_operation_xyz
x,y,z
-x,-y,z
-x,y,z
x,-y,z
1/2+x,1/2+y,1/2+z
1/2-x,1/2-y,1/2+z
1/2-x,1/2+y,1/2+z
1/2+x,1/2-y,1/2+z
loop_
_atom_site_type_symbol
_atom_site_label
_atom_site_fract_x
_atom_site_fract_y
_atom_site_fract_z
Si Si1 0.422952 0.677676 0.781700
Si Si2 0.796363 0.819965 0.982240
Si Si3 0.173737 0.173789 0.203898
Si Si4 0.101827 0.320281 0.483859
Si Si5 0.446870 0.180748 0.199935
Si Si6 0.200921 0.824599 0.428736
Si Si7 0.949400 0.825915 0.057670
Si Si8 0.884775 0.678804 0.894954
O O1 0.420467 0.500000 0.813401
O O2 0.374529 0.746996 0.739666
O O3 0.433543 0.770803 0.888962
O O4 0.456911 0.707259 0.682998
O O5 0.743212 0.772890 0.970988
O O6 0.832857 0.750587 0.897516
O O7 0.799628 0.000000 0.973774
O O8 0.807822 0.749665 0.097531
O O9 0.208215 0.189436 0.302569
O O10 0.163595 0.000000 0.174717
O O11 0.109459 0.500000 0.483126
O O12 0.077460 0.265582 0.591765
O O13 0.151864 0.239480 0.471251
O O14 0.500000 0.245302 0.207335
O O15 0.415098 0.243031 0.296672
O O16 0.448984 0.000000 0.205094
O O17 0.204178 0.000000 0.464414
O O18 0.000000 0.798708 0.005249
O O19 0.932497 0.000000 0.042829
O O20 0.911589 0.718878 0.003091
O O21 0.878616 0.500000 0.885095
#
# Coordination Sequence:
#
# PCOD8189546 Si02
#       8
#     8   8   8   8   8   8   8   8
#     4   9  17  34  55  78 110 148 181 223 287 349
#     4  11  21  37  59  84 113 151 196 242 295 355
#     4   8  16  33  55  72 102 147 180 216 279 349
#     4  10  20  36  59  85 112 150 199 246 290 344
#     4   9  20  39  60  82 117 164 204 243 299 361
#     4  10  21  38  57  83 115 152 193 240 298 354
#     4  10  20  35  56  82 114 150 185 227 287 351
#     4  11  22  37  58  84 114 152 198 247 294 348
#
# _framework density 19.997985
#
# number of rings (size 3 to 8) (size 9 to 14) (size 15 to 20)
#    0.000    2.250    1.250    2.625    0.000    2.750 
#    0.000    9.375    0.000    4.125    0.000    0.000 
#    0.000    0.000    0.000    0.000    0.000    0.000 
#
# Total GULP energy -396508.872468 kJ/mol
# GULP energy per Si atom -12390.902265 kJ/mol
# Density = 1.995247 g / cm^3
# Si number density = 19.997985 Si / 1000 Ang^3
#
#
#
# Elastic Constant Matrix: (Units=GPa)
#
#
# Indices 1 2 3 4 5 6 
#
# 1 98.8384 25.3145 40.9438 0.0000 0.0000 0.0000
# 2 25.3145 63.8044 28.9816 0.0000 0.0000 0.0000
# 3 40.9438 28.9816 113.4373 0.0000 0.0000 0.0000
# 4 0.0000 0.0000 0.0000 28.0232 0.0000 0.0000
# 5 0.0000 0.0000 0.0000 0.0000 25.6784 0.0000
# 6 0.0000 0.0000 0.0000 0.0000 0.0000 21.1133
#
#
#
# Elastic Compliance Matrix: (Units=1/GPa)
#
#
# Indices 1 2 3 4 5 6 
#
# 1 0.012477 -0.003286 -0.003664 0.000000 0.000000 0.000000
# 2 -0.003286 0.018596 -0.003565 0.000000 0.000000 0.000000
# 3 -0.003664 -0.003565 0.011049 0.000000 0.000000 0.000000
# 4 0.000000 0.000000 0.000000 0.035685 0.000000 0.000000
# 5 0.000000 0.000000 0.000000 0.000000 0.038943 0.000000
# 6 0.000000 0.000000 0.000000 0.000000 0.000000 0.047364
#
#
# Mechanical properties :
#
#
# Convention : Reuss Voigt Hill
#
# Bulk Modulus (GPa) = 47.41167 51.84000 49.62583
# Shear Modulus (GPa) = 26.01819 27.01899 26.51859
#
# Velocity S-wave (km/s) = 3.61091 3.67970 3.64547
# Velocity P-wave (km/s) = 6.41440 6.63570 6.52599
#
# Compressibility (1/GPa) = 0.02109185
#
# Stress axis : x y z
#
# Youngs Moduli (GPa) = 80.14826 53.77523 90.50871
#
# Poissons Ratio (x) = 0.17671 0.33161
# Poissons Ratio (y) = 0.26337 0.32266
# Poissons Ratio (z) = 0.29365 0.19171
#
# Static dielectric constant tensor:
#      x y z
#    x 3.669020 0.000000 0.000000 
#    y 0.000000 3.342660 0.000000 
#    z 0.000000 0.000000 4.001100 
# 
# 
# High freq. dielectric constant tensor:
#      x y z
#    x 1.781910 0.000000 0.000000 
#    y 0.000000 1.753900 0.000000 
#    z 0.000000 0.000000 1.785220 
# 
# From -- ./inp_files/15069.got.cif
#   From: 2010.03.12/outbox.cif.g09.slc.cpg/sg44_8_cif.got.tgz:15069.got - 2010.04.14 02:36:11.
