data_PCOD8189541
_publ_section_title
;
Structure prediction by ZEFSAII (Michael W. Deem and Ramdas Pophale) SiO2 
 PCOD8189541
Probable space group: I M M 2
;
_chemical_formula_sum "Si O2"
_cell_formula_units_Z 56
_cell_length_a 8.938573
_cell_length_b 17.573665
_cell_length_c 17.706637
_cell_angle_alpha 90.000000
_cell_angle_beta 90.000000
_cell_angle_gamma 90.000000
_cell_volume 2781.420292
_symmetry_space_group_name_H-M "I M M 2"
_symmetry_group_IT_number 44
_symmetry_cell_setting 'orthorhombic'
loop_
_space_group_symop_operation_xyz
x,y,z
-x,-y,z
-x,y,z
x,-y,z
1/2+x,1/2+y,1/2+z
1/2-x,1/2-y,1/2+z
1/2-x,1/2+y,1/2+z
1/2+x,1/2-y,1/2+z
loop_
_atom_site_type_symbol
_atom_site_label
_atom_site_fract_x
_atom_site_fract_y
_atom_site_fract_z
Si Si1 0.163418 0.412502 0.325550
Si Si2 0.321848 0.685650 0.766026
Si Si3 0.175839 0.164381 0.703566
Si Si4 0.824961 0.412858 0.893333
Si Si5 0.821796 0.083885 0.130466
Si Si6 0.333757 0.591035 0.466752
Si Si7 0.825181 0.412887 0.067750
O O1 0.142661 0.500000 0.344085
O O2 0.277694 0.407025 0.255361
O O3 0.229883 0.373612 0.401361
O O4 0.000000 0.376113 0.307648
O O5 0.500000 0.689353 0.768502
O O6 0.255298 0.768291 0.750338
O O7 0.265344 0.647604 0.843336
O O8 0.259153 0.636357 0.696390
O O9 0.236044 0.147835 0.619276
O O10 0.000000 0.177738 0.699808
O O11 0.776117 0.500000 0.874819
O O12 0.000000 0.402968 0.877476
O O13 0.788743 0.394489 0.980697
O O14 0.000000 0.080204 0.131483
O O15 0.754617 0.000000 0.143852
O O16 0.770506 0.116626 0.048807
O O17 0.500000 0.624170 0.453882
O O18 0.340509 0.500000 0.464861
O O19 0.777432 0.500000 0.086131
O O20 0.000000 0.402580 0.084602
#
# Coordination Sequence:
#
# PCOD8189541 Si02
#       7
#     8   8   8   8   8   8   8
#     4  10  20  35  56  81 109 142 182 230 284 339
#     4  11  22  37  57  83 117 155 195 238 290 346
#     4  12  25  39  55  80 115 153 194 238 292 350
#     4   9  19  38  64  92 121 154 194 242 296 353
#     4   8  15  30  54  82 109 141 183 227 271 324
#     4   8  14  28  51  78 106 136 175 218 260 315
#     4   9  19  39  66  91 116 150 193 242 297 355
#
# _framework density 20.133599
#
# number of rings (size 3 to 8) (size 9 to 14) (size 15 to 20)
#    0.000    2.429    0.000    4.714    0.000    4.286 
#    2.571    2.857    0.000    3.429    0.000    0.000 
#    0.000    0.000    0.000    0.000    0.000    0.000 
#
# Total GULP energy -347035.788345 kJ/mol
# GULP energy per Si atom -12394.135298 kJ/mol
# Density = 2.008777 g / cm^3
# Si number density = 20.133599 Si / 1000 Ang^3
#
#
#
# Elastic Constant Matrix: (Units=GPa)
#
#
# Indices 1 2 3 4 5 6 
#
# 1 100.3981 38.7620 60.1044 0.0000 0.0000 0.0000
# 2 38.7620 61.1216 43.1306 0.0000 0.0000 0.0000
# 3 60.1044 43.1306 140.9404 0.0000 0.0000 0.0000
# 4 0.0000 0.0000 0.0000 21.3412 0.0000 0.0000
# 5 0.0000 0.0000 0.0000 0.0000 34.6594 0.0000
# 6 0.0000 0.0000 0.0000 0.0000 0.0000 23.2947
#
#
#
# Elastic Compliance Matrix: (Units=1/GPa)
#
#
# Indices 1 2 3 4 5 6 
#
# 1 0.015127 -0.006429 -0.004483 0.000000 0.000000 0.000000
# 2 -0.006429 0.023600 -0.004480 0.000000 0.000000 0.000000
# 3 -0.004483 -0.004480 0.010378 0.000000 0.000000 0.000000
# 4 0.000000 0.000000 0.000000 0.046858 0.000000 0.000000
# 5 0.000000 0.000000 0.000000 0.000000 0.028852 0.000000
# 6 0.000000 0.000000 0.000000 0.000000 0.000000 0.042928
#
#
# Mechanical properties :
#
#
# Convention : Reuss Voigt Hill
#
# Bulk Modulus (GPa) = 54.58869 65.16157 59.87513
# Shear Modulus (GPa) = 24.43385 26.55659 25.49522
#
# Velocity S-wave (km/s) = 3.48744 3.63577 3.56237
# Velocity P-wave (km/s) = 6.58698 7.07531 6.83551
#
# Compressibility (1/GPa) = 0.01831881
#
# Stress axis : x y z
#
# Youngs Moduli (GPa) = 66.10895 42.37362 96.35662
#
# Poissons Ratio (x) = 0.27243 0.43199
# Poissons Ratio (y) = 0.42503 0.43169
# Poissons Ratio (z) = 0.29638 0.18984
#
# Static dielectric constant tensor:
#      x y z
#    x 3.582140 0.000000 0.000000 
#    y 0.000000 3.504850 0.000000 
#    z 0.000000 0.000000 3.927310 
# 
# 
# High freq. dielectric constant tensor:
#      x y z
#    x 1.766940 0.000000 0.000000 
#    y 0.000000 1.761560 0.000000 
#    z 0.000000 0.000000 1.802990 
# 
# From -- ./inp_files/20649.got.cif
#   From: 2010.03.12/outbox.cif.g09.slc.cpg/sg44_11_cif.got.tgz:20649.got - 2010.04.14 02:36:11.
