data_PCOD8189247
_publ_section_title
;
Structure prediction by ZEFSAII (Michael W. Deem and Ramdas Pophale) SiO2 
 PCOD8189247
Probable space group: I M M 2
;
_chemical_formula_sum "Si O2"
_cell_formula_units_Z 64
_cell_length_a 9.124848
_cell_length_b 14.210241
_cell_length_c 28.186706
_cell_angle_alpha 90.000000
_cell_angle_beta 90.000000
_cell_angle_gamma 90.000000
_cell_volume 3654.865571
_symmetry_space_group_name_H-M "I M M 2"
_symmetry_group_IT_number 44
_symmetry_cell_setting 'orthorhombic'
loop_
_space_group_symop_operation_xyz
x,y,z
-x,-y,z
-x,y,z
x,-y,z
1/2+x,1/2+y,1/2+z
1/2-x,1/2-y,1/2+z
1/2-x,1/2+y,1/2+z
1/2+x,1/2-y,1/2+z
loop_
_atom_site_type_symbol
_atom_site_label
_atom_site_fract_x
_atom_site_fract_y
_atom_site_fract_z
Si Si1 0.170326 0.892148 0.870650
Si Si2 0.173683 0.104147 0.116590
Si Si3 0.328427 0.760554 0.939661
Si Si4 0.826472 0.396160 0.116589
Si Si5 0.326805 0.249772 0.693985
Si Si6 0.673195 0.249772 0.539194
Si Si7 0.670327 0.392148 0.862529
Si Si8 0.328427 0.239446 0.293518
O O1 0.261038 0.852786 0.915047
O O2 0.208853 0.832802 0.823711
O O3 0.000000 0.882801 0.883630
O O4 0.215408 0.000000 0.861284
O O5 0.222814 0.158485 0.164134
O O6 0.222814 0.158485 0.069045
O O7 0.000000 0.099038 0.116590
O O8 0.244120 0.000000 0.116590
O O9 0.500000 0.776756 0.944883
O O10 0.291146 0.667198 0.909468
O O11 0.259123 0.746621 0.990627
O O12 0.754997 0.500000 0.116590
O O13 0.777596 0.341535 0.163952
O O14 0.777596 0.341535 0.069227
O O15 0.000000 0.402047 0.116589
O O16 0.500000 0.250471 0.703891
O O17 0.240877 0.246621 0.742552
O O18 0.500000 0.250471 0.529288
O O19 0.500000 0.382801 0.849549
O O20 0.715409 0.500000 0.871895
O O21 0.761037 0.352785 0.818132
O O22 0.500000 0.223244 0.288297
#
# Coordination Sequence:
#
# PCOD8189247 Si02
#       8
#     8   8   8   8   8   8   8   8
#     4   9  19  36  54  70  93 129 168 200 234 285
#     4   8  15  29  48  68  90 120 160 198 226 266
#     4  10  20  33  50  74 102 127 156 200 249 291
#     4   8  15  29  48  70  96 126 164 207 240 273
#     4   9  17  30  49  71  94 124 162 198 236 285
#     4   9  17  30  49  71  94 124 162 198 236 285
#     4   9  19  36  54  70  93 129 168 200 234 285
#     4  10  20  33  50  74 102 127 156 200 249 291
#
# _framework density 17.510905000000001
#
# number of rings (size 3 to 8) (size 9 to 14) (size 15 to 20)
#    0.000    3.000    0.000    2.250    0.000    3.500 
#    0.000    5.000    0.000    1.500    0.000    0.000 
#    0.000    0.000    0.000    0.000    0.000    0.000 
#
# Total GULP energy -396743.628034 kJ/mol
# GULP energy per Si atom -12398.238376 kJ/mol
# Density = 1.747105 g / cm^3
# Si number density = 17.510905 Si / 1000 Ang^3
#
#
#
# Elastic Constant Matrix: (Units=GPa)
#
#
# Indices 1 2 3 4 5 6 
#
# 1 52.4759 40.8625 55.8651 0.0000 0.0000 0.0000
# 2 40.8625 162.4896 74.9706 0.0000 0.0000 0.0000
# 3 55.8651 74.9706 160.6269 0.0000 0.0000 0.0000
# 4 0.0000 0.0000 0.0000 13.7829 0.0000 0.0000
# 5 0.0000 0.0000 0.0000 0.0000 34.9057 0.0000
# 6 0.0000 0.0000 0.0000 0.0000 0.0000 17.2653
#
#
#
# Elastic Compliance Matrix: (Units=1/GPa)
#
#
# Indices 1 2 3 4 5 6 
#
# 1 0.031917 -0.003702 -0.009373 0.000000 0.000000 0.000000
# 2 -0.003702 0.008273 -0.002574 0.000000 0.000000 0.000000
# 3 -0.009373 -0.002574 0.010687 0.000000 0.000000 0.000000
# 4 0.000000 0.000000 0.000000 0.072553 0.000000 0.000000
# 5 0.000000 0.000000 0.000000 0.000000 0.028649 0.000000
# 6 0.000000 0.000000 0.000000 0.000000 0.000000 0.057919
#
#
# Mechanical properties :
#
#
# Convention : Reuss Voigt Hill
#
# Bulk Modulus (GPa) = 51.07331 79.88763 65.48047
# Shear Modulus (GPa) = 20.17583 26.78375 23.47979
#
# Velocity S-wave (km/s) = 3.39807 3.91518 3.66576
# Velocity P-wave (km/s) = 6.68025 8.13381 7.44260
#
# Compressibility (1/GPa) = 0.01957970
#
# Stress axis : x y z
#
# Youngs Moduli (GPa) = 31.33108 120.88033 93.57517
#
# Poissons Ratio (x) = 0.44750 0.87706
# Poissons Ratio (y) = 0.11599 0.24083
# Poissons Ratio (z) = 0.29366 0.31110
#
# Static dielectric constant tensor:
#      x y z
#    x 2.992590 0.000000 0.000000 
#    y 0.000000 3.809240 0.000000 
#    z 0.000000 0.000000 3.192390 
# 
# 
# High freq. dielectric constant tensor:
#      x y z
#    x 1.650750 0.000000 0.000000 
#    y 0.000000 1.683420 0.000000 
#    z 0.000000 0.000000 1.679680 
# 
# From -- ./inp_files/27331.got.cif
#   From: 2010.03.12/outbox.cif.g09.slc.cpg/sg44_14_cif.got.tgz:27331.got - 2010.04.14 02:36:11.
