data_PCOD8189451
_publ_section_title
;
Structure prediction by ZEFSAII (Michael W. Deem and Ramdas Pophale) SiO2 
 PCOD8189451
Probable space group: I M M 2
;
_chemical_formula_sum "Si O2"
_cell_formula_units_Z 64
_cell_length_a 8.954705
_cell_length_b 24.521914
_cell_length_c 15.108879
_cell_angle_alpha 90.000000
_cell_angle_beta 90.000000
_cell_angle_gamma 90.000000
_cell_volume 3317.705948
_symmetry_space_group_name_H-M "I M M 2"
_symmetry_group_IT_number 44
_symmetry_cell_setting 'orthorhombic'
loop_
_space_group_symop_operation_xyz
x,y,z
-x,-y,z
-x,y,z
x,-y,z
1/2+x,1/2+y,1/2+z
1/2-x,1/2-y,1/2+z
1/2-x,1/2+y,1/2+z
1/2+x,1/2-y,1/2+z
loop_
_atom_site_type_symbol
_atom_site_label
_atom_site_fract_x
_atom_site_fract_y
_atom_site_fract_z
Si Si1 0.670967 0.223132 0.034800
Si Si2 0.326831 0.734854 0.716245
Si Si3 0.328970 0.896557 0.990978
Si Si4 0.324353 0.437306 0.668193
Si Si5 0.328107 0.141527 0.687591
Si Si6 0.829066 0.937442 0.818316
Si Si7 0.328995 0.827621 0.493722
Si Si8 0.828535 0.360102 0.804567
O O1 0.500000 0.232114 0.064979
O O2 0.776389 0.216189 0.119313
O O3 0.685514 0.168502 0.976327
O O4 0.725579 0.274676 0.977659
O O5 0.500000 0.720028 0.727892
O O6 0.298417 0.799028 0.729844
O O7 0.229921 0.700930 0.785948
O O8 0.500000 0.914352 0.000910
O O9 0.245475 0.914236 0.079212
O O10 0.262962 0.926590 0.906667
O O11 0.500000 0.429258 0.661941
O O12 0.279112 0.500000 0.680207
O O13 0.265708 0.405466 0.753973
O O14 0.500000 0.124632 0.700291
O O15 0.225849 0.098023 0.736040
O O16 0.282663 0.141420 0.583858
O O17 0.000000 0.922989 0.838337
O O18 0.808696 0.000000 0.790613
O O19 0.500000 0.807333 0.503414
O O20 0.311280 0.868461 0.410542
O O21 0.000000 0.364855 0.774235
#
# Coordination Sequence:
#
# PCOD8189451 Si02
#       8
#     8   8   8   8   8   8   8   8
#     4  10  20  34  55  86 120 154 195 235 285 349
#     4  10  20  35  57  85 120 156 191 235 290 350
#     4  11  23  38  59  89 120 155 198 242 292 354
#     4  11  24  41  61  86 119 160 202 244 295 351
#     4   9  20  40  62  85 115 153 197 245 298 351
#     4  11  25  42  60  85 116 153 200 250 301 356
#     4   9  21  39  59  86 121 157 195 242 295 352
#     4  11  22  37  59  89 121 156 200 243 291 350
#
# _framework density 19.290437000000001
#
# number of rings (size 3 to 8) (size 9 to 14) (size 15 to 20)
#    0.000    1.750    1.250    3.375    1.750    8.500 
#    0.000    0.625    0.000    3.750    0.000    0.000 
#    0.000    0.000    0.000    0.000    0.000    0.000 
#
# Total GULP energy -396875.608413 kJ/mol
# GULP energy per Si atom -12402.362763 kJ/mol
# Density = 1.924653 g / cm^3
# Si number density = 19.290437 Si / 1000 Ang^3
#
#
#
# Elastic Constant Matrix: (Units=GPa)
#
#
# Indices 1 2 3 4 5 6 
#
# 1 87.1513 53.6096 31.5021 -0.0001 0.0000 0.0000
# 2 53.6096 103.4394 52.8475 -0.0001 0.0000 0.0000
# 3 31.5021 52.8475 96.7031 -0.0004 0.0002 0.0002
# 4 -0.0001 -0.0001 -0.0004 27.7175 0.0000 0.0000
# 5 0.0000 0.0000 0.0002 0.0000 28.4027 0.0000
# 6 0.0000 0.0000 0.0002 0.0000 0.0000 31.9665
#
#
#
# Elastic Compliance Matrix: (Units=1/GPa)
#
#
# Indices 1 2 3 4 5 6 
#
# 1 0.016914 -0.008256 -0.000998 0.000000 0.000000 0.000000
# 2 -0.008256 0.017442 -0.006843 0.000000 0.000000 0.000000
# 3 -0.000998 -0.006843 0.014405 0.000000 0.000000 0.000000
# 4 0.000000 0.000000 0.000000 0.036078 0.000000 0.000000
# 5 0.000000 0.000000 0.000000 0.000000 0.035208 0.000000
# 6 0.000000 0.000000 0.000000 0.000000 0.000000 0.031283
#
#
# Mechanical properties :
#
#
# Convention : Reuss Voigt Hill
#
# Bulk Modulus (GPa) = 60.35644 62.57913 61.46779
# Shear Modulus (GPa) = 26.44865 27.57300 27.01082
#
# Velocity S-wave (km/s) = 3.70682 3.78479 3.74601
# Velocity P-wave (km/s) = 7.04818 7.18404 7.11644
#
# Compressibility (1/GPa) = 0.01656824
#
# Stress axis : x y z
#
# Youngs Moduli (GPa) = 59.12434 57.33241 69.41827
#
# Poissons Ratio (x) = 0.47333 0.06928
# Poissons Ratio (y) = 0.48812 0.47500
# Poissons Ratio (z) = 0.05901 0.39230
#
# Static dielectric constant tensor:
#      x y z
#    x 3.689610 0.000000 0.000000 
#    y 0.000000 3.533410 0.000000 
#    z 0.000000 0.000000 3.519610 
# 
# 
# High freq. dielectric constant tensor:
#      x y z
#    x 1.763450 0.000000 0.000000 
#    y 0.000000 1.740410 0.000000 
#    z 0.000000 0.000000 1.749490 
# 
# From -- ./inp_files/16817.got.cif
#   From: 2010.03.12/outbox.cif.g09.slc.cpg/sg44_9_cif.got.tgz:16817.got - 2010.04.14 02:36:11.
