data_PCOD8189578
_publ_section_title
;
Structure prediction by ZEFSAII (Michael W. Deem and Ramdas Pophale) SiO2 
 PCOD8189578
Probable space group: I M M 2
;
_chemical_formula_sum "Si O2"
_cell_formula_units_Z 64
_cell_length_a 28.020076
_cell_length_b 8.883910
_cell_length_c 12.678972
_cell_angle_alpha 90.000000
_cell_angle_beta 90.000000
_cell_angle_gamma 90.000000
_cell_volume 3156.149029
_symmetry_space_group_name_H-M "I M M 2"
_symmetry_group_IT_number 44
_symmetry_cell_setting 'orthorhombic'
loop_
_space_group_symop_operation_xyz
x,y,z
-x,-y,z
-x,y,z
x,-y,z
1/2+x,1/2+y,1/2+z
1/2-x,1/2-y,1/2+z
1/2-x,1/2+y,1/2+z
1/2+x,1/2-y,1/2+z
loop_
_atom_site_type_symbol
_atom_site_label
_atom_site_fract_x
_atom_site_fract_y
_atom_site_fract_z
Si Si1 0.052451 0.666678 0.103980
Si Si2 0.444866 0.678339 0.991237
Si Si3 0.400771 0.176509 0.197758
Si Si4 0.076119 0.166626 0.901879
Si Si5 0.704342 0.823807 0.272377
Si Si6 0.683181 0.667763 0.477280
Si Si7 0.205056 0.674988 0.188134
Si Si8 0.389487 0.176340 0.799729
O O1 0.071855 0.500000 0.073966
O O2 0.085902 0.739159 0.193221
O O3 0.000000 0.656324 0.154291
O O4 0.047756 0.765746 0.999647
O O5 0.500000 0.733465 0.977932
O O6 0.443034 0.500000 0.993114
O O7 0.422161 0.739117 0.098077
O O8 0.410758 0.734884 0.897837
O O9 0.430947 0.229072 0.299478
O O10 0.345076 0.219989 0.213980
O O11 0.407522 0.000000 0.181168
O O12 0.130608 0.158418 0.933248
O O13 0.056249 0.000000 0.876700
O O14 0.713971 0.739487 0.382981
O O15 0.747699 0.774650 0.198425
O O16 0.705383 0.000000 0.294996
O O17 0.702595 0.500000 0.504442
O O18 0.682114 0.776256 0.577582
O O19 0.218769 0.500000 0.183581
O O20 0.167251 0.704514 0.283402
O O21 0.400695 0.000000 0.815041
#
# Coordination Sequence:
#
# PCOD8189578 Si02
#       8
#     8   8   8   8   8   8   8   8
#     4  10  20  35  57  85 117 153 194 240 291 352
#     4  11  25  43  64  91 124 163 208 262 321 377
#     4  10  22  41  65  88 117 159 206 252 303 367
#     4  10  20  35  58  86 117 151 189 242 301 355
#     4  10  22  39  60  89 122 158 203 256 310 367
#     4  10  20  36  58  83 115 154 194 241 300 361
#     4  11  22  37  61  90 121 160 206 254 307 367
#     4  10  22  40  62  87 119 160 207 253 300 364
#
# _framework density 20.277878000000001
#
# number of rings (size 3 to 8) (size 9 to 14) (size 15 to 20)
#    0.000    1.750    1.250    2.625    0.000    7.250 
#    0.000    1.250    0.000    0.000    0.000    0.000 
#    0.000    0.000    0.000    0.000    0.000    0.000 
#
# Total GULP energy -396775.885499 kJ/mol
# GULP energy per Si atom -12399.246422 kJ/mol
# Density = 2.023172 g / cm^3
# Si number density = 20.277878 Si / 1000 Ang^3
#
#
#
# Elastic Constant Matrix: (Units=GPa)
#
#
# Indices 1 2 3 4 5 6 
#
# 1 71.0614 36.5139 34.3965 0.0000 0.0000 0.0000
# 2 36.5139 65.8965 29.9793 0.0000 0.0000 0.0000
# 3 34.3965 29.9793 113.8925 0.0000 0.0000 0.0000
# 4 0.0000 0.0000 0.0000 37.6996 0.0000 0.0000
# 5 0.0000 0.0000 0.0000 0.0000 22.2553 0.0000
# 6 0.0000 0.0000 0.0000 0.0000 0.0000 23.8089
#
#
#
# Elastic Compliance Matrix: (Units=1/GPa)
#
#
# Indices 1 2 3 4 5 6 
#
# 1 0.020976 -0.009930 -0.003721 0.000000 0.000000 0.000000
# 2 -0.009930 0.021941 -0.002776 0.000000 0.000000 0.000000
# 3 -0.003721 -0.002776 0.010635 0.000000 0.000000 0.000000
# 4 0.000000 0.000000 0.000000 0.026525 0.000000 0.000000
# 5 0.000000 0.000000 0.000000 0.000000 0.044933 0.000000
# 6 0.000000 0.000000 0.000000 0.000000 0.000000 0.042001
#
#
# Mechanical properties :
#
#
# Convention : Reuss Voigt Hill
#
# Bulk Modulus (GPa) = 48.31746 50.29219 49.30482
# Shear Modulus (GPa) = 24.18205 26.75015 25.46610
#
# Velocity S-wave (km/s) = 3.45705 3.63599 3.54765
# Velocity P-wave (km/s) = 6.30986 6.51787 6.41471
#
# Compressibility (1/GPa) = 0.02069645
#
# Stress axis : x y z
#
# Youngs Moduli (GPa) = 47.67376 45.57725 94.03079
#
# Poissons Ratio (x) = 0.45259 0.34989
# Poissons Ratio (y) = 0.47340 0.26107
# Poissons Ratio (z) = 0.17740 0.12654
#
# Static dielectric constant tensor:
#      x y z
#    x 3.697560 0.000000 0.000000 
#    y 0.000000 3.920290 0.000000 
#    z 0.000000 0.000000 3.686480 
# 
# 
# High freq. dielectric constant tensor:
#      x y z
#    x 1.791430 0.000000 0.000000 
#    y 0.000000 1.797270 0.000000 
#    z 0.000000 0.000000 1.790830 
# 
# From -- ./inp_files/15040.got.cif
#   From: 2010.03.12/outbox.cif.g09.slc.cpg/sg44_8_cif.got.tgz:15040.got - 2010.04.14 02:36:11.
