data_PCOD8189800
_publ_section_title
;
Structure prediction by ZEFSAII (Michael W. Deem and Ramdas Pophale) SiO2 
 PCOD8189800
Probable space group: I M M 2
;
_chemical_formula_sum "Si O2"
_cell_formula_units_Z 48
_cell_length_a 13.676925
_cell_length_b 27.196252
_cell_length_c 6.549425
_cell_angle_alpha 90.000000
_cell_angle_beta 90.000000
_cell_angle_gamma 90.000000
_cell_volume 2436.131320
_symmetry_space_group_name_H-M "I M M 2"
_symmetry_group_IT_number 44
_symmetry_cell_setting 'orthorhombic'
loop_
_space_group_symop_operation_xyz
x,y,z
-x,-y,z
-x,y,z
x,-y,z
1/2+x,1/2+y,1/2+z
1/2-x,1/2-y,1/2+z
1/2-x,1/2+y,1/2+z
1/2+x,1/2-y,1/2+z
loop_
_atom_site_type_symbol
_atom_site_label
_atom_site_fract_x
_atom_site_fract_y
_atom_site_fract_z
Si Si1 0.213781 0.799113 0.662180
Si Si2 0.760592 0.884229 0.351851
Si Si3 0.614196 0.372049 0.469680
Si Si4 0.738099 0.557422 0.239255
Si Si5 0.891818 0.725735 0.396471
Si Si6 0.889948 0.387567 0.508809
O O1 0.250869 0.835728 0.487428
O O2 0.171711 0.827945 0.857825
O O3 0.130778 0.762082 0.584209
O O4 0.309063 0.767008 0.724010
O O5 0.776317 0.930964 0.499687
O O6 0.853779 0.875510 0.205485
O O7 0.663616 0.896490 0.223560
O O8 0.500000 0.362510 0.455678
O O9 0.642501 0.423207 0.359677
O O10 0.748844 0.500000 0.275361
O O11 0.834780 0.584616 0.325387
O O12 0.889323 0.670125 0.470792
O O13 0.000000 0.738754 0.310545
O O14 0.000000 0.408250 0.522899
#
# Coordination Sequence:
#
# PCOD8189800 Si02
#       6
#     8   8   8   8   8   8
#     4  11  22  41  60  91 133 163 209 262 309 373
#     4  10  20  39  61  89 120 161 202 260 307 376
#     4  10  22  41  63  89 122 163 205 258 317 374
#     4  10  22  41  63  88 123 162 202 261 319 375
#     4  11  22  38  63  90 122 167 209 251 308 370
#     4  10  21  40  61  87 121 162 207 252 308 375
#
# _framework density 19.703371000000001
#
# number of rings (size 3 to 8) (size 9 to 14) (size 15 to 20)
#    0.000    1.667    5.000    1.500    0.000    8.000 
#    0.000    0.833    0.000    0.000    0.000    0.000 
#    0.000    0.000    0.000    0.000    0.000    0.000 
#
# Total GULP energy -297588.444923 kJ/mol
# GULP energy per Si atom -12399.518538 kJ/mol
# Density = 1.965852 g / cm^3
# Si number density = 19.703371 Si / 1000 Ang^3
#
#
#
# Elastic Constant Matrix: (Units=GPa)
#
#
# Indices 1 2 3 4 5 6 
#
# 1 164.7025 26.1644 49.8277 -0.0053 -0.0013 -0.0099
# 2 26.1644 99.7067 31.0766 -0.0458 -0.0020 0.0055
# 3 49.8277 31.0766 115.8636 -0.2340 -0.0039 0.0246
# 4 -0.0053 -0.0458 -0.2340 20.6946 0.0004 0.0245
# 5 -0.0013 -0.0020 -0.0039 0.0004 22.0245 0.0093
# 6 -0.0099 0.0055 0.0246 0.0245 0.0093 13.4196
#
#
#
# Elastic Compliance Matrix: (Units=1/GPa)
#
#
# Indices 1 2 3 4 5 6 
#
# 1 0.007068 -0.000990 -0.002774 -0.000032 0.000000 0.000011
# 2 -0.000990 0.011083 -0.002547 -0.000004 0.000000 -0.000001
# 3 -0.002774 -0.002547 0.010507 0.000112 0.000001 -0.000020
# 4 -0.000032 -0.000004 0.000112 0.048323 -0.000001 -0.000088
# 5 0.000000 0.000000 0.000001 -0.000001 0.045404 -0.000031
# 6 0.000011 -0.000001 -0.000020 -0.000088 -0.000031 0.074518
#
#
# Mechanical properties :
#
#
# Convention : Reuss Voigt Hill
#
# Bulk Modulus (GPa) = 62.35946 66.04557 64.20251
# Shear Modulus (GPa) = 23.26973 29.44135 26.35554
#
# Velocity S-wave (km/s) = 3.44030 3.86972 3.66131
# Velocity P-wave (km/s) = 6.89193 7.31840 7.10837
#
# Compressibility (1/GPa) = 0.01603606
#
# Stress axis : x y z
#
# Youngs Moduli (GPa) = 141.48040 90.22789 95.17253
#
# Poissons Ratio (x) = 0.08934 0.26403
# Poissons Ratio (y) = 0.14008 0.24239
# Poissons Ratio (z) = 0.39249 0.22980
#
# Static dielectric constant tensor:
#      x y z
#    x 3.843840 -0.000010 0.000020 
#    y -0.000010 3.496990 -0.000020 
#    z 0.000020 -0.000020 3.682490 
# 
# 
# High freq. dielectric constant tensor:
#      x y z
#    x 1.767870 0.000000 0.000000 
#    y 0.000000 1.758090 0.000000 
#    z 0.000000 0.000000 1.771670 
# 
# From -- ./inp_files/1583.got.cif
#   From: 2010.03.12/outbox.cif.g09.slc.cpg/sg44_1_cif.got.tgz:1583.got - 2010.04.14 02:36:11.
