data_PCOD8190332
_publ_section_title
;
Structure prediction by ZEFSAII (Michael W. Deem and Ramdas Pophale) SiO2 
 PCOD8190332
Probable space group: I M M 2
;
_chemical_formula_sum "Si O2"
_cell_formula_units_Z 48
_cell_length_a 9.774284
_cell_length_b 17.805106
_cell_length_c 17.899695
_cell_angle_alpha 90.000000
_cell_angle_beta 90.000000
_cell_angle_gamma 90.000000
_cell_volume 3115.122632
_symmetry_space_group_name_H-M "I M M 2"
_symmetry_group_IT_number 44
_symmetry_cell_setting 'orthorhombic'
loop_
_space_group_symop_operation_xyz
x,y,z
-x,-y,z
-x,y,z
x,-y,z
1/2+x,1/2+y,1/2+z
1/2-x,1/2-y,1/2+z
1/2-x,1/2+y,1/2+z
1/2+x,1/2-y,1/2+z
loop_
_atom_site_type_symbol
_atom_site_label
_atom_site_fract_x
_atom_site_fract_y
_atom_site_fract_z
Si Si1 0.157627 0.414053 0.888760
Si Si2 0.652156 0.323546 0.790568
Si Si3 0.837296 0.583428 0.293907
Si Si4 0.651881 0.803861 0.914820
Si Si5 0.660070 0.790538 0.509773
Si Si6 0.837528 0.703067 0.178326
O O1 0.191711 0.500000 0.908758
O O2 0.245613 0.389134 0.816718
O O3 0.000000 0.403437 0.866414
O O4 0.193671 0.364997 0.961882
O O5 0.500000 0.357915 0.778813
O O6 0.706880 0.283282 0.714668
O O7 0.645548 0.259938 0.852754
O O8 0.773756 0.500000 0.289379
O O9 0.798162 0.619868 0.374035
O O10 0.776314 0.633241 0.225776
O O11 0.000000 0.580656 0.287053
O O12 0.500000 0.814015 0.949969
O O13 0.759670 0.781779 0.978562
O O14 0.500000 0.771194 0.508007
O O15 0.714345 0.804152 0.593575
O O16 0.000000 0.698644 0.182113
#
# Coordination Sequence:
#
# PCOD8190332 Si02
#       6
#     8   8   8   8   8   8
#     4   9  17  27  39  59  85 107 128 158 196 237
#     4   8  14  26  42  57  75 103 138 168 190 220
#     4   8  13  22  39  62  83 102 127 162 200 232
#     4   8  14  25  40  58  79 103 134 166 190 222
#     4   9  16  26  41  60  82 107 130 156 196 239
#     4   8  14  24  39  60  82 102 129 164 196 230
#
# _framework density 15.408704
#
# number of rings (size 3 to 8) (size 9 to 14) (size 15 to 20)
#    0.000    3.667    0.000    2.000    0.000    1.000 
#    0.000    4.167    0.000    2.500    0.000    4.667 
#    0.000    0.000    0.000    0.000    0.000    0.000 
#
# Total GULP energy -297402.872559 kJ/mol
# GULP energy per Si atom -12391.786357 kJ/mol
# Density = 1.537363 g / cm^3
# Si number density = 15.408704 Si / 1000 Ang^3
#
#
#
# Elastic Constant Matrix: (Units=GPa)
#
#
# Indices 1 2 3 4 5 6 
#
# 1 41.8646 35.9451 39.2272 0.0000 0.0000 0.0000
# 2 35.9451 80.3310 74.3098 0.0000 0.0000 0.0000
# 3 39.2272 74.3098 94.8553 0.0000 0.0000 0.0000
# 4 0.0000 0.0000 0.0000 17.9002 0.0000 0.0000
# 5 0.0000 0.0000 0.0000 0.0000 19.3268 0.0000
# 6 0.0000 0.0000 0.0000 0.0000 0.0000 15.8046
#
#
#
# Elastic Compliance Matrix: (Units=1/GPa)
#
#
# Indices 1 2 3 4 5 6 
#
# 1 0.040962 -0.009658 -0.009374 0.000000 0.000000 0.000000
# 2 -0.009658 0.047492 -0.033211 0.000000 0.000000 0.000000
# 3 -0.009374 -0.033211 0.040437 0.000000 0.000000 0.000000
# 4 0.000000 0.000000 0.000000 0.055865 0.000000 0.000000
# 5 0.000000 0.000000 0.000000 0.000000 0.051742 0.000000
# 6 0.000000 0.000000 0.000000 0.000000 0.000000 0.063273
#
#
# Mechanical properties :
#
#
# Convention : Reuss Voigt Hill
#
# Bulk Modulus (GPa) = 40.97548 57.33502 49.15525
# Shear Modulus (GPa) = 12.12439 15.11089 13.61764
#
# Velocity S-wave (km/s) = 2.80813 3.13497 2.97604
# Velocity P-wave (km/s) = 6.09625 7.09889 6.61659
#
# Compressibility (1/GPa) = 0.02440484
#
# Stress axis : x y z
#
# Youngs Moduli (GPa) = 24.41286 21.05615 24.72988
#
# Poissons Ratio (x) = 0.20335 0.23182
# Poissons Ratio (y) = 0.23577 0.82132
# Poissons Ratio (z) = 0.22885 0.69931
#
# Static dielectric constant tensor:
#      x y z
#    x 2.831120 0.000000 0.000000 
#    y 0.000000 3.092540 0.000000 
#    z 0.000000 0.000000 3.100770 
# 
# 
# High freq. dielectric constant tensor:
#      x y z
#    x 1.558910 0.000000 0.000000 
#    y 0.000000 1.577940 0.000000 
#    z 0.000000 0.000000 1.577460 
# 
# From -- ./inp_files/17692.got.cif
#   From: 2010.03.12/outbox.cif.g09.slc.cpg/sg44_9_cif.got.tgz:17692.got - 2010.04.14 02:36:11.
