data_PCOD8190889
_publ_section_title
;
Structure prediction by ZEFSAII (Michael W. Deem and Ramdas Pophale) SiO2 
 PCOD8190889
Probable space group: I B A 2
;
_chemical_formula_sum "Si O2"
_cell_formula_units_Z 56
_cell_length_a 12.796696
_cell_length_b 12.594742
_cell_length_c 15.275094
_cell_angle_alpha 90.000000
_cell_angle_beta 90.000000
_cell_angle_gamma 90.000000
_cell_volume 2461.903467
_symmetry_space_group_name_H-M "I B A 2"
_symmetry_group_IT_number 45
_symmetry_cell_setting 'orthorhombic'
loop_
_space_group_symop_operation_xyz
x,y,z
-x,-y,z
-x,y,1/2+z
x,-y,1/2+z
1/2+x,1/2+y,1/2+z
1/2-x,1/2-y,1/2+z
1/2-x,1/2+y,z
1/2+x,1/2-y,z
loop_
_atom_site_type_symbol
_atom_site_label
_atom_site_fract_x
_atom_site_fract_y
_atom_site_fract_z
Si Si1 0.045934 0.702696 0.800630
Si Si2 0.248784 0.799122 0.403724
Si Si3 0.077560 0.081587 0.818670
Si Si4 0.914921 0.629071 0.948451
Si Si5 0.962956 0.698729 0.615317
Si Si6 0.102217 0.059352 0.623245
Si Si7 0.807359 0.553083 0.547603
O O1 0.164764 0.721654 0.829378
O O2 0.980033 0.808036 0.811921
O O3 0.993017 0.615732 0.865338
O O4 0.040960 0.677103 0.697205
O O5 0.181144 0.901255 0.374250
O O6 0.187581 0.690016 0.415093
O O7 0.287998 0.835669 0.497993
O O8 0.109763 0.030797 0.725586
O O9 0.000000 0.000000 0.868005
O O10 0.881109 0.514741 0.983470
O O11 0.970291 0.694361 0.026385
O O12 0.906677 0.813764 0.613915
O O13 0.878818 0.601727 0.625468
O O14 0.206696 0.012785 0.578290
O O15 0.000000 0.000000 0.583231
#
# Coordination Sequence:
#
# PCOD8190889 Si02
#       7
#     8   8   8   8   8   8   8
#     4  10  24  46  68  99 147 183 236 296 357 428
#     4  11  24  42  69  99 135 191 229 293 358 425
#     4   9  22  43  66 101 131 179 238 292 352 429
#     4  11  25  46  66 102 141 181 241 294 361 429
#     4  11  24  47  71 103 148 187 239 301 359 435
#     4  10  23  45  68 102 136 185 242 296 353 432
#     4  12  25  41  69 103 136 190 233 296 370 421
#
# _framework density 22.746628999999999
#
# number of rings (size 3 to 8) (size 9 to 14) (size 15 to 20)
#    0.000    1.429    1.429    2.143    4.000    2.857 
#   23.143    0.000    0.000    0.000    0.000    0.000 
#    0.000    0.000    0.000    0.000    0.000    0.000 
#
# Total GULP energy -347077.351966 kJ/mol
# GULP energy per Si atom -12395.619713 kJ/mol
# Density = 2.269486 g / cm^3
# Si number density = 22.746629 Si / 1000 Ang^3
#
#
#
# Elastic Constant Matrix: (Units=GPa)
#
#
# Indices 1 2 3 4 5 6 
#
# 1 116.0945 28.7562 42.9028 0.0000 0.0000 0.0000
# 2 28.7562 78.5562 22.1654 0.0000 0.0000 0.0000
# 3 42.9028 22.1654 98.7412 0.0000 0.0000 0.0000
# 4 0.0000 0.0000 0.0000 30.4579 0.0000 0.0000
# 5 0.0000 0.0000 0.0000 0.0000 26.3483 0.0000
# 6 0.0000 0.0000 0.0000 0.0000 0.0000 29.1613
#
#
#
# Elastic Compliance Matrix: (Units=1/GPa)
#
#
# Indices 1 2 3 4 5 6 
#
# 1 0.010813 -0.002811 -0.004067 0.000000 0.000000 0.000000
# 2 -0.002811 0.014321 -0.001994 0.000000 0.000000 0.000000
# 3 -0.004067 -0.001994 0.012342 0.000000 0.000000 0.000000
# 4 0.000000 0.000000 0.000000 0.032832 0.000000 0.000000
# 5 0.000000 0.000000 0.000000 0.000000 0.037953 0.000000
# 6 0.000000 0.000000 0.000000 0.000000 0.000000 0.034292
#
#
# Mechanical properties :
#
#
# Convention : Reuss Voigt Hill
#
# Bulk Modulus (GPa) = 50.67563 53.44898 52.06230
# Shear Modulus (GPa) = 29.96271 30.49802 30.23037
#
# Velocity S-wave (km/s) = 3.63331 3.66563 3.64951
# Velocity P-wave (km/s) = 6.31886 6.43928 6.37935
#
# Compressibility (1/GPa) = 0.01973335
#
# Stress axis : x y z
#
# Youngs Moduli (GPa) = 92.48224 69.82709 81.02265
#
# Poissons Ratio (x) = 0.19625 0.32954
# Poissons Ratio (y) = 0.25992 0.16153
# Poissons Ratio (z) = 0.37615 0.13921
#
# Static dielectric constant tensor:
#      x y z
#    x 4.754380 0.000000 0.000000 
#    y 0.000000 4.025040 0.000000 
#    z 0.000000 0.000000 4.363370 
# 
# 
# High freq. dielectric constant tensor:
#      x y z
#    x 1.908520 0.000000 0.000000 
#    y 0.000000 1.898280 0.000000 
#    z 0.000000 0.000000 1.895520 
# 
# From -- ./inp_files/6172.got.cif
#   From: 2010.03.12/outbox.cif.g09.slc.cpg/sg45_4_cif.got.tgz:6172.got - 2010.04.14 02:50:11.
