data_PCOD8190309
_publ_section_title
;
Structure prediction by ZEFSAII (Michael W. Deem and Ramdas Pophale) SiO2 
 PCOD8190309
Probable space group: I M M 2
;
_chemical_formula_sum "Si O2"
_cell_formula_units_Z 24
_cell_length_a 10.288341
_cell_length_b 10.975980
_cell_length_c 9.458372
_cell_angle_alpha 90.000000
_cell_angle_beta 90.000000
_cell_angle_gamma 90.000000
_cell_volume 1068.083112
_symmetry_space_group_name_H-M "I M M 2"
_symmetry_group_IT_number 44
_symmetry_cell_setting 'orthorhombic'
loop_
_space_group_symop_operation_xyz
x,y,z
-x,-y,z
-x,y,z
x,-y,z
1/2+x,1/2+y,1/2+z
1/2-x,1/2-y,1/2+z
1/2-x,1/2+y,1/2+z
1/2+x,1/2-y,1/2+z
loop_
_atom_site_type_symbol
_atom_site_label
_atom_site_fract_x
_atom_site_fract_y
_atom_site_fract_z
Si Si1 0.000000 0.132962 0.018440
Si Si2 0.000000 0.366641 0.226792
Si Si3 0.352557 0.362746 0.036128
Si Si4 0.768018 0.202984 0.828211
O O1 0.000000 0.250137 0.121033
O O2 0.873727 0.130348 0.918406
O O3 0.000000 0.000000 0.098385
O O4 0.871433 0.364892 0.324443
O O5 0.000000 0.500000 0.148253
O O6 0.500000 0.344483 0.986308
O O7 0.324686 0.500000 0.086156
O O8 0.320230 0.275541 0.169275
O O9 0.258437 0.332495 0.904814
#
# Coordination Sequence:
#
# PCOD8190309 Si02
#       4
#     4   4   8   8
#     4  12  26  43  70 102 140 184 230 279 348 416
#     4  12  26  45  70 100 140 180 230 291 346 402
#     4  11  24  45  70 100 140 183 227 284 350 414
#     4  12  24  44  71 101 135 179 231 282 343 406
#
# _framework density 22.470161999999998
#
# number of rings (size 3 to 8) (size 9 to 14) (size 15 to 20)
#    0.000    0.333    6.667    3.000    0.000    1.333 
#    0.000    0.000    0.000    0.000    0.000    0.000 
#    0.000    0.000    0.000    0.000    0.000    0.000 
#
# Total GULP energy -148697.071433 kJ/mol
# GULP energy per Si atom -12391.422619 kJ/mol
# Density = 2.241902 g / cm^3
# Si number density = 22.470162 Si / 1000 Ang^3
#
#
#
# Elastic Constant Matrix: (Units=GPa)
#
#
# Indices 1 2 3 4 5 6 
#
# 1 162.4250 54.6851 36.2668 0.0000 0.0000 0.0000
# 2 54.6851 135.1484 73.0207 0.0000 0.0000 0.0000
# 3 36.2668 73.0207 108.9032 0.0000 0.0000 0.0000
# 4 0.0000 0.0000 0.0000 31.3921 0.0000 0.0000
# 5 0.0000 0.0000 0.0000 0.0000 47.4268 0.0000
# 6 0.0000 0.0000 0.0000 0.0000 0.0000 12.3449
#
#
#
# Elastic Compliance Matrix: (Units=1/GPa)
#
#
# Indices 1 2 3 4 5 6 
#
# 1 0.007161 -0.002523 -0.000693 0.000000 0.000000 0.000000
# 2 -0.002523 0.012492 -0.007536 0.000000 0.000000 0.000000
# 3 -0.000693 -0.007536 0.014466 0.000000 0.000000 0.000000
# 4 0.000000 0.000000 0.000000 0.031855 0.000000 0.000000
# 5 0.000000 0.000000 0.000000 0.000000 0.021085 0.000000
# 6 0.000000 0.000000 0.000000 0.000000 0.000000 0.081005
#
#
# Mechanical properties :
#
#
# Convention : Reuss Voigt Hill
#
# Bulk Modulus (GPa) = 79.26914 81.60243 80.43579
# Shear Modulus (GPa) = 25.80351 34.39968 30.10160
#
# Velocity S-wave (km/s) = 3.39240 3.91692 3.66406
# Velocity P-wave (km/s) = 7.12030 7.53997 7.33313
#
# Compressibility (1/GPa) = 0.01261525
#
# Stress axis : x y z
#
# Youngs Moduli (GPa) = 139.64740 80.05343 69.12814
#
# Poissons Ratio (x) = 0.20198 0.04790
# Poissons Ratio (y) = 0.35235 0.52092
# Poissons Ratio (z) = 0.09677 0.60325
#
# Static dielectric constant tensor:
#      x y z
#    x 4.548110 0.000000 0.000000 
#    y 0.000000 3.960770 0.000000 
#    z 0.000000 0.000000 3.895070 
# 
# 
# High freq. dielectric constant tensor:
#      x y z
#    x 1.916740 0.000000 0.000000 
#    y 0.000000 1.866850 0.000000 
#    z 0.000000 0.000000 1.870640 
# 
# From -- ./inp_files/5157.got.cif
#   From: 2010.03.12/outbox.cif.g09.slc.cpg/sg44_3_cif.got.tgz:5157.got - 2010.04.14 02:36:11.
