data_PCOD8190538
_publ_section_title
;
Structure prediction by ZEFSAII (Michael W. Deem and Ramdas Pophale) SiO2 
 PCOD8190538
Probable space group: I B A 2
;
_chemical_formula_sum "Si O2"
_cell_formula_units_Z 52
_cell_length_a 25.421146
_cell_length_b 8.632672
_cell_length_c 12.411892
_cell_angle_alpha 90.000000
_cell_angle_beta 90.000000
_cell_angle_gamma 90.000000
_cell_volume 2723.819678
_symmetry_space_group_name_H-M "I B A 2"
_symmetry_group_IT_number 45
_symmetry_cell_setting 'orthorhombic'
loop_
_space_group_symop_operation_xyz
x,y,z
-x,-y,z
-x,y,1/2+z
x,-y,1/2+z
1/2+x,1/2+y,1/2+z
1/2-x,1/2-y,1/2+z
1/2-x,1/2+y,z
1/2+x,1/2-y,z
loop_
_atom_site_type_symbol
_atom_site_label
_atom_site_fract_x
_atom_site_fract_y
_atom_site_fract_z
Si Si1 0.077303 0.580822 0.042580
Si Si2 0.928029 0.776954 0.342377
Si Si3 0.500000 0.500000 0.975410
Si Si4 0.471049 0.778975 0.111028
Si Si5 0.746788 0.548384 0.204766
Si Si6 0.191641 0.791804 0.833374
Si Si7 0.691800 0.196932 0.576611
O O1 0.070311 0.396074 0.054235
O O2 0.131943 0.641147 0.091312
O O3 0.030847 0.662525 0.108327
O O4 0.073266 0.622975 0.916303
O O5 0.958733 0.736789 0.235484
O O6 0.869319 0.831121 0.316265
O O7 0.957241 0.915276 0.402746
O O8 0.466392 0.616227 0.049826
O O9 0.793481 0.650064 0.255319
O O10 0.723219 0.445438 0.300921
O O11 0.701239 0.656855 0.154977
O O12 0.770044 0.443655 0.108972
O O13 0.205287 0.746810 0.955452
#
# Coordination Sequence:
#
# PCOD8190538 Si02
#       7
#     8   8   4   8   8   8   8
#     4   9  21  37  57  82 108 146 188 221 270 329
#     4  10  21  37  56  80 113 144 181 227 271 325
#     4  10  22  36  54  84 112 144 182 218 272 330
#     4  10  20  37  57  80 114 145 180 226 269 323
#     4  10  21  36  58  81 108 146 185 229 282 329
#     4  10  21  37  56  82 109 144 186 227 279 333
#     4  10  20  38  57  81 114 143 184 235 275 328
#
# _framework density 19.090838000000002
#
# number of rings (size 3 to 8) (size 9 to 14) (size 15 to 20)
#    0.000    2.154    0.000    2.308    0.000    9.846 
#    0.000    7.692    0.000    0.000    0.000    0.000 
#    0.000    0.000    0.000    0.000    0.000    0.000 
#
# Total GULP energy -322462.181875 kJ/mol
# GULP energy per Si atom -12402.391611 kJ/mol
# Density = 1.904739 g / cm^3
# Si number density = 19.090838 Si / 1000 Ang^3
#
#
#
# Elastic Constant Matrix: (Units=GPa)
#
#
# Indices 1 2 3 4 5 6 
#
# 1 125.5107 56.2738 58.7044 0.0000 0.0000 0.0000
# 2 56.2738 137.2871 61.4120 0.0000 0.0000 0.0000
# 3 58.7044 61.4120 116.1885 0.0000 0.0000 0.0000
# 4 0.0000 0.0000 0.0000 25.9892 0.0000 0.0000
# 5 0.0000 0.0000 0.0000 0.0000 32.6197 0.0000
# 6 0.0000 0.0000 0.0000 0.0000 0.0000 23.1032
#
#
#
# Elastic Compliance Matrix: (Units=1/GPa)
#
#
# Indices 1 2 3 4 5 6 
#
# 1 0.011140 -0.002683 -0.004210 0.000000 0.000000 0.000000
# 2 -0.002683 0.010186 -0.004028 0.000000 0.000000 0.000000
# 3 -0.004210 -0.004028 0.012863 0.000000 0.000000 0.000000
# 4 0.000000 0.000000 0.000000 0.038478 0.000000 0.000000
# 5 0.000000 0.000000 0.000000 0.000000 0.030656 0.000000
# 6 0.000000 0.000000 0.000000 0.000000 0.000000 0.043284
#
#
# Mechanical properties :
#
#
# Convention : Reuss Voigt Hill
#
# Bulk Modulus (GPa) = 80.99936 81.30741 81.15338
# Shear Modulus (GPa) = 28.97479 29.84881 29.41180
#
# Velocity S-wave (km/s) = 3.90004 3.95842 3.92934
# Velocity P-wave (km/s) = 7.92470 7.97335 7.94906
#
# Compressibility (1/GPa) = 0.01234578
#
# Stress axis : x y z
#
# Youngs Moduli (GPa) = 89.77041 98.17836 77.74188
#
# Poissons Ratio (x) = 0.26338 0.32732
# Poissons Ratio (y) = 0.24083 0.31316
# Poissons Ratio (z) = 0.37796 0.39548
#
# Static dielectric constant tensor:
#      x y z
#    x 3.524720 0.000000 0.000000 
#    y 0.000000 3.693840 0.000000 
#    z 0.000000 0.000000 3.510410 
# 
# 
# High freq. dielectric constant tensor:
#      x y z
#    x 1.743550 0.000000 0.000000 
#    y 0.000000 1.749760 0.000000 
#    z 0.000000 0.000000 1.747320 
# 
# From -- ./inp_files/3314.got.cif
#   From: 2010.03.12/outbox.cif.g09.slc.cpg/sg45_2_cif.got.tgz:3314.got - 2010.04.14 02:50:11.
