data_PCOD8190614
_publ_section_title
;
Structure prediction by ZEFSAII (Michael W. Deem and Ramdas Pophale) SiO2 
 PCOD8190614
Probable space group: I B A 2
;
_chemical_formula_sum "Si O2"
_cell_formula_units_Z 56
_cell_length_a 14.299278
_cell_length_b 13.544493
_cell_length_c 12.110152
_cell_angle_alpha 90.000000
_cell_angle_beta 90.000000
_cell_angle_gamma 90.000000
_cell_volume 2345.451500
_symmetry_space_group_name_H-M "I B A 2"
_symmetry_group_IT_number 45
_symmetry_cell_setting 'orthorhombic'
loop_
_space_group_symop_operation_xyz
x,y,z
-x,-y,z
-x,y,1/2+z
x,-y,1/2+z
1/2+x,1/2+y,1/2+z
1/2-x,1/2-y,1/2+z
1/2-x,1/2+y,z
1/2+x,1/2-y,z
loop_
_atom_site_type_symbol
_atom_site_label
_atom_site_fract_x
_atom_site_fract_y
_atom_site_fract_z
Si Si1 0.000000 0.000000 0.424510
Si Si2 0.851572 0.544744 0.485190
Si Si3 0.038216 0.209376 0.011078
Si Si4 0.340471 0.743988 0.560425
Si Si5 0.682342 0.731394 0.698000
Si Si6 0.527322 0.845150 0.824327
Si Si7 0.500000 0.000000 0.651773
Si Si8 0.189537 0.917801 0.874272
O O1 0.906532 0.978834 0.353738
O O2 0.024307 0.906888 0.499617
O O3 0.804548 0.645876 0.528665
O O4 0.936657 0.569022 0.403832
O O5 0.774045 0.483085 0.419905
O O6 0.904086 0.482003 0.581945
O O7 0.132168 0.223914 0.079159
O O8 0.951463 0.249322 0.086116
O O9 0.040203 0.269612 0.893285
O O10 0.279757 0.712027 0.667917
O O11 0.327439 0.669337 0.460501
O O12 0.619875 0.787754 0.785979
O O13 0.711699 0.626910 0.753536
O O14 0.477796 0.900933 0.722888
#
# Coordination Sequence:
#
# PCOD8190614 Si02
#       8
#     4   8   8   8   8   8   4   8
#     4  10  20  48  70 100 146 180 244 296 352 432
#     4  11  24  47  66 109 148 179 249 305 353 455
#     4  10  23  46  71 103 147 183 244 310 354 446
#     4  10  23  46  67 101 148 182 239 307 356 435
#     4  12  23  46  72 103 140 198 237 291 389 422
#     4  11  23  46  68 106 144 186 243 304 366 436
#     4  12  26  42  78 106 138 204 238 298 398 428
#     4  11  24  45  72 105 142 190 240 300 363 436
#
# _framework density 23.876000999999999
#
# number of rings (size 3 to 8) (size 9 to 14) (size 15 to 20)
#    0.000    1.143    4.286    3.857    2.000    1.714 
#   12.857    0.000    0.000    0.000    0.000    0.000 
#    0.000    0.000    0.000    0.000    0.000    0.000 
#
# Total GULP energy -346967.265439 kJ/mol
# GULP energy per Si atom -12391.688051 kJ/mol
# Density = 2.382166 g / cm^3
# Si number density = 23.876001 Si / 1000 Ang^3
#
#
#
# Elastic Constant Matrix: (Units=GPa)
#
#
# Indices 1 2 3 4 5 6 
#
# 1 92.2697 38.0114 45.5996 0.0000 0.0000 0.0000
# 2 38.0114 106.6483 45.2504 0.0000 0.0000 0.0000
# 3 45.5996 45.2504 97.7963 0.0000 0.0000 0.0000
# 4 0.0000 0.0000 0.0000 21.1302 0.0000 0.0000
# 5 0.0000 0.0000 0.0000 0.0000 46.9285 0.0000
# 6 0.0000 0.0000 0.0000 0.0000 0.0000 37.2655
#
#
#
# Elastic Compliance Matrix: (Units=1/GPa)
#
#
# Indices 1 2 3 4 5 6 
#
# 1 0.014777 -0.002916 -0.005541 0.000000 0.000000 0.000000
# 2 -0.002916 0.012242 -0.004305 0.000000 0.000000 0.000000
# 3 -0.005541 -0.004305 0.014801 0.000000 0.000000 0.000000
# 4 0.000000 0.000000 0.000000 0.047326 0.000000 0.000000
# 5 0.000000 0.000000 0.000000 0.000000 0.021309 0.000000
# 6 0.000000 0.000000 0.000000 0.000000 0.000000 0.026834
#
#
# Mechanical properties :
#
#
# Convention : Reuss Voigt Hill
#
# Bulk Modulus (GPa) = 61.36161 61.60413 61.48287
# Shear Modulus (GPa) = 29.71833 32.25501 30.98667
#
# Velocity S-wave (km/s) = 3.53185 3.67950 3.60643
# Velocity P-wave (km/s) = 6.51060 6.62641 6.56876
#
# Compressibility (1/GPa) = 0.01629683
#
# Stress axis : x y z
#
# Youngs Moduli (GPa) = 67.67078 81.68273 67.56331
#
# Poissons Ratio (x) = 0.23818 0.37438
# Poissons Ratio (y) = 0.19732 0.29086
# Poissons Ratio (z) = 0.37497 0.35165
#
# Static dielectric constant tensor:
#      x y z
#    x 4.463280 0.000000 0.000000 
#    y 0.000000 4.430990 0.000000 
#    z 0.000000 0.000000 4.297470 
# 
# 
# High freq. dielectric constant tensor:
#      x y z
#    x 1.948380 0.000000 0.000000 
#    y 0.000000 1.951810 0.000000 
#    z 0.000000 0.000000 1.939450 
# 
# From -- ./inp_files/4196.got.cif
#   From: 2010.03.12/outbox.cif.g09.slc.cpg/sg45_3_cif.got.tgz:4196.got - 2010.04.14 02:50:11.
