data_PCOD8190976
_publ_section_title
;
Structure prediction by ZEFSAII (Michael W. Deem and Ramdas Pophale) SiO2 
 PCOD8190976
Probable space group: I B A 2
;
_chemical_formula_sum "Si O2"
_cell_formula_units_Z 64
_cell_length_a 22.559430
_cell_length_b 9.561308
_cell_length_c 13.740980
_cell_angle_alpha 90.000000
_cell_angle_beta 90.000000
_cell_angle_gamma 90.000000
_cell_volume 2963.897212
_symmetry_space_group_name_H-M "I B A 2"
_symmetry_group_IT_number 45
_symmetry_cell_setting 'orthorhombic'
loop_
_space_group_symop_operation_xyz
x,y,z
-x,-y,z
-x,y,1/2+z
x,-y,1/2+z
1/2+x,1/2+y,1/2+z
1/2-x,1/2-y,1/2+z
1/2-x,1/2+y,z
1/2+x,1/2-y,z
loop_
_atom_site_type_symbol
_atom_site_label
_atom_site_fract_x
_atom_site_fract_y
_atom_site_fract_z
Si Si1 0.510725 0.337018 0.310540
Si Si2 0.355116 0.706734 0.270953
Si Si3 0.383816 0.934045 0.118292
Si Si4 0.770623 0.568185 0.006657
Si Si5 0.012543 0.654895 0.483763
Si Si6 0.569431 0.223746 0.647519
Si Si7 0.181459 0.089705 0.686025
Si Si8 0.754110 0.185186 0.375380
O O1 0.500000 0.500000 0.318867
O O2 0.580333 0.307866 0.318005
O O3 0.474269 0.260185 0.395998
O O4 0.485936 0.274180 0.211147
O O5 0.353051 0.829720 0.192686
O O6 0.333647 0.565930 0.219341
O O7 0.311161 0.751725 0.357103
O O8 0.332214 0.992212 0.047939
O O9 0.432748 0.849269 0.057817
O O10 0.410490 0.066488 0.177098
O O11 0.724129 0.586861 0.093620
O O12 0.785393 0.714950 0.954243
O O13 0.746704 0.467056 0.922832
O O14 0.000000 0.500000 0.441935
O O15 0.954119 0.713929 0.537415
O O16 0.621506 0.335071 0.653841
O O17 0.210048 0.177993 0.774217
#
# Coordination Sequence:
#
# PCOD8190976 Si02
#       8
#     8   8   8   8   8   8   8   8
#     4  12  27  46  72 106 144 194 236 294 363 429
#     4  12  26  47  71 103 144 191 237 299 361 426
#     4  11  25  45  75 102 143 188 236 299 358 426
#     4  12  27  46  75 105 144 192 239 299 371 427
#     4  10  26  45  70 107 139 184 243 292 355 432
#     4  11  26  48  71 103 140 190 239 295 360 420
#     4  12  27  49  73 103 149 191 242 301 362 437
#     4  12  28  46  70 111 143 187 248 297 362 442
#
# _framework density 21.593191999999998
#
# number of rings (size 3 to 8) (size 9 to 14) (size 15 to 20)
#    0.000    0.500    5.000    1.500   12.250    1.500 
#    0.000    0.000    0.000    0.000    0.000    0.000 
#    0.000    0.000    0.000    0.000    0.000    0.000 
#
# Total GULP energy -396970.830502 kJ/mol
# GULP energy per Si atom -12405.338453 kJ/mol
# Density = 2.154405 g / cm^3
# Si number density = 21.593192 Si / 1000 Ang^3
#
#
#
# Elastic Constant Matrix: (Units=GPa)
#
#
# Indices 1 2 3 4 5 6 
#
# 1 66.3984 1.6691 22.8264 0.0000 0.0000 0.0000
# 2 1.6691 109.6268 48.6786 0.0000 0.0000 0.0000
# 3 22.8264 48.6786 93.4757 0.0000 0.0000 0.0000
# 4 0.0000 0.0000 0.0000 36.5677 0.0000 0.0000
# 5 0.0000 0.0000 0.0000 0.0000 19.2050 0.0000
# 6 0.0000 0.0000 0.0000 0.0000 0.0000 36.3509
#
#
#
# Elastic Compliance Matrix: (Units=1/GPa)
#
#
# Indices 1 2 3 4 5 6 
#
# 1 0.016783 0.002035 -0.005158 0.000000 0.000000 0.000000
# 2 0.002035 0.012112 -0.006805 0.000000 0.000000 0.000000
# 3 -0.005158 -0.006805 0.015501 0.000000 0.000000 0.000000
# 4 0.000000 0.000000 0.000000 0.027347 0.000000 0.000000
# 5 0.000000 0.000000 0.000000 0.000000 0.052070 0.000000
# 6 0.000000 0.000000 0.000000 0.000000 0.000000 0.027510
#
#
# Mechanical properties :
#
#
# Convention : Reuss Voigt Hill
#
# Bulk Modulus (GPa) = 40.74857 46.20545 43.47701
# Shear Modulus (GPa) = 27.87726 31.51317 29.69521
#
# Velocity S-wave (km/s) = 3.59698 3.82436 3.71241
# Velocity P-wave (km/s) = 6.01357 6.39887 6.20921
#
# Compressibility (1/GPa) = 0.02454074
#
# Stress axis : x y z
#
# Youngs Moduli (GPa) = 59.58542 82.56024 64.51170
#
# Poissons Ratio (x) = -0.16799 0.33275
# Poissons Ratio (y) = -0.12124 0.43897
# Poissons Ratio (z) = 0.30734 0.56179
#
# Static dielectric constant tensor:
#      x y z
#    x 3.993470 0.000000 0.000000 
#    y 0.000000 3.950240 0.000000 
#    z 0.000000 0.000000 3.796390 
# 
# 
# High freq. dielectric constant tensor:
#      x y z
#    x 1.858970 0.000000 0.000000 
#    y 0.000000 1.860050 0.000000 
#    z 0.000000 0.000000 1.849680 
# 
# From -- ./inp_files/5856.got.cif
#   From: 2010.03.12/outbox.cif.g09.slc.cpg/sg45_3_cif.got.tgz:5856.got - 2010.04.14 02:50:11.
