data_PCOD8190553
_publ_section_title
;
Structure prediction by ZEFSAII (Michael W. Deem and Ramdas Pophale) SiO2 
 PCOD8190553
Probable space group: I B A 2
;
_chemical_formula_sum "Si O2"
_cell_formula_units_Z 52
_cell_length_a 9.378189
_cell_length_b 14.981101
_cell_length_c 16.977107
_cell_angle_alpha 90.000000
_cell_angle_beta 90.000000
_cell_angle_gamma 90.000000
_cell_volume 2385.208777
_symmetry_space_group_name_H-M "I B A 2"
_symmetry_group_IT_number 45
_symmetry_cell_setting 'orthorhombic'
loop_
_space_group_symop_operation_xyz
x,y,z
-x,-y,z
-x,y,1/2+z
x,-y,1/2+z
1/2+x,1/2+y,1/2+z
1/2-x,1/2-y,1/2+z
1/2-x,1/2+y,z
1/2+x,1/2-y,z
loop_
_atom_site_type_symbol
_atom_site_label
_atom_site_fract_x
_atom_site_fract_y
_atom_site_fract_z
Si Si1 0.500000 0.500000 0.460420
Si Si2 0.874971 0.819470 0.926345
Si Si3 0.076736 0.687575 0.853410
Si Si4 0.279360 0.939741 0.031143
Si Si5 0.000000 0.500000 0.653869
Si Si6 0.546698 0.806861 0.190743
Si Si7 0.500000 0.000000 0.904884
Si Si8 0.799421 0.752207 0.086867
O O1 0.456530 0.413359 0.407130
O O2 0.628361 0.484286 0.519621
O O3 0.746480 0.798232 0.864991
O O4 0.989547 0.738628 0.922198
O O5 0.811590 0.824718 0.016076
O O6 0.012114 0.732429 0.773379
O O7 0.059166 0.580670 0.852591
O O8 0.241351 0.836934 0.046099
O O9 0.357538 0.985825 0.103649
O O10 0.373824 0.955127 0.954095
O O11 0.969127 0.587165 0.705075
O O12 0.706654 0.782891 0.162937
O O13 0.455973 0.769255 0.118606
#
# Coordination Sequence:
#
# PCOD8190553 Si02
#       8
#     4   8   8   8   4   8   4   8
#     4  12  22  38  60 100 126 160 222 288 332 388
#     4  12  25  41  66  98 130 178 231 285 340 401
#     4  12  25  42  66  96 138 178 223 283 346 415
#     4  10  20  37  65  96 129 166 223 282 327 392
#     4   9  21  38  62  90 128 172 216 264 342 416
#     4  11  23  41  63  94 131 173 218 271 346 405
#     4  11  21  42  64  98 132 180 220 278 336 414
#     4  11  22  41  65  94 127 171 223 278 329 406
#
# _framework density 21.801026
#
# number of rings (size 3 to 8) (size 9 to 14) (size 15 to 20)
#    0.000    0.923    3.077    5.077    2.154    0.000 
#    0.000    0.000    0.000    7.385    0.000    0.000 
#    0.000    0.000    0.000    0.000    0.000    0.000 
#
# Total GULP energy -322263.219041 kJ/mol
# GULP energy per Si atom -12394.739194 kJ/mol
# Density = 2.175141 g / cm^3
# Si number density = 21.801026 Si / 1000 Ang^3
#
#
#
# Elastic Constant Matrix: (Units=GPa)
#
#
# Indices 1 2 3 4 5 6 
#
# 1 111.4675 51.0197 6.9208 0.0000 0.0000 0.0000
# 2 51.0197 98.1279 24.6185 0.0000 0.0000 0.0000
# 3 6.9208 24.6185 72.8660 0.0000 0.0000 0.0000
# 4 0.0000 0.0000 0.0000 10.1499 0.0000 0.0000
# 5 0.0000 0.0000 0.0000 0.0000 37.6350 0.0000
# 6 0.0000 0.0000 0.0000 0.0000 0.0000 33.6498
#
#
#
# Elastic Compliance Matrix: (Units=1/GPa)
#
#
# Indices 1 2 3 4 5 6 
#
# 1 0.011845 -0.006421 0.001044 0.000000 0.000000 0.000000
# 2 -0.006421 0.014615 -0.004328 0.000000 0.000000 0.000000
# 3 0.001044 -0.004328 0.015087 0.000000 0.000000 0.000000
# 4 0.000000 0.000000 0.000000 0.098523 0.000000 0.000000
# 5 0.000000 0.000000 0.000000 0.000000 0.026571 0.000000
# 6 0.000000 0.000000 0.000000 0.000000 0.000000 0.029718
#
#
# Mechanical properties :
#
#
# Convention : Reuss Voigt Hill
#
# Bulk Modulus (GPa) = 45.17080 49.73105 47.45092
# Shear Modulus (GPa) = 22.40674 29.61377 26.01025
#
# Velocity S-wave (km/s) = 3.20938 3.68960 3.45784
# Velocity P-wave (km/s) = 5.87351 6.40404 6.14450
#
# Compressibility (1/GPa) = 0.02213820
#
# Stress axis : x y z
#
# Youngs Moduli (GPa) = 84.42250 68.42343 66.28276
#
# Poissons Ratio (x) = 0.43932 -0.06921
# Poissons Ratio (y) = 0.54205 0.28687
# Poissons Ratio (z) = -0.08816 0.29613
#
# Static dielectric constant tensor:
#      x y z
#    x 3.962910 0.000000 0.000000 
#    y 0.000000 4.131720 0.000000 
#    z 0.000000 0.000000 3.609330 
# 
# 
# High freq. dielectric constant tensor:
#      x y z
#    x 1.864590 0.000000 0.000000 
#    y 0.000000 1.862410 0.000000 
#    z 0.000000 0.000000 1.833430 
# 
# From -- ./inp_files/7673.got.cif
#   From: 2010.03.12/outbox.cif.g09.slc.cpg/sg45_4_cif.got.tgz:7673.got - 2010.04.14 02:50:11.
