data_PCOD8190372
_publ_section_title
;
Structure prediction by ZEFSAII (Michael W. Deem and Ramdas Pophale) SiO2 
 PCOD8190372
Probable space group: I B A 2
;
_chemical_formula_sum "Si O2"
_cell_formula_units_Z 48
_cell_length_a 26.506732
_cell_length_b 23.788097
_cell_length_c 4.942448
_cell_angle_alpha 90.000000
_cell_angle_beta 90.000000
_cell_angle_gamma 90.000000
_cell_volume 3116.434451
_symmetry_space_group_name_H-M "I B A 2"
_symmetry_group_IT_number 45
_symmetry_cell_setting 'orthorhombic'
loop_
_space_group_symop_operation_xyz
x,y,z
-x,-y,z
-x,y,1/2+z
x,-y,1/2+z
1/2+x,1/2+y,1/2+z
1/2-x,1/2-y,1/2+z
1/2-x,1/2+y,z
1/2+x,1/2-y,z
loop_
_atom_site_type_symbol
_atom_site_label
_atom_site_fract_x
_atom_site_fract_y
_atom_site_fract_z
Si Si1 0.320347 0.651501 0.233120
Si Si2 0.267757 0.780061 0.623659
Si Si3 0.859085 0.216485 0.234171
Si Si4 0.640695 0.464995 0.027940
Si Si5 0.030991 0.072964 0.905176
Si Si6 0.530749 0.294436 0.861322
O O1 0.259203 0.662475 0.228419
O O2 0.345340 0.665721 0.524120
O O3 0.329062 0.588429 0.136349
O O4 0.345621 0.695822 0.032384
O O5 0.255417 0.770614 0.308077
O O6 0.328386 0.774239 0.663630
O O7 0.917934 0.232666 0.245455
O O8 0.655389 0.516938 0.224680
O O9 0.581104 0.454050 0.026921
O O10 0.039708 0.139217 0.884003
O O11 0.014770 0.054120 0.604343
O O12 0.485869 0.275202 0.659578
#
# Coordination Sequence:
#
# PCOD8190372 Si02
#       6
#     8   8   8   8   8   8
#     4  10  19  32  46  61  83 101 133 181 209 254
#     4   8  16  28  46  67  78  98 127 164 216 250
#     4  10  17  30  49  63  82 104 132 170 209 253
#     4  12  24  33  44  58  76 108 141 176 220 246
#     4  10  21  33  44  54  73 104 142 181 215 241
#     4  10  19  28  43  63  81 108 134 164 210 250
#
# _framework density 15.402217
#
# number of rings (size 3 to 8) (size 9 to 14) (size 15 to 20)
#    0.000    2.000    1.667    3.000    4.667    2.000 
#    0.000    0.000    0.000    0.000    0.000    0.000 
#    0.000    0.000    0.000    0.000    0.000    5.000 
#
# Total GULP energy -297321.319184 kJ/mol
# GULP energy per Si atom -12388.388299 kJ/mol
# Density = 1.536716 g / cm^3
# Si number density = 15.402217 Si / 1000 Ang^3
#
#
#
# Elastic Constant Matrix: (Units=GPa)
#
#
# Indices 1 2 3 4 5 6 
#
# 1 83.8267 37.0907 14.5459 0.0000 0.0000 0.0000
# 2 37.0907 36.1705 5.5431 0.0000 0.0000 0.0000
# 3 14.5459 5.5431 74.3644 0.0000 0.0000 0.0000
# 4 0.0000 0.0000 0.0000 15.5668 0.0000 0.0000
# 5 0.0000 0.0000 0.0000 0.0000 20.0195 0.0000
# 6 0.0000 0.0000 0.0000 0.0000 0.0000 23.1637
#
#
#
# Elastic Compliance Matrix: (Units=1/GPa)
#
#
# Indices 1 2 3 4 5 6 
#
# 1 0.022359 -0.022515 -0.002695 0.000000 0.000000 0.000000
# 2 -0.022515 0.050638 0.000629 0.000000 0.000000 0.000000
# 3 -0.002695 0.000629 0.013928 0.000000 0.000000 0.000000
# 4 0.000000 0.000000 0.000000 0.064239 0.000000 0.000000
# 5 0.000000 0.000000 0.000000 0.000000 0.049951 0.000000
# 6 0.000000 0.000000 0.000000 0.000000 0.000000 0.043171
#
#
# Mechanical properties :
#
#
# Convention : Reuss Voigt Hill
#
# Bulk Modulus (GPa) = 26.48071 34.30235 30.39153
# Shear Modulus (GPa) = 16.33792 20.89545 18.61668
#
# Velocity S-wave (km/s) = 3.26045 3.68727 3.48041
# Velocity P-wave (km/s) = 5.60394 6.35982 5.99381
#
# Compressibility (1/GPa) = 0.03776333
#
# Stress axis : x y z
#
# Youngs Moduli (GPa) = 44.72409 19.74787 71.79994
#
# Poissons Ratio (x) = 0.44463 0.19352
# Poissons Ratio (y) = 1.00697 -0.04519
# Poissons Ratio (z) = 0.12054 -0.01243
#
# Static dielectric constant tensor:
#      x y z
#    x 3.116410 0.000000 0.000000 
#    y 0.000000 2.698560 0.000000 
#    z 0.000000 0.000000 3.229440 
# 
# 
# High freq. dielectric constant tensor:
#      x y z
#    x 1.574970 0.000000 0.000000 
#    y 0.000000 1.525190 0.000000 
#    z 0.000000 0.000000 1.622590 
# 
# From -- ./inp_files/310.got.cif
#   From: 2010.03.12/outbox.cif.g09.slc.cpg/sg45_1_cif.got.tgz:310.got - 2010.04.14 02:50:11.
