data_PCOD8190488
_publ_section_title
;
Structure prediction by ZEFSAII (Michael W. Deem and Ramdas Pophale) SiO2 
 PCOD8190488
Probable space group: I B A 2
;
_chemical_formula_sum "Si O2"
_cell_formula_units_Z 64
_cell_length_a 22.674402
_cell_length_b 17.582353
_cell_length_c 9.816086
_cell_angle_alpha 90.000000
_cell_angle_beta 90.000000
_cell_angle_gamma 90.000000
_cell_volume 3913.372527
_symmetry_space_group_name_H-M "I B A 2"
_symmetry_group_IT_number 45
_symmetry_cell_setting 'orthorhombic'
loop_
_space_group_symop_operation_xyz
x,y,z
-x,-y,z
-x,y,1/2+z
x,-y,1/2+z
1/2+x,1/2+y,1/2+z
1/2-x,1/2-y,1/2+z
1/2-x,1/2+y,z
1/2+x,1/2-y,z
loop_
_atom_site_type_symbol
_atom_site_label
_atom_site_fract_x
_atom_site_fract_y
_atom_site_fract_z
Si Si1 0.576273 0.927415 0.830440
Si Si2 0.244746 0.937118 0.677910
Si Si3 0.752267 0.924436 0.484995
Si Si4 0.870092 0.352763 0.576268
Si Si5 0.866395 0.639776 0.586751
Si Si6 0.055831 0.395624 0.828752
Si Si7 0.798323 0.767788 0.464541
Si Si8 0.805046 0.215782 0.653591
O O1 0.620345 0.895457 0.718075
O O2 0.514079 0.883631 0.817821
O O3 0.570605 0.016531 0.807097
O O4 0.603261 0.916419 0.979505
O O5 0.306042 0.898752 0.634941
O O6 0.190836 0.876294 0.657528
O O7 0.230059 0.011556 0.592266
O O8 0.248975 0.961726 0.835360
O O9 0.688696 0.887611 0.511326
O O10 0.802143 0.858326 0.494216
O O11 0.924970 0.365457 0.476639
O O12 0.863363 0.261720 0.605357
O O13 0.910344 0.652447 0.713402
O O14 0.856099 0.722746 0.517864
O O15 0.787638 0.753735 0.303857
O O16 0.743812 0.733712 0.543415
#
# Coordination Sequence:
#
# PCOD8190488 Si02
#       8
#     8   8   8   8   8   8   8   8
#     4  11  22  34  49  66  97 131 166 205 240 268
#     4  10  20  32  49  73  99 126 160 196 237 291
#     4  10  20  32  49  73  99 126 160 196 237 291
#     4  11  20  34  50  67  97 134 163 195 241 282
#     4  11  20  34  50  67  97 134 163 195 241 282
#     4  11  22  34  47  72  95 125 170 209 232 276
#     4   9  19  33  48  69  95 126 160 195 235 286
#     4   9  19  33  48  69  95 126 160 195 235 286
#
# _framework density 16.354179999999999
#
# number of rings (size 3 to 8) (size 9 to 14) (size 15 to 20)
#    0.000    1.750    2.500    3.000    3.500    3.000 
#    0.000    0.000    0.000    0.000    0.000    0.000 
#    0.000    6.000    0.000    0.000    0.000    0.000 
#
# Total GULP energy -396687.838266 kJ/mol
# GULP energy per Si atom -12396.494946 kJ/mol
# Density = 1.631696 g / cm^3
# Si number density = 16.354180 Si / 1000 Ang^3
#
#
#
# Elastic Constant Matrix: (Units=GPa)
#
#
# Indices 1 2 3 4 5 6 
#
# 1 40.8545 24.5085 12.6985 0.0000 0.0000 0.0000
# 2 24.5085 67.5088 21.8898 0.0000 0.0000 0.0000
# 3 12.6985 21.8898 68.8360 0.0000 0.0000 0.0000
# 4 0.0000 0.0000 0.0000 27.3341 0.0000 0.0000
# 5 0.0000 0.0000 0.0000 0.0000 16.7412 0.0000
# 6 0.0000 0.0000 0.0000 0.0000 0.0000 20.0389
#
#
#
# Elastic Compliance Matrix: (Units=1/GPa)
#
#
# Indices 1 2 3 4 5 6 
#
# 1 0.031654 -0.010702 -0.002436 0.000000 0.000000 0.000000
# 2 -0.010702 0.020134 -0.004428 0.000000 0.000000 0.000000
# 3 -0.002436 -0.004428 0.016385 0.000000 0.000000 0.000000
# 4 0.000000 0.000000 0.000000 0.036584 0.000000 0.000000
# 5 0.000000 0.000000 0.000000 0.000000 0.059733 0.000000
# 6 0.000000 0.000000 0.000000 0.000000 0.000000 0.049903
#
#
# Mechanical properties :
#
#
# Convention : Reuss Voigt Hill
#
# Bulk Modulus (GPa) = 30.26607 32.82144 31.54375
# Shear Modulus (GPa) = 19.19091 20.69634 19.94363
#
# Velocity S-wave (km/s) = 3.42929 3.56126 3.49590
# Velocity P-wave (km/s) = 5.85037 6.08463 5.96865
#
# Compressibility (1/GPa) = 0.03304030
#
# Stress axis : x y z
#
# Youngs Moduli (GPa) = 31.59123 49.66716 61.03173
#
# Poissons Ratio (x) = 0.53153 0.14869
# Poissons Ratio (y) = 0.33809 0.27027
# Poissons Ratio (z) = 0.07696 0.21995
#
# Static dielectric constant tensor:
#      x y z
#    x 3.004950 0.000000 0.000000 
#    y 0.000000 3.384320 0.000000 
#    z 0.000000 0.000000 3.303930 
# 
# 
# High freq. dielectric constant tensor:
#      x y z
#    x 1.588690 0.000000 0.000000 
#    y 0.000000 1.617150 0.000000 
#    z 0.000000 0.000000 1.656120 
# 
# From -- ./inp_files/2227.got.cif
#   From: 2010.03.12/outbox.cif.g09.slc.cpg/sg45_2_cif.got.tgz:2227.got - 2010.04.14 02:50:11.
