data_PCOD8190102
_publ_section_title
;
Structure prediction by ZEFSAII (Michael W. Deem and Ramdas Pophale) SiO2 
 PCOD8190102
Probable space group: I M M 2
;
_chemical_formula_sum "Si O2"
_cell_formula_units_Z 48
_cell_length_a 16.862112
_cell_length_b 18.210248
_cell_length_c 7.422963
_cell_angle_alpha 90.000000
_cell_angle_beta 90.000000
_cell_angle_gamma 90.000000
_cell_volume 2279.319079
_symmetry_space_group_name_H-M "I M M 2"
_symmetry_group_IT_number 44
_symmetry_cell_setting 'orthorhombic'
loop_
_space_group_symop_operation_xyz
x,y,z
-x,-y,z
-x,y,z
x,-y,z
1/2+x,1/2+y,1/2+z
1/2-x,1/2-y,1/2+z
1/2-x,1/2+y,1/2+z
1/2+x,1/2-y,1/2+z
loop_
_atom_site_type_symbol
_atom_site_label
_atom_site_fract_x
_atom_site_fract_y
_atom_site_fract_z
Si Si1 0.839818 0.335471 0.602010
Si Si2 0.000000 0.418570 0.689138
Si Si3 0.500000 0.082098 0.610415
Si Si4 0.139091 0.309235 0.198510
Si Si5 0.310448 0.416053 0.510366
Si Si6 0.188244 0.822815 0.650607
Si Si7 0.590741 0.345541 0.790985
O O1 0.922804 0.375448 0.628018
O O2 0.830729 0.308282 0.400440
O O3 0.764939 0.388534 0.629869
O O4 0.835654 0.260039 0.717299
O O5 0.000000 0.500000 0.602009
O O6 0.000000 0.425387 0.899798
O O7 0.421693 0.124732 0.668908
O O8 0.500000 0.000000 0.696725
O O9 0.219280 0.322616 0.083284
O O10 0.100808 0.229312 0.172578
O O11 0.296988 0.500000 0.457940
O O12 0.326313 0.375024 0.321654
O O13 0.383117 0.408386 0.650285
O O14 0.137430 0.849648 0.479961
O O15 0.500000 0.356797 0.843995
#
# Coordination Sequence:
#
# PCOD8190102 Si02
#       7
#     8   4   4   8   8   8   8
#     4  10  22  40  67  94 129 174 224 268 333 407
#     4  11  25  37  57  99 143 174 211 274 344 406
#     4  11  25  37  59  99 139 176 213 270 346 408
#     4  10  21  40  64  93 129 174 220 266 328 401
#     4  11  25  44  69  99 131 174 225 281 341 396
#     4  10  24  42  69 101 130 174 227 274 330 406
#     4  11  24  42  68  99 130 173 226 275 330 393
#
# _framework density 21.058920000000001
#
# number of rings (size 3 to 8) (size 9 to 14) (size 15 to 20)
#    0.000    1.500    2.500    1.000    8.167    5.667 
#    0.000    0.000    0.000    0.000    0.000    0.000 
#    0.000    0.000    0.000    0.000    0.000    0.000 
#
# Total GULP energy -297492.801096 kJ/mol
# GULP energy per Si atom -12395.533379 kJ/mol
# Density = 2.101099 g / cm^3
# Si number density = 21.058920 Si / 1000 Ang^3
#
#
#
# Elastic Constant Matrix: (Units=GPa)
#
#
# Indices 1 2 3 4 5 6 
#
# 1 162.3987 49.8417 43.6270 0.0000 0.0000 0.0000
# 2 49.8417 151.4754 43.2116 0.0000 0.0000 0.0000
# 3 43.6270 43.2116 86.1025 0.0000 0.0000 0.0000
# 4 0.0000 0.0000 0.0000 28.2591 0.0000 0.0000
# 5 0.0000 0.0000 0.0000 0.0000 34.5102 0.0000
# 6 0.0000 0.0000 0.0000 0.0000 0.0000 29.1603
#
#
#
# Elastic Compliance Matrix: (Units=1/GPa)
#
#
# Indices 1 2 3 4 5 6 
#
# 1 0.007447 -0.001604 -0.002969 0.000000 0.000000 0.000000
# 2 -0.001604 0.008050 -0.003228 0.000000 0.000000 0.000000
# 3 -0.002969 -0.003228 0.014738 0.000000 0.000000 0.000000
# 4 0.000000 0.000000 0.000000 0.035387 0.000000 0.000000
# 5 0.000000 0.000000 0.000000 0.000000 0.028977 0.000000
# 6 0.000000 0.000000 0.000000 0.000000 0.000000 0.034293
#
#
# Mechanical properties :
#
#
# Convention : Reuss Voigt Hill
#
# Bulk Modulus (GPa) = 68.32530 74.81524 71.57027
# Shear Modulus (GPa) = 33.47376 35.93900 34.70638
#
# Velocity S-wave (km/s) = 3.99121 4.13557 4.06404
# Velocity P-wave (km/s) = 7.33178 7.64249 7.48875
#
# Compressibility (1/GPa) = 0.01463587
#
# Stress axis : x y z
#
# Youngs Moduli (GPa) = 134.27571 124.22204 67.85171
#
# Poissons Ratio (x) = 0.19920 0.20143
# Poissons Ratio (y) = 0.21533 0.21899
# Poissons Ratio (z) = 0.39862 0.40093
#
# Static dielectric constant tensor:
#      x y z
#    x 3.855830 0.000000 0.000000 
#    y 0.000000 4.013350 0.000000 
#    z 0.000000 0.000000 3.772120 
# 
# 
# High freq. dielectric constant tensor:
#      x y z
#    x 1.831650 0.000000 0.000000 
#    y 0.000000 1.821400 0.000000 
#    z 0.000000 0.000000 1.824530 
# 
# From -- ./inp_files/7151.got.cif
#   From: 2010.03.12/outbox.cif.g09.slc.cpg/sg44_4_cif.got.tgz:7151.got - 2010.04.14 02:36:11.
