data_PCOD8190861
_publ_section_title
;
Structure prediction by ZEFSAII (Michael W. Deem and Ramdas Pophale) SiO2 
 PCOD8190861
Probable space group: I B A 2
;
_chemical_formula_sum "Si O2"
_cell_formula_units_Z 60
_cell_length_a 8.836053
_cell_length_b 16.362848
_cell_length_c 17.590840
_cell_angle_alpha 90.000000
_cell_angle_beta 90.000000
_cell_angle_gamma 90.000000
_cell_volume 2543.336282
_symmetry_space_group_name_H-M "I B A 2"
_symmetry_group_IT_number 45
_symmetry_cell_setting 'orthorhombic'
loop_
_space_group_symop_operation_xyz
x,y,z
-x,-y,z
-x,y,1/2+z
x,-y,1/2+z
1/2+x,1/2+y,1/2+z
1/2-x,1/2-y,1/2+z
1/2-x,1/2+y,z
1/2+x,1/2-y,z
loop_
_atom_site_type_symbol
_atom_site_label
_atom_site_fract_x
_atom_site_fract_y
_atom_site_fract_z
Si Si1 0.078309 0.081970 0.800570
Si Si2 0.555865 0.586212 0.961926
Si Si3 0.355404 0.851987 0.371049
Si Si4 0.172319 0.205115 0.011273
Si Si5 0.109632 0.386232 0.987438
Si Si6 0.854915 0.659276 0.657018
Si Si7 0.929263 0.768960 0.238457
Si Si8 0.000000 0.500000 0.615914
O O1 0.259391 0.080855 0.821057
O O2 0.993651 0.103044 0.877186
O O3 0.050223 0.157376 0.744122
O O4 0.000000 0.000000 0.765998
O O5 0.500000 0.500000 0.993883
O O6 0.482612 0.652682 0.018503
O O7 0.733466 0.588061 0.951847
O O8 0.244382 0.804714 0.428191
O O9 0.483751 0.897557 0.421198
O O10 0.424557 0.783298 0.316016
O O11 0.116198 0.296276 0.022117
O O12 0.296092 0.175000 0.071930
O O13 0.095231 0.442099 0.061167
O O14 0.731826 0.690059 0.718269
O O15 0.009223 0.710561 0.671247
O O16 0.893411 0.561443 0.666174
#
# Coordination Sequence:
#
# PCOD8190861 Si02
#       8
#     8   8   8   8   8   8   8   4
#     4  10  23  44  68 106 152 190 252 313 387 461
#     4  10  23  41  71 109 152 187 250 321 385 451
#     4  11  23  46  77 113 148 196 266 320 384 466
#     4  11  23  47  73 110 150 199 255 321 380 468
#     4  12  24  41  78 108 148 197 260 324 379 455
#     4  12  28  49  74 109 159 206 261 322 388 482
#     4  12  26  49  76 108 154 212 257 318 397 473
#     4  12  28  50  68 114 156 198 264 318 392 468
#
# _framework density 23.591062000000001
#
# number of rings (size 3 to 8) (size 9 to 14) (size 15 to 20)
#    0.000    0.800    2.667    4.800    7.467    1.067 
#    2.400    1.333    0.000    0.000    0.000    0.000 
#    0.000    0.000    0.000    0.000    0.000    0.000 
#
# Total GULP energy -371851.307079 kJ/mol
# GULP energy per Si atom -12395.043569 kJ/mol
# Density = 2.353737 g / cm^3
# Si number density = 23.591062 Si / 1000 Ang^3
#
#
#
# Elastic Constant Matrix: (Units=GPa)
#
#
# Indices 1 2 3 4 5 6 
#
# 1 141.7487 56.6714 20.2244 0.0000 0.0000 0.0000
# 2 56.6714 168.2748 27.1694 0.0000 0.0000 0.0000
# 3 20.2244 27.1694 60.9285 0.0000 0.0000 0.0000
# 4 0.0000 0.0000 0.0000 39.0822 0.0000 0.0000
# 5 0.0000 0.0000 0.0000 0.0000 32.2303 0.0000
# 6 0.0000 0.0000 0.0000 0.0000 0.0000 1.4949
#
#
#
# Elastic Compliance Matrix: (Units=1/GPa)
#
#
# Indices 1 2 3 4 5 6 
#
# 1 0.008299 -0.002533 -0.001625 0.000000 0.000000 0.000000
# 2 -0.002533 0.007177 -0.002360 0.000000 0.000000 0.000000
# 3 -0.001625 -0.002360 0.018004 0.000000 0.000000 0.000000
# 4 0.000000 0.000000 0.000000 0.025587 0.000000 0.000000
# 5 0.000000 0.000000 0.000000 0.000000 0.031027 0.000000
# 6 0.000000 0.000000 0.000000 0.000000 0.000000 0.668946
#
#
# Mechanical properties :
#
#
# Convention : Reuss Voigt Hill
#
# Bulk Modulus (GPa) = 48.91173 64.34250 56.62712
# Shear Modulus (GPa) = 6.41939 32.35395 19.38667
#
# Velocity S-wave (km/s) = 1.65137 3.70733 2.86978
# Velocity P-wave (km/s) = 4.94107 6.75714 5.91917
#
# Compressibility (1/GPa) = 0.02044499
#
# Stress axis : x y z
#
# Youngs Moduli (GPa) = 120.49398 139.34301 55.54194
#
# Poissons Ratio (x) = 0.35289 0.09028
# Poissons Ratio (y) = 0.30516 0.13105
# Poissons Ratio (z) = 0.19586 0.32879
#
# Static dielectric constant tensor:
#      x y z
#    x 4.539220 0.000000 0.000000 
#    y 0.000000 4.533870 0.000000 
#    z 0.000000 0.000000 3.963620 
# 
# 
# High freq. dielectric constant tensor:
#      x y z
#    x 1.945390 0.000000 0.000000 
#    y 0.000000 1.941190 0.000000 
#    z 0.000000 0.000000 1.916600 
# 
# From -- ./inp_files/7695.got.cif
#   From: 2010.03.12/outbox.cif.g09.slc.cpg/sg45_4_cif.got.tgz:7695.got - 2010.04.14 02:50:11.
