data_PCOD8190258
_publ_section_title
;
Structure prediction by ZEFSAII (Michael W. Deem and Ramdas Pophale) SiO2 
 PCOD8190258
Probable space group: I M M 2
;
_chemical_formula_sum "Si O2"
_cell_formula_units_Z 48
_cell_length_a 8.788922
_cell_length_b 16.525485
_cell_length_c 18.717370
_cell_angle_alpha 90.000000
_cell_angle_beta 90.000000
_cell_angle_gamma 90.000000
_cell_volume 2718.533255
_symmetry_space_group_name_H-M "I M M 2"
_symmetry_group_IT_number 44
_symmetry_cell_setting 'orthorhombic'
loop_
_space_group_symop_operation_xyz
x,y,z
-x,-y,z
-x,y,z
x,-y,z
1/2+x,1/2+y,1/2+z
1/2-x,1/2-y,1/2+z
1/2-x,1/2+y,1/2+z
1/2+x,1/2-y,1/2+z
loop_
_atom_site_type_symbol
_atom_site_label
_atom_site_fract_x
_atom_site_fract_y
_atom_site_fract_z
Si Si1 0.180658 0.809655 0.654310
Si Si2 0.181417 0.909682 0.522221
Si Si3 0.679427 0.000000 0.878136
Si Si4 0.325360 0.157040 0.069065
Si Si5 0.320109 0.340165 0.313241
Si Si6 0.174796 0.237800 0.429632
Si Si7 0.823469 0.000000 0.031131
O O1 0.242637 0.877567 0.598927
O O2 0.232811 0.721055 0.627935
O O3 0.243367 0.825323 0.733417
O O4 0.000000 0.812587 0.653155
O O5 0.234721 0.848934 0.459158
O O6 0.000000 0.909623 0.523963
O O7 0.245779 0.000000 0.508310
O O8 0.744165 0.078696 0.840476
O O9 0.500000 0.000000 0.871025
O O10 0.721895 0.000000 0.960663
O O11 0.500000 0.132188 0.082634
O O12 0.307476 0.194672 0.990464
O O13 0.218146 0.079038 0.077145
O O14 0.500000 0.351024 0.314184
O O15 0.275289 0.263486 0.361893
O O16 0.000000 0.231429 0.405309
O O17 0.000000 0.000000 0.010688
#
# Coordination Sequence:
#
# PCOD8190258 Si02
#       7
#     8   8   4   8   8   8   4
#     4   8  17  31  50  77 104 132 168 207 252 305
#     4   8  14  27  50  77  99 125 170 216 247 292
#     4  12  24  36  50  74 108 143 172 201 254 323
#     4   9  17  33  53  73 101 139 175 205 246 309
#     4  11  21  33  52  79 107 133 168 214 258 301
#     4   9  17  30  50  74 100 135 174 207 250 304
#     4  12  22  32  52  82 106 127 168 223 266 297
#
# _framework density 17.656579000000001
#
# number of rings (size 3 to 8) (size 9 to 14) (size 15 to 20)
#    0.000    2.500    1.667    4.000    1.167    0.000 
#    0.000    1.667    1.833    2.500    0.000    0.000 
#    0.000    0.000    0.000    0.000    0.000    0.000 
#
# Total GULP energy -297539.968432 kJ/mol
# GULP energy per Si atom -12397.498685 kJ/mol
# Density = 1.761639 g / cm^3
# Si number density = 17.656579 Si / 1000 Ang^3
#
#
#
# Elastic Constant Matrix: (Units=GPa)
#
#
# Indices 1 2 3 4 5 6 
#
# 1 54.3233 32.2739 26.2320 0.0000 0.0000 0.0000
# 2 32.2739 153.6087 64.3362 0.0000 0.0000 0.0000
# 3 26.2320 64.3362 102.3504 0.0000 0.0000 0.0000
# 4 0.0000 0.0000 0.0000 10.3150 0.0000 0.0000
# 5 0.0000 0.0000 0.0000 0.0000 21.2084 0.0000
# 6 0.0000 0.0000 0.0000 0.0000 0.0000 17.6464
#
#
#
# Elastic Compliance Matrix: (Units=1/GPa)
#
#
# Indices 1 2 3 4 5 6 
#
# 1 0.022027 -0.003072 -0.003714 0.000000 0.000000 0.000000
# 2 -0.003072 0.009265 -0.005036 0.000000 0.000000 0.000000
# 3 -0.003714 -0.005036 0.013888 0.000000 0.000000 0.000000
# 4 0.000000 0.000000 0.000000 0.096946 0.000000 0.000000
# 5 0.000000 0.000000 0.000000 0.000000 0.047151 0.000000
# 6 0.000000 0.000000 0.000000 0.000000 0.000000 0.056669
#
#
# Mechanical properties :
#
#
# Convention : Reuss Voigt Hill
#
# Bulk Modulus (GPa) = 46.43766 61.77408 54.10587
# Shear Modulus (GPa) = 18.06553 22.32999 20.19776
#
# Velocity S-wave (km/s) = 3.20216 3.56010 3.38586
# Velocity P-wave (km/s) = 6.32688 7.20843 6.78199
#
# Compressibility (1/GPa) = 0.02153425
#
# Stress axis : x y z
#
# Youngs Moduli (GPa) = 45.39851 107.93333 72.00395
#
# Poissons Ratio (x) = 0.33161 0.26744
# Poissons Ratio (y) = 0.13948 0.36264
# Poissons Ratio (z) = 0.16862 0.54360
#
# Static dielectric constant tensor:
#      x y z
#    x 2.938460 0.000000 0.000000 
#    y 0.000000 3.655610 0.000000 
#    z 0.000000 0.000000 3.373330 
# 
# 
# High freq. dielectric constant tensor:
#      x y z
#    x 1.651640 0.000000 0.000000 
#    y 0.000000 1.690780 0.000000 
#    z 0.000000 0.000000 1.667650 
# 
# From -- ./inp_files/20344.got.cif
#   From: 2010.03.12/outbox.cif.g09.slc.cpg/sg44_11_cif.got.tgz:20344.got - 2010.04.14 02:36:11.
