data_PCOD8190032
_publ_section_title
;
Structure prediction by ZEFSAII (Michael W. Deem and Ramdas Pophale) SiO2 
 PCOD8190032
Probable space group: I M M 2
;
_chemical_formula_sum "Si O2"
_cell_formula_units_Z 64
_cell_length_a 18.908322
_cell_length_b 14.057140
_cell_length_c 11.807150
_cell_angle_alpha 90.000000
_cell_angle_beta 90.000000
_cell_angle_gamma 90.000000
_cell_volume 3138.304216
_symmetry_space_group_name_H-M "I M M 2"
_symmetry_group_IT_number 44
_symmetry_cell_setting 'orthorhombic'
loop_
_space_group_symop_operation_xyz
x,y,z
-x,-y,z
-x,y,z
x,-y,z
1/2+x,1/2+y,1/2+z
1/2-x,1/2-y,1/2+z
1/2-x,1/2+y,1/2+z
1/2+x,1/2-y,1/2+z
loop_
_atom_site_type_symbol
_atom_site_label
_atom_site_fract_x
_atom_site_fract_y
_atom_site_fract_z
Si Si1 0.785865 0.394203 0.545740
Si Si2 0.674923 0.603744 0.719220
Si Si3 0.199525 0.607882 0.280436
Si Si4 0.080940 0.107221 0.761188
Si Si5 0.079815 0.273465 0.932689
Si Si6 0.920415 0.272086 0.199604
Si Si7 0.194125 0.196249 0.617449
Si Si8 0.217527 0.392249 0.915557
O O1 0.816197 0.500000 0.577759
O O2 0.704781 0.384261 0.590711
O O3 0.786804 0.380653 0.412181
O O4 0.829266 0.306883 0.602218
O O5 0.639768 0.500000 0.735191
O O6 0.615996 0.679530 0.754518
O O7 0.744939 0.613377 0.795159
O O8 0.214905 0.500000 0.240537
O O9 0.119506 0.633664 0.243772
O O10 0.250521 0.683761 0.220239
O O11 0.096817 0.174867 0.868131
O O12 0.124282 0.137298 0.648916
O O13 0.000000 0.112091 0.723771
O O14 0.102615 0.000000 0.797191
O O15 0.139076 0.349738 0.899520
O O16 0.000000 0.308894 0.900263
O O17 0.083319 0.257138 0.066046
O O18 0.000000 0.280007 0.244408
O O19 0.232837 0.162225 0.504221
O O20 0.208300 0.500000 0.958574
#
# Coordination Sequence:
#
# PCOD8190032 Si02
#       8
#     8   8   8   8   8   8   8   8
#     4  10  22  39  63  91 122 157 208 260 309 363
#     4  10  21  38  60  87 119 160 206 256 306 360
#     4  11  23  39  62  93 121 161 211 258 304 363
#     4  10  23  42  63  92 128 165 212 270 325 379
#     4  10  22  37  58  89 124 162 200 253 323 382
#     4  11  23  38  57  86 124 165 202 247 312 375
#     4  12  22  37  65  93 124 160 208 257 317 372
#     4  11  22  38  61  91 124 164 211 259 311 373
#
# _framework density 20.393179
#
# number of rings (size 3 to 8) (size 9 to 14) (size 15 to 20)
#    0.000    1.375    2.500    2.625    3.500    1.250 
#    0.000    5.000    0.000    3.375    0.000    3.500 
#    0.000    0.000    0.000    0.000    0.000    0.000 
#
# Total GULP energy -396692.922191 kJ/mol
# GULP energy per Si atom -12396.653818 kJ/mol
# Density = 2.034676 g / cm^3
# Si number density = 20.393179 Si / 1000 Ang^3
#
#
#
# Elastic Constant Matrix: (Units=GPa)
#
#
# Indices 1 2 3 4 5 6 
#
# 1 110.4320 54.0383 40.2001 0.0000 0.0000 0.0000
# 2 54.0383 152.3622 47.0725 0.0000 0.0000 0.0000
# 3 40.2001 47.0725 82.2205 0.0000 0.0000 0.0000
# 4 0.0000 0.0000 0.0000 30.8716 0.0000 0.0000
# 5 0.0000 0.0000 0.0000 0.0000 25.9155 0.0000
# 6 0.0000 0.0000 0.0000 0.0000 0.0000 29.7777
#
#
#
# Elastic Compliance Matrix: (Units=1/GPa)
#
#
# Indices 1 2 3 4 5 6 
#
# 1 0.012033 -0.002977 -0.004179 0.000000 0.000000 0.000000
# 2 -0.002977 0.008710 -0.003531 0.000000 0.000000 0.000000
# 3 -0.004179 -0.003531 0.016227 0.000000 0.000000 0.000000
# 4 0.000000 0.000000 0.000000 0.032392 0.000000 0.000000
# 5 0.000000 0.000000 0.000000 0.000000 0.038587 0.000000
# 6 0.000000 0.000000 0.000000 0.000000 0.000000 0.033582
#
#
# Mechanical properties :
#
#
# Convention : Reuss Voigt Hill
#
# Bulk Modulus (GPa) = 64.11707 69.73738 66.92722
# Shear Modulus (GPa) = 29.74328 30.89322 30.31825
#
# Velocity S-wave (km/s) = 3.82316 3.89637 3.85994
# Velocity P-wave (km/s) = 7.14125 7.38329 7.26328
#
# Compressibility (1/GPa) = 0.01559647
#
# Stress axis : x y z
#
# Youngs Moduli (GPa) = 83.10273 114.81025 61.62387
#
# Poissons Ratio (x) = 0.34175 0.25754
# Poissons Ratio (y) = 0.24737 0.21761
# Poissons Ratio (z) = 0.34731 0.40542
#
# Static dielectric constant tensor:
#      x y z
#    x 3.724050 0.000000 0.000000 
#    y 0.000000 4.054080 0.000000 
#    z 0.000000 0.000000 3.698610 
# 
# 
# High freq. dielectric constant tensor:
#      x y z
#    x 1.776120 0.000000 0.000000 
#    y 0.000000 1.814690 0.000000 
#    z 0.000000 0.000000 1.795690 
# 
# From -- ./inp_files/13981.got.cif
#   From: 2010.03.12/outbox.cif.g09.slc.cpg/sg44_7_cif.got.tgz:13981.got - 2010.04.14 02:36:11.
