data_PCOD8190607
_publ_section_title
;
Structure prediction by ZEFSAII (Michael W. Deem and Ramdas Pophale) SiO2 
 PCOD8190607
Probable space group: I B A 2
;
_chemical_formula_sum "Si O2"
_cell_formula_units_Z 56
_cell_length_a 13.388344
_cell_length_b 13.624719
_cell_length_c 14.544103
_cell_angle_alpha 90.000000
_cell_angle_beta 90.000000
_cell_angle_gamma 90.000000
_cell_volume 2653.025096
_symmetry_space_group_name_H-M "I B A 2"
_symmetry_group_IT_number 45
_symmetry_cell_setting 'orthorhombic'
loop_
_space_group_symop_operation_xyz
x,y,z
-x,-y,z
-x,y,1/2+z
x,-y,1/2+z
1/2+x,1/2+y,1/2+z
1/2-x,1/2-y,1/2+z
1/2-x,1/2+y,z
1/2+x,1/2-y,z
loop_
_atom_site_type_symbol
_atom_site_label
_atom_site_fract_x
_atom_site_fract_y
_atom_site_fract_z
Si Si1 0.085237 0.921582 0.223830
Si Si2 0.072887 0.214138 0.895797
Si Si3 0.451240 0.099611 0.136486
Si Si4 0.926182 0.792292 0.545502
Si Si5 0.277979 0.689421 0.386606
Si Si6 0.291994 0.013884 0.272156
Si Si7 0.420009 0.831751 0.296043
O O1 0.059483 0.870952 0.320478
O O2 0.082205 0.840646 0.144515
O O3 0.195402 0.967963 0.222827
O O4 0.000000 0.000000 0.202678
O O5 0.187728 0.238052 0.908640
O O6 0.012098 0.312559 0.865663
O O7 0.028907 0.177598 0.993508
O O8 0.419533 0.173555 0.055845
O O9 0.354945 0.075648 0.198282
O O10 0.536824 0.158001 0.193596
O O11 0.500000 0.000000 0.095907
O O12 0.835609 0.826734 0.481502
O O13 0.243052 0.583519 0.354063
O O14 0.345528 0.738825 0.306390
O O15 0.361362 0.931672 0.320134
#
# Coordination Sequence:
#
# PCOD8190607 Si02
#       7
#     8   8   8   8   8   8   8
#     4  12  25  45  70 100 141 185 225 280 345 418
#     4  11  23  47  70  96 137 184 227 282 347 407
#     4  10  22  44  70 103 131 180 237 283 342 408
#     4  11  26  44  65 104 144 179 223 284 349 407
#     4  11  23  43  68 101 135 178 231 284 341 409
#     4  11  23  41  76  97 129 185 236 279 340 411
#     4  10  20  42  72  94 131 181 224 283 336 398
#
# _framework density 21.107980000000001
#
# number of rings (size 3 to 8) (size 9 to 14) (size 15 to 20)
#    0.000    1.143    4.286    1.714    0.000    5.143 
#   10.286    0.000    0.000    0.000    0.000    0.000 
#    0.000    0.000    0.000    0.000    0.000    0.000 
#
# Total GULP energy -347203.856237 kJ/mol
# GULP energy per Si atom -12400.137723 kJ/mol
# Density = 2.105994 g / cm^3
# Si number density = 21.107980 Si / 1000 Ang^3
#
#
#
# Elastic Constant Matrix: (Units=GPa)
#
#
# Indices 1 2 3 4 5 6 
#
# 1 119.9759 34.5330 20.7359 0.0000 0.0000 0.0000
# 2 34.5330 100.7543 38.8568 0.0000 0.0000 0.0000
# 3 20.7359 38.8568 71.8489 0.0000 0.0000 0.0000
# 4 0.0000 0.0000 0.0000 26.8768 0.0000 0.0000
# 5 0.0000 0.0000 0.0000 0.0000 16.4797 0.0000
# 6 0.0000 0.0000 0.0000 0.0000 0.0000 35.1440
#
#
#
# Elastic Compliance Matrix: (Units=1/GPa)
#
#
# Indices 1 2 3 4 5 6 
#
# 1 0.009331 -0.002729 -0.001217 0.000000 0.000000 0.000000
# 2 -0.002729 0.013339 -0.006426 0.000000 0.000000 0.000000
# 3 -0.001217 -0.006426 0.017745 0.000000 0.000000 0.000000
# 4 0.000000 0.000000 0.000000 0.037207 0.000000 0.000000
# 5 0.000000 0.000000 0.000000 0.000000 0.060681 0.000000
# 6 0.000000 0.000000 0.000000 0.000000 0.000000 0.028454
#
#
# Mechanical properties :
#
#
# Convention : Reuss Voigt Hill
#
# Bulk Modulus (GPa) = 50.83866 53.42559 52.13213
# Shear Modulus (GPa) = 25.76564 28.93034 27.34799
#
# Velocity S-wave (km/s) = 3.49758 3.70616 3.60338
# Velocity P-wave (km/s) = 6.35988 6.60906 6.48567
#
# Compressibility (1/GPa) = 0.01967007
#
# Stress axis : x y z
#
# Youngs Moduli (GPa) = 107.17221 74.96986 56.35457
#
# Poissons Ratio (x) = 0.20457 0.06860
# Poissons Ratio (y) = 0.29243 0.36215
# Poissons Ratio (z) = 0.13045 0.48177
#
# Static dielectric constant tensor:
#      x y z
#    x 4.189920 0.000000 0.000000 
#    y 0.000000 3.881900 0.000000 
#    z 0.000000 0.000000 3.588880 
# 
# 
# High freq. dielectric constant tensor:
#      x y z
#    x 1.846850 0.000000 0.000000 
#    y 0.000000 1.831880 0.000000 
#    z 0.000000 0.000000 1.806220 
# 
# From -- ./inp_files/6581.got.cif
#   From: 2010.03.12/outbox.cif.g09.slc.cpg/sg45_4_cif.got.tgz:6581.got - 2010.04.14 02:50:11.
