data_PCOD8190204
_publ_section_title
;
Structure prediction by ZEFSAII (Michael W. Deem and Ramdas Pophale) SiO2 
 PCOD8190204
Probable space group: I M M 2
;
_chemical_formula_sum "Si O2"
_cell_formula_units_Z 48
_cell_length_a 23.111899
_cell_length_b 8.528740
_cell_length_c 11.624603
_cell_angle_alpha 90.000000
_cell_angle_beta 90.000000
_cell_angle_gamma 90.000000
_cell_volume 2291.388008
_symmetry_space_group_name_H-M "I M M 2"
_symmetry_group_IT_number 44
_symmetry_cell_setting 'orthorhombic'
loop_
_space_group_symop_operation_xyz
x,y,z
-x,-y,z
-x,y,z
x,-y,z
1/2+x,1/2+y,1/2+z
1/2-x,1/2-y,1/2+z
1/2-x,1/2+y,1/2+z
1/2+x,1/2-y,1/2+z
loop_
_atom_site_type_symbol
_atom_site_label
_atom_site_fract_x
_atom_site_fract_y
_atom_site_fract_z
Si Si1 0.066673 0.316529 0.680600
Si Si2 0.065096 0.824042 0.241536
Si Si3 0.847796 0.181031 0.855511
Si Si4 0.870498 0.822985 0.466873
Si Si5 0.272270 0.682831 0.793734
Si Si6 0.157781 0.678359 0.097739
O O1 0.067006 0.500000 0.704069
O O2 0.092954 0.231630 0.792803
O O3 0.109446 0.282028 0.573791
O O4 0.000000 0.258514 0.661135
O O5 0.076959 0.816267 0.377134
O O6 0.101462 0.692899 0.176604
O O7 0.000000 0.778830 0.217315
O O8 0.080021 0.000000 0.197292
O O9 0.794716 0.286282 0.812537
O O10 0.834810 0.000000 0.830620
O O11 0.852998 0.208386 0.990797
O O12 0.811760 0.759983 0.402891
O O13 0.860320 0.000000 0.512100
O O14 0.285214 0.500000 0.776821
O O15 0.287761 0.769404 0.674750
O O16 0.166805 0.500000 0.056462
#
# Coordination Sequence:
#
# PCOD8190204 Si02
#       6
#     8   8   8   8   8   8
#     4  11  25  43  63  91 129 171 215 264 318 378
#     4   9  18  35  60  89 122 161 205 253 305 360
#     4  12  26  43  65  90 121 165 211 260 317 378
#     4   9  19  37  63  93 125 162 205 255 310 370
#     4  10  22  42  66  93 126 161 206 260 314 377
#     4  11  23  40  61  89 124 159 202 253 310 375
#
# _framework density 20.948001999999999
#
# number of rings (size 3 to 8) (size 9 to 14) (size 15 to 20)
#    0.000    1.667    0.000    5.500    2.333    6.333 
#    0.000    0.000    0.000    0.000    0.000    0.000 
#    0.000    0.000    0.000    0.000    0.000    0.000 
#
# Total GULP energy -297581.971447 kJ/mol
# GULP energy per Si atom -12399.248810 kJ/mol
# Density = 2.090032 g / cm^3
# Si number density = 20.948002 Si / 1000 Ang^3
#
#
#
# Elastic Constant Matrix: (Units=GPa)
#
#
# Indices 1 2 3 4 5 6 
#
# 1 92.6906 22.5842 26.8354 0.0000 0.0000 0.0000
# 2 22.5842 68.7516 15.7536 0.0000 0.0000 0.0000
# 3 26.8354 15.7536 95.8087 0.0000 0.0000 0.0000
# 4 0.0000 0.0000 0.0000 34.1156 0.0000 0.0000
# 5 0.0000 0.0000 0.0000 0.0000 18.7704 0.0000
# 6 0.0000 0.0000 0.0000 0.0000 0.0000 29.8819
#
#
#
# Elastic Compliance Matrix: (Units=1/GPa)
#
#
# Indices 1 2 3 4 5 6 
#
# 1 0.012471 -0.003425 -0.002930 0.000000 0.000000 0.000000
# 2 -0.003425 0.016055 -0.001681 0.000000 0.000000 0.000000
# 3 -0.002930 -0.001681 0.011534 0.000000 0.000000 0.000000
# 4 0.000000 0.000000 0.000000 0.029312 0.000000 0.000000
# 5 0.000000 0.000000 0.000000 0.000000 0.053275 0.000000
# 6 0.000000 0.000000 0.000000 0.000000 0.000000 0.033465
#
#
# Mechanical properties :
#
#
# Convention : Reuss Voigt Hill
#
# Bulk Modulus (GPa) = 41.68476 43.06638 42.37557
# Shear Modulus (GPa) = 27.74969 29.35875 28.55422
#
# Velocity S-wave (km/s) = 3.64358 3.74773 3.69602
# Velocity P-wave (km/s) = 6.13541 6.27141 6.20379
#
# Compressibility (1/GPa) = 0.02398958
#
# Stress axis : x y z
#
# Youngs Moduli (GPa) = 80.18319 62.28435 86.69685
#
# Poissons Ratio (x) = 0.21335 0.25402
# Poissons Ratio (y) = 0.27466 0.14570
# Poissons Ratio (z) = 0.23493 0.10467
#
# Static dielectric constant tensor:
#      x y z
#    x 3.826120 0.000000 0.000000 
#    y 0.000000 3.641300 0.000000 
#    z 0.000000 0.000000 3.733860 
# 
# 
# High freq. dielectric constant tensor:
#      x y z
#    x 1.824280 0.000000 0.000000 
#    y 0.000000 1.815000 0.000000 
#    z 0.000000 0.000000 1.819390 
# 
# From -- ./inp_files/14583.got.cif
#   From: 2010.03.12/outbox.cif.g09.slc.cpg/sg44_8_cif.got.tgz:14583.got - 2010.04.14 02:36:11.
