data_PCOD8190945
_publ_section_title
;
Structure prediction by ZEFSAII (Michael W. Deem and Ramdas Pophale) SiO2 
 PCOD8190945
Probable space group: I B A 2
;
_chemical_formula_sum "Si O2"
_cell_formula_units_Z 52
_cell_length_a 8.131817
_cell_length_b 14.397744
_cell_length_c 18.334933
_cell_angle_alpha 90.000000
_cell_angle_beta 90.000000
_cell_angle_gamma 90.000000
_cell_volume 2146.650645
_symmetry_space_group_name_H-M "I B A 2"
_symmetry_group_IT_number 45
_symmetry_cell_setting 'orthorhombic'
loop_
_space_group_symop_operation_xyz
x,y,z
-x,-y,z
-x,y,1/2+z
x,-y,1/2+z
1/2+x,1/2+y,1/2+z
1/2-x,1/2-y,1/2+z
1/2-x,1/2+y,z
1/2+x,1/2-y,z
loop_
_atom_site_type_symbol
_atom_site_label
_atom_site_fract_x
_atom_site_fract_y
_atom_site_fract_z
Si Si1 0.843012 0.071417 0.537380
Si Si2 0.116255 0.632013 0.402786
Si Si3 0.340634 0.639581 0.734851
Si Si4 0.826250 0.545381 0.754395
Si Si5 0.500000 0.000000 0.524503
Si Si6 0.250181 0.675959 0.895074
Si Si7 0.325630 0.694208 0.168304
O O1 0.820751 0.100786 0.453054
O O2 0.869556 0.165415 0.584953
O O3 0.662758 0.035357 0.568390
O O4 0.000000 0.000000 0.545500
O O5 0.202982 0.570956 0.339716
O O6 0.091872 0.576803 0.476632
O O7 0.226787 0.720002 0.425265
O O8 0.938338 0.661713 0.374229
O O9 0.307500 0.529980 0.727436
O O10 0.340149 0.669177 0.818689
O O11 0.525192 0.661152 0.716605
O O12 0.218408 0.697557 0.680354
O O13 0.825152 0.635814 0.702925
O O14 0.000000 0.500000 0.744008
#
# Coordination Sequence:
#
# PCOD8190945 Si02
#       7
#     8   8   8   8   4   8   8
#     4  11  27  51  72 112 152 204 254 312 394 478
#     4  11  22  43  69 111 141 191 254 313 380 452
#     4  12  24  46  72 106 142 195 247 314 380 455
#     4  12  22  42  72 100 146 187 243 311 374 451
#     4  10  24  46  72 100 150 200 248 308 384 456
#     4  11  24  43  74 107 145 193 255 315 380 450
#     4  12  28  47  71 110 149 192 255 311 394 473
#
# _framework density 24.223783999999998
#
# number of rings (size 3 to 8) (size 9 to 14) (size 15 to 20)
#    0.000    0.615    3.846    4.154    3.231    3.692 
#    5.538    0.000    0.000    0.000    0.000    0.000 
#    0.000    0.000    0.000    0.000    0.000    0.000 
#
# Total GULP energy -322215.541138 kJ/mol
# GULP energy per Si atom -12392.905428 kJ/mol
# Density = 2.416865 g / cm^3
# Si number density = 24.223784 Si / 1000 Ang^3
#
#
#
# Elastic Constant Matrix: (Units=GPa)
#
#
# Indices 1 2 3 4 5 6 
#
# 1 54.9413 29.4337 24.5373 0.0000 0.0000 0.0000
# 2 29.4337 93.5798 11.6561 0.0000 0.0000 0.0000
# 3 24.5373 11.6561 87.2770 0.0000 0.0000 0.0000
# 4 0.0000 0.0000 0.0000 20.4945 0.0000 0.0000
# 5 0.0000 0.0000 0.0000 0.0000 25.0654 0.0000
# 6 0.0000 0.0000 0.0000 0.0000 0.0000 37.6743
#
#
#
# Elastic Compliance Matrix: (Units=1/GPa)
#
#
# Indices 1 2 3 4 5 6 
#
# 1 0.024626 -0.007000 -0.005989 0.000000 0.000000 0.000000
# 2 -0.007000 0.012856 0.000251 0.000000 0.000000 0.000000
# 3 -0.005989 0.000251 0.013108 0.000000 0.000000 0.000000
# 4 0.000000 0.000000 0.000000 0.048793 0.000000 0.000000
# 5 0.000000 0.000000 0.000000 0.000000 0.039896 0.000000
# 6 0.000000 0.000000 0.000000 0.000000 0.000000 0.026543
#
#
# Mechanical properties :
#
#
# Convention : Reuss Voigt Hill
#
# Bulk Modulus (GPa) = 39.81607 40.78359 40.29983
# Shear Modulus (GPa) = 25.04148 27.99158 26.51653
#
# Velocity S-wave (km/s) = 3.21870 3.40301 3.31214
# Velocity P-wave (km/s) = 5.50325 5.68449 5.59460
#
# Compressibility (1/GPa) = 0.02511549
#
# Stress axis : x y z
#
# Youngs Moduli (GPa) = 40.60805 77.78221 76.28994
#
# Poissons Ratio (x) = 0.54444 0.45686
# Poissons Ratio (y) = 0.28424 -0.01914
# Poissons Ratio (z) = 0.24318 -0.01951
#
# Static dielectric constant tensor:
#      x y z
#    x 4.574640 0.000000 0.000000 
#    y 0.000000 15.003340 0.000000 
#    z 0.000000 0.000000 4.201700 
# 
# 
# High freq. dielectric constant tensor:
#      x y z
#    x 1.966520 0.000000 0.000000 
#    y 0.000000 1.970760 0.000000 
#    z 0.000000 0.000000 1.954750 
# 
# From -- ./inp_files/8848.got.cif
#   From: 2010.03.12/outbox.cif.g09.slc.cpg/sg45_5_cif.got.tgz:8848.got - 2010.04.14 02:50:11.
