data_PCOD8190580
_publ_section_title
;
Structure prediction by ZEFSAII (Michael W. Deem and Ramdas Pophale) SiO2 
 PCOD8190580
Probable space group: I B A 2
;
_chemical_formula_sum "Si O2"
_cell_formula_units_Z 56
_cell_length_a 11.861129
_cell_length_b 17.932747
_cell_length_c 12.244222
_cell_angle_alpha 90.000000
_cell_angle_beta 90.000000
_cell_angle_gamma 90.000000
_cell_volume 2604.378166
_symmetry_space_group_name_H-M "I B A 2"
_symmetry_group_IT_number 45
_symmetry_cell_setting 'orthorhombic'
loop_
_space_group_symop_operation_xyz
x,y,z
-x,-y,z
-x,y,1/2+z
x,-y,1/2+z
1/2+x,1/2+y,1/2+z
1/2-x,1/2-y,1/2+z
1/2-x,1/2+y,z
1/2+x,1/2-y,z
loop_
_atom_site_type_symbol
_atom_site_label
_atom_site_fract_x
_atom_site_fract_y
_atom_site_fract_z
Si Si1 0.377037 0.120791 0.270780
Si Si2 0.234601 0.964810 0.927136
Si Si3 0.967701 0.918469 0.302169
Si Si4 0.196014 0.128945 0.887637
Si Si5 0.823263 0.174631 0.639475
Si Si6 0.883601 0.519136 0.118651
Si Si7 0.386007 0.826486 0.235264
O O1 0.322636 0.098123 0.386486
O O2 0.299721 0.173265 0.195171
O O3 0.491765 0.166488 0.293796
O O4 0.389999 0.040214 0.215338
O O5 0.110756 0.928411 0.911314
O O6 0.236763 0.044214 0.865293
O O7 0.268903 0.988637 0.049360
O O8 0.900779 0.885240 0.200419
O O9 0.071558 0.864862 0.334312
O O10 0.000000 0.000000 0.259936
O O11 0.287025 0.180497 0.825696
O O12 0.188081 0.154909 0.012476
O O13 0.878763 0.255507 0.655778
O O14 0.876096 0.602810 0.158876
O O15 0.000000 0.500000 0.050724
#
# Coordination Sequence:
#
# PCOD8190580 Si02
#       7
#     8   8   8   8   8   8   8
#     4  10  22  43  65  98 133 170 233 285 333 412
#     4  10  20  39  69  98 125 174 228 281 327 395
#     4   9  23  43  66  97 132 174 227 276 325 409
#     4  11  23  43  70  96 132 184 223 273 348 408
#     4  11  25  45  66  98 138 178 218 286 343 409
#     4  10  21  37  66  98 127 172 226 282 338 397
#     4  11  26  41  65  98 137 175 220 290 346 409
#
# _framework density 21.502253
#
# number of rings (size 3 to 8) (size 9 to 14) (size 15 to 20)
#    0.000    1.714    2.857    0.000    4.000    5.143 
#    2.571    0.000    0.000    0.000    0.000    0.000 
#    0.000    0.000    0.000    0.000    0.000    0.000 
#
# Total GULP energy -346964.800152 kJ/mol
# GULP energy per Si atom -12391.600005 kJ/mol
# Density = 2.145331 g / cm^3
# Si number density = 21.502253 Si / 1000 Ang^3
#
#
#
# Elastic Constant Matrix: (Units=GPa)
#
#
# Indices 1 2 3 4 5 6 
#
# 1 150.3758 42.1354 54.2639 0.0003 0.0000 0.0000
# 2 42.1354 104.0270 25.7446 -0.0003 0.0000 0.0000
# 3 54.2639 25.7446 88.5904 -0.0002 0.0001 0.0000
# 4 0.0003 -0.0003 -0.0002 24.6043 0.0001 0.0001
# 5 0.0000 0.0000 0.0001 0.0001 31.6961 0.0000
# 6 0.0000 0.0000 0.0000 0.0001 0.0000 25.2557
#
#
#
# Elastic Compliance Matrix: (Units=1/GPa)
#
#
# Indices 1 2 3 4 5 6 
#
# 1 0.009096 -0.002484 -0.004850 0.000000 0.000000 0.000000
# 2 -0.002484 0.011036 -0.001686 0.000000 0.000000 0.000000
# 3 -0.004850 -0.001686 0.014748 0.000000 0.000000 0.000000
# 4 0.000000 0.000000 0.000000 0.040643 0.000000 0.000000
# 5 0.000000 0.000000 0.000000 0.000000 0.031550 0.000000
# 6 0.000000 0.000000 0.000000 0.000000 0.000000 0.039595
#
#
# Mechanical properties :
#
#
# Convention : Reuss Voigt Hill
#
# Bulk Modulus (GPa) = 59.37589 65.25341 62.31465
# Shear Modulus (GPa) = 29.35630 31.03452 30.19541
#
# Velocity S-wave (km/s) = 3.69896 3.80322 3.75145
# Velocity P-wave (km/s) = 6.77619 7.04976 6.91433
#
# Compressibility (1/GPa) = 0.01684185
#
# Stress axis : x y z
#
# Youngs Moduli (GPa) = 109.93729 90.61090 67.80439
#
# Poissons Ratio (x) = 0.22509 0.32883
# Poissons Ratio (y) = 0.27310 0.11429
# Poissons Ratio (z) = 0.53316 0.15273
#
# Static dielectric constant tensor:
#      x y z
#    x 4.422720 0.000000 0.000000 
#    y 0.000000 3.803350 0.000000 
#    z 0.000000 0.000000 3.502820 
# 
# 
# High freq. dielectric constant tensor:
#      x y z
#    x 1.861100 0.000000 0.000000 
#    y 0.000000 1.841070 0.000000 
#    z 0.000000 0.000000 1.818360 
# 
# From -- ./inp_files/3773.got.cif
#   From: 2010.03.12/outbox.cif.g09.slc.cpg/sg45_2_cif.got.tgz:3773.got - 2010.04.14 02:50:11.
