data_PCOD8190384
_publ_section_title
;
Structure prediction by ZEFSAII (Michael W. Deem and Ramdas Pophale) SiO2 
 PCOD8190384
Probable space group: I B A 2
;
_chemical_formula_sum "Si O2"
_cell_formula_units_Z 64
_cell_length_a 31.530853
_cell_length_b 13.018307
_cell_length_c 9.579383
_cell_angle_alpha 90.000000
_cell_angle_beta 90.000000
_cell_angle_gamma 90.000000
_cell_volume 3932.129082
_symmetry_space_group_name_H-M "I B A 2"
_symmetry_group_IT_number 45
_symmetry_cell_setting 'orthorhombic'
loop_
_space_group_symop_operation_xyz
x,y,z
-x,-y,z
-x,y,1/2+z
x,-y,1/2+z
1/2+x,1/2+y,1/2+z
1/2-x,1/2-y,1/2+z
1/2-x,1/2+y,z
1/2+x,1/2-y,z
loop_
_atom_site_type_symbol
_atom_site_label
_atom_site_fract_x
_atom_site_fract_y
_atom_site_fract_z
Si Si1 0.456416 0.384957 0.291510
Si Si2 0.310971 0.305296 0.157484
Si Si3 0.897442 0.879587 0.028243
Si Si4 0.549595 0.623140 0.795875
Si Si5 0.235864 0.403957 0.656264
Si Si6 0.238078 0.595151 0.481498
Si Si7 0.191710 0.803911 0.480160
Si Si8 0.897712 0.882419 0.544602
O O1 0.420636 0.337144 0.390599
O O2 0.458188 0.504433 0.331785
O O3 0.502202 0.328513 0.306619
O O4 0.440247 0.373055 0.135125
O O5 0.298857 0.185755 0.145066
O O6 0.305677 0.342083 0.318532
O O7 0.359230 0.317172 0.107515
O O8 0.282203 0.373382 0.054786
O O9 0.931728 0.855616 0.145333
O O10 0.883488 0.999162 0.026468
O O11 0.855118 0.813192 0.043223
O O12 0.585578 0.666959 0.900233
O O13 0.218092 0.501174 0.569654
O O14 0.245839 0.432011 0.818113
O O15 0.278927 0.372837 0.578261
O O16 0.204156 0.685578 0.492720
#
# Coordination Sequence:
#
# PCOD8190384 Si02
#       8
#     8   8   8   8   8   8   8   8
#     4   9  16  30  42  59  95 131 157 191 228 280
#     4  10  20  34  50  71  97 127 161 195 235 282
#     4  10  18  28  45  67  96 128 158 195 227 274
#     4   9  18  26  42  67  91 127 163 185 234 276
#     4  10  21  35  52  70  95 127 158 198 240 281
#     4  10  21  35  52  70  95 127 158 198 240 281
#     4  10  20  34  50  71  97 127 161 195 235 282
#     4  10  18  28  45  67  96 128 158 195 227 274
#
# _framework density 16.27617
#
# number of rings (size 3 to 8) (size 9 to 14) (size 15 to 20)
#    0.000    2.250    1.250    2.250    1.750    4.000 
#    0.000    0.000    0.000    0.000    0.000    0.000 
#    0.000    6.000    0.000    0.000    0.000    0.000 
#
# Total GULP energy -396613.277855 kJ/mol
# GULP energy per Si atom -12394.164933 kJ/mol
# Density = 1.623912 g / cm^3
# Si number density = 16.276170 Si / 1000 Ang^3
#
#
#
# Elastic Constant Matrix: (Units=GPa)
#
#
# Indices 1 2 3 4 5 6 
#
# 1 110.9348 28.1896 30.2858 0.0000 0.0000 0.0000
# 2 28.1896 49.0801 31.6923 0.0000 0.0000 0.0000
# 3 30.2858 31.6923 92.5565 0.0000 0.0000 0.0000
# 4 0.0000 0.0000 0.0000 22.0395 0.0000 0.0000
# 5 0.0000 0.0000 0.0000 0.0000 14.3381 0.0000
# 6 0.0000 0.0000 0.0000 0.0000 0.0000 15.6362
#
#
#
# Elastic Compliance Matrix: (Units=1/GPa)
#
#
# Indices 1 2 3 4 5 6 
#
# 1 0.010785 -0.005027 -0.001808 0.000000 0.000000 0.000000
# 2 -0.005027 0.028502 -0.008114 0.000000 0.000000 0.000000
# 3 -0.001808 -0.008114 0.014174 0.000000 0.000000 0.000000
# 4 0.000000 0.000000 0.000000 0.045373 0.000000 0.000000
# 5 0.000000 0.000000 0.000000 0.000000 0.069744 0.000000
# 6 0.000000 0.000000 0.000000 0.000000 0.000000 0.063954
#
#
# Mechanical properties :
#
#
# Convention : Reuss Voigt Hill
#
# Bulk Modulus (GPa) = 42.44005 48.10076 45.27040
# Shear Modulus (GPa) = 18.49893 21.22969 19.86431
#
# Velocity S-wave (km/s) = 3.37496 3.61549 3.49729
# Velocity P-wave (km/s) = 6.42796 6.85901 6.64698
#
# Compressibility (1/GPa) = 0.02356265
#
# Stress axis : x y z
#
# Youngs Moduli (GPa) = 92.71873 35.08527 70.55101
#
# Poissons Ratio (x) = 0.17639 0.12753
# Poissons Ratio (y) = 0.46613 0.57248
# Poissons Ratio (z) = 0.16761 0.28469
#
# Static dielectric constant tensor:
#      x y z
#    x 3.077830 0.000000 0.000000 
#    y 0.000000 2.756430 0.000000 
#    z 0.000000 0.000000 3.298690 
# 
# 
# High freq. dielectric constant tensor:
#      x y z
#    x 1.628830 0.000000 0.000000 
#    y 0.000000 1.568190 0.000000 
#    z 0.000000 0.000000 1.649610 
# 
# From -- ./inp_files/1499.got.cif
#   From: 2010.03.12/outbox.cif.g09.slc.cpg/sg45_1_cif.got.tgz:1499.got - 2010.04.14 02:50:11.
