data_PCOD8190042
_publ_section_title
;
Structure prediction by ZEFSAII (Michael W. Deem and Ramdas Pophale) SiO2 
 PCOD8190042
Probable space group: I M M 2
;
_chemical_formula_sum "Si O2"
_cell_formula_units_Z 64
_cell_length_a 8.920967
_cell_length_b 30.661842
_cell_length_c 11.983326
_cell_angle_alpha 90.000000
_cell_angle_beta 90.000000
_cell_angle_gamma 90.000000
_cell_volume 3277.838474
_symmetry_space_group_name_H-M "I M M 2"
_symmetry_group_IT_number 44
_symmetry_cell_setting 'orthorhombic'
loop_
_space_group_symop_operation_xyz
x,y,z
-x,-y,z
-x,y,z
x,-y,z
1/2+x,1/2+y,1/2+z
1/2-x,1/2-y,1/2+z
1/2-x,1/2+y,1/2+z
1/2+x,1/2-y,1/2+z
loop_
_atom_site_type_symbol
_atom_site_label
_atom_site_fract_x
_atom_site_fract_y
_atom_site_fract_z
Si Si1 0.673434 0.302478 0.314940
Si Si2 0.822376 0.574712 0.069212
Si Si3 0.822205 0.627449 0.464408
Si Si4 0.329181 0.548366 0.854231
Si Si5 0.321826 0.048566 0.813863
Si Si6 0.323201 0.123992 0.217741
Si Si7 0.674439 0.204586 0.370853
Si Si8 0.676026 0.665815 0.071984
O O1 0.500000 0.312073 0.336974
O O2 0.765933 0.328443 0.407321
O O3 0.709637 0.251416 0.318621
O O4 0.723752 0.317977 0.193345
O O5 0.762119 0.559681 0.190026
O O6 0.771777 0.623515 0.042493
O O7 0.000000 0.571020 0.061605
O O8 0.749993 0.544886 0.974512
O O9 0.758546 0.584480 0.400435
O O10 0.763770 0.626972 0.591086
O O11 0.000000 0.627776 0.459564
O O12 0.500000 0.563576 0.870716
O O13 0.320495 0.500000 0.800787
O O14 0.248587 0.581714 0.772590
O O15 0.500000 0.050042 0.813126
O O16 0.265771 0.000000 0.847991
O O17 0.500000 0.117455 0.220741
O O18 0.275514 0.167962 0.281754
O O19 0.500000 0.199484 0.401896
O O20 0.775107 0.201692 0.481718
O O21 0.500000 0.656276 0.063704
#
# Coordination Sequence:
#
# PCOD8190042 Si02
#       8
#     8   8   8   8   8   8   8   8
#     4  10  23  40  59  86 122 157 191 239 295 349
#     4  11  20  35  60  88 119 154 193 240 291 347
#     4  10  21  38  61  87 116 153 198 244 289 343
#     4  11  24  40  59  86 120 155 194 241 292 349
#     4   9  18  33  55  85 117 148 189 241 289 337
#     4  10  22  39  61  85 114 154 198 245 292 343
#     4  10  22  40  59  84 117 155 197 240 289 345
#     4  11  22  37  61  90 119 153 192 241 296 347
#
# _framework density 19.525061999999998
#
# number of rings (size 3 to 8) (size 9 to 14) (size 15 to 20)
#    0.000    1.750    2.500    1.500    1.750    3.500 
#    0.000    1.250    0.000    1.125    0.000    0.000 
#    0.000    0.000    0.000    0.000    0.000    0.000 
#
# Total GULP energy -396882.572135 kJ/mol
# GULP energy per Si atom -12402.580379 kJ/mol
# Density = 1.948062 g / cm^3
# Si number density = 19.525062 Si / 1000 Ang^3
#
#
#
# Elastic Constant Matrix: (Units=GPa)
#
#
# Indices 1 2 3 4 5 6 
#
# 1 30.8614 22.5074 35.3476 -0.0002 0.0000 0.0001
# 2 22.5074 121.5873 53.8112 -0.0021 0.0002 0.0001
# 3 35.3476 53.8112 147.9233 -0.0035 0.0004 0.0004
# 4 -0.0002 -0.0021 -0.0035 23.0481 0.0002 0.0002
# 5 0.0000 0.0002 0.0004 0.0002 23.3470 -0.0001
# 6 0.0001 0.0001 0.0004 0.0002 -0.0001 25.9850
#
#
#
# Elastic Compliance Matrix: (Units=1/GPa)
#
#
# Indices 1 2 3 4 5 6 
#
# 1 0.046507 -0.004399 -0.009513 -0.000001 0.000000 0.000000
# 2 -0.004399 0.010219 -0.002666 0.000001 0.000000 0.000000
# 3 -0.009513 -0.002666 0.010003 0.000001 0.000000 0.000000
# 4 -0.000001 0.000001 0.000001 0.043388 0.000000 0.000000
# 5 0.000000 0.000000 0.000000 0.000000 0.042832 0.000000
# 6 0.000000 0.000000 0.000000 0.000000 0.000000 0.038484
#
#
# Mechanical properties :
#
#
# Convention : Reuss Voigt Hill
#
# Bulk Modulus (GPa) = 29.78590 58.18937 43.98764
# Shear Modulus (GPa) = 21.20623 27.05640 24.13132
#
# Velocity S-wave (km/s) = 3.29918 3.72657 3.51937
# Velocity P-wave (km/s) = 5.45904 6.95583 6.25239
#
# Compressibility (1/GPa) = 0.03357293
#
# Stress axis : x y z
#
# Youngs Moduli (GPa) = 21.50216 97.85851 99.96593
#
# Poissons Ratio (x) = 0.43046 0.95098
# Poissons Ratio (y) = 0.09458 0.26653
# Poissons Ratio (z) = 0.20455 0.26091
#
# Static dielectric constant tensor:
#      x y z
#    x 3.362250 0.000000 0.000000 
#    y 0.000000 3.656940 0.000000 
#    z 0.000000 0.000000 3.728020 
# 
# 
# High freq. dielectric constant tensor:
#      x y z
#    x 1.742650 0.000000 0.000000 
#    y 0.000000 1.772370 0.000000 
#    z 0.000000 0.000000 1.765470 
# 
# From -- ./inp_files/11462.got.cif
#   From: 2010.03.12/outbox.cif.g09.slc.cpg/sg44_6_cif.got.tgz:11462.got - 2010.04.14 02:36:11.
