data_PCOD8190912
_publ_section_title
;
Structure prediction by ZEFSAII (Michael W. Deem and Ramdas Pophale) SiO2 
 PCOD8190912
Probable space group: I B A 2
;
_chemical_formula_sum "Si O2"
_cell_formula_units_Z 48
_cell_length_a 29.246458
_cell_length_b 8.752204
_cell_length_c 8.352287
_cell_angle_alpha 90.000000
_cell_angle_beta 90.000000
_cell_angle_gamma 90.000000
_cell_volume 2137.942977
_symmetry_space_group_name_H-M "I B A 2"
_symmetry_group_IT_number 45
_symmetry_cell_setting 'orthorhombic'
loop_
_space_group_symop_operation_xyz
x,y,z
-x,-y,z
-x,y,1/2+z
x,-y,1/2+z
1/2+x,1/2+y,1/2+z
1/2-x,1/2-y,1/2+z
1/2-x,1/2+y,z
1/2+x,1/2-y,z
loop_
_atom_site_type_symbol
_atom_site_label
_atom_site_fract_x
_atom_site_fract_y
_atom_site_fract_z
Si Si1 0.905635 0.594028 0.500000
Si Si2 0.000000 0.500000 0.357540
Si Si3 0.650464 0.861041 0.699582
Si Si4 0.238164 0.460882 0.814627
Si Si5 0.000000 0.000000 0.933091
Si Si6 0.714665 0.318773 0.021974
Si Si7 0.037787 0.211841 0.693973
O O1 0.954589 0.515137 0.466062
O O2 0.886194 0.672789 0.339165
O O3 0.870477 0.470093 0.564793
O O4 0.912760 0.718927 0.643267
O O5 0.995652 0.348000 0.249843
O O6 0.664911 0.702900 0.607898
O O7 0.695344 0.929433 0.783901
O O8 0.248663 0.367735 0.655096
O O9 0.282188 0.561498 0.874889
O O10 0.227489 0.349564 0.961709
O O11 0.959690 0.926515 0.821890
O O12 0.018018 0.856553 0.030147
#
# Coordination Sequence:
#
# PCOD8190912 Si02
#       7
#     8   4   8   8   4   8   8
#     4  12  25  42  70 107 142 182 251 302 349 427
#     4  12  24  42  80 100 134 200 254 284 358 440
#     4  12  25  42  71 109 145 179 241 316 350 418
#     4  12  23  44  76 102 143 188 237 291 370 458
#     4  10  24  42  70 102 136 180 252 294 364 428
#     4  12  23  44  74 106 138 192 236 291 375 443
#     4  11  23  43  71 101 138 189 244 293 356 432
#
# _framework density 22.451487
#
# number of rings (size 3 to 8) (size 9 to 14) (size 15 to 20)
#    0.000    0.333    8.333    0.500    0.000    0.000 
#    0.000    1.667    0.000    0.000    0.000    0.000 
#    0.000    0.000    0.000    0.000    0.000    0.000 
#
# Total GULP energy -297432.306722 kJ/mol
# GULP energy per Si atom -12393.012780 kJ/mol
# Density = 2.240039 g / cm^3
# Si number density = 22.451487 Si / 1000 Ang^3
#
#
#
# Elastic Constant Matrix: (Units=GPa)
#
#
# Indices 1 2 3 4 5 6 
#
# 1 72.6407 23.8020 30.3173 0.0000 0.0000 0.0000
# 2 23.8020 88.4576 40.8995 0.0000 0.0000 0.0000
# 3 30.3173 40.8995 105.4956 0.0000 0.0000 0.0000
# 4 0.0000 0.0000 0.0000 43.6852 0.0000 0.0000
# 5 0.0000 0.0000 0.0000 0.0000 51.6566 0.0000
# 6 0.0000 0.0000 0.0000 0.0000 0.0000 34.7648
#
#
#
# Elastic Compliance Matrix: (Units=1/GPa)
#
#
# Indices 1 2 3 4 5 6 
#
# 1 0.016148 -0.002680 -0.003602 0.000000 0.000000 0.000000
# 2 -0.002680 0.014219 -0.004742 0.000000 0.000000 0.000000
# 3 -0.003602 -0.004742 0.012353 0.000000 0.000000 0.000000
# 4 0.000000 0.000000 0.000000 0.022891 0.000000 0.000000
# 5 0.000000 0.000000 0.000000 0.000000 0.019359 0.000000
# 6 0.000000 0.000000 0.000000 0.000000 0.000000 0.028765
#
#
# Mechanical properties :
#
#
# Convention : Reuss Voigt Hill
#
# Bulk Modulus (GPa) = 48.37557 50.73682 49.55620
# Shear Modulus (GPa) = 35.04568 37.45966 36.25267
#
# Velocity S-wave (km/s) = 3.95517 4.08912 4.02271
# Velocity P-wave (km/s) = 6.51547 6.70388 6.61035
#
# Compressibility (1/GPa) = 0.02067159
#
# Stress axis : x y z
#
# Youngs Moduli (GPa) = 61.92864 70.33056 80.95441
#
# Poissons Ratio (x) = 0.18847 0.29156
# Poissons Ratio (y) = 0.16595 0.38391
# Poissons Ratio (z) = 0.22304 0.33353
#
# Static dielectric constant tensor:
#      x y z
#    x 3.902460 0.000000 0.000000 
#    y 0.000000 4.170490 0.000000 
#    z 0.000000 0.000000 4.434030 
# 
# 
# High freq. dielectric constant tensor:
#      x y z
#    x 1.847950 0.000000 0.000000 
#    y 0.000000 1.880370 0.000000 
#    z 0.000000 0.000000 1.918040 
# 
# From -- ./inp_files/1081.got.cif
#   From: 2010.03.12/outbox.cif.g09.slc.cpg/sg45_1_cif.got.tgz:1081.got - 2010.04.14 02:50:11.
