data_PCOD8190771
_publ_section_title
;
Structure prediction by ZEFSAII (Michael W. Deem and Ramdas Pophale) SiO2 
 PCOD8190771
Probable space group: I B A 2
;
_chemical_formula_sum "Si O2"
_cell_formula_units_Z 60
_cell_length_a 20.485187
_cell_length_b 8.743789
_cell_length_c 14.262387
_cell_angle_alpha 90.000000
_cell_angle_beta 90.000000
_cell_angle_gamma 90.000000
_cell_volume 2554.652413
_symmetry_space_group_name_H-M "I B A 2"
_symmetry_group_IT_number 45
_symmetry_cell_setting 'orthorhombic'
loop_
_space_group_symop_operation_xyz
x,y,z
-x,-y,z
-x,y,1/2+z
x,-y,1/2+z
1/2+x,1/2+y,1/2+z
1/2-x,1/2-y,1/2+z
1/2-x,1/2+y,z
1/2+x,1/2-y,z
loop_
_atom_site_type_symbol
_atom_site_label
_atom_site_fract_x
_atom_site_fract_y
_atom_site_fract_z
Si Si1 0.362482 0.492373 0.136310
Si Si2 0.909625 0.524949 0.408135
Si Si3 0.666970 0.509204 0.339281
Si Si4 0.295592 0.176177 0.815491
Si Si5 0.592731 0.162203 0.599420
Si Si6 0.209392 0.571104 0.613764
Si Si7 0.871643 0.774249 0.992747
Si Si8 0.000000 0.500000 0.242805
O O1 0.377840 0.500764 0.246950
O O2 0.396817 0.341709 0.098465
O O3 0.283897 0.487866 0.114575
O O4 0.395641 0.643707 0.089186
O O5 0.834806 0.557065 0.380397
O O6 0.934824 0.622610 0.496359
O O7 0.918601 0.346375 0.439522
O O8 0.949445 0.577555 0.315923
O O9 0.695502 0.342986 0.359713
O O10 0.720310 0.638230 0.321485
O O11 0.631627 0.573325 0.430114
O O12 0.311755 0.169755 0.705017
O O13 0.538912 0.119437 0.677994
O O14 0.661760 0.076598 0.615367
O O15 0.193515 0.676851 0.522644
#
# Coordination Sequence:
#
# PCOD8190771 Si02
#       8
#     8   8   8   8   8   8   8   4
#     4  11  23  40  65 105 148 181 231 293 369 438
#     4  11  25  43  71  97 133 183 243 301 348 423
#     4  11  24  35  63  96 142 189 221 282 354 437
#     4  11  22  41  58  95 140 183 232 282 351 416
#     4  11  24  42  72 103 135 191 241 294 358 429
#     4  10  22  39  65  99 146 188 226 292 357 445
#     4  11  23  40  63 104 141 182 237 283 364 438
#     4  12  24  48  74  98 134 182 256 306 340 420
#
# _framework density 23.486560000000001
#
# number of rings (size 3 to 8) (size 9 to 14) (size 15 to 20)
#    0.000    1.067    2.667    3.600   13.067    0.000 
#    0.000    0.000    0.000   28.000    0.000    0.000 
#    0.000    0.000    0.000    0.000    0.000    0.000 
#
# Total GULP energy -371667.836080 kJ/mol
# GULP energy per Si atom -12388.927869 kJ/mol
# Density = 2.343310 g / cm^3
# Si number density = 23.486560 Si / 1000 Ang^3
#
#
#
# Elastic Constant Matrix: (Units=GPa)
#
#
# Indices 1 2 3 4 5 6 
#
# 1 41.3611 18.4013 25.2679 0.0000 0.0000 0.0000
# 2 18.4013 128.5393 31.0331 0.0000 0.0000 0.0000
# 3 25.2679 31.0331 142.2970 0.0000 0.0000 0.0000
# 4 0.0000 0.0000 0.0000 42.9646 0.0000 0.0000
# 5 0.0000 0.0000 0.0000 0.0000 15.9450 0.0000
# 6 0.0000 0.0000 0.0000 0.0000 0.0000 5.1567
#
#
#
# Elastic Compliance Matrix: (Units=1/GPa)
#
#
# Indices 1 2 3 4 5 6 
#
# 1 0.028161 -0.002981 -0.004351 0.000000 0.000000 0.000000
# 2 -0.002981 0.008528 -0.001330 0.000000 0.000000 0.000000
# 3 -0.004351 -0.001330 0.008090 0.000000 0.000000 0.000000
# 4 0.000000 0.000000 0.000000 0.023275 0.000000 0.000000
# 5 0.000000 0.000000 0.000000 0.000000 0.062716 0.000000
# 6 0.000000 0.000000 0.000000 0.000000 0.000000 0.193923
#
#
# Mechanical properties :
#
#
# Convention : Reuss Voigt Hill
#
# Bulk Modulus (GPa) = 36.42305 51.28911 43.85608
# Shear Modulus (GPa) = 14.23819 28.64628 21.44223
#
# Velocity S-wave (km/s) = 2.46484 3.49619 3.02480
# Velocity P-wave (km/s) = 4.86233 6.17923 5.55991
#
# Compressibility (1/GPa) = 0.02745514
#
# Stress axis : x y z
#
# Youngs Moduli (GPa) = 35.50965 117.26498 123.60594
#
# Poissons Ratio (x) = 0.34958 0.53775
# Poissons Ratio (y) = 0.10586 0.16445
# Poissons Ratio (z) = 0.15449 0.15601
#
# Static dielectric constant tensor:
#      x y z
#    x 3.842970 0.000000 0.000000 
#    y 0.000000 4.150550 0.000000 
#    z 0.000000 0.000000 4.800700 
# 
# 
# High freq. dielectric constant tensor:
#      x y z
#    x 1.876350 0.000000 0.000000 
#    y 0.000000 1.931530 0.000000 
#    z 0.000000 0.000000 1.958830 
# 
# From -- ./inp_files/7039.got.cif
#   From: 2010.03.12/outbox.cif.g09.slc.cpg/sg45_4_cif.got.tgz:7039.got - 2010.04.14 02:50:11.
