data_PCOD8190116
_publ_section_title
;
Structure prediction by ZEFSAII (Michael W. Deem and Ramdas Pophale) SiO2 
 PCOD8190116
Probable space group: I M M 2
;
_chemical_formula_sum "Si O2"
_cell_formula_units_Z 30
_cell_length_a 12.346480
_cell_length_b 15.323577
_cell_length_c 7.821097
_cell_angle_alpha 90.000000
_cell_angle_beta 90.000000
_cell_angle_gamma 90.000000
_cell_volume 1479.690837
_symmetry_space_group_name_H-M "I M M 2"
_symmetry_group_IT_number 44
_symmetry_cell_setting 'orthorhombic'
loop_
_space_group_symop_operation_xyz
x,y,z
-x,-y,z
-x,y,z
x,-y,z
1/2+x,1/2+y,1/2+z
1/2-x,1/2-y,1/2+z
1/2-x,1/2+y,1/2+z
1/2+x,1/2-y,1/2+z
loop_
_atom_site_type_symbol
_atom_site_label
_atom_site_fract_x
_atom_site_fract_y
_atom_site_fract_z
Si Si1 0.000000 0.096606 0.896240
Si Si2 0.290178 0.500000 0.836461
Si Si3 0.696054 0.665912 0.597032
Si Si4 0.000000 0.000000 0.567912
Si Si5 0.626011 0.000000 0.635436
Si Si6 0.373655 0.824635 0.829652
O O1 0.000000 0.086209 0.689544
O O2 0.106908 0.147618 0.952052
O O3 0.000000 0.000000 0.983703
O O4 0.287621 0.414699 0.721664
O O5 0.396218 0.500000 0.950698
O O6 0.185061 0.500000 0.954534
O O7 0.656596 0.748979 0.699990
O O8 0.809443 0.687162 0.506291
O O9 0.660028 0.083700 0.745655
O O10 0.500000 0.000000 0.591335
O O11 0.500000 0.821427 0.875095
#
# Coordination Sequence:
#
# PCOD8190116 Si02
#       6
#     4   4   8   2   4   8
#     4  10  21  42  69 101 127 165 216 285 346 390
#     4  12  22  39  68  95 131 165 218 277 333 395
#     4  12  23  43  67  96 136 170 221 282 335 394
#     4  10  22  36  66 106 122 164 208 272 358 386
#     4  10  23  43  63  89 130 176 221 265 317 393
#     4  11  25  44  65  94 134 177 223 273 328 400
#
# _framework density 20.274505999999999
#
# number of rings (size 3 to 8) (size 9 to 14) (size 15 to 20)
#    0.400    0.533    2.667    4.800    0.000    1.067 
#    2.400    0.000    0.000    0.000    0.000    0.000 
#    0.000    0.000    0.000    0.000    0.000    0.000 
#
# Total GULP energy -186075.558841 kJ/mol
# GULP energy per Si atom -12405.037256 kJ/mol
# Density = 2.022836 g / cm^3
# Si number density = 20.274506 Si / 1000 Ang^3
#
#
#
# Elastic Constant Matrix: (Units=GPa)
#
#
# Indices 1 2 3 4 5 6 
#
# 1 114.8154 26.7298 55.5070 0.0000 0.0000 0.0000
# 2 26.7298 102.8342 12.5518 0.0000 0.0000 0.0000
# 3 55.5070 12.5518 90.4266 0.0000 0.0000 0.0000
# 4 0.0000 0.0000 0.0000 52.8831 0.0000 0.0000
# 5 0.0000 0.0000 0.0000 0.0000 45.7307 0.0000
# 6 0.0000 0.0000 0.0000 0.0000 0.0000 35.7174
#
#
#
# Elastic Compliance Matrix: (Units=1/GPa)
#
#
# Indices 1 2 3 4 5 6 
#
# 1 0.012960 -0.002439 -0.007616 0.000000 0.000000 0.000000
# 2 -0.002439 0.010351 0.000060 0.000000 0.000000 0.000000
# 3 -0.007616 0.000060 0.015726 0.000000 0.000000 0.000000
# 4 0.000000 0.000000 0.000000 0.018910 0.000000 0.000000
# 5 0.000000 0.000000 0.000000 0.000000 0.021867 0.000000
# 6 0.000000 0.000000 0.000000 0.000000 0.000000 0.027998
#
#
# Mechanical properties :
#
#
# Convention : Reuss Voigt Hill
#
# Bulk Modulus (GPa) = 52.50468 55.29482 53.89975
# Shear Modulus (GPa) = 37.27189 41.08542 39.17865
#
# Velocity S-wave (km/s) = 4.29226 4.50650 4.40069
# Velocity P-wave (km/s) = 7.10759 7.37634 7.24321
#
# Compressibility (1/GPa) = 0.01904592
#
# Stress axis : x y z
#
# Youngs Moduli (GPa) = 77.16292 96.60915 63.59065
#
# Poissons Ratio (x) = 0.23562 0.48434
# Poissons Ratio (y) = 0.18820 -0.00384
# Poissons Ratio (z) = 0.58771 -0.00583
#
# Static dielectric constant tensor:
#      x y z
#    x 3.792120 0.000000 0.000000 
#    y 0.000000 3.544830 0.000000 
#    z 0.000000 0.000000 3.666460 
# 
# 
# High freq. dielectric constant tensor:
#      x y z
#    x 1.807170 0.000000 0.000000 
#    y 0.000000 1.803160 0.000000 
#    z 0.000000 0.000000 1.794960 
# 
# From -- ./inp_files/5349.got.cif
#   From: 2010.03.12/outbox.cif.g09.slc.cpg/sg44_3_cif.got.tgz:5349.got - 2010.04.14 02:36:11.
