data_PCOD8190160
_publ_section_title
;
Structure prediction by ZEFSAII (Michael W. Deem and Ramdas Pophale) SiO2 
 PCOD8190160
Probable space group: I M M 2
;
_chemical_formula_sum "Si O2"
_cell_formula_units_Z 40
_cell_length_a 9.048893
_cell_length_b 7.570962
_cell_length_c 29.661956
_cell_angle_alpha 90.000000
_cell_angle_beta 90.000000
_cell_angle_gamma 90.000000
_cell_volume 2032.105754
_symmetry_space_group_name_H-M "I M M 2"
_symmetry_group_IT_number 44
_symmetry_cell_setting 'orthorhombic'
loop_
_space_group_symop_operation_xyz
x,y,z
-x,-y,z
-x,y,z
x,-y,z
1/2+x,1/2+y,1/2+z
1/2-x,1/2-y,1/2+z
1/2-x,1/2+y,1/2+z
1/2+x,1/2-y,1/2+z
loop_
_atom_site_type_symbol
_atom_site_label
_atom_site_fract_x
_atom_site_fract_y
_atom_site_fract_z
Si Si1 0.172819 0.207600 0.107010
Si Si2 0.324941 0.500000 0.946475
Si Si3 0.676609 0.500000 0.048804
Si Si4 0.663975 0.293192 0.292494
Si Si5 0.174446 0.299242 0.380401
Si Si6 0.664079 0.205371 0.195231
O O1 0.259820 0.320768 0.070096
O O2 0.229180 0.275573 0.155866
O O3 0.000000 0.248774 0.103801
O O4 0.205470 0.000000 0.098822
O O5 0.500000 0.500000 0.946239
O O6 0.267428 0.323885 0.921020
O O7 0.266838 0.500000 0.997320
O O8 0.500000 0.500000 0.053094
O O9 0.500000 0.207890 0.294769
O O10 0.654127 0.500000 0.297872
O O11 0.761316 0.220310 0.333657
O O12 0.736239 0.246573 0.244024
O O13 0.227332 0.500000 0.390110
O O14 0.000000 0.290500 0.375609
O O15 0.500000 0.293928 0.191717
O O16 0.646768 0.000000 0.188479
#
# Coordination Sequence:
#
# PCOD8190160 Si02
#       6
#     8   4   4   8   8   8
#     4  10  22  40  59  83 118 153 189 238 293 350
#     4   9  20  37  57  83 107 137 185 235 280 335
#     4  11  23  39  63  89 113 147 197 247 296 349
#     4   9  18  31  48  75 109 143 181 223 270 325
#     4   9  18  34  54  76 106 141 178 223 273 326
#     4   9  18  32  51  77 108 145 189 230 274 332
#
# _framework density 19.684014000000001
#
# number of rings (size 3 to 8) (size 9 to 14) (size 15 to 20)
#    0.000    2.600    0.000    0.900    2.800    2.800 
#    0.000    4.000    0.000    2.400    0.000    0.000 
#    0.000    0.000    0.000    0.000    0.000    0.000 
#
# Total GULP energy -247913.452665 kJ/mol
# GULP energy per Si atom -12395.672633 kJ/mol
# Density = 1.963921 g / cm^3
# Si number density = 19.684014 Si / 1000 Ang^3
#
#
#
# Elastic Constant Matrix: (Units=GPa)
#
#
# Indices 1 2 3 4 5 6 
#
# 1 71.9727 37.0621 60.1997 0.0000 0.0000 0.0000
# 2 37.0621 83.0384 68.2604 0.0000 0.0000 0.0000
# 3 60.1997 68.2604 200.7253 0.0000 0.0000 0.0000
# 4 0.0000 0.0000 0.0000 34.0610 0.0000 0.0000
# 5 0.0000 0.0000 0.0000 0.0000 24.8947 0.0000
# 6 0.0000 0.0000 0.0000 0.0000 0.0000 21.7926
#
#
#
# Elastic Compliance Matrix: (Units=1/GPa)
#
#
# Indices 1 2 3 4 5 6 
#
# 1 0.020277 -0.005623 -0.004169 0.000000 0.000000 0.000000
# 2 -0.005623 0.018275 -0.004528 0.000000 0.000000 0.000000
# 3 -0.004169 -0.004528 0.007772 0.000000 0.000000 0.000000
# 4 0.000000 0.000000 0.000000 0.029359 0.000000 0.000000
# 5 0.000000 0.000000 0.000000 0.000000 0.040169 0.000000
# 6 0.000000 0.000000 0.000000 0.000000 0.000000 0.045887
#
#
# Mechanical properties :
#
#
# Convention : Reuss Voigt Hill
#
# Bulk Modulus (GPa) = 56.55101 76.30897 66.42999
# Shear Modulus (GPa) = 25.47462 28.83061 27.15262
#
# Velocity S-wave (km/s) = 3.60137 3.83125 3.71809
# Velocity P-wave (km/s) = 6.78859 7.64346 7.22867
#
# Compressibility (1/GPa) = 0.01768315
#
# Stress axis : x y z
#
# Youngs Moduli (GPa) = 49.31760 54.72059 128.66387
#
# Poissons Ratio (x) = 0.30769 0.53640
# Poissons Ratio (y) = 0.27731 0.58262
# Poissons Ratio (z) = 0.20561 0.24779
#
# Static dielectric constant tensor:
#      x y z
#    x 3.625960 0.000000 0.000000 
#    y 0.000000 3.601820 0.000000 
#    z 0.000000 0.000000 3.858260 
# 
# 
# High freq. dielectric constant tensor:
#      x y z
#    x 1.745940 0.000000 0.000000 
#    y 0.000000 1.769120 0.000000 
#    z 0.000000 0.000000 1.769490 
# 
# From -- ./inp_files/25930.got.cif
#   From: 2010.03.12/outbox.cif.g09.slc.cpg/sg44_13_cif.got.tgz:25930.got - 2010.04.14 02:36:11.
