data_PCOD8190496
_publ_section_title
;
Structure prediction by ZEFSAII (Michael W. Deem and Ramdas Pophale) SiO2 
 PCOD8190496
Probable space group: I B A 2
;
_chemical_formula_sum "Si O2"
_cell_formula_units_Z 52
_cell_length_a 14.281708
_cell_length_b 9.057285
_cell_length_c 21.269189
_cell_angle_alpha 90.000000
_cell_angle_beta 90.000000
_cell_angle_gamma 90.000000
_cell_volume 2751.244032
_symmetry_space_group_name_H-M "I B A 2"
_symmetry_group_IT_number 45
_symmetry_cell_setting 'orthorhombic'
loop_
_space_group_symop_operation_xyz
x,y,z
-x,-y,z
-x,y,1/2+z
x,-y,1/2+z
1/2+x,1/2+y,1/2+z
1/2-x,1/2-y,1/2+z
1/2-x,1/2+y,z
1/2+x,1/2-y,z
loop_
_atom_site_type_symbol
_atom_site_label
_atom_site_fract_x
_atom_site_fract_y
_atom_site_fract_z
Si Si1 0.367204 0.565367 0.843820
Si Si2 0.500000 0.000000 0.620463
Si Si3 0.992127 0.802816 0.567048
Si Si4 0.871606 0.973270 0.138332
Si Si5 0.500000 0.500000 0.246769
Si Si6 0.758088 0.797561 0.287257
Si Si7 0.000000 0.000000 0.953473
Si Si8 0.817747 0.466728 0.700934
O O1 0.447562 0.615141 0.793663
O O2 0.289623 0.694019 0.840801
O O3 0.331622 0.402181 0.823169
O O4 0.410361 0.550534 0.913056
O O5 0.522646 0.129726 0.571615
O O6 0.414944 0.040682 0.665375
O O7 0.099555 0.849020 0.586803
O O8 0.919886 0.873843 0.616867
O O9 0.971124 0.860502 0.496891
O O10 0.918074 0.925216 0.205092
O O11 0.761947 0.998435 0.148261
O O12 0.802599 0.691396 0.233991
O O13 0.682480 0.902814 0.252539
#
# Coordination Sequence:
#
# PCOD8190496 Si02
#       8
#     8   4   8   8   4   8   4   8
#     4  10  20  34  60  79 110 148 193 228 270 320
#     4  12  24  30  54  90 116 144 174 246 296 302
#     4   9  21  38  58  80 105 147 201 228 274 323
#     4   9  17  35  57  77 114 152 184 206 268 368
#     4   9  15  30  58  78 101 157 180 208 260 345
#     4  10  20  34  52  88 118 144 180 220 280 348
#     4   9  21  44  60  68 101 163 202 224 260 343
#     4  11  21  33  53  85 129 142 170 220 293 348
#
# _framework density 18.900539999999999
#
# number of rings (size 3 to 8) (size 9 to 14) (size 15 to 20)
#    0.000    2.462    3.077    1.846    4.308    1.231 
#    0.000    9.231    0.000    0.000    0.000    0.000 
#    0.000    0.000    0.000    0.000    0.000    0.000 
#
# Total GULP energy -322127.610184 kJ/mol
# GULP energy per Si atom -12389.523469 kJ/mol
# Density = 1.885752 g / cm^3
# Si number density = 18.900540 Si / 1000 Ang^3
#
#
#
# Elastic Constant Matrix: (Units=GPa)
#
#
# Indices 1 2 3 4 5 6 
#
# 1 85.1481 14.7253 30.0423 0.0000 0.0000 0.0000
# 2 14.7253 124.4787 34.0923 0.0000 0.0000 0.0000
# 3 30.0423 34.0923 104.7633 0.0000 0.0000 0.0000
# 4 0.0000 0.0000 0.0000 16.8193 0.0000 0.0000
# 5 0.0000 0.0000 0.0000 0.0000 23.6357 0.0000
# 6 0.0000 0.0000 0.0000 0.0000 0.0000 16.1019
#
#
#
# Elastic Compliance Matrix: (Units=1/GPa)
#
#
# Indices 1 2 3 4 5 6 
#
# 1 0.013103 -0.000572 -0.003571 0.000000 0.000000 0.000000
# 2 -0.000572 0.008845 -0.002714 0.000000 0.000000 0.000000
# 3 -0.003571 -0.002714 0.011453 0.000000 0.000000 0.000000
# 4 0.000000 0.000000 0.000000 0.059455 0.000000 0.000000
# 5 0.000000 0.000000 0.000000 0.000000 0.042309 0.000000
# 6 0.000000 0.000000 0.000000 0.000000 0.000000 0.062105
#
#
# Mechanical properties :
#
#
# Convention : Reuss Voigt Hill
#
# Bulk Modulus (GPa) = 50.79900 52.45668 51.62784
# Shear Modulus (GPa) = 22.98362 27.01338 24.99850
#
# Velocity S-wave (km/s) = 3.49094 3.78463 3.64075
# Velocity P-wave (km/s) = 6.57148 6.84925 6.71180
#
# Compressibility (1/GPa) = 0.01968543
#
# Stress axis : x y z
#
# Youngs Moduli (GPa) = 76.31702 113.06427 87.31534
#
# Poissons Ratio (x) = 0.06466 0.31184
# Poissons Ratio (y) = 0.04365 0.23699
# Poissons Ratio (z) = 0.27256 0.30688
#
# Static dielectric constant tensor:
#      x y z
#    x 3.480570 0.000000 0.000000 
#    y 0.000000 3.619540 0.000000 
#    z 0.000000 0.000000 3.344610 
# 
# 
# High freq. dielectric constant tensor:
#      x y z
#    x 1.727320 0.000000 0.000000 
#    y 0.000000 1.729250 0.000000 
#    z 0.000000 0.000000 1.714260 
# 
# From -- ./inp_files/8853.got.cif
#   From: 2010.03.12/outbox.cif.g09.slc.cpg/sg45_5_cif.got.tgz:8853.got - 2010.04.14 02:50:11.
