data_PCOD8190605
_publ_section_title
;
Structure prediction by ZEFSAII (Michael W. Deem and Ramdas Pophale) SiO2 
 PCOD8190605
Probable space group: I B A 2
;
_chemical_formula_sum "Si O2"
_cell_formula_units_Z 64
_cell_length_a 14.493994
_cell_length_b 12.286694
_cell_length_c 17.472159
_cell_angle_alpha 90.000000
_cell_angle_beta 90.000000
_cell_angle_gamma 90.000000
_cell_volume 3111.499193
_symmetry_space_group_name_H-M "I B A 2"
_symmetry_group_IT_number 45
_symmetry_cell_setting 'orthorhombic'
loop_
_space_group_symop_operation_xyz
x,y,z
-x,-y,z
-x,y,1/2+z
x,-y,1/2+z
1/2+x,1/2+y,1/2+z
1/2-x,1/2-y,1/2+z
1/2-x,1/2+y,z
1/2+x,1/2-y,z
loop_
_atom_site_type_symbol
_atom_site_label
_atom_site_fract_x
_atom_site_fract_y
_atom_site_fract_z
Si Si1 0.551662 0.815649 0.738590
Si Si2 0.403313 0.049127 0.872477
Si Si3 0.448338 0.684351 0.870859
Si Si4 0.112545 0.731829 0.143645
Si Si5 0.287089 0.160123 0.387164
Si Si6 0.612545 0.268171 0.465804
Si Si7 0.712911 0.660123 0.722285
Si Si8 0.903313 0.950873 0.736971
O O1 0.591301 0.923195 0.780900
O O2 0.500000 0.750000 0.804725
O O3 0.474947 0.839367 0.673597
O O4 0.631861 0.743934 0.699991
O O5 0.379534 0.153204 0.923092
O O6 0.500000 0.000000 0.900936
O O7 0.322492 0.962992 0.884718
O O8 0.368138 0.756066 0.909458
O O9 0.525053 0.660633 0.935852
O O10 0.408700 0.576805 0.828549
O O11 0.206392 0.665475 0.159416
O O12 0.120466 0.846796 0.186357
O O13 0.099458 0.750000 0.054724
O O14 0.206392 0.165475 0.450033
O O15 0.250000 0.197282 0.304725
O O16 0.677508 0.537008 0.724731
O O17 0.000000 0.000000 0.708513
#
# Coordination Sequence:
#
# PCOD8190605 Si02
#       8
#     8   8   8   8   8   8   8   8
#     4  10  20  42  65  93 125 167 217 271 322 389
#     4  11  21  41  69  93 126 173 223 270 325 394
#     4  10  20  42  65  93 125 167 217 271 322 389
#     4  11  25  44  63  97 141 171 217 276 344 402
#     4  12  22  39  69 101 125 167 226 277 325 391
#     4  11  25  44  63  97 141 171 217 276 344 402
#     4  12  22  39  69 101 125 167 226 277 325 391
#     4  11  21  41  69  93 126 173 223 270 325 394
#
# _framework density 20.568861999999999
#
# number of rings (size 3 to 8) (size 9 to 14) (size 15 to 20)
#    0.000    1.000   10.000    0.000    3.500    2.000 
#    0.000    3.750    0.000    0.000    0.000    0.000 
#    0.000    0.000    0.000    0.000    0.000    0.000 
#
# Total GULP energy -396799.992866 kJ/mol
# GULP energy per Si atom -12399.999777 kJ/mol
# Density = 2.052205 g / cm^3
# Si number density = 20.568862 Si / 1000 Ang^3
#
#
#
# Elastic Constant Matrix: (Units=GPa)
#
#
# Indices 1 2 3 4 5 6 
#
# 1 144.0328 56.7952 58.2091 0.0000 0.0000 0.0000
# 2 56.7952 98.5298 28.0015 0.0000 0.0000 0.0000
# 3 58.2091 28.0015 128.6611 0.0000 0.0000 0.0000
# 4 0.0000 0.0000 0.0000 14.7839 0.0000 0.0000
# 5 0.0000 0.0000 0.0000 0.0000 24.7341 0.0000
# 6 0.0000 0.0000 0.0000 0.0000 0.0000 39.2318
#
#
#
# Elastic Compliance Matrix: (Units=1/GPa)
#
#
# Indices 1 2 3 4 5 6 
#
# 1 0.010348 -0.004940 -0.003607 0.000000 0.000000 0.000000
# 2 -0.004940 0.013177 -0.000633 0.000000 0.000000 0.000000
# 3 -0.003607 -0.000633 0.009542 0.000000 0.000000 0.000000
# 4 0.000000 0.000000 0.000000 0.067641 0.000000 0.000000
# 5 0.000000 0.000000 0.000000 0.000000 0.040430 0.000000
# 6 0.000000 0.000000 0.000000 0.000000 0.000000 0.025490
#
#
# Mechanical properties :
#
#
# Convention : Reuss Voigt Hill
#
# Bulk Modulus (GPa) = 67.99104 73.02613 70.50858
# Shear Modulus (GPa) = 26.33116 30.96451 28.64784
#
# Velocity S-wave (km/s) = 3.58180 3.88417 3.73604
# Velocity P-wave (km/s) = 7.08751 7.46297 7.27766
#
# Compressibility (1/GPa) = 0.01470782
#
# Stress axis : x y z
#
# Youngs Moduli (GPa) = 96.63265 75.89190 104.80189
#
# Poissons Ratio (x) = 0.37492 0.37799
# Poissons Ratio (y) = 0.47738 0.06631
# Poissons Ratio (z) = 0.34853 0.04802
#
# Static dielectric constant tensor:
#      x y z
#    x 4.266570 0.000000 0.000000 
#    y 0.000000 3.841990 0.000000 
#    z 0.000000 0.000000 3.627120 
# 
# 
# High freq. dielectric constant tensor:
#      x y z
#    x 1.826560 0.000000 0.000000 
#    y 0.000000 1.798320 0.000000 
#    z 0.000000 0.000000 1.763620 
# 
# From -- ./inp_files/7995.got.cif
#   From: 2010.03.12/outbox.cif.g09.slc.cpg/sg45_4_cif.got.tgz:7995.got - 2010.04.14 02:50:11.
