data_PCOD8190617
_publ_section_title
;
Structure prediction by ZEFSAII (Michael W. Deem and Ramdas Pophale) SiO2 
 PCOD8190617
Probable space group: I B A 2
;
_chemical_formula_sum "Si O2"
_cell_formula_units_Z 60
_cell_length_a 9.915185
_cell_length_b 35.713921
_cell_length_c 8.654384
_cell_angle_alpha 90.000000
_cell_angle_beta 90.000000
_cell_angle_gamma 90.000000
_cell_volume 3064.605076
_symmetry_space_group_name_H-M "I B A 2"
_symmetry_group_IT_number 45
_symmetry_cell_setting 'orthorhombic'
loop_
_space_group_symop_operation_xyz
x,y,z
-x,-y,z
-x,y,1/2+z
x,-y,1/2+z
1/2+x,1/2+y,1/2+z
1/2-x,1/2-y,1/2+z
1/2-x,1/2+y,z
1/2+x,1/2-y,z
loop_
_atom_site_type_symbol
_atom_site_label
_atom_site_fract_x
_atom_site_fract_y
_atom_site_fract_z
Si Si1 0.688089 0.013897 0.152010
Si Si2 0.500000 0.000000 0.902055
Si Si3 0.404193 0.436195 0.270183
Si Si4 0.826318 0.145860 0.619492
Si Si5 0.874262 0.781289 0.603015
Si Si6 0.682616 0.563056 0.615910
Si Si7 0.608040 0.354266 0.767161
Si Si8 0.173648 0.221260 0.238685
O O1 0.597269 0.025998 0.298591
O O2 0.830633 0.034239 0.158041
O O3 0.706590 0.968529 0.152484
O O4 0.599760 0.025871 0.004134
O O5 0.382170 0.445294 0.449236
O O6 0.562874 0.439430 0.240578
O O7 0.337570 0.395873 0.228808
O O8 0.751447 0.105198 0.623278
O O9 0.872800 0.155734 0.446371
O O10 0.749083 0.182475 0.685998
O O11 0.949735 0.143447 0.737753
O O12 0.826110 0.822757 0.657842
O O13 0.855276 0.777219 0.420687
O O14 0.776220 0.753628 0.694224
O O15 0.030561 0.774336 0.649243
#
# Coordination Sequence:
#
# PCOD8190617 Si02
#       8
#     8   4   8   8   8   8   8   8
#     4  11  21  40  56  78 103 147 190 228 264 325
#     4  10  24  38  58  70 104 150 200 216 264 326
#     4  10  21  34  56  85 112 136 175 233 287 324
#     4   9  17  32  52  80 111 143 176 222 280 334
#     4  11  21  36  59  85 115 151 188 229 278 333
#     4  10  21  34  56  85 112 136 175 233 287 324
#     4   9  17  32  52  80 111 143 176 222 280 334
#     4  11  21  36  59  85 115 151 188 229 278 333
#
# _framework density 19.578379999999999
#
# number of rings (size 3 to 8) (size 9 to 14) (size 15 to 20)
#    0.000    1.867    1.333    5.200    1.867    2.133 
#    0.000    0.000    5.867    0.000    0.000    0.000 
#    0.000    0.000    0.000    0.000    0.000    0.000 
#
# Total GULP energy -371647.727025 kJ/mol
# GULP energy per Si atom -12388.257567 kJ/mol
# Density = 1.953382 g / cm^3
# Si number density = 19.578380 Si / 1000 Ang^3
#
#
#
# Elastic Constant Matrix: (Units=GPa)
#
#
# Indices 1 2 3 4 5 6 
#
# 1 50.8667 32.3860 19.4588 0.0154 0.0009 -0.0022
# 2 32.3860 127.3650 33.5308 0.0146 0.0044 0.0026
# 3 19.4588 33.5308 99.2981 0.0176 0.0059 0.0021
# 4 0.0154 0.0146 0.0176 27.1834 0.0050 0.0030
# 5 0.0009 0.0044 0.0059 0.0050 21.9998 0.0064
# 6 -0.0022 0.0026 0.0021 0.0030 0.0064 21.8561
#
#
#
# Elastic Compliance Matrix: (Units=1/GPa)
#
#
# Indices 1 2 3 4 5 6 
#
# 1 0.024207 -0.005385 -0.002925 -0.000009 0.000001 0.000003
# 2 -0.005385 0.009816 -0.002259 -0.000001 -0.000001 -0.000002
# 3 -0.002925 -0.002259 0.011407 -0.000005 -0.000002 -0.000001
# 4 -0.000009 -0.000001 -0.000005 0.036787 -0.000008 -0.000005
# 5 0.000001 -0.000001 -0.000002 -0.000008 0.045455 -0.000013
# 6 0.000003 -0.000002 -0.000001 -0.000005 -0.000013 0.045754
#
#
# Mechanical properties :
#
#
# Convention : Reuss Voigt Hill
#
# Bulk Modulus (GPa) = 41.16903 49.80899 45.48901
# Shear Modulus (GPa) = 24.67174 27.01814 25.84494
#
# Velocity S-wave (km/s) = 3.55371 3.71886 3.63723
# Velocity P-wave (km/s) = 6.15727 6.62842 6.39718
#
# Compressibility (1/GPa) = 0.02429010
#
# Stress axis : x y z
#
# Youngs Moduli (GPa) = 41.31057 101.87934 87.66695
#
# Poissons Ratio (x) = 0.54863 0.25645
# Poissons Ratio (y) = 0.22246 0.19806
# Poissons Ratio (z) = 0.12084 0.23017
#
# Static dielectric constant tensor:
#      x y z
#    x 3.243770 0.000000 0.000010 
#    y 0.000000 4.158420 -0.000010 
#    z 0.000010 -0.000010 3.750790 
# 
# 
# High freq. dielectric constant tensor:
#      x y z
#    x 1.717700 0.000000 0.000000 
#    y 0.000000 1.766610 0.000000 
#    z 0.000000 0.000000 1.784350 
# 
# From -- ./inp_files/1488.got.cif
#   From: 2010.03.12/outbox.cif.g09.slc.cpg/sg45_1_cif.got.tgz:1488.got - 2010.04.14 02:50:11.
