data_PCOD8190933
_publ_section_title
;
Structure prediction by ZEFSAII (Michael W. Deem and Ramdas Pophale) SiO2 
 PCOD8190933
Probable space group: I B A 2
;
_chemical_formula_sum "Si O2"
_cell_formula_units_Z 56
_cell_length_a 22.074349
_cell_length_b 8.139806
_cell_length_c 13.896669
_cell_angle_alpha 90.000000
_cell_angle_beta 90.000000
_cell_angle_gamma 90.000000
_cell_volume 2496.966249
_symmetry_space_group_name_H-M "I B A 2"
_symmetry_group_IT_number 45
_symmetry_cell_setting 'orthorhombic'
loop_
_space_group_symop_operation_xyz
x,y,z
-x,-y,z
-x,y,1/2+z
x,-y,1/2+z
1/2+x,1/2+y,1/2+z
1/2-x,1/2-y,1/2+z
1/2-x,1/2+y,z
1/2+x,1/2-y,z
loop_
_atom_site_type_symbol
_atom_site_label
_atom_site_fract_x
_atom_site_fract_y
_atom_site_fract_z
Si Si1 0.123461 0.016066 0.853120
Si Si2 0.828652 0.653759 0.781759
Si Si3 0.936251 0.294130 0.032908
Si Si4 0.588272 0.841150 0.816128
Si Si5 0.195236 0.720420 0.073591
Si Si6 0.000000 0.000000 0.970789
Si Si7 0.749376 0.459729 0.449743
Si Si8 0.000000 0.500000 0.682278
O O1 0.131351 0.177632 0.785582
O O2 0.059977 0.034955 0.908376
O O3 0.119687 0.838160 0.798938
O O4 0.182393 0.020123 0.921062
O O5 0.868163 0.490411 0.788105
O O6 0.793315 0.650054 0.679876
O O7 0.777744 0.650380 0.864590
O O8 0.872638 0.211885 0.060744
O O9 0.947815 0.431739 0.112436
O O10 0.934195 0.366918 0.925280
O O11 0.988597 0.156659 0.038527
O O12 0.529241 0.856682 0.747778
O O13 0.203776 0.598986 0.981689
O O14 0.242967 0.863169 0.051189
#
# Coordination Sequence:
#
# PCOD8190933 Si02
#       8
#     8   8   8   8   8   4   8   4
#     4  11  26  46  76 106 146 197 242 306 375 433
#     4  12  27  47  77 106 148 202 244 308 385 438
#     4  11  24  46  71 105 148 186 246 304 363 452
#     4  11  25  49  72 107 149 190 251 305 365 451
#     4  12  26  45  74 109 144 195 257 302 373 452
#     4  10  24  44  76 104 144 192 236 308 370 434
#     4  12  24  50  70 106 153 189 251 318 364 442
#     4  12  26  44  74 104 148 202 232 304 386 438
#
# _framework density 22.427216999999999
#
# number of rings (size 3 to 8) (size 9 to 14) (size 15 to 20)
#    0.000    0.571    7.143    0.429    8.000    1.143 
#    0.000    0.000    0.000    0.000    0.000    0.000 
#    0.000    0.000    0.000    0.000    0.000    0.000 
#
# Total GULP energy -346982.276015 kJ/mol
# GULP energy per Si atom -12392.224143 kJ/mol
# Density = 2.237617 g / cm^3
# Si number density = 22.427217 Si / 1000 Ang^3
#
#
#
# Elastic Constant Matrix: (Units=GPa)
#
#
# Indices 1 2 3 4 5 6 
#
# 1 113.5771 40.5707 38.8937 0.0000 0.0000 0.0000
# 2 40.5707 126.1426 25.9939 0.0000 0.0000 0.0000
# 3 38.8937 25.9939 106.6840 0.0000 0.0000 0.0000
# 4 0.0000 0.0000 0.0000 19.5756 0.0000 0.0000
# 5 0.0000 0.0000 0.0000 0.0000 29.2752 0.0000
# 6 0.0000 0.0000 0.0000 0.0000 0.0000 37.9598
#
#
#
# Elastic Compliance Matrix: (Units=1/GPa)
#
#
# Indices 1 2 3 4 5 6 
#
# 1 0.010950 -0.002842 -0.003299 0.000000 0.000000 0.000000
# 2 -0.002842 0.009084 -0.001177 0.000000 0.000000 0.000000
# 3 -0.003299 -0.001177 0.010863 0.000000 0.000000 0.000000
# 4 0.000000 0.000000 0.000000 0.051084 0.000000 0.000000
# 5 0.000000 0.000000 0.000000 0.000000 0.034159 0.000000
# 6 0.000000 0.000000 0.000000 0.000000 0.000000 0.026344
#
#
# Mechanical properties :
#
#
# Convention : Reuss Voigt Hill
#
# Bulk Modulus (GPa) = 61.50152 61.92447 61.71300
# Shear Modulus (GPa) = 30.76157 33.42512 32.09335
#
# Velocity S-wave (km/s) = 3.70755 3.86473 3.78696
# Velocity P-wave (km/s) = 6.76832 6.89827 6.83361
#
# Compressibility (1/GPa) = 0.01625976
#
# Stress axis : x y z
#
# Youngs Moduli (GPa) = 91.32771 110.08205 92.05359
#
# Poissons Ratio (x) = 0.31283 0.30373
# Poissons Ratio (y) = 0.25953 0.10838
# Poissons Ratio (z) = 0.30133 0.12961
#
# Static dielectric constant tensor:
#      x y z
#    x 4.099250 0.000000 0.000000 
#    y 0.000000 4.259030 0.000000 
#    z 0.000000 0.000000 4.085470 
# 
# 
# High freq. dielectric constant tensor:
#      x y z
#    x 1.889950 0.000000 0.000000 
#    y 0.000000 1.885190 0.000000 
#    z 0.000000 0.000000 1.880710 
# 
# From -- ./inp_files/6962.got.cif
#   From: 2010.03.12/outbox.cif.g09.slc.cpg/sg45_4_cif.got.tgz:6962.got - 2010.04.14 02:50:11.
