data_PCOD8190256
_publ_section_title
;
Structure prediction by ZEFSAII (Michael W. Deem and Ramdas Pophale) SiO2 
 PCOD8190256
Probable space group: I M M 2
;
_chemical_formula_sum "Si O2"
_cell_formula_units_Z 48
_cell_length_a 16.609770
_cell_length_b 8.976740
_cell_length_c 18.472442
_cell_angle_alpha 90.000000
_cell_angle_beta 90.000000
_cell_angle_gamma 90.000000
_cell_volume 2754.270413
_symmetry_space_group_name_H-M "I M M 2"
_symmetry_group_IT_number 44
_symmetry_cell_setting 'orthorhombic'
loop_
_space_group_symop_operation_xyz
x,y,z
-x,-y,z
-x,y,z
x,-y,z
1/2+x,1/2+y,1/2+z
1/2-x,1/2-y,1/2+z
1/2-x,1/2+y,1/2+z
1/2+x,1/2-y,1/2+z
loop_
_atom_site_type_symbol
_atom_site_label
_atom_site_fract_x
_atom_site_fract_y
_atom_site_fract_z
Si Si1 0.911003 0.676546 0.925610
Si Si2 0.738359 0.824380 0.508091
Si Si3 0.500000 0.823332 0.067401
Si Si4 0.000000 0.675122 0.401041
Si Si5 0.154102 0.824879 0.637041
Si Si6 0.312657 0.171062 0.285032
Si Si7 0.158416 0.828402 0.376176
O O1 0.917641 0.500000 0.930352
O O2 0.874005 0.720831 0.848029
O O3 0.000000 0.748347 0.934568
O O4 0.851484 0.737452 0.989457
O O5 0.767638 0.781371 0.588342
O O6 0.802299 0.762133 0.449712
O O7 0.735164 0.000000 0.495485
O O8 0.422450 0.761706 0.107889
O O9 0.500000 0.000000 0.073152
O O10 0.500000 0.769159 0.984305
O O11 0.078180 0.736094 0.359356
O O12 0.000000 0.500000 0.395539
O O13 0.172697 0.779354 0.718346
O O14 0.136663 0.000000 0.632569
O O15 0.220805 0.191653 0.310487
O O16 0.328648 0.000000 0.262498
O O17 0.134290 0.000000 0.386136
#
# Coordination Sequence:
#
# PCOD8190256 Si02
#       7
#     8   8   4   4   8   8   8
#     4   8  14  27  49  74  96 123 165 210 244 285
#     4   8  15  28  47  70  95 129 171 206 240 293
#     4  11  23  35  49  75 107 134 167 210 261 317
#     4  11  21  31  51  81 105 124 165 226 271 299
#     4  11  21  33  51  74 105 138 168 208 255 304
#     4   9  19  33  51  76 103 135 170 205 251 308
#     4   9  17  33  53  71  99 139 177 206 243 309
#
# _framework density 17.427482999999999
#
# number of rings (size 3 to 8) (size 9 to 14) (size 15 to 20)
#    0.000    2.667    1.667    3.000    1.167    1.333 
#    0.000    0.000    1.833    0.000    0.000    0.000 
#    0.000    0.000    0.000    0.000    0.000    0.000 
#
# Total GULP energy -297498.750015 kJ/mol
# GULP energy per Si atom -12395.781251 kJ/mol
# Density = 1.738782 g / cm^3
# Si number density = 17.427483 Si / 1000 Ang^3
#
#
#
# Elastic Constant Matrix: (Units=GPa)
#
#
# Indices 1 2 3 4 5 6 
#
# 1 154.9853 34.0462 48.7126 0.0000 0.0000 0.0000
# 2 34.0462 46.0167 26.6169 0.0000 0.0000 0.0000
# 3 48.7126 26.6169 74.8024 0.0000 0.0000 0.0000
# 4 0.0000 0.0000 0.0000 24.2368 0.0000 0.0000
# 5 0.0000 0.0000 0.0000 0.0000 19.6421 0.0000
# 6 0.0000 0.0000 0.0000 0.0000 0.0000 16.0702
#
#
#
# Elastic Compliance Matrix: (Units=1/GPa)
#
#
# Indices 1 2 3 4 5 6 
#
# 1 0.008649 -0.003955 -0.004225 0.000000 0.000000 0.000000
# 2 -0.003955 0.029172 -0.007804 0.000000 0.000000 0.000000
# 3 -0.004225 -0.007804 0.018897 0.000000 0.000000 0.000000
# 4 0.000000 0.000000 0.000000 0.041260 0.000000 0.000000
# 5 0.000000 0.000000 0.000000 0.000000 0.050911 0.000000
# 6 0.000000 0.000000 0.000000 0.000000 0.000000 0.062227
#
#
# Mechanical properties :
#
#
# Convention : Reuss Voigt Hill
#
# Bulk Modulus (GPa) = 40.40666 54.95066 47.67866
# Shear Modulus (GPa) = 19.89381 23.08507 21.48944
#
# Velocity S-wave (km/s) = 3.38230 3.64350 3.51533
# Velocity P-wave (km/s) = 6.20397 7.02137 6.62529
#
# Compressibility (1/GPa) = 0.02474840
#
# Stress axis : x y z
#
# Youngs Moduli (GPa) = 115.61983 34.27959 52.91847
#
# Poissons Ratio (x) = 0.13559 0.22358
# Poissons Ratio (y) = 0.45731 0.41300
# Poissons Ratio (z) = 0.48849 0.26753
#
# Static dielectric constant tensor:
#      x y z
#    x 3.657240 0.000000 0.000000 
#    y 0.000000 2.912360 0.000000 
#    z 0.000000 0.000000 3.130420 
# 
# 
# High freq. dielectric constant tensor:
#      x y z
#    x 1.683140 0.000000 0.000000 
#    y 0.000000 1.642940 0.000000 
#    z 0.000000 0.000000 1.655340 
# 
# From -- ./inp_files/18840.got.cif
#   From: 2010.03.12/outbox.cif.g09.slc.cpg/sg44_10_cif.got.tgz:18840.got - 2010.04.14 02:36:11.
