data_PCOD8190250
_publ_section_title
;
Structure prediction by ZEFSAII (Michael W. Deem and Ramdas Pophale) SiO2 
 PCOD8190250
Probable space group: I M M 2
;
_chemical_formula_sum "Si O2"
_cell_formula_units_Z 56
_cell_length_a 13.705119
_cell_length_b 9.085292
_cell_length_c 29.181461
_cell_angle_alpha 90.000000
_cell_angle_beta 90.000000
_cell_angle_gamma 90.000000
_cell_volume 3633.529850
_symmetry_space_group_name_H-M "I M M 2"
_symmetry_group_IT_number 44
_symmetry_cell_setting 'orthorhombic'
loop_
_space_group_symop_operation_xyz
x,y,z
-x,-y,z
-x,y,z
x,-y,z
1/2+x,1/2+y,1/2+z
1/2-x,1/2-y,1/2+z
1/2-x,1/2+y,1/2+z
1/2+x,1/2-y,1/2+z
loop_
_atom_site_type_symbol
_atom_site_label
_atom_site_fract_x
_atom_site_fract_y
_atom_site_fract_z
Si Si1 0.113467 0.672684 0.823280
Si Si2 0.212691 0.825155 0.740760
Si Si3 0.615888 0.162635 0.425203
Si Si4 0.705963 0.672204 0.604528
Si Si5 0.388502 0.673270 0.697619
Si Si6 0.389892 0.171399 0.158531
Si Si7 0.112497 0.827001 0.013373
O O1 0.132707 0.500000 0.814527
O O2 0.177768 0.772551 0.790241
O O3 0.147032 0.718004 0.874719
O O4 0.000000 0.708849 0.815251
O O5 0.321067 0.761464 0.733006
O O6 0.137321 0.765173 0.702970
O O7 0.215161 0.000000 0.738578
O O8 0.500000 0.158854 0.426398
O O9 0.656512 0.265046 0.465864
O O10 0.658174 0.000000 0.433688
O O11 0.690828 0.500000 0.599004
O O12 0.637311 0.726716 0.646122
O O13 0.818524 0.712207 0.616170
O O14 0.672397 0.743138 0.556279
O O15 0.500000 0.712165 0.708546
O O16 0.367214 0.500000 0.702794
O O17 0.500000 0.207877 0.143284
O O18 0.377262 0.000000 0.171705
O O19 0.000000 0.781374 0.019985
O O20 0.124894 0.000000 0.010675
#
# Coordination Sequence:
#
# PCOD8190250 Si02
#       7
#     8   8   8   8   8   8   8
#     4   9  17  30  46  61  81 112 147 179 209 248
#     4  11  21  29  41  64  91 114 137 172 218 260
#     4   8  15  27  41  58  81 108 137 170 208 249
#     4   8  14  25  42  64  85 107 140 176 207 242
#     4   9  17  31  49  64  82 113 150 180 203 238
#     4   9  17  30  46  61  81 113 151 184 209 242
#     4   9  15  23  38  60  85 110 134 165 207 253
#
# _framework density 15.41201
#
# number of rings (size 3 to 8) (size 9 to 14) (size 15 to 20)
#    0.000    3.000    0.000    3.857    0.000    4.857 
#    0.000    4.286    0.000    3.429    0.000    1.000 
#    0.000    3.429    0.000    0.000    0.000    0.000 
#
# Total GULP energy -347043.907679 kJ/mol
# GULP energy per Si atom -12394.425274 kJ/mol
# Density = 1.537693 g / cm^3
# Si number density = 15.412010 Si / 1000 Ang^3
#
#
#
# Elastic Constant Matrix: (Units=GPa)
#
#
# Indices 1 2 3 4 5 6 
#
# 1 95.9695 40.4409 58.1965 0.0000 0.0000 0.0000
# 2 40.4409 55.7866 49.9671 0.0000 0.0000 0.0000
# 3 58.1965 49.9671 134.6792 0.0000 0.0000 0.0000
# 4 0.0000 0.0000 0.0000 22.4284 0.0000 0.0000
# 5 0.0000 0.0000 0.0000 0.0000 23.4470 0.0000
# 6 0.0000 0.0000 0.0000 0.0000 0.0000 12.7973
#
#
#
# Elastic Compliance Matrix: (Units=1/GPa)
#
#
# Indices 1 2 3 4 5 6 
#
# 1 0.016318 -0.008258 -0.003987 0.000000 0.000000 0.000000
# 2 -0.008258 0.031025 -0.007943 0.000000 0.000000 0.000000
# 3 -0.003987 -0.007943 0.012095 0.000000 0.000000 0.000000
# 4 0.000000 0.000000 0.000000 0.044586 0.000000 0.000000
# 5 0.000000 0.000000 0.000000 0.000000 0.042649 0.000000
# 6 0.000000 0.000000 0.000000 0.000000 0.000000 0.078142
#
#
# Mechanical properties :
#
#
# Convention : Reuss Voigt Hill
#
# Bulk Modulus (GPa) = 52.45776 64.84935 58.65355
# Shear Modulus (GPa) = 18.41318 20.92326 19.66822
#
# Velocity S-wave (km/s) = 3.46024 3.68855 3.57622
# Velocity P-wave (km/s) = 7.07638 7.76589 7.42914
#
# Compressibility (1/GPa) = 0.01906296
#
# Stress axis : x y z
#
# Youngs Moduli (GPa) = 61.28339 32.23155 82.68003
#
# Poissons Ratio (x) = 0.26615 0.32968
# Poissons Ratio (y) = 0.50605 0.65669
# Poissons Ratio (z) = 0.24436 0.25600
#
# Static dielectric constant tensor:
#      x y z
#    x 2.870340 0.000000 0.000000 
#    y 0.000000 2.810470 0.000000 
#    z 0.000000 0.000000 3.147980 
# 
# 
# High freq. dielectric constant tensor:
#      x y z
#    x 1.563980 0.000000 0.000000 
#    y 0.000000 1.573080 0.000000 
#    z 0.000000 0.000000 1.589580 
# 
# From -- ./inp_files/27212.got.cif
#   From: 2010.03.12/outbox.cif.g09.slc.cpg/sg44_14_cif.got.tgz:27212.got - 2010.04.14 02:36:11.
