data_PCOD8190839
_publ_section_title
;
Structure prediction by ZEFSAII (Michael W. Deem and Ramdas Pophale) SiO2 
 PCOD8190839
Probable space group: I B A 2
;
_chemical_formula_sum "Si O2"
_cell_formula_units_Z 60
_cell_length_a 9.072820
_cell_length_b 16.759034
_cell_length_c 17.005223
_cell_angle_alpha 90.000000
_cell_angle_beta 90.000000
_cell_angle_gamma 90.000000
_cell_volume 2585.673047
_symmetry_space_group_name_H-M "I B A 2"
_symmetry_group_IT_number 45
_symmetry_cell_setting 'orthorhombic'
loop_
_space_group_symop_operation_xyz
x,y,z
-x,-y,z
-x,y,1/2+z
x,-y,1/2+z
1/2+x,1/2+y,1/2+z
1/2-x,1/2-y,1/2+z
1/2-x,1/2+y,z
1/2+x,1/2-y,z
loop_
_atom_site_type_symbol
_atom_site_label
_atom_site_fract_x
_atom_site_fract_y
_atom_site_fract_z
Si Si1 0.360727 0.379295 0.369410
Si Si2 0.441699 0.295460 0.978845
Si Si3 0.988935 0.411475 0.674626
Si Si4 0.332535 0.214867 0.575790
Si Si5 0.960166 0.412394 0.856693
Si Si6 0.500000 0.500000 0.250316
Si Si7 0.687145 0.358133 0.190400
Si Si8 0.786503 0.710836 0.847586
O O1 0.473855 0.375259 0.444818
O O2 0.193107 0.390886 0.399938
O O3 0.395568 0.448898 0.307627
O O4 0.372471 0.292623 0.325710
O O5 0.331483 0.263926 0.912802
O O6 0.568210 0.229192 0.997288
O O7 0.338292 0.304637 0.055867
O O8 0.875206 0.364060 0.621635
O O9 0.929568 0.410461 0.763367
O O10 0.000000 0.500000 0.640784
O O11 0.146880 0.372611 0.665420
O O12 0.369500 0.294206 0.627019
O O13 0.000000 0.500000 0.886520
O O14 0.096044 0.354609 0.877245
O O15 0.593322 0.440538 0.193861
O O16 0.685888 0.320825 0.276960
#
# Coordination Sequence:
#
# PCOD8190839 Si02
#       8
#     8   8   8   8   8   4   8   8
#     4  12  24  42  72 108 153 193 249 321 381 461
#     4  12  26  44  72 103 152 199 256 297 379 465
#     4  10  22  45  75 107 145 185 247 311 381 444
#     4  12  26  48  71 107 150 205 246 304 384 471
#     4  10  23  43  76 114 142 180 249 322 393 437
#     4  12  26  42  74 120 150 186 258 334 384 444
#     4  11  25  44  76 112 147 192 254 318 378 455
#     4  11  23  45  75 109 138 195 251 317 375 459
#
# _framework density 23.204789999999999
#
# number of rings (size 3 to 8) (size 9 to 14) (size 15 to 20)
#    0.000    0.800    4.000    4.000    3.733    2.133 
#    0.000    4.000    0.000    0.000    0.000    0.000 
#    0.000    0.000    0.000    0.000    0.000    0.000 
#
# Total GULP energy -371844.382221 kJ/mol
# GULP energy per Si atom -12394.812741 kJ/mol
# Density = 2.315197 g / cm^3
# Si number density = 23.204790 Si / 1000 Ang^3
#
#
#
# Elastic Constant Matrix: (Units=GPa)
#
#
# Indices 1 2 3 4 5 6 
#
# 1 145.4892 47.3676 42.7367 0.0000 0.0000 0.0000
# 2 47.3676 154.5202 41.2719 0.0000 0.0000 0.0000
# 3 42.7367 41.2719 70.9681 0.0000 0.0000 0.0000
# 4 0.0000 0.0000 0.0000 44.6058 0.0000 0.0000
# 5 0.0000 0.0000 0.0000 0.0000 50.6427 0.0000
# 6 0.0000 0.0000 0.0000 0.0000 0.0000 42.7335
#
#
#
# Elastic Compliance Matrix: (Units=1/GPa)
#
#
# Indices 1 2 3 4 5 6 
#
# 1 0.008630 -0.001489 -0.004331 0.000000 0.000000 0.000000
# 2 -0.001489 0.007919 -0.003709 0.000000 0.000000 0.000000
# 3 -0.004331 -0.003709 0.018856 0.000000 0.000000 0.000000
# 4 0.000000 0.000000 0.000000 0.022419 0.000000 0.000000
# 5 0.000000 0.000000 0.000000 0.000000 0.019746 0.000000
# 6 0.000000 0.000000 0.000000 0.000000 0.000000 0.023401
#
#
# Mechanical properties :
#
#
# Convention : Reuss Voigt Hill
#
# Bulk Modulus (GPa) = 61.17156 70.41444 65.79300
# Shear Modulus (GPa) = 39.84794 43.56983 41.70889
#
# Velocity S-wave (km/s) = 4.14844 4.33785 4.24421
# Velocity P-wave (km/s) = 7.02602 7.44983 7.24103
#
# Compressibility (1/GPa) = 0.01634747
#
# Stress axis : x y z
#
# Youngs Moduli (GPa) = 115.86985 126.28572 53.03373
#
# Poissons Ratio (x) = 0.18800 0.22971
# Poissons Ratio (y) = 0.17250 0.19668
# Poissons Ratio (z) = 0.50188 0.46834
#
# Static dielectric constant tensor:
#      x y z
#    x 4.317010 0.000000 0.000000 
#    y 0.000000 3.817270 0.000000 
#    z 0.000000 0.000000 4.098650 
# 
# 
# High freq. dielectric constant tensor:
#      x y z
#    x 1.943080 0.000000 0.000000 
#    y 0.000000 1.914630 0.000000 
#    z 0.000000 0.000000 1.893670 
# 
# From -- ./inp_files/7704.got.cif
#   From: 2010.03.12/outbox.cif.g09.slc.cpg/sg45_4_cif.got.tgz:7704.got - 2010.04.14 02:50:11.
