data_PCOD8190319
_publ_section_title
;
Structure prediction by ZEFSAII (Michael W. Deem and Ramdas Pophale) SiO2 
 PCOD8190319
Probable space group: I M M 2
;
_chemical_formula_sum "Si O2"
_cell_formula_units_Z 48
_cell_length_a 13.983371
_cell_length_b 9.378269
_cell_length_c 23.957445
_cell_angle_alpha 90.000000
_cell_angle_beta 90.000000
_cell_angle_gamma 90.000000
_cell_volume 3141.774900
_symmetry_space_group_name_H-M "I M M 2"
_symmetry_group_IT_number 44
_symmetry_cell_setting 'orthorhombic'
loop_
_space_group_symop_operation_xyz
x,y,z
-x,-y,z
-x,y,z
x,-y,z
1/2+x,1/2+y,1/2+z
1/2-x,1/2-y,1/2+z
1/2-x,1/2+y,1/2+z
1/2+x,1/2-y,1/2+z
loop_
_atom_site_type_symbol
_atom_site_label
_atom_site_fract_x
_atom_site_fract_y
_atom_site_fract_z
Si Si1 0.394689 0.169322 0.586350
Si Si2 0.110547 0.166951 0.293389
Si Si3 0.894288 0.830856 0.633544
Si Si4 0.210757 0.667937 0.197569
Si Si5 0.893698 0.169376 0.418307
Si Si6 0.212776 0.829927 0.524963
O O1 0.500000 0.234884 0.575094
O O2 0.358955 0.216404 0.647463
O O3 0.320437 0.224327 0.539028
O O4 0.398719 0.000000 0.584536
O O5 0.180797 0.251929 0.253281
O O6 0.138953 0.214317 0.356279
O O7 0.000000 0.206061 0.281581
O O8 0.127436 0.000000 0.284520
O O9 0.819378 0.786192 0.681821
O O10 0.858510 0.774100 0.573344
O O11 0.000000 0.767878 0.646489
O O12 0.898288 0.000000 0.630675
O O13 0.203192 0.500000 0.208196
O O14 0.821056 0.231443 0.465024
O O15 0.000000 0.229084 0.430623
O O16 0.897030 0.000000 0.421772
O O17 0.211578 0.000000 0.524414
#
# Coordination Sequence:
#
# PCOD8190319 Si02
#       6
#     8   8   8   8   8   8
#     4   8  13  20  31  51  77  98 117 147 186 223
#     4   9  17  27  38  54  77 103 128 155 187 221
#     4   8  13  21  35  57  80  97 119 155 193 226
#     4   9  16  25  39  58  78 101 126 153 187 223
#     4   8  13  21  33  49  69  93 121 152 184 217
#     4   8  12  18  31  51  73  96 119 147 187 226
#
# _framework density 15.277989
#
# number of rings (size 3 to 8) (size 9 to 14) (size 15 to 20)
#    0.000    3.667    0.000    4.000    0.000    3.000 
#    0.000    0.000    0.000    1.500    0.000    7.000 
#    0.000    5.333    0.000    0.000    0.000    0.000 
#
# Total GULP energy -297340.926268 kJ/mol
# GULP energy per Si atom -12389.205261 kJ/mol
# Density = 1.524322 g / cm^3
# Si number density = 15.277989 Si / 1000 Ang^3
#
#
#
# Elastic Constant Matrix: (Units=GPa)
#
#
# Indices 1 2 3 4 5 6 
#
# 1 147.6311 18.0138 85.0026 0.0000 0.0000 0.0000
# 2 18.0138 12.7336 22.6777 0.0000 0.0000 0.0000
# 3 85.0026 22.6777 135.2968 0.0000 0.0000 0.0000
# 4 0.0000 0.0000 0.0000 17.0705 0.0000 0.0000
# 5 0.0000 0.0000 0.0000 0.0000 27.6884 0.0000
# 6 0.0000 0.0000 0.0000 0.0000 0.0000 10.2072
#
#
#
# Elastic Compliance Matrix: (Units=1/GPa)
#
#
# Indices 1 2 3 4 5 6 
#
# 1 0.010795 -0.004551 -0.006019 0.000000 0.000000 0.000000
# 2 -0.004551 0.113870 -0.016227 0.000000 0.000000 0.000000
# 3 -0.006019 -0.016227 0.013893 0.000000 0.000000 0.000000
# 4 0.000000 0.000000 0.000000 0.058581 0.000000 0.000000
# 5 0.000000 0.000000 0.000000 0.000000 0.036116 0.000000
# 6 0.000000 0.000000 0.000000 0.000000 0.000000 0.097970
#
#
# Mechanical properties :
#
#
# Convention : Reuss Voigt Hill
#
# Bulk Modulus (GPa) = 11.76981 60.78330 36.27656
# Shear Modulus (GPa) = 12.10245 22.32439 17.21342
#
# Velocity S-wave (km/s) = 2.81757 3.82673 3.36025
# Velocity P-wave (km/s) = 4.27848 7.70690 6.23305
#
# Compressibility (1/GPa) = 0.08496314
#
# Stress axis : x y z
#
# Youngs Moduli (GPa) = 92.63878 8.78191 71.98074
#
# Poissons Ratio (x) = 0.03997 0.43326
# Poissons Ratio (y) = 0.42162 1.16803
# Poissons Ratio (z) = 0.55760 0.14250
#
# Static dielectric constant tensor:
#      x y z
#    x 3.364100 0.000000 0.000000 
#    y 0.000000 2.312250 0.000000 
#    z 0.000000 0.000000 3.042630 
# 
# 
# High freq. dielectric constant tensor:
#      x y z
#    x 1.586390 0.000000 0.000000 
#    y 0.000000 1.518310 0.000000 
#    z 0.000000 0.000000 1.581040 
# 
# From -- ./inp_files/21293.got.cif
#   From: 2010.03.12/outbox.cif.g09.slc.cpg/sg44_11_cif.got.tgz:21293.got - 2010.04.14 02:36:11.
