data_PCOD8190305
_publ_section_title
;
Structure prediction by ZEFSAII (Michael W. Deem and Ramdas Pophale) SiO2 
 PCOD8190305
Probable space group: I M M 2
;
_chemical_formula_sum "Si O2"
_cell_formula_units_Z 64
_cell_length_a 9.125741
_cell_length_b 14.319506
_cell_length_c 24.156459
_cell_angle_alpha 90.000000
_cell_angle_beta 90.000000
_cell_angle_gamma 90.000000
_cell_volume 3156.671924
_symmetry_space_group_name_H-M "I M M 2"
_symmetry_group_IT_number 44
_symmetry_cell_setting 'orthorhombic'
loop_
_space_group_symop_operation_xyz
x,y,z
-x,-y,z
-x,y,z
x,-y,z
1/2+x,1/2+y,1/2+z
1/2-x,1/2-y,1/2+z
1/2-x,1/2+y,1/2+z
1/2+x,1/2-y,1/2+z
loop_
_atom_site_type_symbol
_atom_site_label
_atom_site_fract_x
_atom_site_fract_y
_atom_site_fract_z
Si Si1 0.170541 0.604157 0.482170
Si Si2 0.328313 0.279914 0.914197
Si Si3 0.170331 0.109628 0.211162
Si Si4 0.838347 0.110951 0.088469
Si Si5 0.329966 0.890306 0.746466
Si Si6 0.173632 0.269275 0.801744
Si Si7 0.172431 0.398442 0.126288
Si Si8 0.666488 0.888393 0.506953
O O1 0.231358 0.500000 0.468123
O O2 0.207809 0.673121 0.431703
O O3 0.237745 0.646623 0.538526
O O4 0.000000 0.599592 0.493314
O O5 0.500000 0.294422 0.903212
O O6 0.238608 0.305278 0.859563
O O7 0.279313 0.349659 0.962436
O O8 0.217281 0.142765 0.149176
O O9 0.273306 0.161623 0.254122
O O10 0.000000 0.134975 0.221552
O O11 0.196118 0.000000 0.218781
O O12 0.000000 0.152821 0.078422
O O13 0.844850 0.000000 0.088364
O O14 0.500000 0.870585 0.759790
O O15 0.231700 0.835449 0.790588
O O16 0.286912 0.849644 0.684948
O O17 0.295970 0.000000 0.751106
O O18 0.000000 0.269679 0.805115
O O19 0.249223 0.500000 0.126645
O O20 0.000000 0.414312 0.126512
O O21 0.213007 0.346932 0.068300
O O22 0.500000 0.858181 0.492118
O O23 0.677795 0.000000 0.508836
#
# Coordination Sequence:
#
# PCOD8190305 Si02
#       8
#     8   8   8   8   8   8   8   8
#     4   9  19  36  57  81 110 143 178 220 271 324
#     4  11  24  40  56  76 105 144 192 235 272 323
#     4   9  19  38  62  85 111 145 184 225 271 328
#     4   8  15  30  55  86 114 140 174 216 265 324
#     4   9  18  36  62  87 113 148 186 223 268 325
#     4  12  26  40  55  79 111 146 189 237 281 327
#     4   7  12  27  54  85 111 138 175 215 261 324
#     4   9  18  35  59  85 113 143 176 219 271 325
#
# _framework density 20.274516999999999
#
# number of rings (size 3 to 8) (size 9 to 14) (size 15 to 20)
#    0.000    2.750    0.000    3.750    0.000    4.250 
#    0.000    6.875    0.000    2.250    0.000    0.000 
#    0.000    0.000    0.000    0.000    0.000    0.000 
#
# Total GULP energy -396555.490874 kJ/mol
# GULP energy per Si atom -12392.359090 kJ/mol
# Density = 2.022837 g / cm^3
# Si number density = 20.274517 Si / 1000 Ang^3
#
#
#
# Elastic Constant Matrix: (Units=GPa)
#
#
# Indices 1 2 3 4 5 6 
#
# 1 81.7837 17.5828 39.7433 0.0000 0.0000 0.0000
# 2 17.5828 22.2168 -3.3408 0.0000 0.0000 0.0000
# 3 39.7433 -3.3408 90.9585 0.0001 0.0000 0.0000
# 4 0.0000 0.0000 0.0001 153.8578 0.0000 0.0000
# 5 0.0000 0.0000 0.0000 0.0000 34.9045 0.0000
# 6 0.0000 0.0000 0.0000 0.0000 0.0000 26.2729
#
#
#
# Elastic Compliance Matrix: (Units=1/GPa)
#
#
# Indices 1 2 3 4 5 6 
#
# 1 0.020831 -0.017954 -0.009761 0.000000 0.000000 0.000000
# 2 -0.017954 0.060735 0.010075 0.000000 0.000000 0.000000
# 3 -0.009761 0.010075 0.015629 0.000000 0.000000 0.000000
# 4 0.000000 0.000000 0.000000 0.006500 0.000000 0.000000
# 5 0.000000 0.000000 0.000000 0.000000 0.028650 0.000000
# 6 0.000000 0.000000 0.000000 0.000000 0.000000 0.038062
#
#
# Mechanical properties :
#
#
# Convention : Reuss Voigt Hill
#
# Bulk Modulus (GPa) = 16.15098 33.65885 24.90491
# Shear Modulus (GPa) = 22.09227 52.40529 37.24878
#
# Velocity S-wave (km/s) = 3.30458 5.08959 4.29093
# Velocity P-wave (km/s) = 4.74803 7.15376 6.07124
#
# Compressibility (1/GPa) = 0.06191577
#
# Stress axis : x y z
#
# Youngs Moduli (GPa) = 48.00590 16.46500 63.98320
#
# Poissons Ratio (x) = 0.29561 0.62455
# Poissons Ratio (y) = 0.86188 -0.64465
# Poissons Ratio (z) = 0.46859 -0.16589
#
# Static dielectric constant tensor:
#      x y z
#    x 3.447890 0.000000 0.000000 
#    y 0.000000 0.063190 0.000000 
#    z 0.000000 0.000000 3.927340 
# 
# 
# High freq. dielectric constant tensor:
#      x y z
#    x 1.758660 0.000000 0.000000 
#    y 0.000000 1.788990 0.000000 
#    z 0.000000 0.000000 1.800340 
# 
# From -- ./inp_files/25105.got.cif
#   From: 2010.03.12/outbox.cif.g09.slc.cpg/sg44_13_cif.got.tgz:25105.got - 2010.04.14 02:36:11.
