data_PCOD8190021
_publ_section_title
;
Structure prediction by ZEFSAII (Michael W. Deem and Ramdas Pophale) SiO2 
 PCOD8190021
Probable space group: I M M 2
;
_chemical_formula_sum "Si O2"
_cell_formula_units_Z 64
_cell_length_a 13.482384
_cell_length_b 8.842855
_cell_length_c 24.281128
_cell_angle_alpha 90.000000
_cell_angle_beta 90.000000
_cell_angle_gamma 90.000000
_cell_volume 2894.863260
_symmetry_space_group_name_H-M "I M M 2"
_symmetry_group_IT_number 44
_symmetry_cell_setting 'orthorhombic'
loop_
_space_group_symop_operation_xyz
x,y,z
-x,-y,z
-x,y,z
x,-y,z
1/2+x,1/2+y,1/2+z
1/2-x,1/2-y,1/2+z
1/2-x,1/2+y,1/2+z
1/2+x,1/2-y,1/2+z
loop_
_atom_site_type_symbol
_atom_site_label
_atom_site_fract_x
_atom_site_fract_y
_atom_site_fract_z
Si Si1 0.807783 0.822458 0.473790
Si Si2 0.610562 0.675295 0.477400
Si Si3 0.236055 0.823160 0.666978
Si Si4 0.888892 0.676339 0.575015
Si Si5 0.116648 0.834816 0.768932
Si Si6 0.384699 0.178136 0.863881
Si Si7 0.887683 0.662126 0.868483
Si Si8 0.884318 0.825394 0.247721
O O1 0.699572 0.778747 0.500514
O O2 0.887737 0.742906 0.513064
O O3 0.818959 0.762382 0.410801
O O4 0.824424 0.000000 0.475477
O O5 0.500000 0.722330 0.499559
O O6 0.630661 0.500000 0.490124
O O7 0.615803 0.703648 0.412235
O O8 0.199363 0.752916 0.609758
O O9 0.145259 0.786402 0.707822
O O10 0.332681 0.744896 0.693380
O O11 0.257298 0.000000 0.658099
O O12 0.866210 0.500000 0.572392
O O13 0.000000 0.707580 0.598461
O O14 0.166019 0.720239 0.812966
O O15 0.000000 0.838102 0.774459
O O16 0.161684 0.000000 0.781395
O O17 0.500000 0.217285 0.874705
O O18 0.353334 0.236652 0.803321
O O19 0.364998 0.000000 0.867621
O O20 0.839999 0.500000 0.888606
O O21 0.000000 0.627723 0.852772
O O22 0.000000 0.806665 0.236433
O O23 0.853979 0.000000 0.254331
#
# Coordination Sequence:
#
# PCOD8190021 Si02
#       8
#     8   8   8   8   8   8   8   8
#     4  12  25  40  64  95 128 169 215 265 322 384
#     4  10  21  38  59  83 118 163 208 256 310 369
#     4  11  23  39  63  92 124 164 209 259 317 379
#     4  11  25  46  70  96 129 167 210 263 318 377
#     4   9  18  32  50  76 113 156 198 240 294 362
#     4  10  21  39  64  94 129 169 214 265 321 383
#     4   9  17  29  47  74 110 151 195 243 294 351
#     4  10  22  41  64  92 129 170 214 267 323 381
#
# _framework density 22.108125999999999
#
# number of rings (size 3 to 8) (size 9 to 14) (size 15 to 20)
#    0.000    1.750    0.000    4.125    1.750    7.750 
#    0.000    1.875    0.000    3.750    0.000    0.000 
#    0.000    0.000    0.000    0.000    0.000    0.000 
#
# Total GULP energy -396574.728073 kJ/mol
# GULP energy per Si atom -12392.960252 kJ/mol
# Density = 2.205781 g / cm^3
# Si number density = 22.108126 Si / 1000 Ang^3
#
#
#
# Elastic Constant Matrix: (Units=GPa)
#
#
# Indices 1 2 3 4 5 6 
#
# 1 88.9371 45.3846 20.0377 0.0000 0.0000 0.0000
# 2 45.3846 127.6412 32.4851 0.0000 0.0000 0.0000
# 3 20.0377 32.4851 86.3819 0.0000 0.0000 0.0000
# 4 0.0000 0.0000 0.0000 35.7971 0.0000 0.0000
# 5 0.0000 0.0000 0.0000 0.0000 31.5320 0.0000
# 6 0.0000 0.0000 0.0000 0.0000 0.0000 29.7626
#
#
#
# Elastic Compliance Matrix: (Units=1/GPa)
#
#
# Indices 1 2 3 4 5 6 
#
# 1 0.013912 -0.004562 -0.001512 0.000000 0.000000 0.000000
# 2 -0.004562 0.010160 -0.002762 0.000000 0.000000 0.000000
# 3 -0.001512 -0.002762 0.012966 0.000000 0.000000 0.000000
# 4 0.000000 0.000000 0.000000 0.027935 0.000000 0.000000
# 5 0.000000 0.000000 0.000000 0.000000 0.031714 0.000000
# 6 0.000000 0.000000 0.000000 0.000000 0.000000 0.033599
#
#
# Mechanical properties :
#
#
# Convention : Reuss Voigt Hill
#
# Bulk Modulus (GPa) = 51.63711 55.41944 53.52828
# Shear Modulus (GPa) = 32.38052 33.08852 32.73452
#
# Velocity S-wave (km/s) = 3.83122 3.87288 3.85210
# Velocity P-wave (km/s) = 6.55578 6.71720 6.63698
#
# Compressibility (1/GPa) = 0.01936592
#
# Stress axis : x y z
#
# Youngs Moduli (GPa) = 71.87787 98.42899 77.12487
#
# Poissons Ratio (x) = 0.44904 0.11658
# Poissons Ratio (y) = 0.32791 0.21305
# Poissons Ratio (z) = 0.10865 0.27190
#
# Static dielectric constant tensor:
#      x y z
#    x 4.219400 0.000000 0.000000 
#    y 0.000000 4.238550 0.000000 
#    z 0.000000 0.000000 3.745330 
# 
# 
# High freq. dielectric constant tensor:
#      x y z
#    x 1.881980 0.000000 0.000000 
#    y 0.000000 1.878700 0.000000 
#    z 0.000000 0.000000 1.845730 
# 
# From -- ./inp_files/25793.got.cif
#   From: 2010.03.12/outbox.cif.g09.slc.cpg/sg44_13_cif.got.tgz:25793.got - 2010.04.14 02:36:11.
