data_PCOD8190855
_publ_section_title
;
Structure prediction by ZEFSAII (Michael W. Deem and Ramdas Pophale) SiO2 
 PCOD8190855
Probable space group: I B A 2
;
_chemical_formula_sum "Si O2"
_cell_formula_units_Z 52
_cell_length_a 17.518458
_cell_length_b 14.008073
_cell_length_c 11.035823
_cell_angle_alpha 90.000000
_cell_angle_beta 90.000000
_cell_angle_gamma 90.000000
_cell_volume 2708.189182
_symmetry_space_group_name_H-M "I B A 2"
_symmetry_group_IT_number 45
_symmetry_cell_setting 'orthorhombic'
loop_
_space_group_symop_operation_xyz
x,y,z
-x,-y,z
-x,y,1/2+z
x,-y,1/2+z
1/2+x,1/2+y,1/2+z
1/2-x,1/2-y,1/2+z
1/2-x,1/2+y,z
1/2+x,1/2-y,z
loop_
_atom_site_type_symbol
_atom_site_label
_atom_site_fract_x
_atom_site_fract_y
_atom_site_fract_z
Si Si1 0.015847 0.190244 0.793970
Si Si2 0.353295 0.754053 0.230025
Si Si3 0.354215 0.250426 0.451891
Si Si4 0.270542 0.384382 0.892801
Si Si5 0.765140 0.905891 0.808458
Si Si6 0.616681 0.400094 0.600692
Si Si7 0.500000 0.500000 0.950383
O O1 0.069091 0.258158 0.873903
O O2 0.054188 0.172064 0.660854
O O3 0.935933 0.245616 0.792241
O O4 0.008587 0.089729 0.862953
O O5 0.297101 0.668433 0.270366
O O6 0.312695 0.856556 0.257458
O O7 0.372198 0.735690 0.091307
O O8 0.311075 0.151445 0.435799
O O9 0.301925 0.336762 0.406414
O O10 0.252218 0.495336 0.876771
O O11 0.333820 0.353543 0.993016
O O12 0.824434 0.933216 0.702775
O O13 0.573066 0.489775 0.539149
#
# Coordination Sequence:
#
# PCOD8190855 Si02
#       7
#     8   8   8   8   8   8   4
#     4  11  24  36  60  94 125 163 206 258 323 376
#     4  11  23  41  63  91 130 166 206 266 316 379
#     4  10  23  41  62  91 123 162 211 262 310 379
#     4  11  23  40  63  90 123 166 213 255 312 382
#     4  10  24  40  64  91 123 170 215 253 313 384
#     4  11  21  37  58  95 125 161 208 249 321 378
#     4  12  22  34  58  94 132 160 196 260 326 378
#
# _framework density 19.201021999999998
#
# number of rings (size 3 to 8) (size 9 to 14) (size 15 to 20)
#    0.000    1.231    3.077    3.231    6.462    0.000 
#    0.000    0.769    0.000    1.846    0.000    0.000 
#    0.000    0.000    0.000    0.000    0.000    0.000 
#
# Total GULP energy -322285.453091 kJ/mol
# GULP energy per Si atom -12395.594350 kJ/mol
# Density = 1.915732 g / cm^3
# Si number density = 19.201022 Si / 1000 Ang^3
#
#
#
# Elastic Constant Matrix: (Units=GPa)
#
#
# Indices 1 2 3 4 5 6 
#
# 1 132.7045 48.5650 43.5770 0.0000 0.0000 0.0000
# 2 48.5650 87.8406 31.6660 0.0000 0.0000 0.0000
# 3 43.5770 31.6660 98.5061 0.0000 0.0000 0.0000
# 4 0.0000 0.0000 0.0000 6.3038 0.0000 0.0000
# 5 0.0000 0.0000 0.0000 0.0000 30.5323 0.0000
# 6 0.0000 0.0000 0.0000 0.0000 0.0000 34.2678
#
#
#
# Elastic Compliance Matrix: (Units=1/GPa)
#
#
# Indices 1 2 3 4 5 6 
#
# 1 0.010199 -0.004538 -0.003053 0.000000 0.000000 0.000000
# 2 -0.004538 0.014896 -0.002781 0.000000 0.000000 0.000000
# 3 -0.003053 -0.002781 0.012396 0.000000 0.000000 0.000000
# 4 0.000000 0.000000 0.000000 0.158635 0.000000 0.000000
# 5 0.000000 0.000000 0.000000 0.000000 0.032752 0.000000
# 6 0.000000 0.000000 0.000000 0.000000 0.000000 0.029182
#
#
# Mechanical properties :
#
#
# Convention : Reuss Voigt Hill
#
# Bulk Modulus (GPa) = 59.71239 62.96301 61.33770
# Shear Modulus (GPa) = 17.58172 27.23697 22.40935
#
# Velocity S-wave (km/s) = 3.02928 3.77041 3.41998
# Velocity P-wave (km/s) = 6.58798 7.19842 6.89995
#
# Compressibility (1/GPa) = 0.01674694
#
# Stress axis : x y z
#
# Youngs Moduli (GPa) = 98.05038 67.13311 80.67028
#
# Poissons Ratio (x) = 0.30466 0.24628
# Poissons Ratio (y) = 0.44497 0.22433
# Poissons Ratio (z) = 0.29934 0.18669
#
# Static dielectric constant tensor:
#      x y z
#    x 3.805600 0.000000 0.000000 
#    y 0.000000 3.243360 0.000000 
#    z 0.000000 0.000000 3.737040 
# 
# 
# High freq. dielectric constant tensor:
#      x y z
#    x 1.753790 0.000000 0.000000 
#    y 0.000000 1.712740 0.000000 
#    z 0.000000 0.000000 1.766230 
# 
# From -- ./inp_files/4220.got.cif
#   From: 2010.03.12/outbox.cif.g09.slc.cpg/sg45_3_cif.got.tgz:4220.got - 2010.04.14 02:50:11.
