data_PCOD8190178
_publ_section_title
;
Structure prediction by ZEFSAII (Michael W. Deem and Ramdas Pophale) SiO2 
 PCOD8190178
Probable space group: I M M 2
;
_chemical_formula_sum "Si O2"
_cell_formula_units_Z 64
_cell_length_a 29.495052
_cell_length_b 17.878310
_cell_length_c 5.239855
_cell_angle_alpha 90.000000
_cell_angle_beta 90.000000
_cell_angle_gamma 90.000000
_cell_volume 2763.089158
_symmetry_space_group_name_H-M "I M M 2"
_symmetry_group_IT_number 44
_symmetry_cell_setting 'orthorhombic'
loop_
_space_group_symop_operation_xyz
x,y,z
-x,-y,z
-x,y,z
x,-y,z
1/2+x,1/2+y,1/2+z
1/2-x,1/2-y,1/2+z
1/2-x,1/2+y,1/2+z
1/2+x,1/2-y,1/2+z
loop_
_atom_site_type_symbol
_atom_site_label
_atom_site_fract_x
_atom_site_fract_y
_atom_site_fract_z
Si Si1 0.691542 0.694462 0.073430
Si Si2 0.839135 0.583637 0.169596
Si Si3 0.947913 0.268888 0.644084
Si Si4 0.721738 0.831556 0.329140
Si Si5 0.867540 0.084846 0.300622
Si Si6 0.053489 0.180405 0.133072
Si Si7 0.222510 0.082165 0.968317
Si Si8 0.395545 0.915562 0.158068
O O1 0.683776 0.773393 0.216824
O O2 0.721438 0.638339 0.237850
O O3 0.728641 0.709680 0.847540
O O4 0.644620 0.652180 0.001279
O O5 0.820384 0.500000 0.199156
O O6 0.797794 0.638185 0.097457
O O7 0.874464 0.587912 0.937397
O O8 0.860459 0.609897 0.437434
O O9 0.936421 0.235345 0.368659
O O10 0.935730 0.356107 0.651375
O O11 0.000000 0.264965 0.705163
O O12 0.927073 0.220154 0.877495
O O13 0.732671 0.900759 0.139742
O O14 0.915652 0.105875 0.170504
O O15 0.872043 0.000000 0.417638
O O16 0.825639 0.086262 0.110229
O O17 0.000000 0.157646 0.120177
O O18 0.229488 0.000000 0.855293
O O19 0.413527 0.000000 0.099820
#
# Coordination Sequence:
#
# PCOD8190178 Si02
#       8
#     8   8   8   8   8   8   8   8
#     4  11  23  40  61  92 126 164 227 281 327 405
#     4  10  23  39  60  90 128 173 222 271 331 394
#     4  10  22  42  66  97 133 173 218 270 337 401
#     4  11  23  39  59  87 123 172 224 279 334 391
#     4  10  24  43  66  96 130 173 220 275 347 411
#     4  10  23  43  69 102 134 171 222 276 336 412
#     4  10  22  40  61  88 126 169 219 275 334 399
#     4  10  22  40  61  95 132 170 223 273 324 395
#
# _framework density 23.162479999999999
#
# number of rings (size 3 to 8) (size 9 to 14) (size 15 to 20)
#    0.000    1.750    1.250    1.500    5.250    3.000 
#    0.000    0.000    0.000    6.750    0.000    0.000 
#    0.000    0.000    0.000    0.000    0.000    0.000 
#
# Total GULP energy -396504.329695 kJ/mol
# GULP energy per Si atom -12390.760303 kJ/mol
# Density = 2.310976 g / cm^3
# Si number density = 23.162480 Si / 1000 Ang^3
#
#
#
# Elastic Constant Matrix: (Units=GPa)
#
#
# Indices 1 2 3 4 5 6 
#
# 1 35.9343 50.4058 20.7079 0.0000 0.0000 0.0000
# 2 50.4058 126.8054 17.8248 0.0000 0.0000 0.0000
# 3 20.7079 17.8248 65.0389 0.0001 0.0000 0.0000
# 4 0.0000 0.0000 0.0001 26.0350 0.0000 0.0000
# 5 0.0000 0.0000 0.0000 0.0000 22.8316 0.0000
# 6 0.0000 0.0000 0.0000 0.0000 0.0000 29.0539
#
#
#
# Elastic Compliance Matrix: (Units=1/GPa)
#
#
# Indices 1 2 3 4 5 6 
#
# 1 0.077339 -0.028374 -0.016848 0.000000 0.000000 0.000000
# 2 -0.028374 0.018612 0.003933 0.000000 0.000000 0.000000
# 3 -0.016848 0.003933 0.019662 0.000000 0.000000 0.000000
# 4 0.000000 0.000000 0.000000 0.038410 0.000000 0.000000
# 5 0.000000 0.000000 0.000000 0.000000 0.043799 0.000000
# 6 0.000000 0.000000 0.000000 0.000000 0.000000 0.034419
#
#
# Mechanical properties :
#
#
# Convention : Reuss Voigt Hill
#
# Bulk Modulus (GPa) = 30.27094 45.07286 37.67190
# Shear Modulus (GPa) = 15.34545 24.84010 20.09277
#
# Velocity S-wave (km/s) = 2.57673 3.27835 2.94848
# Velocity P-wave (km/s) = 4.68508 5.81651 5.28118
#
# Compressibility (1/GPa) = 0.03303498
#
# Stress axis : x y z
#
# Youngs Moduli (GPa) = 12.93013 53.72828 50.86047
#
# Poissons Ratio (x) = 1.52450 0.85688
# Poissons Ratio (y) = 0.36688 -0.20005
# Poissons Ratio (z) = 0.21784 -0.21133
#
# Static dielectric constant tensor:
#      x y z
#    x 3.908110 0.000000 0.000000 
#    y 0.000000 4.369000 0.000000 
#    z 0.000000 0.000000 4.281290 
# 
# 
# High freq. dielectric constant tensor:
#      x y z
#    x 1.901480 0.000000 0.000000 
#    y 0.000000 1.919360 0.000000 
#    z 0.000000 0.000000 1.920930 
# 
# From -- ./inp_files/3360.got.cif
#   From: 2010.03.12/outbox.cif.g09.slc.cpg/sg44_2_cif.got.tgz:3360.got - 2010.04.14 02:36:11.
