data_PCOD8190676
_publ_section_title
;
Structure prediction by ZEFSAII (Michael W. Deem and Ramdas Pophale) SiO2 
 PCOD8190676
Probable space group: I B A 2
;
_chemical_formula_sum "Si O2"
_cell_formula_units_Z 48
_cell_length_a 30.551407
_cell_length_b 4.874932
_cell_length_c 14.461624
_cell_angle_alpha 90.000000
_cell_angle_beta 90.000000
_cell_angle_gamma 90.000000
_cell_volume 2153.856889
_symmetry_space_group_name_H-M "I B A 2"
_symmetry_group_IT_number 45
_symmetry_cell_setting 'orthorhombic'
loop_
_space_group_symop_operation_xyz
x,y,z
-x,-y,z
-x,y,1/2+z
x,-y,1/2+z
1/2+x,1/2+y,1/2+z
1/2-x,1/2-y,1/2+z
1/2-x,1/2+y,z
1/2+x,1/2-y,z
loop_
_atom_site_type_symbol
_atom_site_label
_atom_site_fract_x
_atom_site_fract_y
_atom_site_fract_z
Si Si1 0.856438 0.545043 0.322440
Si Si2 0.585706 0.528845 0.332589
Si Si3 0.844809 0.548746 0.530565
Si Si4 0.901051 0.952540 0.041160
Si Si5 0.029320 0.223597 0.181174
Si Si6 0.220413 0.521894 0.185555
O O1 0.898773 0.341802 0.316114
O O2 0.836652 0.608129 0.423165
O O3 0.818396 0.431363 0.258180
O O4 0.875319 0.838373 0.291819
O O5 0.575625 0.497812 0.441945
O O6 0.542510 0.426457 0.278232
O O7 0.858069 0.231662 0.532342
O O8 0.799151 0.577512 0.584043
O O9 0.882632 0.750497 0.574028
O O10 0.929568 0.768592 0.112179
O O11 0.000000 0.500000 0.194240
O O12 0.000000 0.000000 0.128555
O O13 0.261593 0.717733 0.200539
#
# Coordination Sequence:
#
# PCOD8190676 Si02
#       6
#     8   8   8   8   8   8
#     4  10  21  39  62  83 111 156 204 244 286 352
#     4  10  21  40  63  85 113 157 206 245 288 354
#     4  10  21  39  62  83 111 156 204 244 286 352
#     4  10  21  40  63  85 113 157 206 245 288 354
#     4  12  24  38  60  92 126 156 190 248 314 364
#     4  12  24  36  56  88 122 152 186 244 310 358
#
# _framework density 22.285605
#
# number of rings (size 3 to 8) (size 9 to 14) (size 15 to 20)
#    0.000    1.333    0.000    6.000    0.000    2.000 
#    0.000    1.667    0.000    0.000    0.000    0.000 
#    0.000    0.000    0.000    0.000    0.000    0.000 
#
# Total GULP energy -297339.618786 kJ/mol
# GULP energy per Si atom -12389.150783 kJ/mol
# Density = 2.223488 g / cm^3
# Si number density = 22.285605 Si / 1000 Ang^3
#
#
#
# Elastic Constant Matrix: (Units=GPa)
#
#
# Indices 1 2 3 4 5 6 
#
# 1 72.4193 19.7838 35.4930 0.0000 0.0000 0.0000
# 2 19.7838 106.6971 21.6940 0.0000 0.0000 0.0000
# 3 35.4930 21.6940 83.1492 0.0000 0.0000 0.0000
# 4 0.0000 0.0000 0.0000 25.3698 0.0000 0.0000
# 5 0.0000 0.0000 0.0000 0.0000 10.4179 0.0000
# 6 0.0000 0.0000 0.0000 0.0000 0.0000 45.7581
#
#
#
# Elastic Compliance Matrix: (Units=1/GPa)
#
#
# Indices 1 2 3 4 5 6 
#
# 1 0.017802 -0.001854 -0.007115 0.000000 0.000000 0.000000
# 2 -0.001854 0.010090 -0.001841 0.000000 0.000000 0.000000
# 3 -0.007115 -0.001841 0.015544 0.000000 0.000000 0.000000
# 4 0.000000 0.000000 0.000000 0.039417 0.000000 0.000000
# 5 0.000000 0.000000 0.000000 0.000000 0.095989 0.000000
# 6 0.000000 0.000000 0.000000 0.000000 0.000000 0.021854
#
#
# Mechanical properties :
#
#
# Convention : Reuss Voigt Hill
#
# Bulk Modulus (GPa) = 45.83877 46.24524 46.04200
# Shear Modulus (GPa) = 21.77797 28.66215 25.22006
#
# Velocity S-wave (km/s) = 3.12945 3.59015 3.36769
# Velocity P-wave (km/s) = 5.80270 6.16294 5.98553
#
# Compressibility (1/GPa) = 0.02181560
#
# Stress axis : x y z
#
# Youngs Moduli (GPa) = 56.17277 99.10322 64.33286
#
# Poissons Ratio (x) = 0.18376 0.45775
# Poissons Ratio (y) = 0.10416 0.11845
# Poissons Ratio (z) = 0.39968 0.18247
#
# Static dielectric constant tensor:
#      x y z
#    x 3.903580 0.000000 0.000000 
#    y 0.000000 4.090530 0.000000 
#    z 0.000000 0.000000 4.077730 
# 
# 
# High freq. dielectric constant tensor:
#      x y z
#    x 1.859650 0.000000 0.000000 
#    y 0.000000 1.895810 0.000000 
#    z 0.000000 0.000000 1.878050 
# 
# From -- ./inp_files/7118.got.cif
#   From: 2010.03.12/outbox.cif.g09.slc.cpg/sg45_4_cif.got.tgz:7118.got - 2010.04.14 02:50:11.
