data_PCOD8190812
_publ_section_title
;
Structure prediction by ZEFSAII (Michael W. Deem and Ramdas Pophale) SiO2 
 PCOD8190812
Probable space group: I B A 2
;
_chemical_formula_sum "Si O2"
_cell_formula_units_Z 56
_cell_length_a 14.155564
_cell_length_b 13.979933
_cell_length_c 13.562699
_cell_angle_alpha 90.000000
_cell_angle_beta 90.000000
_cell_angle_gamma 90.000000
_cell_volume 2683.974536
_symmetry_space_group_name_H-M "I B A 2"
_symmetry_group_IT_number 45
_symmetry_cell_setting 'orthorhombic'
loop_
_space_group_symop_operation_xyz
x,y,z
-x,-y,z
-x,y,1/2+z
x,-y,1/2+z
1/2+x,1/2+y,1/2+z
1/2-x,1/2-y,1/2+z
1/2-x,1/2+y,z
1/2+x,1/2-y,z
loop_
_atom_site_type_symbol
_atom_site_label
_atom_site_fract_x
_atom_site_fract_y
_atom_site_fract_z
Si Si1 0.243041 0.853503 0.220360
Si Si2 0.721205 0.538252 0.415393
Si Si3 0.420851 0.421736 0.807684
Si Si4 0.946787 0.292236 0.777682
Si Si5 0.075450 0.423646 0.455631
Si Si6 0.788172 0.051203 0.637037
Si Si7 0.624171 0.813546 0.145749
O O1 0.205189 0.881119 0.330282
O O2 0.343249 0.799733 0.228407
O O3 0.164814 0.792057 0.162828
O O4 0.253558 0.945188 0.150375
O O5 0.665391 0.442211 0.383732
O O6 0.832562 0.515549 0.423198
O O7 0.687252 0.574817 0.522959
O O8 0.500000 0.500000 0.831196
O O9 0.460176 0.314741 0.821140
O O10 0.385492 0.433734 0.695408
O O11 0.965734 0.368310 0.862815
O O12 0.024498 0.321643 0.698860
O O13 0.104421 0.341569 0.532884
O O14 0.000000 0.500000 0.497327
O O15 0.705970 0.116162 0.685097
#
# Coordination Sequence:
#
# PCOD8190812 Si02
#       7
#     8   8   8   8   8   8   8
#     4  10  22  42  65  99 128 174 228 273 343 404
#     4   9  22  42  68  93 135 173 220 285 338 398
#     4  11  23  44  64 100 131 175 226 272 354 406
#     4  11  24  40  67  98 133 179 222 282 337 412
#     4  10  25  42  67 106 132 177 234 279 344 407
#     4  10  22  42  69  90 135 178 217 286 335 403
#     4  11  24  44  65  99 134 173 229 274 341 405
#
# _framework density 20.86458
#
# number of rings (size 3 to 8) (size 9 to 14) (size 15 to 20)
#    0.000    1.714    1.429    1.714   12.000    0.571 
#    5.143    0.000    0.000    0.000    0.000    0.000 
#    0.000    0.000    0.000    0.000    0.000    0.000 
#
# Total GULP energy -347111.583586 kJ/mol
# GULP energy per Si atom -12396.842271 kJ/mol
# Density = 2.081709 g / cm^3
# Si number density = 20.864580 Si / 1000 Ang^3
#
#
#
# Elastic Constant Matrix: (Units=GPa)
#
#
# Indices 1 2 3 4 5 6 
#
# 1 82.2300 29.7933 44.3966 0.0000 0.0000 0.0000
# 2 29.7933 90.0279 24.4990 0.0000 0.0000 0.0000
# 3 44.3966 24.4990 90.5374 0.0000 0.0000 0.0000
# 4 0.0000 0.0000 0.0000 26.6749 0.0000 0.0000
# 5 0.0000 0.0000 0.0000 0.0000 34.4380 0.0000
# 6 0.0000 0.0000 0.0000 0.0000 0.0000 41.0516
#
#
#
# Elastic Compliance Matrix: (Units=1/GPa)
#
#
# Indices 1 2 3 4 5 6 
#
# 1 0.017646 -0.003762 -0.007635 0.000000 0.000000 0.000000
# 2 -0.003762 0.012793 -0.001617 0.000000 0.000000 0.000000
# 3 -0.007635 -0.001617 0.015227 0.000000 0.000000 0.000000
# 4 0.000000 0.000000 0.000000 0.037488 0.000000 0.000000
# 5 0.000000 0.000000 0.000000 0.000000 0.029038 0.000000
# 6 0.000000 0.000000 0.000000 0.000000 0.000000 0.024360
#
#
# Mechanical properties :
#
#
# Convention : Reuss Voigt Hill
#
# Bulk Modulus (GPa) = 50.92287 51.13034 51.02661
# Shear Modulus (GPa) = 29.56382 31.37331 30.46857
#
# Velocity S-wave (km/s) = 3.76831 3.88192 3.82553
# Velocity P-wave (km/s) = 6.58733 6.68217 6.63492
#
# Compressibility (1/GPa) = 0.01963754
#
# Stress axis : x y z
#
# Youngs Moduli (GPa) = 56.66881 78.16990 65.67390
#
# Poissons Ratio (x) = 0.29408 0.50144
# Poissons Ratio (y) = 0.21319 0.10618
# Poissons Ratio (z) = 0.43268 0.12639
#
# Static dielectric constant tensor:
#      x y z
#    x 3.879830 0.000000 0.000000 
#    y 0.000000 3.704820 0.000000 
#    z 0.000000 0.000000 3.750410 
# 
# 
# High freq. dielectric constant tensor:
#      x y z
#    x 1.823980 0.000000 0.000000 
#    y 0.000000 1.811330 0.000000 
#    z 0.000000 0.000000 1.811660 
# 
# From -- ./inp_files/6162.got.cif
#   From: 2010.03.12/outbox.cif.g09.slc.cpg/sg45_4_cif.got.tgz:6162.got - 2010.04.14 02:50:11.
