data_PCOD8190048
_publ_section_title
;
Structure prediction by ZEFSAII (Michael W. Deem and Ramdas Pophale) SiO2 
 PCOD8190048
Probable space group: I M M 2
;
_chemical_formula_sum "Si O2"
_cell_formula_units_Z 48
_cell_length_a 8.980824
_cell_length_b 27.590576
_cell_length_c 9.652916
_cell_angle_alpha 90.000000
_cell_angle_beta 90.000000
_cell_angle_gamma 90.000000
_cell_volume 2391.858478
_symmetry_space_group_name_H-M "I M M 2"
_symmetry_group_IT_number 44
_symmetry_cell_setting 'orthorhombic'
loop_
_space_group_symop_operation_xyz
x,y,z
-x,-y,z
-x,y,z
x,-y,z
1/2+x,1/2+y,1/2+z
1/2-x,1/2-y,1/2+z
1/2-x,1/2+y,1/2+z
1/2+x,1/2-y,1/2+z
loop_
_atom_site_type_symbol
_atom_site_label
_atom_site_fract_x
_atom_site_fract_y
_atom_site_fract_z
Si Si1 0.671668 0.391069 0.419460
Si Si2 0.327933 0.444591 0.700217
Si Si3 0.174661 0.703757 0.310265
Si Si4 0.329568 0.886002 0.430592
Si Si5 0.174826 0.791474 0.512800
Si Si6 0.167111 0.553770 0.201444
O O1 0.500000 0.377020 0.399474
O O2 0.705974 0.408740 0.573694
O O3 0.772799 0.345644 0.380869
O O4 0.713305 0.435719 0.320305
O O5 0.500000 0.441731 0.743085
O O6 0.283844 0.500000 0.663712
O O7 0.229230 0.426389 0.826362
O O8 0.215142 0.745348 0.419537
O O9 0.251416 0.713986 0.163218
O O10 0.000000 0.700441 0.281062
O O11 0.500000 0.874041 0.394546
O O12 0.234768 0.837010 0.425360
O O13 0.311766 0.906853 0.583309
O O14 0.000000 0.797560 0.534923
O O15 0.197485 0.500000 0.142353
O O16 0.000000 0.557351 0.262555
#
# Coordination Sequence:
#
# PCOD8190048 Si02
#       6
#     8   8   8   8   8   8
#     4  11  23  40  64  92 125 165 212 259 312 372
#     4  10  23  42  62  90 129 171 215 260 310 371
#     4  11  25  44  66  95 128 163 208 258 314 377
#     4  11  23  40  64  93 127 165 210 259 313 371
#     4  11  25  44  67  96 127 164 210 256 313 377
#     4  10  21  38  61  90 124 162 205 256 312 370
#
# _framework density 20.068078
#
# number of rings (size 3 to 8) (size 9 to 14) (size 15 to 20)
#    0.000    1.333    1.667    3.000    2.333    6.667 
#    0.000    0.000    0.000    0.000    0.000    0.000 
#    0.000    0.000    0.000    0.000    0.000    0.000 
#
# Total GULP energy -297693.616382 kJ/mol
# GULP energy per Si atom -12403.900683 kJ/mol
# Density = 2.002240 g / cm^3
# Si number density = 20.068078 Si / 1000 Ang^3
#
#
#
# Elastic Constant Matrix: (Units=GPa)
#
#
# Indices 1 2 3 4 5 6 
#
# 1 89.0060 50.5500 54.6693 0.0004 0.0002 0.0001
# 2 50.5500 120.3572 38.9751 0.0009 0.0005 0.0000
# 3 54.6693 38.9751 87.2130 0.0056 0.0016 0.0005
# 4 0.0004 0.0009 0.0056 36.7721 0.0003 0.0000
# 5 0.0002 0.0005 0.0016 0.0003 35.1041 0.0001
# 6 0.0001 0.0000 0.0005 0.0000 0.0001 33.7643
#
#
#
# Elastic Compliance Matrix: (Units=1/GPa)
#
#
# Indices 1 2 3 4 5 6 
#
# 1 0.020786 -0.005274 -0.010673 0.000002 0.000000 0.000000
# 2 -0.005274 0.011053 -0.001633 0.000000 0.000000 0.000000
# 3 -0.010673 -0.001633 0.018886 -0.000003 -0.000001 0.000000
# 4 0.000002 0.000000 -0.000003 0.027195 0.000000 0.000000
# 5 0.000000 0.000000 -0.000001 0.000000 0.028487 0.000000
# 6 0.000000 0.000000 0.000000 0.000000 0.000000 0.029617
#
#
# Mechanical properties :
#
#
# Convention : Reuss Voigt Hill
#
# Bulk Modulus (GPa) = 64.24789 64.99612 64.62200
# Shear Modulus (GPa) = 28.34929 31.28688 29.81808
#
# Velocity S-wave (km/s) = 3.76261 3.95275 3.85885
# Velocity P-wave (km/s) = 7.13868 7.30003 7.21981
#
# Compressibility (1/GPa) = 0.01556471
#
# Stress axis : x y z
#
# Youngs Moduli (GPa) = 48.10969 90.47644 52.94850
#
# Poissons Ratio (x) = 0.47717 0.56510
# Poissons Ratio (y) = 0.25373 0.08649
# Poissons Ratio (z) = 0.51346 0.14778
#
# Static dielectric constant tensor:
#      x y z
#    x 3.736090 0.000000 0.000000 
#    y 0.000000 3.758900 0.000000 
#    z 0.000000 0.000000 3.594720 
# 
# 
# High freq. dielectric constant tensor:
#      x y z
#    x 1.791280 0.000000 0.000000 
#    y 0.000000 1.799260 0.000000 
#    z 0.000000 0.000000 1.785790 
# 
# From -- ./inp_files/4867.got.cif
#   From: 2010.03.12/outbox.cif.g09.slc.cpg/sg44_3_cif.got.tgz:4867.got - 2010.04.14 02:36:11.
