data_PCOD8190817
_publ_section_title
;
Structure prediction by ZEFSAII (Michael W. Deem and Ramdas Pophale) SiO2 
 PCOD8190817
Probable space group: I B A 2
;
_chemical_formula_sum "Si O2"
_cell_formula_units_Z 56
_cell_length_a 8.509217
_cell_length_b 15.128049
_cell_length_c 17.442682
_cell_angle_alpha 90.000000
_cell_angle_beta 90.000000
_cell_angle_gamma 90.000000
_cell_volume 2245.358982
_symmetry_space_group_name_H-M "I B A 2"
_symmetry_group_IT_number 45
_symmetry_cell_setting 'orthorhombic'
loop_
_space_group_symop_operation_xyz
x,y,z
-x,-y,z
-x,y,1/2+z
x,-y,1/2+z
1/2+x,1/2+y,1/2+z
1/2-x,1/2-y,1/2+z
1/2-x,1/2+y,z
1/2+x,1/2-y,z
loop_
_atom_site_type_symbol
_atom_site_label
_atom_site_fract_x
_atom_site_fract_y
_atom_site_fract_z
Si Si1 0.173121 0.512203 0.268790
Si Si2 0.955788 0.188737 0.617877
Si Si3 0.209275 0.546528 0.098590
Si Si4 0.599572 0.663976 0.791651
Si Si5 0.733580 0.662615 0.334541
Si Si6 0.024345 0.403711 0.456400
Si Si7 0.278419 0.153163 0.557856
O O1 0.150871 0.555375 0.185510
O O2 0.288438 0.580622 0.313212
O O3 0.252332 0.416455 0.272842
O O4 0.000000 0.500000 0.306051
O O5 0.853337 0.110954 0.580167
O O6 0.980535 0.161706 0.707036
O O7 0.880996 0.286190 0.614742
O O8 0.107455 0.197547 0.562670
O O9 0.255603 0.445595 0.086283
O O10 0.068777 0.578938 0.045030
O O11 0.453924 0.669009 0.852225
O O12 0.710770 0.748432 0.795060
O O13 0.839235 0.646873 0.410576
O O14 0.000000 0.500000 0.416764
O O15 0.858944 0.349939 0.471057
#
# Coordination Sequence:
#
# PCOD8190817 Si02
#       7
#     8   8   8   8   8   8   8
#     4  11  22  42  71  99 132 176 226 285 348 410
#     4  11  22  39  67 104 132 171 230 284 342 405
#     4  10  22  42  68  97 130 171 222 283 339 399
#     4  11  25  41  68 102 135 181 235 285 347 419
#     4  12  25  44  64  94 140 182 228 284 346 423
#     4  10  24  45  67  96 133 180 230 280 350 423
#     4  11  22  39  64  94 134 171 217 283 341 403
#
# _framework density 24.940332999999999
#
# number of rings (size 3 to 8) (size 9 to 14) (size 15 to 20)
#    0.000    1.143    0.000    6.857    0.000    8.000 
#    0.000   10.000    0.000    0.000    0.000    0.000 
#    0.000    0.000    0.000    0.000    0.000    0.000 
#
# Total GULP energy -346941.298106 kJ/mol
# GULP energy per Si atom -12390.760647 kJ/mol
# Density = 2.488357 g / cm^3
# Si number density = 24.940333 Si / 1000 Ang^3
#
#
#
# Elastic Constant Matrix: (Units=GPa)
#
#
# Indices 1 2 3 4 5 6 
#
# 1 182.9088 57.9194 28.9807 0.0000 0.0000 0.0000
# 2 57.9194 135.6156 3.7357 0.0000 0.0000 0.0000
# 3 28.9807 3.7357 70.8593 0.0000 0.0000 0.0000
# 4 0.0000 0.0000 0.0000 2.8126 0.0000 0.0000
# 5 0.0000 0.0000 0.0000 0.0000 32.9091 0.0000
# 6 0.0000 0.0000 0.0000 0.0000 0.0000 52.0621
#
#
#
# Elastic Compliance Matrix: (Units=1/GPa)
#
#
# Indices 1 2 3 4 5 6 
#
# 1 0.006776 -0.002822 -0.002623 0.000000 0.000000 0.000000
# 2 -0.002822 0.008560 0.000703 0.000000 0.000000 0.000000
# 3 -0.002623 0.000703 0.015148 0.000000 0.000000 0.000000
# 4 0.000000 0.000000 0.000000 0.355549 0.000000 0.000000
# 5 0.000000 0.000000 0.000000 0.000000 0.030387 0.000000
# 6 0.000000 0.000000 0.000000 0.000000 0.000000 0.019208
#
#
# Mechanical properties :
#
#
# Convention : Reuss Voigt Hill
#
# Bulk Modulus (GPa) = 47.61760 63.40616 55.51188
# Shear Modulus (GPa) = 11.05923 37.47328 24.26625
#
# Velocity S-wave (km/s) = 2.10806 3.88044 3.12263
# Velocity P-wave (km/s) = 5.00592 6.74947 5.94200
#
# Compressibility (1/GPa) = 0.02100064
#
# Stress axis : x y z
#
# Youngs Moduli (GPa) = 147.57321 116.82825 66.01500
#
# Poissons Ratio (x) = 0.32967 0.17314
# Poissons Ratio (y) = 0.41642 -0.04640
# Poissons Ratio (z) = 0.38704 -0.08211
#
# Static dielectric constant tensor:
#      x y z
#    x 4.700950 0.000000 0.000000 
#    y 0.000000 4.733060 0.000000 
#    z 0.000000 0.000000 4.163290 
# 
# 
# High freq. dielectric constant tensor:
#      x y z
#    x 2.004240 0.000000 0.000000 
#    y 0.000000 2.009790 0.000000 
#    z 0.000000 0.000000 1.971090 
# 
# From -- ./inp_files/8875.got.cif
#   From: 2010.03.12/outbox.cif.g09.slc.cpg/sg45_5_cif.got.tgz:8875.got - 2010.04.14 02:50:11.
