data_PCOD8190279
_publ_section_title
;
Structure prediction by ZEFSAII (Michael W. Deem and Ramdas Pophale) SiO2 
 PCOD8190279
Probable space group: I M M 2
;
_chemical_formula_sum "Si O2"
_cell_formula_units_Z 56
_cell_length_a 13.970066
_cell_length_b 22.452759
_cell_length_c 8.937273
_cell_angle_alpha 90.000000
_cell_angle_beta 90.000000
_cell_angle_gamma 90.000000
_cell_volume 2803.323366
_symmetry_space_group_name_H-M "I M M 2"
_symmetry_group_IT_number 44
_symmetry_cell_setting 'orthorhombic'
loop_
_space_group_symop_operation_xyz
x,y,z
-x,-y,z
-x,y,z
x,-y,z
1/2+x,1/2+y,1/2+z
1/2-x,1/2-y,1/2+z
1/2-x,1/2+y,1/2+z
1/2+x,1/2-y,1/2+z
loop_
_atom_site_type_symbol
_atom_site_label
_atom_site_fract_x
_atom_site_fract_y
_atom_site_fract_z
Si Si1 0.607557 0.697895 0.428110
Si Si2 0.394485 0.930283 0.920196
Si Si3 0.892409 0.174128 0.272875
Si Si4 0.387017 0.931061 0.260068
Si Si5 0.393221 0.566149 0.976776
Si Si6 0.297447 0.181510 0.423349
Si Si7 0.740730 0.627233 0.210054
O O1 0.500000 0.683921 0.380703
O O2 0.627035 0.679428 0.598173
O O3 0.624781 0.767669 0.394559
O O4 0.674247 0.657579 0.329853
O O5 0.500000 0.902250 0.893338
O O6 0.323873 0.906294 0.795963
O O7 0.401281 0.000000 0.899581
O O8 0.360405 0.915763 0.088666
O O9 0.884193 0.105807 0.327398
O O10 0.804971 0.206244 0.359802
O O11 0.000000 0.199283 0.312344
O O12 0.500000 0.923187 0.288101
O O13 0.328879 0.883113 0.358794
O O14 0.358191 0.000000 0.299348
O O15 0.500000 0.571532 0.044406
O O16 0.370005 0.500000 0.921675
O O17 0.320396 0.582702 0.108039
O O18 0.288211 0.176348 0.602340
#
# Coordination Sequence:
#
# PCOD8190279 Si02
#       7
#     8   8   8   8   8   8   8
#     4  11  23  40  58  79 111 149 190 233 278 332
#     4   9  19  36  57  83 117 152 185 227 281 339
#     4   9  20  38  58  80 110 148 189 230 272 328
#     4   9  19  37  60  85 113 147 188 232 279 336
#     4   9  18  35  58  83 111 145 187 234 284 335
#     4  11  22  37  59  84 112 147 189 231 280 336
#     4  11  22  35  55  84 116 146 183 232 286 333
#
# _framework density 19.976289000000001
#
# number of rings (size 3 to 8) (size 9 to 14) (size 15 to 20)
#    0.000    2.143    0.000    3.857    0.000    4.571 
#    0.000    3.571    0.000    6.857    0.000    0.000 
#    0.000    0.000    0.000    0.000    0.000    0.000 
#
# Total GULP energy -347031.295366 kJ/mol
# GULP energy per Si atom -12393.974834 kJ/mol
# Density = 1.993082 g / cm^3
# Si number density = 19.976289 Si / 1000 Ang^3
#
#
#
# Elastic Constant Matrix: (Units=GPa)
#
#
# Indices 1 2 3 4 5 6 
#
# 1 93.2172 34.9481 54.7202 0.0003 -0.0006 -0.0001
# 2 34.9481 68.3302 36.3741 0.0006 0.0003 0.0001
# 3 54.7202 36.3741 107.3644 0.0039 0.0004 -0.0005
# 4 0.0003 0.0006 0.0039 19.3422 -0.0028 -0.0004
# 5 -0.0006 0.0003 0.0004 -0.0028 50.1773 0.0004
# 6 -0.0001 0.0001 -0.0005 -0.0004 0.0004 28.1901
#
#
#
# Elastic Compliance Matrix: (Units=1/GPa)
#
#
# Indices 1 2 3 4 5 6 
#
# 1 0.016523 -0.004841 -0.006781 0.000001 0.000000 0.000000
# 2 -0.004841 0.019273 -0.004062 0.000000 0.000000 0.000000
# 3 -0.006781 -0.004062 0.014147 -0.000003 0.000000 0.000000
# 4 0.000001 0.000000 -0.000003 0.051700 0.000003 0.000001
# 5 0.000000 0.000000 0.000000 0.000003 0.019929 0.000000
# 6 0.000000 0.000000 0.000000 0.000001 0.000000 0.035473
#
#
# Mechanical properties :
#
#
# Convention : Reuss Voigt Hill
#
# Bulk Modulus (GPa) = 53.83915 57.88850 55.86382
# Shear Modulus (GPa) = 25.69279 29.06654 27.37967
#
# Velocity S-wave (km/s) = 3.59020 3.81865 3.70619
# Velocity P-wave (km/s) = 6.64802 6.96307 6.80737
#
# Compressibility (1/GPa) = 0.01857384
#
# Stress axis : x y z
#
# Youngs Moduli (GPa) = 60.52037 51.88518 70.68873
#
# Poissons Ratio (x) = 0.25118 0.47936
# Poissons Ratio (y) = 0.29299 0.28716
# Poissons Ratio (z) = 0.41041 0.21077
#
# Static dielectric constant tensor:
#      x y z
#    x 3.662060 -0.000010 0.000000 
#    y -0.000010 3.480790 0.000000 
#    z 0.000000 0.000000 3.737340 
# 
# 
# High freq. dielectric constant tensor:
#      x y z
#    x 1.799650 0.000000 0.000000 
#    y 0.000000 1.766380 0.000000 
#    z 0.000000 0.000000 1.777830 
# 
# From -- ./inp_files/7400.got.cif
#   From: 2010.03.12/outbox.cif.g09.slc.cpg/sg44_4_cif.got.tgz:7400.got - 2010.04.14 02:36:11.
