data_PCOD8190247
_publ_section_title
;
Structure prediction by ZEFSAII (Michael W. Deem and Ramdas Pophale) SiO2 
 PCOD8190247
Probable space group: I M M 2
;
_chemical_formula_sum "Si O2"
_cell_formula_units_Z 48
_cell_length_a 18.430646
_cell_length_b 8.371980
_cell_length_c 14.985748
_cell_angle_alpha 90.000000
_cell_angle_beta 90.000000
_cell_angle_gamma 90.000000
_cell_volume 2312.315898
_symmetry_space_group_name_H-M "I M M 2"
_symmetry_group_IT_number 44
_symmetry_cell_setting 'orthorhombic'
loop_
_space_group_symop_operation_xyz
x,y,z
-x,-y,z
-x,y,z
x,-y,z
1/2+x,1/2+y,1/2+z
1/2-x,1/2-y,1/2+z
1/2-x,1/2+y,1/2+z
1/2+x,1/2-y,1/2+z
loop_
_atom_site_type_symbol
_atom_site_label
_atom_site_fract_x
_atom_site_fract_y
_atom_site_fract_z
Si Si1 0.727827 0.809627 0.659880
Si Si2 0.000000 0.315835 0.586112
Si Si3 0.380030 0.818534 0.394926
Si Si4 0.648111 0.313525 0.023242
Si Si5 0.000000 0.183911 0.775947
Si Si6 0.767997 0.316473 0.363164
Si Si7 0.922698 0.684031 0.090293
O O1 0.793509 0.747157 0.596661
O O2 0.736859 0.752029 0.761564
O O3 0.650325 0.734667 0.628509
O O4 0.726870 0.000000 0.651025
O O5 0.927601 0.279974 0.529958
O O6 0.000000 0.198587 0.670240
O O7 0.000000 0.500000 0.615705
O O8 0.428103 0.769395 0.310962
O O9 0.311514 0.702993 0.404238
O O10 0.426533 0.799074 0.483871
O O11 0.352626 0.000000 0.382566
O O12 0.634324 0.500000 0.038464
O O13 0.676238 0.284654 0.922704
O O14 0.000000 0.000000 0.804915
O O15 0.792415 0.500000 0.365406
O O16 0.920507 0.500000 0.119002
O O17 0.000000 0.758068 0.125708
#
# Coordination Sequence:
#
# PCOD8190247 Si02
#       7
#     8   4   8   8   4   8   8
#     4   9  19  36  59  87 119 161 209 253 303 368
#     4  12  26  44  64  91 122 157 212 265 313 373
#     4  11  20  35  60  88 118 158 209 256 308 374
#     4  11  22  42  67  89 124 169 210 256 316 378
#     4  12  24  38  58  91 130 163 198 253 327 391
#     4  11  22  37  59  91 125 161 210 263 313 370
#     4   9  16  31  57  86 114 150 200 252 299 357
#
# _framework density 20.758410000000001
#
# number of rings (size 3 to 8) (size 9 to 14) (size 15 to 20)
#    0.000    1.500    2.500    4.000    0.000    1.333 
#    1.500    2.500    0.000    0.000    0.000    0.000 
#    0.000    0.000    0.000    0.000    0.000    0.000 
#
# Total GULP energy -297546.053872 kJ/mol
# GULP energy per Si atom -12397.752245 kJ/mol
# Density = 2.071116 g / cm^3
# Si number density = 20.758410 Si / 1000 Ang^3
#
#
#
# Elastic Constant Matrix: (Units=GPa)
#
#
# Indices 1 2 3 4 5 6 
#
# 1 170.2190 17.7401 43.9237 0.0000 0.0000 0.0000
# 2 17.7401 45.6416 21.4091 0.0000 0.0000 0.0000
# 3 43.9237 21.4091 92.0757 0.0000 0.0000 0.0000
# 4 0.0000 0.0000 0.0000 25.3825 0.0000 0.0000
# 5 0.0000 0.0000 0.0000 0.0000 -256.0470 0.0000
# 6 0.0000 0.0000 0.0000 0.0000 0.0000 23.7397
#
#
#
# Elastic Compliance Matrix: (Units=1/GPa)
#
#
# Indices 1 2 3 4 5 6 
#
# 1 0.006763 -0.001252 -0.002935 0.000000 0.000000 0.000000
# 2 -0.001252 0.024824 -0.005175 0.000000 0.000000 0.000000
# 3 -0.002935 -0.005175 0.013464 0.000000 0.000000 0.000000
# 4 0.000000 0.000000 0.000000 0.039397 0.000000 0.000000
# 5 0.000000 0.000000 0.000000 0.000000 -0.003906 0.000000
# 6 0.000000 0.000000 0.000000 0.000000 0.000000 0.042124
#
#
# Mechanical properties :
#
#
# Convention : Reuss Voigt Hill
#
# Bulk Modulus (GPa) = 37.98354 52.67579 45.32966
# Shear Modulus (GPa) = 33.29690 -26.39405 3.45143
#
# Velocity S-wave (km/s) = 4.00937 -3.56966 1.29084
# Velocity P-wave (km/s) = 6.30642 2.90530 4.90977
#
# Compressibility (1/GPa) = 0.02632719
#
# Stress axis : x y z
#
# Youngs Moduli (GPa) = 147.87241 40.28411 74.27259
#
# Poissons Ratio (x) = 0.05043 0.21799
# Poissons Ratio (y) = 0.18511 0.38434
# Poissons Ratio (z) = 0.43400 0.20846
#
# Static dielectric constant tensor:
#      x y z
#    x 5.318060 0.000000 0.000000 
#    y 0.000000 3.390800 0.000000 
#    z 0.000000 0.000000 3.688880 
# 
# 
# High freq. dielectric constant tensor:
#      x y z
#    x 1.827280 0.000000 0.000000 
#    y 0.000000 1.779990 0.000000 
#    z 0.000000 0.000000 1.803160 
# 
# From -- ./inp_files/16120.got.cif
#   From: 2010.03.12/outbox.cif.g09.slc.cpg/sg44_9_cif.got.tgz:16120.got - 2010.04.14 02:36:11.
