data_PCOD8190893
_publ_section_title
;
Structure prediction by ZEFSAII (Michael W. Deem and Ramdas Pophale) SiO2 
 PCOD8190893
Probable space group: I B A 2
;
_chemical_formula_sum "Si O2"
_cell_formula_units_Z 64
_cell_length_a 21.505653
_cell_length_b 8.606665
_cell_length_c 14.000119
_cell_angle_alpha 90.000000
_cell_angle_beta 90.000000
_cell_angle_gamma 90.000000
_cell_volume 2591.309340
_symmetry_space_group_name_H-M "I B A 2"
_symmetry_group_IT_number 45
_symmetry_cell_setting 'orthorhombic'
loop_
_space_group_symop_operation_xyz
x,y,z
-x,-y,z
-x,y,1/2+z
x,-y,1/2+z
1/2+x,1/2+y,1/2+z
1/2-x,1/2-y,1/2+z
1/2-x,1/2+y,z
1/2+x,1/2-y,z
loop_
_atom_site_type_symbol
_atom_site_label
_atom_site_fract_x
_atom_site_fract_y
_atom_site_fract_z
Si Si1 0.534521 0.661706 0.373020
Si Si2 0.518343 0.320210 0.182982
Si Si3 0.714521 0.358688 0.042086
Si Si4 0.730180 0.591000 0.760922
Si Si5 0.903878 0.315871 0.541942
Si Si6 0.589496 0.177224 0.577987
Si Si7 0.339759 0.715815 0.762261
Si Si8 0.821755 0.182257 0.951256
O O1 0.500000 0.500000 0.401861
O O2 0.491645 0.742056 0.290922
O O3 0.542275 0.772106 0.464322
O O4 0.604661 0.647070 0.328127
O O5 0.500000 0.500000 0.180978
O O6 0.586592 0.287633 0.140148
O O7 0.479912 0.216946 0.107772
O O8 0.721054 0.339619 0.155575
O O9 0.663513 0.234587 0.004118
O O10 0.778233 0.321436 0.988518
O O11 0.694266 0.527752 0.009189
O O12 0.716597 0.408096 0.757565
O O13 0.801588 0.629120 0.796442
O O14 0.681995 0.665028 0.837362
O O15 0.904474 0.494511 0.566912
O O16 0.634825 0.246990 0.657987
O O17 0.607888 0.264281 0.478901
#
# Coordination Sequence:
#
# PCOD8190893 Si02
#       8
#     8   8   8   8   8   8   8   8
#     4  10  24  47  76 108 149 200 266 325 390 485
#     4  10  23  46  74  99 137 192 247 314 384 457
#     4  12  25  43  67 106 148 192 249 316 377 470
#     4  12  24  42  71 102 147 198 250 315 387 476
#     4  12  25  44  71 108 146 192 245 316 393 458
#     4  11  24  46  68 100 149 186 243 315 380 469
#     4  11  25  47  70 106 152 199 255 319 394 466
#     4  12  24  43  70 103 145 199 250 303 392 462
#
# _framework density 24.697939999999999
#
# number of rings (size 3 to 8) (size 9 to 14) (size 15 to 20)
#    0.000    0.750    2.500    4.500    5.250    2.000 
#    2.250    2.500    0.000    0.000    0.000    0.000 
#    0.000    0.000    0.000    0.000    0.000    0.000 
#
# Total GULP energy -396563.551149 kJ/mol
# GULP energy per Si atom -12392.610973 kJ/mol
# Density = 2.464173 g / cm^3
# Si number density = 24.697940 Si / 1000 Ang^3
#
#
#
# Elastic Constant Matrix: (Units=GPa)
#
#
# Indices 1 2 3 4 5 6 
#
# 1 41.7985 19.1201 1.4883 0.0000 0.0000 0.0000
# 2 19.1201 114.7599 19.5742 0.0000 0.0000 0.0000
# 3 1.4883 19.5742 134.0371 0.0000 0.0000 0.0000
# 4 0.0000 0.0000 0.0000 27.6029 0.0000 0.0000
# 5 0.0000 0.0000 0.0000 0.0000 27.2105 0.0000
# 6 0.0000 0.0000 0.0000 0.0000 0.0000 46.7861
#
#
#
# Elastic Compliance Matrix: (Units=1/GPa)
#
#
# Indices 1 2 3 4 5 6 
#
# 1 0.025914 -0.004378 0.000352 0.000000 0.000000 0.000000
# 2 -0.004378 0.009676 -0.001364 0.000000 0.000000 0.000000
# 3 0.000352 -0.001364 0.007656 0.000000 0.000000 0.000000
# 4 0.000000 0.000000 0.000000 0.036228 0.000000 0.000000
# 5 0.000000 0.000000 0.000000 0.000000 0.036750 0.000000
# 6 0.000000 0.000000 0.000000 0.000000 0.000000 0.021374
#
#
# Mechanical properties :
#
#
# Convention : Reuss Voigt Hill
#
# Bulk Modulus (GPa) = 30.80213 41.21786 36.01000
# Shear Modulus (GPa) = 31.40681 37.01408 34.21045
#
# Velocity S-wave (km/s) = 3.56987 3.87547 3.72580
# Velocity P-wave (km/s) = 5.43052 6.06223 5.75505
#
# Compressibility (1/GPa) = 0.03246529
#
# Stress axis : x y z
#
# Youngs Moduli (GPa) = 38.58883 103.34950 130.61694
#
# Poissons Ratio (x) = 0.45241 -0.04592
# Poissons Ratio (y) = 0.16892 0.17822
# Poissons Ratio (z) = -0.01357 0.14101
#
# Static dielectric constant tensor:
#      x y z
#    x 4.880790 0.000000 0.000000 
#    y 0.000000 4.187740 0.000000 
#    z 0.000000 0.000000 4.763290 
# 
# 
# High freq. dielectric constant tensor:
#      x y z
#    x 1.989090 0.000000 0.000000 
#    y 0.000000 1.968550 0.000000 
#    z 0.000000 0.000000 1.998180 
# 
# From -- ./inp_files/7069.got.cif
#   From: 2010.03.12/outbox.cif.g09.slc.cpg/sg45_4_cif.got.tgz:7069.got - 2010.04.14 02:50:11.
