data_PCOD8190405
_publ_section_title
;
Structure prediction by ZEFSAII (Michael W. Deem and Ramdas Pophale) SiO2 
 PCOD8190405
Probable space group: I B A 2
;
_chemical_formula_sum "Si O2"
_cell_formula_units_Z 64
_cell_length_a 17.683696
_cell_length_b 9.402639
_cell_length_c 18.538231
_cell_angle_alpha 90.000000
_cell_angle_beta 90.000000
_cell_angle_gamma 90.000000
_cell_volume 3082.414878
_symmetry_space_group_name_H-M "I B A 2"
_symmetry_group_IT_number 45
_symmetry_cell_setting 'orthorhombic'
loop_
_space_group_symop_operation_xyz
x,y,z
-x,-y,z
-x,y,1/2+z
x,-y,1/2+z
1/2+x,1/2+y,1/2+z
1/2-x,1/2-y,1/2+z
1/2-x,1/2+y,z
1/2+x,1/2-y,z
loop_
_atom_site_type_symbol
_atom_site_label
_atom_site_fract_x
_atom_site_fract_y
_atom_site_fract_z
Si Si1 0.155903 0.258754 0.775330
Si Si2 0.547228 0.867404 0.996107
Si Si3 0.166185 0.250605 0.271453
Si Si4 0.589431 0.500995 0.842806
Si Si5 0.094580 0.124522 0.136224
Si Si6 0.922956 0.800021 0.637818
Si Si7 0.411454 0.008715 0.850970
Si Si8 0.442261 0.378129 0.485549
O O1 0.245208 0.264918 0.780336
O O2 0.129497 0.096561 0.784351
O O3 0.120516 0.298273 0.696963
O O4 0.122285 0.350723 0.841508
O O5 0.588283 0.783985 0.061473
O O6 0.500000 0.000000 0.028715
O O7 0.601835 0.928353 0.932182
O O8 0.490335 0.756269 0.956107
O O9 0.150034 0.208058 0.189055
O O10 0.135563 0.406833 0.289689
O O11 0.122428 0.156426 0.330793
O O12 0.500000 0.500000 0.831018
O O13 0.608956 0.446149 0.923148
O O14 0.010443 0.175208 0.158604
O O15 0.113625 0.956806 0.137217
O O16 0.108669 0.172644 0.053071
O O17 0.500000 0.000000 0.833048
O O18 0.500000 0.500000 0.516306
#
# Coordination Sequence:
#
# PCOD8190405 Si02
#       8
#     8   8   8   8   8   8   8   8
#     4  12  25  41  58  95 134 166 202 252 308 371
#     4  10  20  37  61  96 124 151 197 270 317 352
#     4  12  25  39  61  93 129 166 203 253 310 362
#     4  11  21  39  69  91 117 166 215 254 297 367
#     4  10  19  38  66  94 116 157 218 258 297 360
#     4  10  20  38  67  90 120 161 208 258 301 366
#     4  11  23  41  63  92 128 162 204 257 312 363
#     4  10  18  35  63  97 116 149 213 268 297 353
#
# _framework density 20.762941000000001
#
# number of rings (size 3 to 8) (size 9 to 14) (size 15 to 20)
#    0.000    1.250    3.750    6.000    0.000    2.500 
#    0.000    2.500    0.000    0.000    0.000    0.000 
#    0.000    0.000    0.000    0.000    0.000    0.000 
#
# Total GULP energy -396596.851758 kJ/mol
# GULP energy per Si atom -12393.651617 kJ/mol
# Density = 2.071568 g / cm^3
# Si number density = 20.762941 Si / 1000 Ang^3
#
#
#
# Elastic Constant Matrix: (Units=GPa)
#
#
# Indices 1 2 3 4 5 6 
#
# 1 109.8102 15.0804 32.9473 0.0000 0.0000 0.0000
# 2 15.0804 56.0189 6.3613 0.0000 0.0000 0.0000
# 3 32.9473 6.3613 124.2564 0.0000 0.0000 0.0000
# 4 0.0000 0.0000 0.0000 36.0108 0.0000 0.0000
# 5 0.0000 0.0000 0.0000 0.0000 32.5218 0.0000
# 6 0.0000 0.0000 0.0000 0.0000 0.0000 21.5738
#
#
#
# Elastic Compliance Matrix: (Units=1/GPa)
#
#
# Indices 1 2 3 4 5 6 
#
# 1 0.010219 -0.002458 -0.002584 0.000000 0.000000 0.000000
# 2 -0.002458 0.018547 -0.000298 0.000000 0.000000 0.000000
# 3 -0.002584 -0.000298 0.008748 0.000000 0.000000 0.000000
# 4 0.000000 0.000000 0.000000 0.027769 0.000000 0.000000
# 5 0.000000 0.000000 0.000000 0.000000 0.030749 0.000000
# 6 0.000000 0.000000 0.000000 0.000000 0.000000 0.046352
#
#
# Mechanical properties :
#
#
# Convention : Reuss Voigt Hill
#
# Bulk Modulus (GPa) = 37.26421 44.31818 40.79119
# Shear Modulus (GPa) = 30.86254 33.73439 32.29847
#
# Velocity S-wave (km/s) = 3.85960 4.03518 3.94837
# Velocity P-wave (km/s) = 6.15211 6.56517 6.36199
#
# Compressibility (1/GPa) = 0.02683540
#
# Stress axis : x y z
#
# Youngs Moduli (GPa) = 97.85299 53.91839 114.30844
#
# Poissons Ratio (x) = 0.13251 0.29536
# Poissons Ratio (y) = 0.24049 0.03404
# Poissons Ratio (z) = 0.25284 0.01606
#
# Static dielectric constant tensor:
#      x y z
#    x 3.194580 0.000000 0.000000 
#    y 0.000000 3.799400 0.000000 
#    z 0.000000 0.000000 3.885740 
# 
# 
# High freq. dielectric constant tensor:
#      x y z
#    x 1.759640 0.000000 0.000000 
#    y 0.000000 1.827900 0.000000 
#    z 0.000000 0.000000 1.825240 
# 
# From -- ./inp_files/9252.got.cif
#   From: 2010.03.12/outbox.cif.g09.slc.cpg/sg45_5_cif.got.tgz:9252.got - 2010.04.14 02:50:11.
