data_PCOD8190113
_publ_section_title
;
Structure prediction by ZEFSAII (Michael W. Deem and Ramdas Pophale) SiO2 
 PCOD8190113
Probable space group: I M M 2
;
_chemical_formula_sum "Si O2"
_cell_formula_units_Z 40
_cell_length_a 15.625536
_cell_length_b 8.086255
_cell_length_c 15.620452
_cell_angle_alpha 90.000000
_cell_angle_beta 90.000000
_cell_angle_gamma 90.000000
_cell_volume 1973.676423
_symmetry_space_group_name_H-M "I M M 2"
_symmetry_group_IT_number 44
_symmetry_cell_setting 'orthorhombic'
loop_
_space_group_symop_operation_xyz
x,y,z
-x,-y,z
-x,y,z
x,-y,z
1/2+x,1/2+y,1/2+z
1/2-x,1/2-y,1/2+z
1/2-x,1/2+y,1/2+z
1/2+x,1/2-y,1/2+z
loop_
_atom_site_type_symbol
_atom_site_label
_atom_site_fract_x
_atom_site_fract_y
_atom_site_fract_z
Si Si1 0.672367 0.310674 0.904840
Si Si2 0.000000 0.683271 0.467881
Si Si3 0.000000 0.000000 0.582010
Si Si4 0.747640 0.684107 0.719626
Si Si5 0.637697 0.500000 0.219597
Si Si6 0.686383 0.811226 0.546667
Si Si7 0.000000 0.684038 0.972360
Si Si8 0.500000 0.500000 0.357529
O O1 0.649042 0.500000 0.927118
O O2 0.692261 0.290582 0.804807
O O3 0.587796 0.199366 0.914416
O O4 0.751577 0.254049 0.967252
O O5 0.000000 0.500000 0.509705
O O6 0.000000 0.826830 0.535672
O O7 0.914054 0.000000 0.633684
O O8 0.789387 0.500000 0.722779
O O9 0.815348 0.827464 0.719404
O O10 0.695773 0.697656 0.630651
O O11 0.585371 0.500000 0.305092
O O12 0.586298 0.795412 0.526412
O O13 0.709915 0.000000 0.570552
O O14 0.000000 0.828810 0.905684
O O15 0.000000 0.500000 0.929383
#
# Coordination Sequence:
#
# PCOD8190113 Si02
#       8
#     8   4   2   8   4   8   4   2
#     4  10  22  42  65  92 134 175 214 272 329 384
#     4  12  25  40  66  97 125 173 226 266 325 397
#     4  11  24  44  62  91 138 170 212 283 336 383
#     4  11  24  41  65  97 129 171 221 267 326 394
#     4  11  24  42  64  93 132 172 218 277 332 391
#     4  10  21  41  67  93 132 176 215 268 327 388
#     4  10  23  42  64  97 133 169 216 268 327 391
#     4  11  24  40  66  95 126 174 224 271 328 399
#
# _framework density 20.266746999999999
#
# number of rings (size 3 to 8) (size 9 to 14) (size 15 to 20)
#    0.000    1.400    2.000    2.400    2.800    6.400 
#    0.000    4.000    0.000    0.000    0.000    0.000 
#    0.000    0.000    0.000    0.000    0.000    0.000 
#
# Total GULP energy -247806.856042 kJ/mol
# GULP energy per Si atom -12390.342802 kJ/mol
# Density = 2.022062 g / cm^3
# Si number density = 20.266747 Si / 1000 Ang^3
#
#
#
# Elastic Constant Matrix: (Units=GPa)
#
#
# Indices 1 2 3 4 5 6 
#
# 1 142.1678 74.4931 52.5921 0.0000 0.0000 0.0000
# 2 74.4931 180.1955 75.3862 0.0000 0.0000 0.0000
# 3 52.5921 75.3862 139.4408 0.0000 0.0000 0.0000
# 4 0.0000 0.0000 0.0000 29.6221 0.0000 0.0000
# 5 0.0000 0.0000 0.0000 0.0000 29.4621 0.0000
# 6 0.0000 0.0000 0.0000 0.0000 0.0000 8.7441
#
#
#
# Elastic Compliance Matrix: (Units=1/GPa)
#
#
# Indices 1 2 3 4 5 6 
#
# 1 0.009336 -0.003084 -0.001854 0.000000 0.000000 0.000000
# 2 -0.003084 0.008190 -0.003265 0.000000 0.000000 0.000000
# 3 -0.001854 -0.003265 0.009636 0.000000 0.000000 0.000000
# 4 0.000000 0.000000 0.000000 0.033759 0.000000 0.000000
# 5 0.000000 0.000000 0.000000 0.000000 0.033942 0.000000
# 6 0.000000 0.000000 0.000000 0.000000 0.000000 0.114363
#
#
# Mechanical properties :
#
#
# Convention : Reuss Voigt Hill
#
# Bulk Modulus (GPa) = 92.96538 96.30521 94.63529
# Shear Modulus (GPa) = 21.81356 30.85452 26.33404
#
# Velocity S-wave (km/s) = 3.28430 3.90605 3.60859
# Velocity P-wave (km/s) = 7.76869 8.24409 8.00992
#
# Compressibility (1/GPa) = 0.01075669
#
# Stress axis : x y z
#
# Youngs Moduli (GPa) = 107.11715 122.09689 103.77991
#
# Poissons Ratio (x) = 0.37652 0.19239
# Poissons Ratio (y) = 0.33032 0.33882
# Poissons Ratio (z) = 0.19858 0.39862
#
# Static dielectric constant tensor:
#      x y z
#    x 3.946840 0.000000 0.000000 
#    y 0.000000 3.814230 0.000000 
#    z 0.000000 0.000000 3.945440 
# 
# 
# High freq. dielectric constant tensor:
#      x y z
#    x 1.796570 0.000000 0.000000 
#    y 0.000000 1.804700 0.000000 
#    z 0.000000 0.000000 1.795550 
# 
# From -- ./inp_files/15844.got.cif
#   From: 2010.03.12/outbox.cif.g09.slc.cpg/sg44_8_cif.got.tgz:15844.got - 2010.04.14 02:36:11.
