data_PCOD8190115
_publ_section_title
;
Structure prediction by ZEFSAII (Michael W. Deem and Ramdas Pophale) SiO2 
 PCOD8190115
Probable space group: I M M 2
;
_chemical_formula_sum "Si O2"
_cell_formula_units_Z 38
_cell_length_a 15.586725
_cell_length_b 12.678233
_cell_length_c 8.915386
_cell_angle_alpha 90.000000
_cell_angle_beta 90.000000
_cell_angle_gamma 90.000000
_cell_volume 1761.788428
_symmetry_space_group_name_H-M "I M M 2"
_symmetry_group_IT_number 44
_symmetry_cell_setting 'orthorhombic'
loop_
_space_group_symop_operation_xyz
x,y,z
-x,-y,z
-x,y,z
x,-y,z
1/2+x,1/2+y,1/2+z
1/2-x,1/2-y,1/2+z
1/2-x,1/2+y,1/2+z
1/2+x,1/2-y,1/2+z
loop_
_atom_site_type_symbol
_atom_site_label
_atom_site_fract_x
_atom_site_fract_y
_atom_site_fract_z
Si Si1 0.593608 0.000000 0.482980
Si Si2 0.000000 0.336283 0.422650
Si Si3 0.670978 0.618289 0.258720
Si Si4 0.644941 0.174862 0.697920
Si Si5 0.500000 0.000000 0.187016
Si Si6 0.095935 0.113570 0.072843
Si Si7 0.500000 0.625244 0.080958
O O1 0.638342 0.893587 0.544646
O O2 0.584038 0.000000 0.299606
O O3 0.500000 0.000000 0.557634
O O4 0.913820 0.372800 0.332181
O O5 0.000000 0.395854 0.583205
O O6 0.000000 0.208347 0.444010
O O7 0.694313 0.500000 0.208910
O O8 0.754369 0.688648 0.228974
O O9 0.659640 0.626066 0.435415
O O10 0.585201 0.654913 0.174496
O O11 0.609607 0.292838 0.687469
O O12 0.000000 0.117050 0.006832
O O13 0.112052 0.000000 0.153493
O O14 0.500000 0.500000 0.033499
#
# Coordination Sequence:
#
# PCOD8190115 Si02
#       7
#     4   4   8   8   2   8   4
#     4  10  21  42  67  97 133 183 229 271 338 427
#     4  12  25  41  65 102 144 176 214 291 347 412
#     4  10  22  41  68  95 131 180 231 281 338 402
#     4  12  23  41  70 103 137 178 226 289 351 406
#     4  10  26  42  66  98 136 192 220 276 346 434
#     4  10  21  41  70  98 132 183 232 277 334 414
#     4  10  24  44  64  92 130 181 228 279 333 399
#
# _framework density 21.568992999999999
#
# number of rings (size 3 to 8) (size 9 to 14) (size 15 to 20)
#    0.316    1.053    4.211    0.632    5.895    0.842 
#    0.000    0.000    2.316    0.000    0.000    0.000 
#    0.000    0.000    0.000    0.000    0.000    0.000 
#
# Total GULP energy -235426.567605 kJ/mol
# GULP energy per Si atom -12390.871979 kJ/mol
# Density = 2.151990 g / cm^3
# Si number density = 21.568993 Si / 1000 Ang^3
#
#
#
# Elastic Constant Matrix: (Units=GPa)
#
#
# Indices 1 2 3 4 5 6 
#
# 1 150.2514 32.0512 43.9525 0.0000 0.0000 0.0000
# 2 32.0512 126.9278 45.3762 0.0000 0.0000 0.0000
# 3 43.9525 45.3762 100.1772 0.0000 0.0000 0.0000
# 4 0.0000 0.0000 0.0000 32.0714 0.0000 0.0000
# 5 0.0000 0.0000 0.0000 0.0000 22.1062 0.0000
# 6 0.0000 0.0000 0.0000 0.0000 0.0000 21.8090
#
#
#
# Elastic Compliance Matrix: (Units=1/GPa)
#
#
# Indices 1 2 3 4 5 6 
#
# 1 0.007717 -0.000881 -0.002987 0.000000 0.000000 0.000000
# 2 -0.000881 0.009501 -0.003917 0.000000 0.000000 0.000000
# 3 -0.002987 -0.003917 0.013067 0.000000 0.000000 0.000000
# 4 0.000000 0.000000 0.000000 0.031180 0.000000 0.000000
# 5 0.000000 0.000000 0.000000 0.000000 0.045236 0.000000
# 6 0.000000 0.000000 0.000000 0.000000 0.000000 0.045853
#
#
# Mechanical properties :
#
#
# Convention : Reuss Voigt Hill
#
# Bulk Modulus (GPa) = 67.95494 68.90179 68.42837
# Shear Modulus (GPa) = 28.89675 32.26244 30.57959
#
# Velocity S-wave (km/s) = 3.66421 3.87173 3.76940
# Velocity P-wave (km/s) = 7.03393 7.21119 7.12311
#
# Compressibility (1/GPa) = 0.01471563
#
# Stress axis : x y z
#
# Youngs Moduli (GPa) = 129.58127 105.24841 76.52784
#
# Poissons Ratio (x) = 0.09271 0.22858
# Poissons Ratio (y) = 0.11415 0.29978
# Poissons Ratio (z) = 0.38704 0.41228
#
# Static dielectric constant tensor:
#      x y z
#    x 3.807960 0.000000 0.000000 
#    y 0.000000 3.903130 0.000000 
#    z 0.000000 0.000000 3.540340 
# 
# 
# High freq. dielectric constant tensor:
#      x y z
#    x 1.846080 0.000000 0.000000 
#    y 0.000000 1.849290 0.000000 
#    z 0.000000 0.000000 1.826030 
# 
# From -- ./inp_files/7965.got.cif
#   From: 2010.03.12/outbox.cif.g09.slc.cpg/sg44_4_cif.got.tgz:7965.got - 2010.04.14 02:36:11.
