data_PCOD8190723
_publ_section_title
;
Structure prediction by ZEFSAII (Michael W. Deem and Ramdas Pophale) SiO2 
 PCOD8190723
Probable space group: I B A 2
;
_chemical_formula_sum "Si O2"
_cell_formula_units_Z 64
_cell_length_a 11.858830
_cell_length_b 17.710510
_cell_length_c 14.271257
_cell_angle_alpha 90.000000
_cell_angle_beta 90.000000
_cell_angle_gamma 90.000000
_cell_volume 2997.333985
_symmetry_space_group_name_H-M "I B A 2"
_symmetry_group_IT_number 45
_symmetry_cell_setting 'orthorhombic'
loop_
_space_group_symop_operation_xyz
x,y,z
-x,-y,z
-x,y,1/2+z
x,-y,1/2+z
1/2+x,1/2+y,1/2+z
1/2-x,1/2-y,1/2+z
1/2-x,1/2+y,z
1/2+x,1/2-y,z
loop_
_atom_site_type_symbol
_atom_site_label
_atom_site_fract_x
_atom_site_fract_y
_atom_site_fract_z
Si Si1 0.062122 0.674549 0.849450
Si Si2 0.266986 0.144825 0.568286
Si Si3 0.126556 0.970183 0.180841
Si Si4 0.620064 0.222393 0.538941
Si Si5 0.902921 0.444565 0.415124
Si Si6 0.231251 0.931993 0.370884
Si Si7 0.425976 0.253193 0.667004
Si Si8 0.297932 0.607765 0.077730
O O1 0.187400 0.638477 0.847787
O O2 0.056295 0.745318 0.778566
O O3 0.961279 0.612598 0.839397
O O4 0.038429 0.711190 0.950878
O O5 0.163308 0.099445 0.615080
O O6 0.213649 0.215165 0.511702
O O7 0.345863 0.096105 0.502322
O O8 0.349371 0.180220 0.645900
O O9 0.138990 0.944389 0.288930
O O10 0.209312 0.037773 0.148841
O O11 0.000000 0.000000 0.160581
O O12 0.550859 0.248604 0.627718
O O13 0.674158 0.142147 0.566630
O O14 0.804983 0.491887 0.365908
O O15 0.000000 0.500000 0.455310
O O16 0.167062 0.918737 0.471124
O O17 0.378659 0.331562 0.628097
#
# Coordination Sequence:
#
# PCOD8190723 Si02
#       8
#     8   8   8   8   8   8   8   8
#     4  10  21  41  68 101 130 168 226 277 342 413
#     4  11  22  43  67  92 135 177 223 276 341 407
#     4  12  25  43  66  95 129 181 231 273 339 416
#     4  10  23  42  64  96 134 173 214 279 345 405
#     4  10  21  41  70 101 130 172 222 289 349 402
#     4  10  22  43  65  98 136 169 222 286 338 408
#     4  11  22  43  65  95 134 176 223 279 341 411
#     4  10  24  44  64  92 137 173 220 281 341 409
#
# _framework density 21.352307
#
# number of rings (size 3 to 8) (size 9 to 14) (size 15 to 20)
#    0.000    1.500    3.750    0.750    1.750    1.500 
#    9.000    0.000    0.000    0.000    0.000    0.000 
#    0.000    0.000    0.000    0.000    0.000    0.000 
#
# Total GULP energy -396556.996597 kJ/mol
# GULP energy per Si atom -12392.406144 kJ/mol
# Density = 2.130371 g / cm^3
# Si number density = 21.352307 Si / 1000 Ang^3
#
#
#
# Elastic Constant Matrix: (Units=GPa)
#
#
# Indices 1 2 3 4 5 6 
#
# 1 63.5820 21.0325 20.1341 0.0000 0.0000 0.0000
# 2 21.0325 87.4648 38.4233 0.0000 0.0000 0.0000
# 3 20.1341 38.4233 111.5478 0.0001 -0.0001 -0.0001
# 4 0.0000 0.0000 0.0001 37.2618 0.0000 -0.0001
# 5 0.0000 0.0000 -0.0001 0.0000 29.2004 0.0000
# 6 0.0000 0.0000 -0.0001 -0.0001 0.0000 36.2548
#
#
#
# Elastic Compliance Matrix: (Units=1/GPa)
#
#
# Indices 1 2 3 4 5 6 
#
# 1 0.017461 -0.003316 -0.002009 0.000000 0.000000 0.000000
# 2 -0.003316 0.014101 -0.004259 0.000000 0.000000 0.000000
# 3 -0.002009 -0.004259 0.010794 0.000000 0.000000 0.000000
# 4 0.000000 0.000000 0.000000 0.026837 0.000000 0.000000
# 5 0.000000 0.000000 0.000000 0.000000 0.034246 0.000000
# 6 0.000000 0.000000 0.000000 0.000000 0.000000 0.027583
#
#
# Mechanical properties :
#
#
# Convention : Reuss Voigt Hill
#
# Bulk Modulus (GPa) = 43.12521 46.86383 44.99452
# Shear Modulus (GPa) = 31.66149 32.74373 32.20261
#
# Velocity S-wave (km/s) = 3.85491 3.92024 3.88771
# Velocity P-wave (km/s) = 6.32887 6.51817 6.42422
#
# Compressibility (1/GPa) = 0.02318829
#
# Stress axis : x y z
#
# Youngs Moduli (GPa) = 57.27064 70.91459 92.64032
#
# Poissons Ratio (x) = 0.23516 0.18615
# Poissons Ratio (y) = 0.18991 0.39454
# Poissons Ratio (z) = 0.11508 0.30201
#
# Static dielectric constant tensor:
#      x y z
#    x 3.704740 0.000000 0.000000 
#    y 0.000000 4.099550 0.000000 
#    z 0.000000 0.000000 3.703780 
# 
# 
# High freq. dielectric constant tensor:
#      x y z
#    x 1.827840 0.000000 0.000000 
#    y 0.000000 1.848510 0.000000 
#    z 0.000000 0.000000 1.825710 
# 
# From -- ./inp_files/6286.got.cif
#   From: 2010.03.12/outbox.cif.g09.slc.cpg/sg45_4_cif.got.tgz:6286.got - 2010.04.14 02:50:11.
