data_PCOD8190810
_publ_section_title
;
Structure prediction by ZEFSAII (Michael W. Deem and Ramdas Pophale) SiO2 
 PCOD8190810
Probable space group: I B A 2
;
_chemical_formula_sum "Si O2"
_cell_formula_units_Z 36
_cell_length_a 5.089332
_cell_length_b 12.543411
_cell_length_c 25.241209
_cell_angle_alpha 90.000000
_cell_angle_beta 90.000000
_cell_angle_gamma 90.000000
_cell_volume 1611.337774
_symmetry_space_group_name_H-M "I B A 2"
_symmetry_group_IT_number 45
_symmetry_cell_setting 'orthorhombic'
loop_
_space_group_symop_operation_xyz
x,y,z
-x,-y,z
-x,y,1/2+z
x,-y,1/2+z
1/2+x,1/2+y,1/2+z
1/2-x,1/2-y,1/2+z
1/2-x,1/2+y,z
1/2+x,1/2-y,z
loop_
_atom_site_type_symbol
_atom_site_label
_atom_site_fract_x
_atom_site_fract_y
_atom_site_fract_z
Si Si1 0.000000 0.500000 0.331280
Si Si2 0.000000 0.000000 0.066710
Si Si3 0.744511 0.937451 0.229593
Si Si4 0.000000 0.500000 0.499625
Si Si5 0.722043 0.309898 0.134363
Si Si6 0.872537 0.674386 0.414648
O O1 0.795284 0.433907 0.293545
O O2 0.136780 0.408390 0.365678
O O3 0.869386 0.913176 0.103908
O O4 0.754975 0.042048 0.031617
O O5 0.774648 0.825314 0.198792
O O6 0.500000 0.000000 0.203052
O O7 0.000000 0.000000 0.214434
O O8 0.099406 0.397603 0.466722
O O9 0.518997 0.217502 0.117776
O O10 0.101640 0.761651 0.412681
#
# Coordination Sequence:
#
# PCOD8190810 Si02
#       6
#     4   4   8   4   8   8
#     4   9  26  41  70  96 140 175 222 265 338 392
#     4  12  26  46  70  94 138 174 224 284 338 398
#     4  10  22  42  65  91 140 175 220 267 323 394
#     4  11  26  45  70  96 130 179 214 287 348 392
#     4  12  26  42  68 101 133 178 228 274 330 397
#     4  11  25  44  69 100 132 169 225 279 334 404
#
# _framework density 22.341681999999999
#
# number of rings (size 3 to 8) (size 9 to 14) (size 15 to 20)
#    0.667    0.444    1.111    4.000    4.667    8.889 
#    0.000    0.000    0.000    0.000    0.000    0.000 
#    0.000    0.000    0.000    0.000    0.000    0.000 
#
# Total GULP energy -222990.424711 kJ/mol
# GULP energy per Si atom -12388.356928 kJ/mol
# Density = 2.229083 g / cm^3
# Si number density = 22.341682 Si / 1000 Ang^3
#
#
#
# Elastic Constant Matrix: (Units=GPa)
#
#
# Indices 1 2 3 4 5 6 
#
# 1 119.9656 7.0970 24.8239 0.0000 0.0000 0.0000
# 2 7.0970 78.6064 37.8777 0.0000 0.0000 0.0000
# 3 24.8239 37.8777 112.0509 0.0000 0.0000 0.0000
# 4 0.0000 0.0000 0.0000 -1.3963 0.0000 0.0000
# 5 0.0000 0.0000 0.0000 0.0000 36.7953 0.0000
# 6 0.0000 0.0000 0.0000 0.0000 0.0000 42.4892
#
#
#
# Elastic Compliance Matrix: (Units=1/GPa)
#
#
# Indices 1 2 3 4 5 6 
#
# 1 0.008738 0.000172 -0.001994 0.000000 0.000000 0.000000
# 2 0.000172 0.015200 -0.005176 0.000000 0.000000 0.000000
# 3 -0.001994 -0.005176 0.011116 0.000000 0.000000 0.000000
# 4 0.000000 0.000000 0.000000 -0.716192 0.000000 0.000000
# 5 0.000000 0.000000 0.000000 0.000000 0.027177 0.000000
# 6 0.000000 0.000000 0.000000 0.000000 0.000000 0.023535
#
#
# Mechanical properties :
#
#
# Convention : Reuss Voigt Hill
#
# Bulk Modulus (GPa) = 47.48861 50.02446 48.75654
# Shear Modulus (GPa) = -8.20468 31.63258 11.71395
#
# Velocity S-wave (km/s) = -1.91842 3.76687 2.29226
# Velocity P-wave (km/s) = 4.04903 6.43104 5.37368
#
# Compressibility (1/GPa) = 0.02105768
#
# Stress axis : x y z
#
# Youngs Moduli (GPa) = 114.44060 65.78751 89.95953
#
# Poissons Ratio (x) = -0.01131 0.17938
# Poissons Ratio (y) = -0.01967 0.46567
# Poissons Ratio (z) = 0.22819 0.34055
#
# Static dielectric constant tensor:
#      x y z
#    x 4.271380 0.000000 0.000000 
#    y 0.000000 3.804720 0.000000 
#    z 0.000000 0.000000 4.254470 
# 
# 
# High freq. dielectric constant tensor:
#      x y z
#    x 1.896920 0.000000 0.000000 
#    y 0.000000 1.870530 0.000000 
#    z 0.000000 0.000000 1.885470 
# 
# From -- ./inp_files/9398.got.cif
#   From: 2010.03.12/outbox.cif.g09.slc.cpg/sg45_5_cif.got.tgz:9398.got - 2010.04.14 02:50:11.
