data_PCOD8190017
_publ_section_title
;
Structure prediction by ZEFSAII (Michael W. Deem and Ramdas Pophale) SiO2 
 PCOD8190017
Probable space group: I M M 2
;
_chemical_formula_sum "Si O2"
_cell_formula_units_Z 48
_cell_length_a 8.920290
_cell_length_b 16.611903
_cell_length_c 17.117405
_cell_angle_alpha 90.000000
_cell_angle_beta 90.000000
_cell_angle_gamma 90.000000
_cell_volume 2536.508292
_symmetry_space_group_name_H-M "I M M 2"
_symmetry_group_IT_number 44
_symmetry_cell_setting 'orthorhombic'
loop_
_space_group_symop_operation_xyz
x,y,z
-x,-y,z
-x,y,z
x,-y,z
1/2+x,1/2+y,1/2+z
1/2-x,1/2-y,1/2+z
1/2-x,1/2+y,1/2+z
1/2+x,1/2-y,1/2+z
loop_
_atom_site_type_symbol
_atom_site_label
_atom_site_fract_x
_atom_site_fract_y
_atom_site_fract_z
Si Si1 0.176153 0.323059 0.039690
Si Si2 0.323246 0.500000 0.306242
Si Si3 0.176715 0.140792 0.070202
Si Si4 0.326209 0.354904 0.195676
Si Si5 0.821573 0.409182 0.885658
Si Si6 0.677794 0.000000 0.973398
Si Si7 0.324127 0.173123 0.227817
O O1 0.220854 0.229396 0.040020
O O2 0.242253 0.369320 0.114198
O O3 0.000000 0.334258 0.043647
O O4 0.242561 0.362605 0.961116
O O5 0.500000 0.500000 0.325991
O O6 0.275171 0.421294 0.257829
O O7 0.227723 0.500000 0.384205
O O8 0.234989 0.129456 0.158331
O O9 0.000000 0.125137 0.067546
O O10 0.258506 0.079137 0.013995
O O11 0.500000 0.363626 0.176922
O O12 0.287123 0.267789 0.231215
O O13 0.759890 0.500000 0.886292
O O14 0.763833 0.364752 0.808058
O O15 0.000000 0.407827 0.887127
O O16 0.500000 0.000000 0.979465
O O17 0.500000 0.157194 0.215098
#
# Coordination Sequence:
#
# PCOD8190017 Si02
#       7
#     8   4   8   8   8   4   8
#     4   9  19  35  58  83 111 149 190 230 277 332
#     4  10  22  38  58  83 112 151 190 231 286 341
#     4  10  21  38  59  82 112 147 185 230 285 341
#     4   9  19  35  56  80 110 147 186 230 284 338
#     4   9  18  31  52  83 112 144 186 228 271 323
#     4  12  26  40  58  85 112 143 188 237 286 339
#     4   9  18  34  57  81 109 146 189 233 277 332
#
# _framework density 18.923651
#
# number of rings (size 3 to 8) (size 9 to 14) (size 15 to 20)
#    0.000    2.500    0.000    1.250    4.667    1.333 
#    0.000    0.833    0.000    1.000    0.000    0.000 
#    0.000    0.000    0.000    0.000    0.000    0.000 
#
# Total GULP energy -297656.560076 kJ/mol
# GULP energy per Si atom -12402.356670 kJ/mol
# Density = 1.888058 g / cm^3
# Si number density = 18.923651 Si / 1000 Ang^3
#
#
#
# Elastic Constant Matrix: (Units=GPa)
#
#
# Indices 1 2 3 4 5 6 
#
# 1 53.1608 38.9119 49.2401 0.0000 0.0000 0.0000
# 2 38.9119 115.5358 96.1147 0.0000 0.0000 0.0000
# 3 49.2401 96.1147 189.2852 0.0000 0.0000 0.0000
# 4 0.0000 0.0000 0.0000 37.1366 0.0000 0.0000
# 5 0.0000 0.0000 0.0000 0.0000 34.0427 0.0000
# 6 0.0000 0.0000 0.0000 0.0000 0.0000 20.1664
#
#
#
# Elastic Compliance Matrix: (Units=1/GPa)
#
#
# Indices 1 2 3 4 5 6 
#
# 1 0.026700 -0.005565 -0.004120 0.000000 0.000000 0.000000
# 2 -0.005565 0.016146 -0.006751 0.000000 0.000000 0.000000
# 3 -0.004120 -0.006751 0.009783 0.000000 0.000000 0.000000
# 4 0.000000 0.000000 0.000000 0.026928 0.000000 0.000000
# 5 0.000000 0.000000 0.000000 0.000000 0.029375 0.000000
# 6 0.000000 0.000000 0.000000 0.000000 0.000000 0.049588
#
#
# Mechanical properties :
#
#
# Convention : Reuss Voigt Hill
#
# Bulk Modulus (GPa) = 50.61473 80.72391 65.66932
# Shear Modulus (GPa) = 25.25564 29.85015 27.55289
#
# Velocity S-wave (km/s) = 3.65719 3.97596 3.81990
# Velocity P-wave (km/s) = 6.68119 7.98924 7.36431
#
# Compressibility (1/GPa) = 0.01975709
#
# Stress axis : x y z
#
# Youngs Moduli (GPa) = 37.45263 61.93669 102.22261
#
# Poissons Ratio (x) = 0.34469 0.42114
# Poissons Ratio (y) = 0.20843 0.69007
# Poissons Ratio (z) = 0.15430 0.41811
#
# Static dielectric constant tensor:
#      x y z
#    x 3.240180 0.000000 0.000000 
#    y 0.000000 3.689090 0.000000 
#    z 0.000000 0.000000 3.675690 
# 
# 
# High freq. dielectric constant tensor:
#      x y z
#    x 1.711410 0.000000 0.000000 
#    y 0.000000 1.744050 0.000000 
#    z 0.000000 0.000000 1.746430 
# 
# From -- ./inp_files/16182.got.cif
#   From: 2010.03.12/outbox.cif.g09.slc.cpg/sg44_9_cif.got.tgz:16182.got - 2010.04.14 02:36:11.
