data_PCOD8190438
_publ_section_title
;
Structure prediction by ZEFSAII (Michael W. Deem and Ramdas Pophale) SiO2 
 PCOD8190438
Probable space group: I B A 2
;
_chemical_formula_sum "Si O2"
_cell_formula_units_Z 64
_cell_length_a 19.644518
_cell_length_b 20.490548
_cell_length_c 8.927049
_cell_angle_alpha 90.000000
_cell_angle_beta 90.000000
_cell_angle_gamma 90.000000
_cell_volume 3593.377708
_symmetry_space_group_name_H-M "I B A 2"
_symmetry_group_IT_number 45
_symmetry_cell_setting 'orthorhombic'
loop_
_space_group_symop_operation_xyz
x,y,z
-x,-y,z
-x,y,1/2+z
x,-y,1/2+z
1/2+x,1/2+y,1/2+z
1/2-x,1/2-y,1/2+z
1/2-x,1/2+y,z
1/2+x,1/2-y,z
loop_
_atom_site_type_symbol
_atom_site_label
_atom_site_fract_x
_atom_site_fract_y
_atom_site_fract_z
Si Si1 0.206918 0.685450 0.992080
Si Si2 0.573700 0.616859 0.356298
Si Si3 0.718023 0.803670 0.341905
Si Si4 0.934316 0.118456 0.001861
Si Si5 0.292946 0.561542 0.000467
Si Si6 0.199346 0.069588 0.355228
Si Si7 0.072213 0.732931 0.358497
Si Si8 0.562818 0.230926 0.510953
O O1 0.245431 0.738829 0.895691
O O2 0.236028 0.614277 0.953495
O O3 0.218892 0.702617 0.164098
O O4 0.126428 0.687729 0.953499
O O5 0.505319 0.591741 0.436682
O O6 0.568826 0.606222 0.178805
O O7 0.635868 0.575886 0.420401
O O8 0.585526 0.691960 0.401187
O O9 0.755516 0.868023 0.400488
O O10 0.640301 0.806708 0.401796
O O11 0.925049 0.194506 0.959864
O O12 0.876274 0.078249 0.918047
O O13 0.266684 0.492360 0.937541
O O14 0.303191 0.558972 0.177978
O O15 0.054234 0.726242 0.186487
O O16 0.007600 0.703158 0.444949
#
# Coordination Sequence:
#
# PCOD8190438 Si02
#       8
#     8   8   8   8   8   8   8   8
#     4  10  20  35  56  81 107 138 177 221 266 315
#     4  10  19  33  53  77 109 143 179 218 262 315
#     4  10  20  35  56  81 107 138 177 221 266 315
#     4  10  19  33  53  77 109 143 179 218 262 315
#     4  11  23  37  54  77 108 144 182 221 267 318
#     4  11  23  37  54  77 108 144 182 221 267 318
#     4   9  18  32  52  80 109 136 170 216 263 313
#     4   9  18  32  52  80 109 136 170 216 263 313
#
# _framework density 17.810541000000001
#
# number of rings (size 3 to 8) (size 9 to 14) (size 15 to 20)
#    0.000    2.000    2.500    1.500    0.000    3.500 
#    0.000    2.500    0.000    0.750    0.000    5.250 
#    0.000    0.000    0.000    0.000    0.000    0.000 
#
# Total GULP energy -396854.881320 kJ/mol
# GULP energy per Si atom -12401.715041 kJ/mol
# Density = 1.777000 g / cm^3
# Si number density = 17.810541 Si / 1000 Ang^3
#
#
#
# Elastic Constant Matrix: (Units=GPa)
#
#
# Indices 1 2 3 4 5 6 
#
# 1 67.6008 10.8228 12.6211 0.0000 0.0000 0.0000
# 2 10.8228 51.4670 18.3308 0.0000 0.0000 0.0000
# 3 12.6211 18.3308 47.9600 0.0000 0.0000 0.0000
# 4 0.0000 0.0000 0.0000 23.9824 0.0000 0.0000
# 5 0.0000 0.0000 0.0000 0.0000 29.3606 0.0000
# 6 0.0000 0.0000 0.0000 0.0000 0.0000 24.6083
#
#
#
# Elastic Compliance Matrix: (Units=1/GPa)
#
#
# Indices 1 2 3 4 5 6 
#
# 1 0.015755 -0.002126 -0.003334 0.000000 0.000000 0.000000
# 2 -0.002126 0.022779 -0.008147 0.000000 0.000000 0.000000
# 3 -0.003334 -0.008147 0.024842 0.000000 0.000000 0.000000
# 4 0.000000 0.000000 0.000000 0.041697 0.000000 0.000000
# 5 0.000000 0.000000 0.000000 0.000000 0.034059 0.000000
# 6 0.000000 0.000000 0.000000 0.000000 0.000000 0.040637
#
#
# Mechanical properties :
#
#
# Convention : Reuss Voigt Hill
#
# Bulk Modulus (GPa) = 27.65237 27.84191 27.74714
# Shear Modulus (GPa) = 22.82730 23.94048 23.38389
#
# Velocity S-wave (km/s) = 3.58393 3.67028 3.62736
# Velocity P-wave (km/s) = 5.71713 5.79892 5.75817
#
# Compressibility (1/GPa) = 0.03616327
#
# Stress axis : x y z
#
# Youngs Moduli (GPa) = 63.47006 43.90089 40.25470
#
# Poissons Ratio (x) = 0.09332 0.13420
# Poissons Ratio (y) = 0.13492 0.32795
# Poissons Ratio (z) = 0.21159 0.35765
#
# Static dielectric constant tensor:
#      x y z
#    x 3.558030 0.000000 0.000000 
#    y 0.000000 3.248650 0.000000 
#    z 0.000000 0.000000 3.292640 
# 
# 
# High freq. dielectric constant tensor:
#      x y z
#    x 1.693790 0.000000 0.000000 
#    y 0.000000 1.665740 0.000000 
#    z 0.000000 0.000000 1.694520 
# 
# From -- ./inp_files/2203.got.cif
#   From: 2010.03.12/outbox.cif.g09.slc.cpg/sg45_2_cif.got.tgz:2203.got - 2010.04.14 02:50:11.
