data_PCOD8190828
_publ_section_title
;
Structure prediction by ZEFSAII (Michael W. Deem and Ramdas Pophale) SiO2 
 PCOD8190828
Probable space group: I B A 2
;
_chemical_formula_sum "Si O2"
_cell_formula_units_Z 64
_cell_length_a 11.498363
_cell_length_b 14.554631
_cell_length_c 17.468339
_cell_angle_alpha 90.000000
_cell_angle_beta 90.000000
_cell_angle_gamma 90.000000
_cell_volume 2923.403926
_symmetry_space_group_name_H-M "I B A 2"
_symmetry_group_IT_number 45
_symmetry_cell_setting 'orthorhombic'
loop_
_space_group_symop_operation_xyz
x,y,z
-x,-y,z
-x,y,1/2+z
x,-y,1/2+z
1/2+x,1/2+y,1/2+z
1/2-x,1/2-y,1/2+z
1/2-x,1/2+y,z
1/2+x,1/2-y,z
loop_
_atom_site_type_symbol
_atom_site_label
_atom_site_fract_x
_atom_site_fract_y
_atom_site_fract_z
Si Si1 0.874535 0.476970 0.667180
Si Si2 0.469374 0.394448 0.917314
Si Si3 0.767479 0.198028 0.173795
Si Si4 0.625465 0.976970 0.342404
Si Si5 0.726021 0.628681 0.591024
Si Si6 0.767479 0.801972 0.335789
Si Si7 0.530626 0.605552 0.092270
Si Si8 0.226021 0.128681 0.918560
O O1 0.841939 0.369328 0.657004
O O2 0.886652 0.500000 0.754792
O O3 0.770984 0.540481 0.636618
O O4 0.000000 0.500000 0.627462
O O5 0.500000 0.500000 0.907141
O O6 0.383127 0.363288 0.848832
O O7 0.592046 0.344813 0.902754
O O8 0.422328 0.376560 0.004792
O O9 0.789836 0.277136 0.111648
O O10 0.750000 0.250000 0.254792
O O11 0.883127 0.136712 0.160752
O O12 0.658061 0.869328 0.352580
O O13 0.500000 0.000000 0.382122
O O14 0.729016 0.040481 0.372965
O O15 0.592046 0.655187 0.606830
O O16 0.750363 0.600948 0.504792
O O17 0.789836 0.722864 0.397936
O O18 0.500000 0.500000 0.102443
#
# Coordination Sequence:
#
# PCOD8190828 Si02
#       8
#     8   8   8   8   8   8   8   8
#     4  11  25  46  67  98 144 185 228 284 350 426
#     4  10  22  43  70  98 138 183 233 292 346 416
#     4  12  25  43  70 103 139 183 230 289 349 424
#     4  11  25  46  67  98 144 185 228 284 350 426
#     4  11  25  44  69 103 137 183 237 289 355 422
#     4  12  25  43  70 103 139 183 230 289 349 424
#     4  10  22  43  70  98 138 183 233 292 346 416
#     4  11  25  44  69 103 137 183 237 289 355 422
#
# _framework density 21.892287
#
# number of rings (size 3 to 8) (size 9 to 14) (size 15 to 20)
#    0.000    1.000    5.000    0.750    3.500    2.500 
#    0.000    2.500    0.000    0.000    0.000    0.000 
#    0.000    0.000    0.000    0.000    0.000    0.000 
#
# Total GULP energy -396496.619992 kJ/mol
# GULP energy per Si atom -12390.519375 kJ/mol
# Density = 2.184246 g / cm^3
# Si number density = 21.892287 Si / 1000 Ang^3
#
#
#
# Elastic Constant Matrix: (Units=GPa)
#
#
# Indices 1 2 3 4 5 6 
#
# 1 104.0707 46.9123 67.0164 0.0000 0.0000 0.0000
# 2 46.9123 139.4195 37.7562 0.0000 0.0000 0.0000
# 3 67.0164 37.7562 84.0632 0.0000 0.0000 0.0000
# 4 0.0000 0.0000 0.0000 17.4899 0.0000 0.0000
# 5 0.0000 0.0000 0.0000 0.0000 36.4367 0.0000
# 6 0.0000 0.0000 0.0000 0.0000 0.0000 35.8535
#
#
#
# Elastic Compliance Matrix: (Units=1/GPa)
#
#
# Indices 1 2 3 4 5 6 
#
# 1 0.020688 -0.002840 -0.015217 0.000000 0.000000 0.000000
# 2 -0.002840 0.008556 -0.001578 0.000000 0.000000 0.000000
# 3 -0.015217 -0.001578 0.024736 0.000000 0.000000 0.000000
# 4 0.000000 0.000000 0.000000 0.057176 0.000000 0.000000
# 5 0.000000 0.000000 0.000000 0.000000 0.027445 0.000000
# 6 0.000000 0.000000 0.000000 0.000000 0.000000 0.027891
#
#
# Mechanical properties :
#
#
# Convention : Reuss Voigt Hill
#
# Bulk Modulus (GPa) = 67.98920 70.10258 69.04589
# Shear Modulus (GPa) = 23.73406 29.68058 26.70732
#
# Velocity S-wave (km/s) = 3.29618 3.68605 3.49656
# Velocity P-wave (km/s) = 6.75352 7.08570 6.92160
#
# Compressibility (1/GPa) = 0.01470822
#
# Stress axis : x y z
#
# Youngs Moduli (GPa) = 48.33612 116.88036 40.42640
#
# Poissons Ratio (x) = 0.33197 0.61519
# Poissons Ratio (y) = 0.13729 0.06381
# Poissons Ratio (z) = 0.73555 0.18449
#
# Static dielectric constant tensor:
#      x y z
#    x 4.886490 0.000000 0.000000 
#    y 0.000000 4.081910 0.000000 
#    z 0.000000 0.000000 3.922320 
# 
# 
# High freq. dielectric constant tensor:
#      x y z
#    x 1.862990 0.000000 0.000000 
#    y 0.000000 1.877290 0.000000 
#    z 0.000000 0.000000 1.847590 
# 
# From -- ./inp_files/8002.got.cif
#   From: 2010.03.12/outbox.cif.g09.slc.cpg/sg45_5_cif.got.tgz:8002.got - 2010.04.14 02:50:11.
