data_PCOD8190880
_publ_section_title
;
Structure prediction by ZEFSAII (Michael W. Deem and Ramdas Pophale) SiO2 
 PCOD8190880
Probable space group: I B A 2
;
_chemical_formula_sum "Si O2"
_cell_formula_units_Z 40
_cell_length_a 13.585544
_cell_length_b 11.664137
_cell_length_c 10.353403
_cell_angle_alpha 90.000000
_cell_angle_beta 90.000000
_cell_angle_gamma 90.000000
_cell_volume 1640.637992
_symmetry_space_group_name_H-M "I B A 2"
_symmetry_group_IT_number 45
_symmetry_cell_setting 'orthorhombic'
loop_
_space_group_symop_operation_xyz
x,y,z
-x,-y,z
-x,y,1/2+z
x,-y,1/2+z
1/2+x,1/2+y,1/2+z
1/2-x,1/2-y,1/2+z
1/2-x,1/2+y,z
1/2+x,1/2-y,z
loop_
_atom_site_type_symbol
_atom_site_label
_atom_site_fract_x
_atom_site_fract_y
_atom_site_fract_z
Si Si1 0.044223 0.791441 0.009260
Si Si2 0.601797 0.060703 0.410460
Si Si3 0.736864 0.185884 0.231572
Si Si4 0.945303 0.116858 0.276302
Si Si5 0.750269 0.139931 0.952097
O O1 0.004352 0.823589 0.150879
O O2 0.131987 0.879406 0.965685
O O3 0.083805 0.660143 0.016786
O O4 0.958617 0.801562 0.902055
O O5 0.638594 0.124288 0.281132
O O6 0.500000 0.000000 0.375999
O O7 0.686975 0.975980 0.460397
O O8 0.829509 0.098676 0.248471
O O9 0.720780 0.215454 0.080099
O O10 0.767399 0.296975 0.315742
O O11 0.000000 0.000000 0.304794
#
# Coordination Sequence:
#
# PCOD8190880 Si02
#       5
#     8   8   8   8   8
#     4  10  24  42  68 101 129 172 223 269 334 402
#     4  11  24  41  66  99 135 172 219 280 338 387
#     4  10  24  43  66  95 129 175 223 269 334 403
#     4  11  22  42  68  95 131 172 218 272 329 399
#     4  10  23  44  65  94 134 173 217 274 331 393
#
# _framework density 24.380759000000001
#
# number of rings (size 3 to 8) (size 9 to 14) (size 15 to 20)
#    0.000    1.600    0.000    3.000    0.000   15.200 
#    0.000    4.000    0.000    0.000    0.000    0.000 
#    0.000    0.000    0.000    0.000    0.000    0.000 
#
# Total GULP energy -247892.047419 kJ/mol
# GULP energy per Si atom -12394.602371 kJ/mol
# Density = 2.432527 g / cm^3
# Si number density = 24.380759 Si / 1000 Ang^3
#
#
#
# Elastic Constant Matrix: (Units=GPa)
#
#
# Indices 1 2 3 4 5 6 
#
# 1 69.7406 24.3921 1.9266 0.0000 0.0000 0.0000
# 2 24.3921 113.9934 32.3775 0.0000 0.0000 0.0000
# 3 1.9266 32.3775 165.6354 0.0000 0.0000 0.0000
# 4 0.0000 0.0000 0.0000 24.7125 0.0000 0.0000
# 5 0.0000 0.0000 0.0000 0.0000 29.8642 0.0000
# 6 0.0000 0.0000 0.0000 0.0000 0.0000 34.6560
#
#
#
# Elastic Compliance Matrix: (Units=1/GPa)
#
#
# Indices 1 2 3 4 5 6 
#
# 1 0.015537 -0.003466 0.000497 0.000000 0.000000 0.000000
# 2 -0.003466 0.010061 -0.001926 0.000000 0.000000 0.000000
# 3 0.000497 -0.001926 0.006408 0.000000 0.000000 0.000000
# 4 0.000000 0.000000 0.000000 0.040465 0.000000 0.000000
# 5 0.000000 0.000000 0.000000 0.000000 0.033485 0.000000
# 6 0.000000 0.000000 0.000000 0.000000 0.000000 0.028855
#
#
# Mechanical properties :
#
#
# Convention : Reuss Voigt Hill
#
# Bulk Modulus (GPa) = 45.01292 51.86241 48.43766
# Shear Modulus (GPa) = 32.89302 37.22476 35.05889
#
# Velocity S-wave (km/s) = 3.67705 3.91168 3.79618
# Velocity P-wave (km/s) = 6.04402 6.45908 6.25499
#
# Compressibility (1/GPa) = 0.02221584
#
# Stress axis : x y z
#
# Youngs Moduli (GPa) = 64.36132 99.39191 156.05160
#
# Poissons Ratio (x) = 0.34447 -0.07752
# Poissons Ratio (y) = 0.22306 0.30062
# Poissons Ratio (z) = -0.03197 0.19147
#
# Static dielectric constant tensor:
#      x y z
#    x 4.513820 0.000000 0.000000 
#    y 0.000000 4.116690 0.000000 
#    z 0.000000 0.000000 4.455520 
# 
# 
# High freq. dielectric constant tensor:
#      x y z
#    x 1.978470 0.000000 0.000000 
#    y 0.000000 1.943310 0.000000 
#    z 0.000000 0.000000 1.973910 
# 
# From -- ./inp_files/4032.got.cif
#   From: 2010.03.12/outbox.cif.g09.slc.cpg/sg45_3_cif.got.tgz:4032.got - 2010.04.14 02:50:11.
