data_PCOD8190802
_publ_section_title
;
Structure prediction by ZEFSAII (Michael W. Deem and Ramdas Pophale) SiO2 
 PCOD8190802
Probable space group: I B A 2
;
_chemical_formula_sum "Si O2"
_cell_formula_units_Z 60
_cell_length_a 17.789915
_cell_length_b 11.572399
_cell_length_c 12.229143
_cell_angle_alpha 90.000000
_cell_angle_beta 90.000000
_cell_angle_gamma 90.000000
_cell_volume 2517.638061
_symmetry_space_group_name_H-M "I B A 2"
_symmetry_group_IT_number 45
_symmetry_cell_setting 'orthorhombic'
loop_
_space_group_symop_operation_xyz
x,y,z
-x,-y,z
-x,y,1/2+z
x,-y,1/2+z
1/2+x,1/2+y,1/2+z
1/2-x,1/2-y,1/2+z
1/2-x,1/2+y,z
1/2+x,1/2-y,z
loop_
_atom_site_type_symbol
_atom_site_label
_atom_site_fract_x
_atom_site_fract_y
_atom_site_fract_z
Si Si1 0.388057 0.969110 0.616480
Si Si2 0.951126 0.778759 0.565125
Si Si3 0.572615 0.161743 0.946459
Si Si4 0.841437 0.124979 0.886628
Si Si5 0.873679 0.952140 0.711504
Si Si6 0.727881 0.453340 0.040470
Si Si7 0.713131 0.280677 0.851527
Si Si8 0.500000 0.000000 0.294160
O O1 0.428172 0.845936 0.608300
O O2 0.298586 0.954921 0.622950
O O3 0.424379 0.026038 0.723995
O O4 0.403153 0.049799 0.513628
O O5 0.898519 0.809684 0.463987
O O6 0.943420 0.875710 0.662421
O O7 0.037178 0.765863 0.520844
O O8 0.640338 0.201888 0.869974
O O9 0.507679 0.116393 0.865285
O O10 0.789330 0.213059 0.815918
O O11 0.892349 0.036334 0.813749
O O12 0.776883 0.060296 0.956807
O O13 0.806616 0.866843 0.751925
O O14 0.845301 0.037350 0.616673
O O15 0.729053 0.337320 0.969833
#
# Coordination Sequence:
#
# PCOD8190802 Si02
#       8
#     8   8   8   8   8   8   8   4
#     4  12  22  40  70 101 142 175 225 298 356 434
#     4  11  22  46  65  96 145 180 222 294 359 418
#     4  12  25  44  66 105 141 183 234 295 368 424
#     4  10  22  41  67  98 134 182 235 288 353 424
#     4  10  25  42  68 101 132 182 240 284 349 430
#     4  10  23  42  63 100 139 174 229 292 356 420
#     4  11  23  42  69 101 138 185 231 299 362 424
#     4  12  24  38  64 106 140 176 232 286 360 426
#
# _framework density 23.831862000000001
#
# number of rings (size 3 to 8) (size 9 to 14) (size 15 to 20)
#    0.000    1.067    5.333    0.800    3.733    1.067 
#    2.400    7.333    0.000    0.000    0.000    0.000 
#    0.000    0.000    0.000    0.000    0.000    0.000 
#
# Total GULP energy -371821.912856 kJ/mol
# GULP energy per Si atom -12394.063762 kJ/mol
# Density = 2.377762 g / cm^3
# Si number density = 23.831862 Si / 1000 Ang^3
#
#
#
# Elastic Constant Matrix: (Units=GPa)
#
#
# Indices 1 2 3 4 5 6 
#
# 1 55.8622 16.8698 7.3875 0.0000 0.0000 0.0000
# 2 16.8698 76.8885 16.7049 0.0000 0.0000 0.0000
# 3 7.3875 16.7049 71.5146 0.0000 0.0000 0.0000
# 4 0.0000 0.0000 0.0000 35.9139 0.0000 0.0000
# 5 0.0000 0.0000 0.0000 0.0000 14.4491 0.0000
# 6 0.0000 0.0000 0.0000 0.0000 0.0000 29.6892
#
#
#
# Elastic Compliance Matrix: (Units=1/GPa)
#
#
# Indices 1 2 3 4 5 6 
#
# 1 0.019247 -0.003994 -0.001055 0.000000 0.000000 0.000000
# 2 -0.003994 0.014530 -0.002981 0.000000 0.000000 0.000000
# 3 -0.001055 -0.002981 0.014789 0.000000 0.000000 0.000000
# 4 0.000000 0.000000 0.000000 0.027844 0.000000 0.000000
# 5 0.000000 0.000000 0.000000 0.000000 0.069208 0.000000
# 6 0.000000 0.000000 0.000000 0.000000 0.000000 0.033682
#
#
# Mechanical properties :
#
#
# Convention : Reuss Voigt Hill
#
# Bulk Modulus (GPa) = 30.76501 31.79886 31.28194
# Shear Modulus (GPa) = 24.24881 26.89732 25.57306
#
# Velocity S-wave (km/s) = 3.19328 3.36315 3.27932
# Velocity P-wave (km/s) = 5.15105 5.33414 5.24339
#
# Compressibility (1/GPa) = 0.03250446
#
# Stress axis : x y z
#
# Youngs Moduli (GPa) = 51.95671 68.82395 67.61959
#
# Poissons Ratio (x) = 0.27485 0.07136
# Poissons Ratio (y) = 0.20749 0.20160
# Poissons Ratio (z) = 0.05483 0.20520
#
# Static dielectric constant tensor:
#      x y z
#    x 4.042580 0.000000 0.000000 
#    y 0.000000 4.380910 0.000000 
#    z 0.000000 0.000000 4.357950 
# 
# 
# High freq. dielectric constant tensor:
#      x y z
#    x 1.922740 0.000000 0.000000 
#    y 0.000000 1.947010 0.000000 
#    z 0.000000 0.000000 1.947900 
# 
# From -- ./inp_files/4674.got.cif
#   From: 2010.03.12/outbox.cif.g09.slc.cpg/sg45_3_cif.got.tgz:4674.got - 2010.04.14 02:50:11.
