data_PCOD8190757
_publ_section_title
;
Structure prediction by ZEFSAII (Michael W. Deem and Ramdas Pophale) SiO2 
 PCOD8190757
Probable space group: I B A 2
;
_chemical_formula_sum "Si O2"
_cell_formula_units_Z 56
_cell_length_a 14.136984
_cell_length_b 8.239724
_cell_length_c 20.260465
_cell_angle_alpha 90.000000
_cell_angle_beta 90.000000
_cell_angle_gamma 90.000000
_cell_volume 2360.037153
_symmetry_space_group_name_H-M "I B A 2"
_symmetry_group_IT_number 45
_symmetry_cell_setting 'orthorhombic'
loop_
_space_group_symop_operation_xyz
x,y,z
-x,-y,z
-x,y,1/2+z
x,-y,1/2+z
1/2+x,1/2+y,1/2+z
1/2-x,1/2-y,1/2+z
1/2-x,1/2+y,z
1/2+x,1/2-y,z
loop_
_atom_site_type_symbol
_atom_site_label
_atom_site_fract_x
_atom_site_fract_y
_atom_site_fract_z
Si Si1 0.788474 0.543586 0.044370
Si Si2 0.430363 0.295850 0.310247
Si Si3 0.365041 0.800334 0.321299
Si Si4 0.349409 0.250268 0.968214
Si Si5 0.167423 0.835078 0.630504
Si Si6 0.500000 0.500000 0.425938
Si Si7 0.735383 0.912985 0.261472
Si Si8 0.000000 0.000000 0.197971
O O1 0.837356 0.652590 0.101257
O O2 0.694499 0.459294 0.072974
O O3 0.747691 0.655448 0.985303
O O4 0.861129 0.403904 0.018259
O O5 0.523721 0.180855 0.309480
O O6 0.429302 0.400381 0.377797
O O7 0.340075 0.183670 0.306225
O O8 0.427417 0.400558 0.243317
O O9 0.338675 0.832469 0.396791
O O10 0.335220 0.615655 0.300233
O O11 0.300675 0.902659 0.269163
O O12 0.439886 0.372957 0.970392
O O13 0.250568 0.857918 0.685734
O O14 0.062242 0.877527 0.654303
#
# Coordination Sequence:
#
# PCOD8190757 Si02
#       8
#     8   8   8   8   8   4   8   4
#     4  10  23  43  69  97 132 189 245 283 341 429
#     4  10  22  38  62 105 144 171 227 284 362 433
#     4  11  23  39  65 104 133 182 225 287 364 420
#     4  10  22  43  68  96 139 181 236 290 345 420
#     4  11  23  41  68 100 137 185 237 293 353 422
#     4   9  22  41  68 102 144 179 221 300 358 422
#     4  12  23  39  68 100 138 178 224 288 361 430
#     4  11  20  39  66  98 142 175 221 294 352 422
#
# _framework density 23.728439000000002
#
# number of rings (size 3 to 8) (size 9 to 14) (size 15 to 20)
#    0.000    1.429    1.429    3.857    6.000    0.571 
#    0.000    0.000    6.286    3.429    0.000    0.000 
#    0.000    0.000    0.000    0.000    0.000    0.000 
#
# Total GULP energy -346992.806366 kJ/mol
# GULP energy per Si atom -12392.600227 kJ/mol
# Density = 2.367443 g / cm^3
# Si number density = 23.728439 Si / 1000 Ang^3
#
#
#
# Elastic Constant Matrix: (Units=GPa)
#
#
# Indices 1 2 3 4 5 6 
#
# 1 89.8712 54.2293 44.1873 0.0000 0.0000 0.0000
# 2 54.2293 131.7249 60.4507 0.0000 0.0000 0.0000
# 3 44.1873 60.4507 118.5297 0.0000 0.0000 0.0000
# 4 0.0000 0.0000 0.0000 45.5672 0.0000 0.0000
# 5 0.0000 0.0000 0.0000 0.0000 33.1557 0.0000
# 6 0.0000 0.0000 0.0000 0.0000 0.0000 51.6365
#
#
#
# Elastic Compliance Matrix: (Units=1/GPa)
#
#
# Indices 1 2 3 4 5 6 
#
# 1 0.015762 -0.004951 -0.003351 0.000000 0.000000 0.000000
# 2 -0.004951 0.011467 -0.004002 0.000000 0.000000 0.000000
# 3 -0.003351 -0.004002 0.011727 0.000000 0.000000 0.000000
# 4 0.000000 0.000000 0.000000 0.021946 0.000000 0.000000
# 5 0.000000 0.000000 0.000000 0.000000 0.030161 0.000000
# 6 0.000000 0.000000 0.000000 0.000000 0.000000 0.019366
#
#
# Mechanical properties :
#
#
# Convention : Reuss Voigt Hill
#
# Bulk Modulus (GPa) = 69.70054 73.09561 71.39808
# Shear Modulus (GPa) = 35.76033 38.15577 36.95805
#
# Velocity S-wave (km/s) = 3.88631 4.01436 3.95085
# Velocity P-wave (km/s) = 7.04101 7.23593 7.13914
#
# Compressibility (1/GPa) = 0.01434709
#
# Stress axis : x y z
#
# Youngs Moduli (GPa) = 63.44265 87.20940 85.27283
#
# Poissons Ratio (x) = 0.43180 0.28574
# Poissons Ratio (y) = 0.31412 0.34128
# Poissons Ratio (z) = 0.21259 0.34903
#
# Static dielectric constant tensor:
#      x y z
#    x 3.933160 0.000000 0.000000 
#    y 0.000000 4.644060 0.000000 
#    z 0.000000 0.000000 4.285620 
# 
# 
# High freq. dielectric constant tensor:
#      x y z
#    x 1.924610 0.000000 0.000000 
#    y 0.000000 1.952310 0.000000 
#    z 0.000000 0.000000 1.937350 
# 
# From -- ./inp_files/9195.got.cif
#   From: 2010.03.12/outbox.cif.g09.slc.cpg/sg45_5_cif.got.tgz:9195.got - 2010.04.14 02:50:11.
