data_PCOD8190063
_publ_section_title
;
Structure prediction by ZEFSAII (Michael W. Deem and Ramdas Pophale) SiO2 
 PCOD8190063
Probable space group: I M M 2
;
_chemical_formula_sum "Si O2"
_cell_formula_units_Z 64
_cell_length_a 23.312366
_cell_length_b 15.126161
_cell_length_c 9.063079
_cell_angle_alpha 90.000000
_cell_angle_beta 90.000000
_cell_angle_gamma 90.000000
_cell_volume 3195.882746
_symmetry_space_group_name_H-M "I M M 2"
_symmetry_group_IT_number 44
_symmetry_cell_setting 'orthorhombic'
loop_
_space_group_symop_operation_xyz
x,y,z
-x,-y,z
-x,y,z
x,-y,z
1/2+x,1/2+y,1/2+z
1/2-x,1/2-y,1/2+z
1/2-x,1/2+y,1/2+z
1/2+x,1/2-y,1/2+z
loop_
_atom_site_type_symbol
_atom_site_label
_atom_site_fract_x
_atom_site_fract_y
_atom_site_fract_z
Si Si1 0.332253 0.649277 0.734450
Si Si2 0.342612 0.396103 0.073826
Si Si3 0.874655 0.596662 0.076985
Si Si4 0.769975 0.667453 0.235366
Si Si5 0.131241 0.399275 0.738915
Si Si6 0.065168 0.226333 0.071776
Si Si7 0.933881 0.774402 0.728553
Si Si8 0.237846 0.595821 0.545102
O O1 0.292520 0.734750 0.708697
O O2 0.395855 0.662757 0.670741
O O3 0.297373 0.580886 0.633704
O O4 0.338312 0.614940 0.899068
O O5 0.346954 0.500000 0.114491
O O6 0.287109 0.351717 0.144677
O O7 0.398294 0.344680 0.133065
O O8 0.903441 0.500000 0.098251
O O9 0.820120 0.601194 0.184901
O O10 0.921796 0.671238 0.111237
O O11 0.852108 0.608124 0.910310
O O12 0.755843 0.661210 0.408083
O O13 0.110911 0.500000 0.700938
O O14 0.082631 0.327985 0.694931
O O15 0.187899 0.369878 0.652487
O O16 0.000000 0.206696 0.115592
O O17 0.076692 0.205551 0.900618
O O18 0.000000 0.786276 0.684708
O O19 0.220841 0.500000 0.481453
#
# Coordination Sequence:
#
# PCOD8190063 Si02
#       8
#     8   8   8   8   8   8   8   8
#     4  11  22  37  58  81 110 145 183 230 282 335
#     4  12  25  40  59  84 115 152 194 237 284 339
#     4   9  17  31  53  83 117 147 177 219 276 344
#     4  11  21  35  56  83 113 144 180 224 279 337
#     4   9  18  33  56  87 120 151 184 228 286 349
#     4   9  20  37  57  80 107 145 190 235 283 332
#     4  10  21  39  60  82 112 151 196 243 287 334
#     4  11  21  34  54  81 112 141 174 218 273 335
#
# _framework density 20.025766000000001
#
# number of rings (size 3 to 8) (size 9 to 14) (size 15 to 20)
#    0.000    1.750    0.000    5.250    0.000    4.250 
#    0.000    3.125    0.000    2.625    0.000    3.500 
#    0.000    0.000    0.000    0.000    0.000    0.000 
#
# Total GULP energy -396752.914676 kJ/mol
# GULP energy per Si atom -12398.528584 kJ/mol
# Density = 1.998019 g / cm^3
# Si number density = 20.025766 Si / 1000 Ang^3
#
#
#
# Elastic Constant Matrix: (Units=GPa)
#
#
# Indices 1 2 3 4 5 6 
#
# 1 124.4388 36.5996 47.5980 0.0000 0.0000 0.0000
# 2 36.5996 80.6703 19.8841 0.0000 0.0000 0.0000
# 3 47.5980 19.8841 92.5638 0.0000 0.0000 0.0000
# 4 0.0000 0.0000 0.0000 28.4541 0.0000 0.0000
# 5 0.0000 0.0000 0.0000 0.0000 33.5403 0.0000
# 6 0.0000 0.0000 0.0000 0.0000 0.0000 21.9255
#
#
#
# Elastic Compliance Matrix: (Units=1/GPa)
#
#
# Indices 1 2 3 4 5 6 
#
# 1 0.011006 -0.003800 -0.004843 0.000000 0.000000 0.000000
# 2 -0.003800 0.014401 -0.001140 0.000000 0.000000 0.000000
# 3 -0.004843 -0.001140 0.013539 0.000000 0.000000 0.000000
# 4 0.000000 0.000000 0.000000 0.035144 0.000000 0.000000
# 5 0.000000 0.000000 0.000000 0.000000 0.029815 0.000000
# 6 0.000000 0.000000 0.000000 0.000000 0.000000 0.045609
#
#
# Mechanical properties :
#
#
# Convention : Reuss Voigt Hill
#
# Bulk Modulus (GPa) = 51.59835 56.20403 53.90119
# Shear Modulus (GPa) = 28.48360 29.69007 29.08683
#
# Velocity S-wave (km/s) = 3.77549 3.85462 3.81526
# Velocity P-wave (km/s) = 6.69535 6.92370 6.81048
#
# Compressibility (1/GPa) = 0.01938047
#
# Stress axis : x y z
#
# Youngs Moduli (GPa) = 90.85781 69.44003 73.86220
#
# Poissons Ratio (x) = 0.26385 0.35774
# Poissons Ratio (y) = 0.34523 0.08418
# Poissons Ratio (z) = 0.44006 0.07914
#
# Static dielectric constant tensor:
#      x y z
#    x 3.527550 0.000000 0.000000 
#    y 0.000000 3.728500 0.000000 
#    z 0.000000 0.000000 3.592430 
# 
# 
# High freq. dielectric constant tensor:
#      x y z
#    x 1.769340 0.000000 0.000000 
#    y 0.000000 1.788520 0.000000 
#    z 0.000000 0.000000 1.781210 
# 
# From -- ./inp_files/9469.got.cif
#   From: 2010.03.12/outbox.cif.g09.slc.cpg/sg44_5_cif.got.tgz:9469.got - 2010.04.14 02:36:11.
