data_PCOD8190707
_publ_section_title
;
Structure prediction by ZEFSAII (Michael W. Deem and Ramdas Pophale) SiO2 
 PCOD8190707
Probable space group: I B A 2
;
_chemical_formula_sum "Si O2"
_cell_formula_units_Z 64
_cell_length_a 8.370147
_cell_length_b 30.431611
_cell_length_c 12.136074
_cell_angle_alpha 90.000000
_cell_angle_beta 90.000000
_cell_angle_gamma 90.000000
_cell_volume 3091.265059
_symmetry_space_group_name_H-M "I B A 2"
_symmetry_group_IT_number 45
_symmetry_cell_setting 'orthorhombic'
loop_
_space_group_symop_operation_xyz
x,y,z
-x,-y,z
-x,y,1/2+z
x,-y,1/2+z
1/2+x,1/2+y,1/2+z
1/2-x,1/2-y,1/2+z
1/2-x,1/2+y,z
1/2+x,1/2-y,z
loop_
_atom_site_type_symbol
_atom_site_label
_atom_site_fract_x
_atom_site_fract_y
_atom_site_fract_z
Si Si1 0.311251 0.435044 0.376580
Si Si2 0.947538 0.245319 0.270488
Si Si3 0.823425 0.479750 0.301607
Si Si4 0.319935 0.103811 0.656449
Si Si5 0.165472 0.904177 0.930046
Si Si6 0.685360 0.202607 0.139538
Si Si7 0.286472 0.303294 0.896241
Si Si8 0.906919 0.457425 0.072619
O O1 0.310968 0.486008 0.341729
O O2 0.250882 0.405017 0.276748
O O3 0.487916 0.420637 0.407694
O O4 0.191714 0.430672 0.481184
O O5 0.826285 0.208496 0.228069
O O6 0.860647 0.287910 0.321028
O O7 0.047337 0.262527 0.165926
O O8 0.052880 0.221627 0.362451
O O9 0.798504 0.435186 0.371973
O O10 0.789616 0.472909 0.171334
O O11 0.000000 0.500000 0.319254
O O12 0.188094 0.095023 0.561859
O O13 0.381114 0.153563 0.650967
O O14 0.471951 0.074004 0.635726
O O15 0.192159 0.855470 0.882648
O O16 0.751549 0.212140 0.019247
O O17 0.000000 0.500000 0.021234
#
# Coordination Sequence:
#
# PCOD8190707 Si02
#       8
#     8   8   8   8   8   8   8   8
#     4  12  24  43  67  92 133 171 212 272 324 372
#     4  10  21  40  66  91 127 168 205 254 328 376
#     4  11  23  43  66  89 129 173 219 266 310 387
#     4  11  24  41  64  95 130 166 219 265 317 388
#     4  11  26  42  64  97 134 167 219 271 323 371
#     4  10  22  39  63  95 124 163 212 258 314 383
#     4  10  22  42  65  94 131 163 209 264 313 384
#     4  11  24  42  66  93 125 172 221 261 321 378
#
# _framework density 20.703499000000001
#
# number of rings (size 3 to 8) (size 9 to 14) (size 15 to 20)
#    0.000    1.250    2.500    3.750    3.500    1.000 
#    0.000    1.250    0.000    0.000    0.000    0.000 
#    0.000    0.000    0.000    0.000    0.000    0.000 
#
# Total GULP energy -396839.540304 kJ/mol
# GULP energy per Si atom -12401.235634 kJ/mol
# Density = 2.065638 g / cm^3
# Si number density = 20.703499 Si / 1000 Ang^3
#
#
#
# Elastic Constant Matrix: (Units=GPa)
#
#
# Indices 1 2 3 4 5 6 
#
# 1 101.9182 43.8291 37.2945 0.0002 0.0000 0.0012
# 2 43.8291 107.9470 31.1179 -0.0007 0.0000 -0.0009
# 3 37.2945 31.1179 113.9450 -0.0042 -0.0002 0.0026
# 4 0.0002 -0.0007 -0.0042 37.0467 0.0000 -0.0012
# 5 0.0000 0.0000 -0.0002 0.0000 24.7495 -0.0005
# 6 0.0012 -0.0009 0.0026 -0.0012 -0.0005 45.0951
#
#
#
# Elastic Compliance Matrix: (Units=1/GPa)
#
#
# Indices 1 2 3 4 5 6 
#
# 1 0.012767 -0.004319 -0.002999 -0.000001 0.000000 0.000000
# 2 -0.004319 0.011517 -0.001731 0.000000 0.000000 0.000000
# 3 -0.002999 -0.001731 0.010231 0.000001 0.000000 -0.000001
# 4 -0.000001 0.000000 0.000001 0.026993 0.000000 0.000001
# 5 0.000000 0.000000 0.000000 0.000000 0.040405 0.000000
# 6 0.000000 0.000000 -0.000001 0.000001 0.000000 0.022175
#
#
# Mechanical properties :
#
#
# Convention : Reuss Voigt Hill
#
# Bulk Modulus (GPa) = 60.92107 60.92145 60.92126
# Shear Modulus (GPa) = 33.86214 35.48285 34.67250
#
# Velocity S-wave (km/s) = 4.04861 4.14437 4.09677
# Velocity P-wave (km/s) = 7.16550 7.23814 7.20191
#
# Compressibility (1/GPa) = 0.01641468
#
# Stress axis : x y z
#
# Youngs Moduli (GPa) = 78.32955 86.83143 97.74574
#
# Poissons Ratio (x) = 0.37503 0.29314
# Poissons Ratio (y) = 0.33831 0.16925
# Poissons Ratio (z) = 0.23491 0.15035
#
# Static dielectric constant tensor:
#      x y z
#    x 3.642780 0.000000 0.000000 
#    y 0.000000 3.829650 0.000000 
#    z 0.000000 0.000000 3.992100 
# 
# 
# High freq. dielectric constant tensor:
#      x y z
#    x 1.802110 0.000000 0.000000 
#    y 0.000000 1.813870 0.000000 
#    z 0.000000 0.000000 1.827760 
# 
# From -- ./inp_files/3410.got.cif
#   From: 2010.03.12/outbox.cif.g09.slc.cpg/sg45_2_cif.got.tgz:3410.got - 2010.04.14 02:50:11.
