data_PCOD8190302
_publ_section_title
;
Structure prediction by ZEFSAII (Michael W. Deem and Ramdas Pophale) SiO2 
 PCOD8190302
Probable space group: I M M 2
;
_chemical_formula_sum "Si O2"
_cell_formula_units_Z 64
_cell_length_a 14.353074
_cell_length_b 22.303247
_cell_length_c 9.932935
_cell_angle_alpha 90.000000
_cell_angle_beta 90.000000
_cell_angle_gamma 90.000000
_cell_volume 3179.732688
_symmetry_space_group_name_H-M "I M M 2"
_symmetry_group_IT_number 44
_symmetry_cell_setting 'orthorhombic'
loop_
_space_group_symop_operation_xyz
x,y,z
-x,-y,z
-x,y,z
x,-y,z
1/2+x,1/2+y,1/2+z
1/2-x,1/2-y,1/2+z
1/2-x,1/2+y,1/2+z
1/2+x,1/2-y,1/2+z
loop_
_atom_site_type_symbol
_atom_site_label
_atom_site_fract_x
_atom_site_fract_y
_atom_site_fract_z
Si Si1 0.609218 0.430435 0.877190
Si Si2 0.891627 0.251355 0.065878
Si Si3 0.390245 0.862143 0.736452
Si Si4 0.397453 0.429473 0.181728
Si Si5 0.719776 0.360499 0.653895
Si Si6 0.392168 0.935517 0.488084
Si Si7 0.393288 0.828284 0.304127
Si Si8 0.752996 0.429453 0.398496
O O1 0.500000 0.418776 0.851290
O O2 0.632681 0.500000 0.846659
O O3 0.669707 0.385455 0.786879
O O4 0.636463 0.413210 0.030725
O O5 0.863837 0.294638 0.191273
O O6 0.840241 0.188898 0.077153
O O7 0.000000 0.238181 0.072721
O O8 0.868101 0.282020 0.922731
O O9 0.500000 0.867730 0.756579
O O10 0.348833 0.905458 0.620143
O O11 0.341486 0.886047 0.871294
O O12 0.500000 0.400679 0.207823
O O13 0.407578 0.500000 0.192844
O O14 0.327723 0.406645 0.296971
O O15 0.817693 0.326173 0.684994
O O16 0.727582 0.416810 0.553057
O O17 0.500000 0.943522 0.519799
O O18 0.379886 0.896035 0.356163
O O19 0.343426 0.000000 0.463376
O O20 0.500000 0.818041 0.252902
O O21 0.775635 0.500000 0.380667
#
# Coordination Sequence:
#
# PCOD8190302 Si02
#       8
#     8   8   8   8   8   8   8   8
#     4   9  19  37  60  90 125 160 205 259 308 358
#     4   9  21  42  64  84 111 153 211 265 309 356
#     4   9  19  37  59  82 114 153 199 253 297 350
#     4   8  17  36  58  80 116 162 201 241 291 354
#     4  12  24  36  63  90 123 161 204 252 314 373
#     4   8  14  28  54  83 107 144 195 237 280 337
#     4   9  21  40  58  83 121 159 196 246 301 363
#     4  11  24  37  55  93 132 164 199 241 310 384
#
# _framework density 20.127476999999999
#
# number of rings (size 3 to 8) (size 9 to 14) (size 15 to 20)
#    0.000    2.625    0.000    3.375    5.250    3.250 
#    0.000    1.250    0.000    0.000    0.000    0.000 
#    0.000    0.000    0.000    0.000    0.000    0.000 
#
# Total GULP energy -396595.556061 kJ/mol
# GULP energy per Si atom -12393.611127 kJ/mol
# Density = 2.008167 g / cm^3
# Si number density = 20.127477 Si / 1000 Ang^3
#
#
#
# Elastic Constant Matrix: (Units=GPa)
#
#
# Indices 1 2 3 4 5 6 
#
# 1 76.9966 28.2773 47.3216 0.0009 -0.0001 0.0000
# 2 28.2773 68.3067 19.3222 0.0016 -0.0005 -0.0001
# 3 47.3216 19.3222 89.7465 -0.0004 -0.0007 -0.0004
# 4 0.0009 0.0016 -0.0004 23.2202 -0.0004 -0.0002
# 5 -0.0001 -0.0005 -0.0007 -0.0004 25.1493 0.0000
# 6 0.0000 -0.0001 -0.0004 -0.0002 0.0000 25.5935
#
#
#
# Elastic Compliance Matrix: (Units=1/GPa)
#
#
# Indices 1 2 3 4 5 6 
#
# 1 0.021302 -0.006007 -0.009939 -0.000001 0.000000 0.000000
# 2 -0.006007 0.017283 -0.000554 -0.000001 0.000000 0.000000
# 3 -0.009939 -0.000554 0.016502 0.000001 0.000000 0.000000
# 4 -0.000001 -0.000001 0.000001 0.043066 0.000001 0.000000
# 5 0.000000 0.000000 0.000000 0.000001 0.039763 0.000000
# 6 0.000000 0.000000 0.000000 0.000000 0.000000 0.039072
#
#
# Mechanical properties :
#
#
# Convention : Reuss Voigt Hill
#
# Bulk Modulus (GPa) = 45.27254 47.21020 46.24137
# Shear Modulus (GPa) = 23.00432 24.13451 23.56942
#
# Velocity S-wave (km/s) = 3.38439 3.46653 3.42571
# Velocity P-wave (km/s) = 6.14930 6.28721 6.21864
#
# Compressibility (1/GPa) = 0.02208845
#
# Stress axis : x y z
#
# Youngs Moduli (GPa) = 46.94387 57.85955 60.59778
#
# Poissons Ratio (x) = 0.34757 0.60227
# Poissons Ratio (y) = 0.28200 0.03355
# Poissons Ratio (z) = 0.46657 0.03203
#
# Static dielectric constant tensor:
#      x y z
#    x 3.841130 0.000000 0.000000 
#    y 0.000000 3.622210 0.000000 
#    z 0.000000 0.000000 3.474900 
# 
# 
# High freq. dielectric constant tensor:
#      x y z
#    x 1.790330 0.000000 0.000000 
#    y 0.000000 1.770650 0.000000 
#    z 0.000000 0.000000 1.768190 
# 
# From -- ./inp_files/7535.got.cif
#   From: 2010.03.12/outbox.cif.g09.slc.cpg/sg44_4_cif.got.tgz:7535.got - 2010.04.14 02:36:11.
