data_PCOD8190183
_publ_section_title
;
Structure prediction by ZEFSAII (Michael W. Deem and Ramdas Pophale) SiO2 
 PCOD8190183
Probable space group: I M M 2
;
_chemical_formula_sum "Si O2"
_cell_formula_units_Z 56
_cell_length_a 16.206611
_cell_length_b 22.391944
_cell_length_c 7.886447
_cell_angle_alpha 90.000000
_cell_angle_beta 90.000000
_cell_angle_gamma 90.000000
_cell_volume 2861.972105
_symmetry_space_group_name_H-M "I M M 2"
_symmetry_group_IT_number 44
_symmetry_cell_setting 'orthorhombic'
loop_
_space_group_symop_operation_xyz
x,y,z
-x,-y,z
-x,y,z
x,-y,z
1/2+x,1/2+y,1/2+z
1/2-x,1/2-y,1/2+z
1/2-x,1/2+y,1/2+z
1/2+x,1/2-y,1/2+z
loop_
_atom_site_type_symbol
_atom_site_label
_atom_site_fract_x
_atom_site_fract_y
_atom_site_fract_z
Si Si1 0.750319 0.069521 0.067200
Si Si2 0.702658 0.320383 0.773525
Si Si3 0.094043 0.361991 0.453142
Si Si4 0.378140 0.218270 0.275493
Si Si5 0.910456 0.832435 0.586498
Si Si6 0.091387 0.724671 0.149008
Si Si7 0.591853 0.432243 0.338820
O O1 0.765983 0.113046 0.226838
O O2 0.744771 0.000000 0.122777
O O3 0.664403 0.086518 0.971343
O O4 0.832711 0.082582 0.961531
O O5 0.780271 0.277210 0.784150
O O6 0.642502 0.286737 0.641775
O O7 0.661515 0.319982 0.956151
O O8 0.090360 0.325163 0.627483
O O9 0.123524 0.321746 0.292901
O O10 0.000000 0.387413 0.422696
O O11 0.411119 0.284251 0.237817
O O12 0.409406 0.195993 0.460365
O O13 0.895256 0.896705 0.666213
O O14 0.000000 0.830917 0.495282
O O15 0.000000 0.742062 0.205406
O O16 0.500000 0.418390 0.419004
O O17 0.596782 0.500000 0.281214
#
# Coordination Sequence:
#
# PCOD8190183 Si02
#       7
#     8   8   8   8   8   8   8
#     4  10  23  41  61  86 119 165 213 256 308 370
#     4  11  23  35  56  85 120 152 200 249 302 364
#     4  10  22  40  62  90 123 157 205 258 306 367
#     4  11  22  36  56  86 123 158 191 242 310 368
#     4  11  21  35  56  82 118 157 196 247 306 369
#     4  11  22  36  59  89 122 157 196 248 310 367
#     4   9  20  37  56  80 112 154 201 245 295 358
#
# _framework density 19.566928999999998
#
# number of rings (size 3 to 8) (size 9 to 14) (size 15 to 20)
#    0.000    1.571    1.429    3.429    6.000    3.143 
#    0.000    0.000    0.000    0.000    0.000    2.000 
#    0.000    0.000    0.000    0.000    0.000    0.000 
#
# Total GULP energy -346967.507655 kJ/mol
# GULP energy per Si atom -12391.696702 kJ/mol
# Density = 1.952239 g / cm^3
# Si number density = 19.566929 Si / 1000 Ang^3
#
#
#
# Elastic Constant Matrix: (Units=GPa)
#
#
# Indices 1 2 3 4 5 6 
#
# 1 123.4818 36.7900 17.3744 0.0000 0.0000 0.0000
# 2 36.7900 81.1089 27.7724 0.0000 0.0000 0.0000
# 3 17.3744 27.7724 100.4088 0.0000 0.0000 0.0000
# 4 0.0000 0.0000 0.0000 20.4291 0.0000 0.0000
# 5 0.0000 0.0000 0.0000 0.0000 30.6837 0.0000
# 6 0.0000 0.0000 0.0000 0.0000 0.0000 21.6991
#
#
#
# Elastic Compliance Matrix: (Units=1/GPa)
#
#
# Indices 1 2 3 4 5 6 
#
# 1 0.009386 -0.004088 -0.000493 0.000000 0.000000 0.000000
# 2 -0.004088 0.015400 -0.003552 0.000000 0.000000 0.000000
# 3 -0.000493 -0.003552 0.011027 0.000000 0.000000 0.000000
# 4 0.000000 0.000000 0.000000 0.048950 0.000000 0.000000
# 5 0.000000 0.000000 0.000000 0.000000 0.032591 0.000000
# 6 0.000000 0.000000 0.000000 0.000000 0.000000 0.046085
#
#
# Mechanical properties :
#
#
# Convention : Reuss Voigt Hill
#
# Bulk Modulus (GPa) = 51.16311 52.09702 51.63006
# Shear Modulus (GPa) = 26.84989 29.43323 28.14156
#
# Velocity S-wave (km/s) = 3.70835 3.88265 3.79650
# Velocity P-wave (km/s) = 6.67385 6.83980 6.75734
#
# Compressibility (1/GPa) = 0.01954533
#
# Stress axis : x y z
#
# Youngs Moduli (GPa) = 106.54324 64.93583 90.68560
#
# Poissons Ratio (x) = 0.26548 0.04473
# Poissons Ratio (y) = 0.43559 0.32212
# Poissons Ratio (z) = 0.05255 0.23066
#
# Static dielectric constant tensor:
#      x y z
#    x 3.946320 0.000000 0.000000 
#    y 0.000000 3.466490 0.000000 
#    z 0.000000 0.000000 3.403710 
# 
# 
# High freq. dielectric constant tensor:
#      x y z
#    x 1.791610 0.000000 0.000000 
#    y 0.000000 1.740850 0.000000 
#    z 0.000000 0.000000 1.748410 
# 
# From -- ./inp_files/7375.got.cif
#   From: 2010.03.12/outbox.cif.g09.slc.cpg/sg44_4_cif.got.tgz:7375.got - 2010.04.14 02:36:11.
