data_PCOD8190037
_publ_section_title
;
Structure prediction by ZEFSAII (Michael W. Deem and Ramdas Pophale) SiO2 
 PCOD8190037
Probable space group: I M M 2
;
_chemical_formula_sum "Si O2"
_cell_formula_units_Z 64
_cell_length_a 28.829080
_cell_length_b 8.596503
_cell_length_c 12.684399
_cell_angle_alpha 90.000000
_cell_angle_beta 90.000000
_cell_angle_gamma 90.000000
_cell_volume 3143.565379
_symmetry_space_group_name_H-M "I M M 2"
_symmetry_group_IT_number 44
_symmetry_cell_setting 'orthorhombic'
loop_
_space_group_symop_operation_xyz
x,y,z
-x,-y,z
-x,y,z
x,-y,z
1/2+x,1/2+y,1/2+z
1/2-x,1/2-y,1/2+z
1/2-x,1/2+y,1/2+z
1/2+x,1/2-y,1/2+z
loop_
_atom_site_type_symbol
_atom_site_label
_atom_site_fract_x
_atom_site_fract_y
_atom_site_fract_z
Si Si1 0.115780 0.315735 0.133680
Si Si2 0.590086 0.822883 0.247789
Si Si3 0.181702 0.177912 0.808115
Si Si4 0.899147 0.322257 0.517672
Si Si5 0.707411 0.819006 0.523876
Si Si6 0.048902 0.682261 0.959904
Si Si7 0.946656 0.182205 0.318661
Si Si8 0.798403 0.681109 0.598284
O O1 0.112451 0.500000 0.140496
O O2 0.169711 0.268095 0.114323
O O3 0.090874 0.249788 0.236819
O O4 0.089559 0.245421 0.030687
O O5 0.629746 0.697403 0.267144
O O6 0.551549 0.784594 0.334820
O O7 0.609163 0.000000 0.262777
O O8 0.572193 0.805218 0.127736
O O9 0.212559 0.230594 0.708232
O O10 0.192696 0.000000 0.838009
O O11 0.187474 0.289453 0.907990
O O12 0.899362 0.500000 0.477040
O O13 0.926149 0.218099 0.433710
O O14 0.845779 0.266194 0.538127
O O15 0.753987 0.717497 0.527311
O O16 0.719296 0.000000 0.536366
O O17 0.049263 0.500000 0.980759
O O18 0.000000 0.754001 0.998322
O O19 0.000000 0.248145 0.306162
O O20 0.948413 0.000000 0.302280
O O21 0.802896 0.500000 0.622777
#
# Coordination Sequence:
#
# PCOD8190037 Si02
#       8
#     8   8   8   8   8   8   8   8
#     4  10  21  38  61  85 115 156 203 250 297 359
#     4   9  17  34  57  84 115 146 187 243 297 346
#     4  11  21  35  57  83 115 156 194 234 292 360
#     4   9  20  38  62  86 115 155 200 248 300 361
#     4  11  22  38  61  89 120 157 202 253 309 367
#     4   9  16  29  54  86 115 144 182 233 293 350
#     4  11  25  42  60  85 122 165 207 257 314 370
#     4  10  22  40  61  89 121 155 200 256 311 365
#
# _framework density 20.359048999999999
#
# number of rings (size 3 to 8) (size 9 to 14) (size 15 to 20)
#    0.000    2.000    1.250    3.375    0.000    6.500 
#    0.000    2.500    0.000    0.375    0.000    0.000 
#    0.000    0.000    0.000    0.000    0.000    0.000 
#
# Total GULP energy -396488.333267 kJ/mol
# GULP energy per Si atom -12390.260415 kJ/mol
# Density = 2.031271 g / cm^3
# Si number density = 20.359049 Si / 1000 Ang^3
#
#
#
# Elastic Constant Matrix: (Units=GPa)
#
#
# Indices 1 2 3 4 5 6 
#
# 1 84.8623 20.2697 29.0925 0.0000 0.0000 0.0000
# 2 20.2697 42.9096 11.8340 0.0000 0.0000 0.0000
# 3 29.0925 11.8340 98.4277 0.0000 0.0000 0.0000
# 4 0.0000 0.0000 0.0000 25.9026 0.0000 0.0000
# 5 0.0000 0.0000 0.0000 0.0000 23.5397 0.0000
# 6 0.0000 0.0000 0.0000 0.0000 0.0000 23.7900
#
#
#
# Elastic Compliance Matrix: (Units=1/GPa)
#
#
# Indices 1 2 3 4 5 6 
#
# 1 0.014392 -0.005818 -0.003554 0.000000 0.000000 0.000000
# 2 -0.005818 0.026456 -0.001461 0.000000 0.000000 0.000000
# 3 -0.003554 -0.001461 0.011386 0.000000 0.000000 0.000000
# 4 0.000000 0.000000 0.000000 0.038606 0.000000 0.000000
# 5 0.000000 0.000000 0.000000 0.000000 0.042481 0.000000
# 6 0.000000 0.000000 0.000000 0.000000 0.000000 0.042035
#
#
# Mechanical properties :
#
#
# Convention : Reuss Voigt Hill
#
# Bulk Modulus (GPa) = 32.71532 38.73246 35.72389
# Shear Modulus (GPa) = 24.12979 25.64668 24.88824
#
# Velocity S-wave (km/s) = 3.44643 3.55310 3.50017
# Velocity P-wave (km/s) = 5.65165 5.99155 5.82408
#
# Compressibility (1/GPa) = 0.03056672
#
# Stress axis : x y z
#
# Youngs Moduli (GPa) = 69.48300 37.79827 87.82735
#
# Poissons Ratio (x) = 0.21992 0.31217
# Poissons Ratio (y) = 0.40427 0.12833
# Poissons Ratio (z) = 0.24697 0.05523
#
# Static dielectric constant tensor:
#      x y z
#    x 3.831300 0.000000 0.000000 
#    y 0.000000 3.376820 0.000000 
#    z 0.000000 0.000000 3.819620 
# 
# 
# High freq. dielectric constant tensor:
#      x y z
#    x 1.791240 0.000000 0.000000 
#    y 0.000000 1.771450 0.000000 
#    z 0.000000 0.000000 1.801640 
# 
# From -- ./inp_files/15089.got.cif
#   From: 2010.03.12/outbox.cif.g09.slc.cpg/sg44_8_cif.got.tgz:15089.got - 2010.04.14 02:36:11.
