data_PCOD8190346
_publ_section_title
;
Structure prediction by ZEFSAII (Michael W. Deem and Ramdas Pophale) SiO2 
 PCOD8190346
Probable space group: I M M 2
;
_chemical_formula_sum "Si O2"
_cell_formula_units_Z 56
_cell_length_a 12.996762
_cell_length_b 22.064943
_cell_length_c 11.977554
_cell_angle_alpha 90.000000
_cell_angle_beta 90.000000
_cell_angle_gamma 90.000000
_cell_volume 3434.836850
_symmetry_space_group_name_H-M "I M M 2"
_symmetry_group_IT_number 44
_symmetry_cell_setting 'orthorhombic'
loop_
_space_group_symop_operation_xyz
x,y,z
-x,-y,z
-x,y,z
x,-y,z
1/2+x,1/2+y,1/2+z
1/2-x,1/2-y,1/2+z
1/2-x,1/2+y,1/2+z
1/2+x,1/2-y,1/2+z
loop_
_atom_site_type_symbol
_atom_site_label
_atom_site_fract_x
_atom_site_fract_y
_atom_site_fract_z
Si Si1 0.683918 0.569979 0.575010
Si Si2 0.386556 0.675961 0.420165
Si Si3 0.177216 0.673062 0.307007
Si Si4 0.614553 0.280091 0.962687
Si Si5 0.620236 0.346618 0.750096
Si Si6 0.693456 0.242944 0.602818
Si Si7 0.113940 0.431598 0.451288
O O1 0.652830 0.500000 0.554211
O O2 0.620766 0.614584 0.493754
O O3 0.655682 0.587448 0.703571
O O4 0.805177 0.581294 0.550820
O O5 0.500000 0.678046 0.365918
O O6 0.300981 0.676786 0.323889
O O7 0.374011 0.736803 0.496480
O O8 0.119642 0.720288 0.386741
O O9 0.150451 0.686429 0.176636
O O10 0.136831 0.607122 0.340298
O O11 0.500000 0.285373 0.012964
O O12 0.638079 0.338783 0.883090
O O13 0.692291 0.275691 0.065103
O O14 0.500000 0.333926 0.721361
O O15 0.695830 0.299588 0.687354
O O16 0.123698 0.500000 0.408858
O O17 0.000000 0.417779 0.498879
#
# Coordination Sequence:
#
# PCOD8190346 Si02
#       7
#     8   8   8   8   8   8   8
#     4   9  16  26  42  62  82 105 131 159 197 241
#     4   9  17  27  38  58  86 106 127 164 200 232
#     4   9  17  27  41  60  81 107 135 162 198 241
#     4   9  17  28  42  60  82 107 135 167 199 235
#     4   9  17  28  41  60  85 107 131 166 201 234
#     4   9  16  27  42  58  78 107 137 163 196 236
#     4   9  17  28  42  62  85 105 130 165 199 235
#
# _framework density 16.303540000000002
#
# number of rings (size 3 to 8) (size 9 to 14) (size 15 to 20)
#    0.000    3.000    0.000    3.000    0.000    3.429 
#    0.000    0.000    0.000    5.143    0.000    0.000 
#    0.000    2.286    0.000    0.000    0.000    0.000 
#
# Total GULP energy -346869.862762 kJ/mol
# GULP energy per Si atom -12388.209384 kJ/mol
# Density = 1.626643 g / cm^3
# Si number density = 16.303540 Si / 1000 Ang^3
#
#
#
# Elastic Constant Matrix: (Units=GPa)
#
#
# Indices 1 2 3 4 5 6 
#
# 1 89.1646 27.0343 23.5559 -0.0001 0.0000 0.0000
# 2 27.0343 66.8081 28.4257 0.0003 0.0000 0.0000
# 3 23.5559 28.4257 46.3300 0.0004 0.0000 0.0000
# 4 -0.0001 0.0003 0.0004 20.6254 0.0000 0.0000
# 5 0.0000 0.0000 0.0000 0.0000 16.3280 0.0000
# 6 0.0000 0.0000 0.0000 0.0000 0.0000 17.1819
#
#
#
# Elastic Compliance Matrix: (Units=1/GPa)
#
#
# Indices 1 2 3 4 5 6 
#
# 1 0.013517 -0.003445 -0.004759 0.000000 0.000000 0.000000
# 2 -0.003445 0.021134 -0.011215 0.000000 0.000000 0.000000
# 3 -0.004759 -0.011215 0.030885 0.000000 0.000000 0.000000
# 4 0.000000 0.000000 0.000000 0.048484 0.000000 0.000000
# 5 0.000000 0.000000 0.000000 0.000000 0.061244 0.000000
# 6 0.000000 0.000000 0.000000 0.000000 0.000000 0.058201
#
#
# Mechanical properties :
#
#
# Convention : Reuss Voigt Hill
#
# Bulk Modulus (GPa) = 37.45614 40.03717 38.74666
# Shear Modulus (GPa) = 17.78078 19.04620 18.41349
#
# Velocity S-wave (km/s) = 3.30602 3.42164 3.36433
# Velocity P-wave (km/s) = 6.13165 6.34199 6.23771
#
# Compressibility (1/GPa) = 0.02669789
#
# Stress axis : x y z
#
# Youngs Moduli (GPa) = 73.98141 47.31677 32.37816
#
# Poissons Ratio (x) = 0.16300 0.15408
# Poissons Ratio (y) = 0.25486 0.36313
# Poissons Ratio (z) = 0.35207 0.53067
#
# Static dielectric constant tensor:
#      x y z
#    x 3.192740 0.000000 0.000000 
#    y 0.000000 3.116230 0.000000 
#    z 0.000000 0.000000 2.925190 
# 
# 
# High freq. dielectric constant tensor:
#      x y z
#    x 1.634840 0.000000 0.000000 
#    y 0.000000 1.607000 0.000000 
#    z 0.000000 0.000000 1.590150 
# 
# From -- ./inp_files/12601.got.cif
#   From: 2010.03.12/outbox.cif.g09.slc.cpg/sg44_7_cif.got.tgz:12601.got - 2010.04.14 02:36:11.
