data_PCOD8190454
_publ_section_title
;
Structure prediction by ZEFSAII (Michael W. Deem and Ramdas Pophale) SiO2 
 PCOD8190454
Probable space group: I B A 2
;
_chemical_formula_sum "Si O2"
_cell_formula_units_Z 60
_cell_length_a 32.342847
_cell_length_b 10.758878
_cell_length_c 8.827075
_cell_angle_alpha 90.000000
_cell_angle_beta 90.000000
_cell_angle_gamma 90.000000
_cell_volume 3071.581518
_symmetry_space_group_name_H-M "I B A 2"
_symmetry_group_IT_number 45
_symmetry_cell_setting 'orthorhombic'
loop_
_space_group_symop_operation_xyz
x,y,z
-x,-y,z
-x,y,1/2+z
x,-y,1/2+z
1/2+x,1/2+y,1/2+z
1/2-x,1/2-y,1/2+z
1/2-x,1/2+y,z
1/2+x,1/2-y,z
loop_
_atom_site_type_symbol
_atom_site_label
_atom_site_fract_x
_atom_site_fract_y
_atom_site_fract_z
Si Si1 0.378037 0.116825 0.863320
Si Si2 0.675896 0.323813 0.241747
Si Si3 0.125020 0.268071 0.679505
Si Si4 0.000000 0.500000 0.050941
Si Si5 0.192192 0.428014 0.829621
Si Si6 0.942959 0.585049 0.799164
Si Si7 0.764736 0.375256 0.636293
Si Si8 0.825131 0.061211 0.065952
O O1 0.362674 0.227152 0.750359
O O2 0.340043 0.026041 0.898085
O O3 0.416090 0.042758 0.788325
O O4 0.391223 0.168118 0.025672
O O5 0.718387 0.244517 0.228978
O O6 0.676071 0.413968 0.386822
O O7 0.671810 0.413341 0.095184
O O8 0.168122 0.323457 0.736846
O O9 0.087643 0.294608 0.798113
O O10 0.134490 0.123894 0.644823
O O11 0.972917 0.408806 0.154648
O O12 0.970521 0.588022 0.949923
O O13 0.223582 0.495441 0.716052
O O14 0.216954 0.367144 0.967586
O O15 0.715410 0.373704 0.635806
#
# Coordination Sequence:
#
# PCOD8190454 Si02
#       8
#     8   8   8   4   8   8   8   8
#     4   9  18  37  57  82 117 153 193 236 292 361
#     4  10  25  40  55  82 111 158 209 252 297 348
#     4  10  20  35  56  79 117 158 194 239 293 356
#     4  10  20  32  60  98 122 140 172 230 300 378
#     4  10  20  35  56  82 107 154 197 251 306 347
#     4  10  19  35  59  93 124 143 180 230 302 366
#     4  11  23  36  58  77 114 148 208 268 308 342
#     4  11  25  39  55  78 114 157 217 253 301 344
#
# _framework density 19.533911
#
# number of rings (size 3 to 8) (size 9 to 14) (size 15 to 20)
#    0.000    1.867    2.667    0.800    5.600    0.000 
#    0.000    0.000    0.000    0.000    0.000    5.600 
#    0.000    0.000    0.000    0.000    0.000    0.000 
#
# Total GULP energy -371908.205503 kJ/mol
# GULP energy per Si atom -12396.940183 kJ/mol
# Density = 1.948945 g / cm^3
# Si number density = 19.533911 Si / 1000 Ang^3
#
#
#
# Elastic Constant Matrix: (Units=GPa)
#
#
# Indices 1 2 3 4 5 6 
#
# 1 86.4843 20.9245 26.4297 0.0000 0.0000 0.0000
# 2 20.9245 67.3886 20.5806 0.0000 0.0000 0.0000
# 3 26.4297 20.5806 75.6344 0.0000 0.0000 0.0000
# 4 0.0000 0.0000 0.0000 30.2571 0.0000 0.0000
# 5 0.0000 0.0000 0.0000 0.0000 28.5721 0.0000
# 6 0.0000 0.0000 0.0000 0.0000 0.0000 18.0775
#
#
#
# Elastic Compliance Matrix: (Units=1/GPa)
#
#
# Indices 1 2 3 4 5 6 
#
# 1 0.013478 -0.002995 -0.003895 0.000000 0.000000 0.000000
# 2 -0.002995 0.016850 -0.003538 0.000000 0.000000 0.000000
# 3 -0.003895 -0.003538 0.015545 0.000000 0.000000 0.000000
# 4 0.000000 0.000000 0.000000 0.033050 0.000000 0.000000
# 5 0.000000 0.000000 0.000000 0.000000 0.034999 0.000000
# 6 0.000000 0.000000 0.000000 0.000000 0.000000 0.055317
#
#
# Mechanical properties :
#
#
# Convention : Reuss Voigt Hill
#
# Bulk Modulus (GPa) = 39.97394 40.59745 40.28569
# Shear Modulus (GPa) = 25.19719 26.15286 25.67502
#
# Velocity S-wave (km/s) = 3.59544 3.66299 3.62937
# Velocity P-wave (km/s) = 6.14366 6.22239 6.18315
#
# Compressibility (1/GPa) = 0.02501630
#
# Stress axis : x y z
#
# Youngs Moduli (GPa) = 74.19653 59.34716 64.32854
#
# Poissons Ratio (x) = 0.17777 0.25053
# Poissons Ratio (y) = 0.22226 0.22761
# Poissons Ratio (z) = 0.28896 0.20999
#
# Static dielectric constant tensor:
#      x y z
#    x 3.556700 0.000000 0.000000 
#    y 0.000000 3.356270 0.000000 
#    z 0.000000 0.000000 3.586610 
# 
# 
# High freq. dielectric constant tensor:
#      x y z
#    x 1.744120 0.000000 0.000000 
#    y 0.000000 1.733470 0.000000 
#    z 0.000000 0.000000 1.768890 
# 
# From -- ./inp_files/2768.got.cif
#   From: 2010.03.12/outbox.cif.g09.slc.cpg/sg45_2_cif.got.tgz:2768.got - 2010.04.14 02:50:11.
