data_PCOD8190220
_publ_section_title
;
Structure prediction by ZEFSAII (Michael W. Deem and Ramdas Pophale) SiO2 
 PCOD8190220
Probable space group: I M M 2
;
_chemical_formula_sum "Si O2"
_cell_formula_units_Z 56
_cell_length_a 8.614315
_cell_length_b 18.322109
_cell_length_c 17.008866
_cell_angle_alpha 90.000000
_cell_angle_beta 90.000000
_cell_angle_gamma 90.000000
_cell_volume 2684.550455
_symmetry_space_group_name_H-M "I M M 2"
_symmetry_group_IT_number 44
_symmetry_cell_setting 'orthorhombic'
loop_
_space_group_symop_operation_xyz
x,y,z
-x,-y,z
-x,y,z
x,-y,z
1/2+x,1/2+y,1/2+z
1/2-x,1/2-y,1/2+z
1/2-x,1/2+y,1/2+z
1/2+x,1/2-y,1/2+z
loop_
_atom_site_type_symbol
_atom_site_label
_atom_site_fract_x
_atom_site_fract_y
_atom_site_fract_z
Si Si1 0.680564 0.827542 0.334550
Si Si2 0.320345 0.311569 0.557866
Si Si3 0.320842 0.154067 0.618715
Si Si4 0.180463 0.682361 0.388196
Si Si5 0.322673 0.585047 0.971493
Si Si6 0.180958 0.084049 0.767872
Si Si7 0.682661 0.915924 0.181351
O O1 0.500000 0.807400 0.329167
O O2 0.778364 0.753521 0.336831
O O3 0.707738 0.873206 0.413525
O O4 0.736486 0.874848 0.260284
O O5 0.500000 0.317956 0.535331
O O6 0.284764 0.239764 0.609163
O O7 0.223197 0.305341 0.478449
O O8 0.269465 0.382237 0.606665
O O9 0.500000 0.137027 0.601431
O O10 0.216156 0.106337 0.560497
O O11 0.278609 0.131648 0.706624
O O12 0.274912 0.613264 0.354363
O O13 0.000000 0.665765 0.380738
O O14 0.500000 0.607012 0.953014
O O15 0.295255 0.500000 0.960039
O O16 0.000000 0.094660 0.751600
O O17 0.229862 0.000000 0.761733
O O18 0.500000 0.907897 0.168216
O O19 0.732654 0.000000 0.189161
#
# Coordination Sequence:
#
# PCOD8190220 Si02
#       7
#     8   8   8   8   8   8   8
#     4  11  22  40  65  93 127 166 211 261 314 378
#     4  11  24  42  65  94 126 165 212 260 315 376
#     4  11  23  40  64  93 127 166 212 262 315 378
#     4  12  25  42  67  95 126 166 212 263 318 380
#     4  11  23  37  58  91 130 170 211 257 313 376
#     4  11  25  44  66  93 128 168 211 263 320 379
#     4  10  23  42  64  92 126 166 210 258 315 375
#
# _framework density 20.860102000000001
#
# number of rings (size 3 to 8) (size 9 to 14) (size 15 to 20)
#    0.000    1.000    1.429    5.143    0.000   10.571 
#    0.000    0.000    0.000    0.000    0.000    0.000 
#    0.000    0.000    0.000    0.000    0.000    0.000 
#
# Total GULP energy -347441.511932 kJ/mol
# GULP energy per Si atom -12408.625426 kJ/mol
# Density = 2.081262 g / cm^3
# Si number density = 20.860102 Si / 1000 Ang^3
#
#
#
# Elastic Constant Matrix: (Units=GPa)
#
#
# Indices 1 2 3 4 5 6 
#
# 1 60.7638 43.6551 25.8670 0.0000 0.0000 0.0000
# 2 43.6551 109.8752 59.8201 0.0000 0.0000 0.0000
# 3 25.8670 59.8201 86.3229 0.0000 0.0000 0.0000
# 4 0.0000 0.0000 0.0000 37.9671 0.0000 0.0000
# 5 0.0000 0.0000 0.0000 0.0000 37.9557 0.0000
# 6 0.0000 0.0000 0.0000 0.0000 0.0000 33.0403
#
#
#
# Elastic Compliance Matrix: (Units=1/GPa)
#
#
# Indices 1 2 3 4 5 6 
#
# 1 0.023075 -0.008677 -0.000901 0.000000 0.000000 0.000000
# 2 -0.008677 0.017879 -0.009789 0.000000 0.000000 0.000000
# 3 -0.000901 -0.009789 0.018638 0.000000 0.000000 0.000000
# 4 0.000000 0.000000 0.000000 0.026339 0.000000 0.000000
# 5 0.000000 0.000000 0.000000 0.000000 0.026347 0.000000
# 6 0.000000 0.000000 0.000000 0.000000 0.000000 0.030266
#
#
# Mechanical properties :
#
#
# Convention : Reuss Voigt Hill
#
# Bulk Modulus (GPa) = 47.94791 57.29406 52.62099
# Shear Modulus (GPa) = 26.56315 30.30059 28.43187
#
# Velocity S-wave (km/s) = 3.57234 3.81538 3.69586
# Velocity P-wave (km/s) = 6.32857 6.85091 6.59492
#
# Compressibility (1/GPa) = 0.02085596
#
# Stress axis : x y z
#
# Youngs Moduli (GPa) = 43.33698 55.93306 53.65312
#
# Poissons Ratio (x) = 0.48535 0.04836
# Poissons Ratio (y) = 0.37605 0.52522
# Poissons Ratio (z) = 0.03906 0.54754
#
# Static dielectric constant tensor:
#      x y z
#    x 3.714370 0.000000 0.000000 
#    y 0.000000 3.873160 0.000000 
#    z 0.000000 0.000000 3.759290 
# 
# 
# High freq. dielectric constant tensor:
#      x y z
#    x 1.822040 0.000000 0.000000 
#    y 0.000000 1.825110 0.000000 
#    z 0.000000 0.000000 1.822710 
# 
# From -- ./inp_files/16419.got.cif
#   From: 2010.03.12/outbox.cif.g09.slc.cpg/sg44_9_cif.got.tgz:16419.got - 2010.04.14 02:36:11.
