data_PCOD8190597
_publ_section_title
;
Structure prediction by ZEFSAII (Michael W. Deem and Ramdas Pophale) SiO2 
 PCOD8190597
Probable space group: I B A 2
;
_chemical_formula_sum "Si O2"
_cell_formula_units_Z 60
_cell_length_a 18.878170
_cell_length_b 16.768993
_cell_length_c 8.632054
_cell_angle_alpha 90.000000
_cell_angle_beta 90.000000
_cell_angle_gamma 90.000000
_cell_volume 2732.631212
_symmetry_space_group_name_H-M "I B A 2"
_symmetry_group_IT_number 45
_symmetry_cell_setting 'orthorhombic'
loop_
_space_group_symop_operation_xyz
x,y,z
-x,-y,z
-x,y,1/2+z
x,-y,1/2+z
1/2+x,1/2+y,1/2+z
1/2-x,1/2-y,1/2+z
1/2-x,1/2+y,z
1/2+x,1/2-y,z
loop_
_atom_site_type_symbol
_atom_site_label
_atom_site_fract_x
_atom_site_fract_y
_atom_site_fract_z
Si Si1 0.559487 0.758562 0.498310
Si Si2 0.282429 0.104142 0.108210
Si Si3 0.809760 0.829900 0.531780
Si Si4 0.081127 0.917703 0.377083
Si Si5 0.500000 0.500000 0.128701
Si Si6 0.308310 0.746231 0.196382
Si Si7 0.780037 0.991959 0.380452
Si Si8 0.912793 0.286644 0.161087
O O1 0.567344 0.669412 0.439515
O O2 0.613699 0.771115 0.640033
O O3 0.484114 0.787038 0.561755
O O4 0.575670 0.808124 0.342026
O O5 0.218997 0.168622 0.103566
O O6 0.268988 0.049033 0.255147
O O7 0.359008 0.145329 0.103438
O O8 0.277781 0.046252 0.963734
O O9 0.742329 0.819049 0.645019
O O10 0.805564 0.771310 0.380202
O O11 0.816003 0.922162 0.485044
O O12 0.877790 0.801535 0.633488
O O13 0.065716 0.973560 0.524687
O O14 0.158725 0.947380 0.319660
O O15 0.025237 0.927646 0.238136
#
# Coordination Sequence:
#
# PCOD8190597 Si02
#       8
#     8   8   8   8   4   8   8   8
#     4  12  23  40  66  91 130 178 226 274 337 410
#     4  10  23  43  64  99 131 172 222 283 339 410
#     4  10  23  38  64  94 131 176 221 276 334 405
#     4  11  23  36  59  90 129 178 212 268 332 410
#     4  10  24  36  48  84 140 170 208 256 328 422
#     4  10  20  41  61  94 131 171 226 273 331 404
#     4  11  22  38  66  94 132 169 225 278 343 397
#     4  11  26  43  66  97 132 178 231 277 343 417
#
# _framework density 21.956859999999999
#
# number of rings (size 3 to 8) (size 9 to 14) (size 15 to 20)
#    0.000    1.333    1.333    4.800    9.333    2.133 
#    0.000    1.333    0.000    6.400    0.000    0.000 
#    0.000    0.000    0.000    0.000    0.000    0.000 
#
# Total GULP energy -371822.129216 kJ/mol
# GULP energy per Si atom -12394.070974 kJ/mol
# Density = 2.190689 g / cm^3
# Si number density = 21.956860 Si / 1000 Ang^3
#
#
#
# Elastic Constant Matrix: (Units=GPa)
#
#
# Indices 1 2 3 4 5 6 
#
# 1 151.8494 32.9966 36.9056 0.0000 0.0000 0.0000
# 2 32.9966 52.1889 1.1330 0.0000 0.0000 0.0000
# 3 36.9056 1.1330 63.2050 0.0000 0.0000 0.0000
# 4 0.0000 0.0000 0.0000 32.7024 0.0000 0.0000
# 5 0.0000 0.0000 0.0000 0.0000 -132.4195 0.0000
# 6 0.0000 0.0000 0.0000 0.0000 0.0000 21.9480
#
#
#
# Elastic Compliance Matrix: (Units=1/GPa)
#
#
# Indices 1 2 3 4 5 6 
#
# 1 0.009070 -0.005622 -0.005195 0.000000 0.000000 0.000000
# 2 -0.005622 0.022653 0.002876 0.000000 0.000000 0.000000
# 3 -0.005195 0.002876 0.018803 0.000000 0.000000 0.000000
# 4 0.000000 0.000000 0.000000 0.030579 0.000000 0.000000
# 5 0.000000 0.000000 0.000000 0.000000 -0.007552 0.000000
# 6 0.000000 0.000000 0.000000 0.000000 0.000000 0.045562
#
#
# Mechanical properties :
#
#
# Convention : Reuss Voigt Hill
#
# Bulk Modulus (GPa) = 28.86376 45.47931 37.17154
# Shear Modulus (GPa) = 34.11943 -2.47329 15.82307
#
# Velocity S-wave (km/s) = 3.94627 -1.06249 2.68739
# Velocity P-wave (km/s) = 5.82566 4.38780 5.15709
#
# Compressibility (1/GPa) = 0.03464552
#
# Stress axis : x y z
#
# Youngs Moduli (GPa) = 110.25833 44.14438 53.18209
#
# Poissons Ratio (x) = 0.24816 0.27628
# Poissons Ratio (y) = 0.61982 -0.15297
# Poissons Ratio (z) = 0.57279 -0.12697
#
# Static dielectric constant tensor:
#      x y z
#    x 3.827020 0.000000 0.000000 
#    y 0.000000 3.915130 0.000000 
#    z 0.000000 0.000000 4.367400 
# 
# 
# High freq. dielectric constant tensor:
#      x y z
#    x 1.851380 0.000000 0.000000 
#    y 0.000000 1.842710 0.000000 
#    z 0.000000 0.000000 1.886540 
# 
# From -- ./inp_files/2147.got.cif
#   From: 2010.03.12/outbox.cif.g09.slc.cpg/sg45_2_cif.got.tgz:2147.got - 2010.04.14 02:50:11.
