data_PCOD8190732
_publ_section_title
;
Structure prediction by ZEFSAII (Michael W. Deem and Ramdas Pophale) SiO2 
 PCOD8190732
Probable space group: I B A 2
;
_chemical_formula_sum "Si O2"
_cell_formula_units_Z 56
_cell_length_a 32.364492
_cell_length_b 5.565789
_cell_length_c 14.208105
_cell_angle_alpha 90.000000
_cell_angle_beta 90.000000
_cell_angle_gamma 90.000000
_cell_volume 2559.361842
_symmetry_space_group_name_H-M "I B A 2"
_symmetry_group_IT_number 45
_symmetry_cell_setting 'orthorhombic'
loop_
_space_group_symop_operation_xyz
x,y,z
-x,-y,z
-x,y,1/2+z
x,-y,1/2+z
1/2+x,1/2+y,1/2+z
1/2-x,1/2-y,1/2+z
1/2-x,1/2+y,z
1/2+x,1/2-y,z
loop_
_atom_site_type_symbol
_atom_site_label
_atom_site_fract_x
_atom_site_fract_y
_atom_site_fract_z
Si Si1 0.858864 0.523612 0.726890
Si Si2 0.917575 0.896738 0.810769
Si Si3 0.911586 0.143474 0.629607
Si Si4 0.334279 0.622976 0.581676
Si Si5 0.975508 0.244400 0.476068
Si Si6 0.774504 0.964271 0.221164
Si Si7 0.663306 0.338999 0.369083
O O1 0.898080 0.664068 0.765169
O O2 0.875416 0.316977 0.660510
O O3 0.827667 0.666207 0.659240
O O4 0.835466 0.420715 0.818531
O O5 0.935986 0.050181 0.722655
O O6 0.882928 0.048515 0.866818
O O7 0.954671 0.809328 0.876277
O O8 0.941984 0.276238 0.557991
O O9 0.883457 0.938679 0.579980
O O10 0.301158 0.434756 0.623859
O O11 0.321701 0.694877 0.476113
O O12 0.000000 0.500000 0.470848
O O13 0.000000 0.000000 0.502682
O O14 0.753563 0.701760 0.225843
O O15 0.805311 0.005683 0.310636
#
# Coordination Sequence:
#
# PCOD8190732 Si02
#       7
#     8   8   8   8   8   8   8
#     4  10  21  42  73 106 133 186 260 309 336 436
#     4  10  23  44  73 101 138 194 248 293 359 443
#     4  10  23  44  73 101 138 194 248 293 359 443
#     4  11  23  43  75 103 142 197 254 299 363 447
#     4  12  30  48  70 112 152 182 238 312 372 432
#     4  12  27  48  68 108 156 184 239 311 370 424
#     4  11  23  43  75 103 142 197 254 299 363 447
#
# _framework density 21.880452999999999
#
# number of rings (size 3 to 8) (size 9 to 14) (size 15 to 20)
#    0.000    1.143    5.714    0.857   10.000    1.714 
#    0.000    0.000    0.000    0.000    0.000    0.000 
#    0.000    0.000    0.000    0.000    0.000    0.000 
#
# Total GULP energy -346876.674019 kJ/mol
# GULP energy per Si atom -12388.452644 kJ/mol
# Density = 2.183065 g / cm^3
# Si number density = 21.880453 Si / 1000 Ang^3
#
#
#
# Elastic Constant Matrix: (Units=GPa)
#
#
# Indices 1 2 3 4 5 6 
#
# 1 59.7256 20.4251 35.2012 0.0000 0.0000 0.0000
# 2 20.4251 102.5209 29.2096 0.0000 0.0000 0.0000
# 3 35.2012 29.2096 165.0704 0.0000 0.0000 0.0000
# 4 0.0000 0.0000 0.0000 27.5145 0.0000 0.0000
# 5 0.0000 0.0000 0.0000 0.0000 31.4236 0.0000
# 6 0.0000 0.0000 0.0000 0.0000 0.0000 35.1713
#
#
#
# Elastic Compliance Matrix: (Units=1/GPa)
#
#
# Indices 1 2 3 4 5 6 
#
# 1 0.019941 -0.002908 -0.003738 0.000000 0.000000 0.000000
# 2 -0.002908 0.010696 -0.001273 0.000000 0.000000 0.000000
# 3 -0.003738 -0.001273 0.007080 0.000000 0.000000 0.000000
# 4 0.000000 0.000000 0.000000 0.036344 0.000000 0.000000
# 5 0.000000 0.000000 0.000000 0.000000 0.031823 0.000000
# 6 0.000000 0.000000 0.000000 0.000000 0.000000 0.028432
#
#
# Mechanical properties :
#
#
# Convention : Reuss Voigt Hill
#
# Bulk Modulus (GPa) = 45.70265 55.22096 50.46181
# Shear Modulus (GPa) = 31.75676 34.98728 33.37202
#
# Velocity S-wave (km/s) = 3.81383 4.00311 3.90962
# Velocity P-wave (km/s) = 6.35031 6.83073 6.59490
#
# Compressibility (1/GPa) = 0.02188057
#
# Stress axis : x y z
#
# Youngs Moduli (GPa) = 50.14883 93.49289 141.23712
#
# Poissons Ratio (x) = 0.27186 0.52792
# Poissons Ratio (y) = 0.14582 0.17974
# Poissons Ratio (z) = 0.18745 0.11898
#
# Static dielectric constant tensor:
#      x y z
#    x 3.816130 0.000000 0.000000 
#    y 0.000000 4.310510 0.000000 
#    z 0.000000 0.000000 3.984790 
# 
# 
# High freq. dielectric constant tensor:
#      x y z
#    x 1.847910 0.000000 0.000000 
#    y 0.000000 1.866140 0.000000 
#    z 0.000000 0.000000 1.865510 
# 
# From -- ./inp_files/7165.got.cif
#   From: 2010.03.12/outbox.cif.g09.slc.cpg/sg45_4_cif.got.tgz:7165.got - 2010.04.14 02:50:11.
