data_PCOD8190148
_publ_section_title
;
Structure prediction by ZEFSAII (Michael W. Deem and Ramdas Pophale) SiO2 
 PCOD8190148
Probable space group: I M M 2
;
_chemical_formula_sum "Si O2"
_cell_formula_units_Z 56
_cell_length_a 16.018576
_cell_length_b 21.113124
_cell_length_c 8.139422
_cell_angle_alpha 90.000000
_cell_angle_beta 90.000000
_cell_angle_gamma 90.000000
_cell_volume 2752.770276
_symmetry_space_group_name_H-M "I M M 2"
_symmetry_group_IT_number 44
_symmetry_cell_setting 'orthorhombic'
loop_
_space_group_symop_operation_xyz
x,y,z
-x,-y,z
-x,y,z
x,-y,z
1/2+x,1/2+y,1/2+z
1/2-x,1/2-y,1/2+z
1/2-x,1/2+y,1/2+z
1/2+x,1/2-y,1/2+z
loop_
_atom_site_type_symbol
_atom_site_label
_atom_site_fract_x
_atom_site_fract_y
_atom_site_fract_z
Si Si1 0.296600 0.656971 0.043420
Si Si2 0.637031 0.229245 0.518965
Si Si3 0.592017 0.756341 0.168403
Si Si4 0.595799 0.159996 0.859546
Si Si5 0.744878 0.926000 0.808123
Si Si6 0.405263 0.373130 0.487398
Si Si7 0.592983 0.429074 0.832498
O O1 0.233306 0.711515 0.983446
O O2 0.354272 0.691675 0.180951
O O3 0.245532 0.598531 0.120872
O O4 0.349875 0.627866 0.897064
O O5 0.593595 0.208234 0.345931
O O6 0.603342 0.194019 0.681828
O O7 0.622759 0.303503 0.547346
O O8 0.500000 0.734184 0.126895
O O9 0.622994 0.795882 0.011448
O O10 0.500000 0.136299 0.879316
O O11 0.660531 0.102561 0.886230
O O12 0.735968 0.000000 0.820152
O O13 0.834284 0.903675 0.874894
O O14 0.500000 0.369753 0.408596
O O15 0.410175 0.420865 0.638773
O O16 0.500000 0.422164 0.907517
O O17 0.627265 0.500000 0.873458
#
# Coordination Sequence:
#
# PCOD8190148 Si02
#       7
#     8   8   8   8   8   8   8
#     4  11  23  36  59  88 122 157 202 247 304 366
#     4  11  23  38  62  94 128 157 194 253 317 364
#     4  11  22  38  62  92 122 157 200 249 311 369
#     4  10  23  42  65  93 122 157 205 257 310 367
#     4  11  24  40  59  87 121 163 208 246 296 360
#     4  11  22  38  60  88 122 160 201 247 306 367
#     4  10  22  39  59  84 118 164 209 250 300 358
#
# _framework density 20.343143999999999
#
# number of rings (size 3 to 8) (size 9 to 14) (size 15 to 20)
#    0.000    1.286    1.429    4.286    6.000    4.000 
#    0.000    0.000    0.000    0.000    0.000    2.000 
#    0.000    0.000    0.000    0.000    0.000    0.000 
#
# Total GULP energy -346868.401136 kJ/mol
# GULP energy per Si atom -12388.157183 kJ/mol
# Density = 2.029684 g / cm^3
# Si number density = 20.343144 Si / 1000 Ang^3
#
#
#
# Elastic Constant Matrix: (Units=GPa)
#
#
# Indices 1 2 3 4 5 6 
#
# 1 110.7430 62.0677 21.6296 0.0000 0.0000 0.0000
# 2 62.0677 117.9001 39.0599 0.0000 0.0000 0.0000
# 3 21.6296 39.0599 99.0253 0.0000 0.0000 0.0000
# 4 0.0000 0.0000 0.0000 21.4646 0.0000 0.0000
# 5 0.0000 0.0000 0.0000 0.0000 24.7193 0.0000
# 6 0.0000 0.0000 0.0000 0.0000 0.0000 25.1243
#
#
#
# Elastic Compliance Matrix: (Units=1/GPa)
#
#
# Indices 1 2 3 4 5 6 
#
# 1 0.012812 -0.006692 -0.000159 0.000000 0.000000 0.000000
# 2 -0.006692 0.013252 -0.003766 0.000000 0.000000 0.000000
# 3 -0.000159 -0.003766 0.011618 0.000000 0.000000 0.000000
# 4 0.000000 0.000000 0.000000 0.046588 0.000000 0.000000
# 5 0.000000 0.000000 0.000000 0.000000 0.040454 0.000000
# 6 0.000000 0.000000 0.000000 0.000000 0.000000 0.039802
#
#
# Mechanical properties :
#
#
# Convention : Reuss Voigt Hill
#
# Bulk Modulus (GPa) = 60.79171 63.68697 62.23934
# Shear Modulus (GPa) = 26.14480 27.92238 27.03359
#
# Velocity S-wave (km/s) = 3.58884 3.70884 3.64934
# Velocity P-wave (km/s) = 6.86448 7.05088 6.95831
#
# Compressibility (1/GPa) = 0.01644961
#
# Stress axis : x y z
#
# Youngs Moduli (GPa) = 78.05471 75.45923 86.07031
#
# Poissons Ratio (x) = 0.50497 0.01367
# Poissons Ratio (y) = 0.52234 0.32410
# Poissons Ratio (z) = 0.01239 0.28415
#
# Static dielectric constant tensor:
#      x y z
#    x 3.995390 0.000000 0.000000 
#    y 0.000000 3.573110 0.000000 
#    z 0.000000 0.000000 3.675240 
# 
# 
# High freq. dielectric constant tensor:
#      x y z
#    x 1.808910 0.000000 0.000000 
#    y 0.000000 1.778370 0.000000 
#    z 0.000000 0.000000 1.796200 
# 
# From -- ./inp_files/7387.got.cif
#   From: 2010.03.12/outbox.cif.g09.slc.cpg/sg44_4_cif.got.tgz:7387.got - 2010.04.14 02:36:11.
