data_PCOD8190595
_publ_section_title
;
Structure prediction by ZEFSAII (Michael W. Deem and Ramdas Pophale) SiO2 
 PCOD8190595
Probable space group: I B A 2
;
_chemical_formula_sum "Si O2"
_cell_formula_units_Z 40
_cell_length_a 12.303817
_cell_length_b 15.136164
_cell_length_c 8.882108
_cell_angle_alpha 90.000000
_cell_angle_beta 90.000000
_cell_angle_gamma 90.000000
_cell_volume 1654.137995
_symmetry_space_group_name_H-M "I B A 2"
_symmetry_group_IT_number 45
_symmetry_cell_setting 'orthorhombic'
loop_
_space_group_symop_operation_xyz
x,y,z
-x,-y,z
-x,y,1/2+z
x,-y,1/2+z
1/2+x,1/2+y,1/2+z
1/2-x,1/2-y,1/2+z
1/2-x,1/2+y,z
1/2+x,1/2-y,z
loop_
_atom_site_type_symbol
_atom_site_label
_atom_site_fract_x
_atom_site_fract_y
_atom_site_fract_z
Si Si1 0.500000 0.500000 0.145250
Si Si2 0.500000 0.000000 0.725349
Si Si3 0.678632 0.174015 0.005921
Si Si4 0.738466 0.337381 0.840865
Si Si5 0.937084 0.384549 0.986288
Si Si6 0.844618 0.962442 0.391457
O O1 0.575835 0.437113 0.251391
O O2 0.416674 0.445222 0.041266
O O3 0.407806 0.953606 0.619672
O O4 0.567338 0.932773 0.825196
O O5 0.737054 0.183027 0.166784
O O6 0.660155 0.262105 0.906315
O O7 0.554448 0.148650 0.034622
O O8 0.740143 0.101012 0.902221
O O9 0.690276 0.434814 0.871244
O O10 0.841245 0.315814 0.954877
#
# Coordination Sequence:
#
# PCOD8190595 Si02
#       6
#     4   4   8   8   8   8
#     4  10  24  44  78 108 144 200 240 304 350 432
#     4  10  20  40  74 102 136 190 224 292 366 426
#     4  12  29  48  75 111 146 195 243 301 364 438
#     4  12  29  48  75 111 146 195 243 301 364 438
#     4  11  24  44  72 109 146 184 240 303 370 425
#     4  11  24  51  76 106 146 193 250 295 366 426
#
# _framework density 24.181778000000001
#
# number of rings (size 3 to 8) (size 9 to 14) (size 15 to 20)
#    0.000    0.800    4.000    2.400    5.600    3.200 
#    0.000    0.000    0.000    0.000    0.000    0.000 
#    0.000    0.000    0.000    0.000    0.000    0.000 
#
# Total GULP energy -247765.765779 kJ/mol
# GULP energy per Si atom -12388.288289 kJ/mol
# Density = 2.412674 g / cm^3
# Si number density = 24.181778 Si / 1000 Ang^3
#
#
#
# Elastic Constant Matrix: (Units=GPa)
#
#
# Indices 1 2 3 4 5 6 
#
# 1 75.6086 10.6534 16.0529 0.0000 0.0000 0.0000
# 2 10.6534 106.3837 32.5014 0.0000 0.0000 0.0000
# 3 16.0529 32.5014 152.1806 0.0000 0.0000 0.0000
# 4 0.0000 0.0000 0.0000 11.8365 0.0000 0.0000
# 5 0.0000 0.0000 0.0000 0.0000 35.5671 0.0000
# 6 0.0000 0.0000 0.0000 0.0000 0.0000 10.7072
#
#
#
# Elastic Compliance Matrix: (Units=1/GPa)
#
#
# Indices 1 2 3 4 5 6 
#
# 1 0.013626 -0.000990 -0.001226 0.000000 0.000000 0.000000
# 2 -0.000990 0.010128 -0.002059 0.000000 0.000000 0.000000
# 3 -0.001226 -0.002059 0.007140 0.000000 0.000000 0.000000
# 4 0.000000 0.000000 0.000000 0.084485 0.000000 0.000000
# 5 0.000000 0.000000 0.000000 0.000000 0.028116 0.000000
# 6 0.000000 0.000000 0.000000 0.000000 0.000000 0.093395
#
#
# Mechanical properties :
#
#
# Convention : Reuss Voigt Hill
#
# Bulk Modulus (GPa) = 44.75294 50.28759 47.52027
# Shear Modulus (GPa) = 19.77167 29.95316 24.86241
#
# Velocity S-wave (km/s) = 2.86252 3.52329 3.20995
# Velocity P-wave (km/s) = 5.42885 6.11492 5.78207
#
# Compressibility (1/GPa) = 0.02234490
#
# Stress axis : x y z
#
# Youngs Moduli (GPa) = 73.39035 98.73609 140.05368
#
# Poissons Ratio (x) = 0.09775 0.17169
# Poissons Ratio (y) = 0.07265 0.28832
# Poissons Ratio (z) = 0.08997 0.20326
#
# Static dielectric constant tensor:
#      x y z
#    x 4.498410 0.000000 0.000000 
#    y 0.000000 4.054520 0.000000 
#    z 0.000000 0.000000 4.679580 
# 
# 
# High freq. dielectric constant tensor:
#      x y z
#    x 1.964590 0.000000 0.000000 
#    y 0.000000 1.926470 0.000000 
#    z 0.000000 0.000000 1.990580 
# 
# From -- ./inp_files/1278.got.cif
#   From: 2010.03.12/outbox.cif.g09.slc.cpg/sg45_1_cif.got.tgz:1278.got - 2010.04.14 02:50:11.
