data_PCOD8190190
_publ_section_title
;
Structure prediction by ZEFSAII (Michael W. Deem and Ramdas Pophale) SiO2 
 PCOD8190190
Probable space group: I M M 2
;
_chemical_formula_sum "Si O2"
_cell_formula_units_Z 64
_cell_length_a 18.981918
_cell_length_b 13.445397
_cell_length_c 12.518985
_cell_angle_alpha 90.000000
_cell_angle_beta 90.000000
_cell_angle_gamma 90.000000
_cell_volume 3195.088132
_symmetry_space_group_name_H-M "I M M 2"
_symmetry_group_IT_number 44
_symmetry_cell_setting 'orthorhombic'
loop_
_space_group_symop_operation_xyz
x,y,z
-x,-y,z
-x,y,z
x,-y,z
1/2+x,1/2+y,1/2+z
1/2-x,1/2-y,1/2+z
1/2-x,1/2+y,1/2+z
1/2+x,1/2-y,1/2+z
loop_
_atom_site_type_symbol
_atom_site_label
_atom_site_fract_x
_atom_site_fract_y
_atom_site_fract_z
Si Si1 0.307888 0.385924 0.990420
Si Si2 0.416982 0.786038 0.513875
Si Si3 0.653738 0.384865 0.605555
Si Si4 0.078806 0.618205 0.458562
Si Si5 0.416938 0.890530 0.725117
Si Si6 0.306657 0.197199 0.120238
Si Si7 0.827081 0.385968 0.843817
Si Si8 0.920934 0.117789 0.322553
O O1 0.311618 0.500000 0.031223
O O2 0.245829 0.372377 0.905389
O O3 0.379797 0.352090 0.930816
O O4 0.295456 0.313609 0.091444
O O5 0.500000 0.778285 0.509214
O O6 0.383200 0.675723 0.508747
O O7 0.386417 0.830279 0.624998
O O8 0.392306 0.855527 0.417654
O O9 0.638105 0.500000 0.585626
O O10 0.736780 0.366880 0.602890
O O11 0.620117 0.346295 0.717016
O O12 0.080166 0.500000 0.446510
O O13 0.099395 0.662186 0.340127
O O14 0.132883 0.652796 0.546575
O O15 0.000000 0.652906 0.491096
O O16 0.500000 0.900728 0.711063
O O17 0.382108 0.000000 0.720927
O O18 0.329499 0.187299 0.242785
O O19 0.836563 0.500000 0.806418
O O20 0.000000 0.164052 0.323897
O O21 0.924954 0.000000 0.318515
#
# Coordination Sequence:
#
# PCOD8190190 Si02
#       8
#     8   8   8   8   8   8   8   8
#     4  10  22  41  63  88 126 165 209 261 313 373
#     4  11  23  39  62  91 123 165 216 264 317 375
#     4  11  22  38  60  91 127 164 208 263 322 382
#     4   9  19  35  56  89 128 165 209 264 320 371
#     4   8  16  33  56  85 122 156 197 259 318 362
#     4  12  23  39  66  91 129 169 212 254 320 384
#     4  11  23  42  64  91 128 171 211 257 310 376
#     4   9  18  35  62  92 120 155 200 256 317 371
#
# _framework density 20.030747000000002
#
# number of rings (size 3 to 8) (size 9 to 14) (size 15 to 20)
#    0.000    1.875    2.500    2.625    1.750    2.500 
#    0.000    0.625    0.000    0.000    0.000    0.000 
#    0.000    0.000    0.000    0.000    0.000    0.000 
#
# Total GULP energy -396788.098896 kJ/mol
# GULP energy per Si atom -12399.628091 kJ/mol
# Density = 1.998516 g / cm^3
# Si number density = 20.030747 Si / 1000 Ang^3
#
#
#
# Elastic Constant Matrix: (Units=GPa)
#
#
# Indices 1 2 3 4 5 6 
#
# 1 106.5296 26.5512 46.7896 0.0000 0.0000 0.0000
# 2 26.5512 83.0933 59.6608 0.0000 0.0000 0.0000
# 3 46.7896 59.6608 118.3363 0.0000 0.0000 0.0000
# 4 0.0000 0.0000 0.0000 33.8018 0.0000 0.0000
# 5 0.0000 0.0000 0.0000 0.0000 31.0897 0.0000
# 6 0.0000 0.0000 0.0000 0.0000 0.0000 24.9721
#
#
#
# Elastic Compliance Matrix: (Units=1/GPa)
#
#
# Indices 1 2 3 4 5 6 
#
# 1 0.011381 -0.000636 -0.004180 0.000000 0.000000 0.000000
# 2 -0.000636 0.018898 -0.009276 0.000000 0.000000 0.000000
# 3 -0.004180 -0.009276 0.014780 0.000000 0.000000 0.000000
# 4 0.000000 0.000000 0.000000 0.029584 0.000000 0.000000
# 5 0.000000 0.000000 0.000000 0.000000 0.032165 0.000000
# 6 0.000000 0.000000 0.000000 0.000000 0.000000 0.040045
#
#
# Mechanical properties :
#
#
# Convention : Reuss Voigt Hill
#
# Bulk Modulus (GPa) = 59.25613 63.77360 61.51486
# Shear Modulus (GPa) = 27.67598 29.63658 28.65628
#
# Velocity S-wave (km/s) = 3.72112 3.85067 3.78645
# Velocity P-wave (km/s) = 6.93607 7.18868 7.06351
#
# Compressibility (1/GPa) = 0.01687589
#
# Stress axis : x y z
#
# Youngs Moduli (GPa) = 87.86371 52.91489 67.65948
#
# Poissons Ratio (x) = 0.03364 0.28279
# Poissons Ratio (y) = 0.05586 0.62764
# Poissons Ratio (z) = 0.36723 0.49086
#
# Static dielectric constant tensor:
#      x y z
#    x 3.647430 0.000000 0.000000 
#    y 0.000000 3.898290 0.000000 
#    z 0.000000 0.000000 3.591630 
# 
# 
# High freq. dielectric constant tensor:
#      x y z
#    x 1.777670 0.000000 0.000000 
#    y 0.000000 1.796630 0.000000 
#    z 0.000000 0.000000 1.759820 
# 
# From -- ./inp_files/14001.got.cif
#   From: 2010.03.12/outbox.cif.g09.slc.cpg/sg44_8_cif.got.tgz:14001.got - 2010.04.14 02:36:11.
