data_PCOD8190452
_publ_section_title
;
Structure prediction by ZEFSAII (Michael W. Deem and Ramdas Pophale) SiO2 
 PCOD8190452
Probable space group: I B A 2
;
_chemical_formula_sum "Si O2"
_cell_formula_units_Z 60
_cell_length_a 8.684860
_cell_length_b 25.620872
_cell_length_c 12.619569
_cell_angle_alpha 90.000000
_cell_angle_beta 90.000000
_cell_angle_gamma 90.000000
_cell_volume 2808.026819
_symmetry_space_group_name_H-M "I B A 2"
_symmetry_group_IT_number 45
_symmetry_cell_setting 'orthorhombic'
loop_
_space_group_symop_operation_xyz
x,y,z
-x,-y,z
-x,y,1/2+z
x,-y,1/2+z
1/2+x,1/2+y,1/2+z
1/2-x,1/2-y,1/2+z
1/2-x,1/2+y,z
1/2+x,1/2-y,z
loop_
_atom_site_type_symbol
_atom_site_label
_atom_site_fract_x
_atom_site_fract_y
_atom_site_fract_z
Si Si1 0.175652 0.682285 0.510100
Si Si2 0.500000 0.500000 0.671533
Si Si3 0.640626 0.775826 0.063012
Si Si4 0.222322 0.530670 0.035499
Si Si5 0.082290 0.573697 0.606029
Si Si6 0.587528 0.789119 0.293826
Si Si7 0.223984 0.929447 0.302783
Si Si8 0.742871 0.312972 0.851179
O O1 0.321997 0.713649 0.556002
O O2 0.157701 0.626976 0.565331
O O3 0.178484 0.676122 0.381618
O O4 0.037445 0.722002 0.533448
O O5 0.616995 0.532984 0.598238
O O6 0.583759 0.457766 0.744686
O O7 0.661894 0.801317 0.179189
O O8 0.736081 0.809915 0.978318
O O9 0.157887 0.472117 0.037847
O O10 0.102087 0.571450 0.089888
O O11 0.242387 0.543233 0.913119
O O12 0.122081 0.566828 0.730231
O O13 0.613031 0.727711 0.315522
O O14 0.405358 0.801258 0.292301
O O15 0.179029 0.869529 0.321428
#
# Coordination Sequence:
#
# PCOD8190452 Si02
#       8
#     8   4   8   8   8   8   8   8
#     4  10  21  37  58  88 121 158 202 242 294 366
#     4  10  24  44  64  90 122 160 210 258 314 374
#     4  10  19  35  57  83 120 158 198 244 290 355
#     4  10  22  41  65  94 123 157 210 260 309 374
#     4  10  22  40  65  93 122 162 208 253 309 370
#     4  10  19  36  57  85 124 159 195 243 293 354
#     4  11  22  44  67  88 128 166 201 262 314 359
#     4  10  22  37  59  88 119 159 200 243 302 363
#
# _framework density 21.367317
#
# number of rings (size 3 to 8) (size 9 to 14) (size 15 to 20)
#    0.000    1.867    0.000    4.400    0.000    4.267 
#    0.000   30.667    0.000    0.000    0.000    0.000 
#    0.000    0.000    0.000    0.000    0.000    0.000 
#
# Total GULP energy -371933.024625 kJ/mol
# GULP energy per Si atom -12397.767487 kJ/mol
# Density = 2.131868 g / cm^3
# Si number density = 21.367317 Si / 1000 Ang^3
#
#
#
# Elastic Constant Matrix: (Units=GPa)
#
#
# Indices 1 2 3 4 5 6 
#
# 1 77.9171 38.5956 58.6109 -0.0001 0.0001 0.0000
# 2 38.5956 127.1331 59.2457 0.0003 0.0000 0.0001
# 3 58.6109 59.2457 184.6594 0.0014 0.0000 0.0002
# 4 -0.0001 0.0003 0.0014 30.6522 0.0000 0.0000
# 5 0.0001 0.0000 0.0000 0.0000 24.4664 0.0001
# 6 0.0000 0.0001 0.0002 0.0000 0.0001 27.0639
#
#
#
# Elastic Compliance Matrix: (Units=1/GPa)
#
#
# Indices 1 2 3 4 5 6 
#
# 1 0.017956 -0.003287 -0.004645 0.000000 0.000000 0.000000
# 2 -0.003287 0.009850 -0.002117 0.000000 0.000000 0.000000
# 3 -0.004645 -0.002117 0.007569 0.000000 0.000000 0.000000
# 4 0.000000 0.000000 0.000000 0.032624 0.000000 0.000000
# 5 0.000000 0.000000 0.000000 0.000000 0.040872 0.000000
# 6 0.000000 0.000000 0.000000 0.000000 0.000000 0.036950
#
#
# Mechanical properties :
#
#
# Convention : Reuss Voigt Hill
#
# Bulk Modulus (GPa) = 65.45355 78.06823 71.76089
# Shear Modulus (GPa) = 29.23790 31.98699 30.61245
#
# Velocity S-wave (km/s) = 3.70313 3.87331 3.78918
# Velocity P-wave (km/s) = 6.99881 7.52456 7.26644
#
# Compressibility (1/GPa) = 0.01527801
#
# Stress axis : x y z
#
# Youngs Moduli (GPa) = 55.69149 101.52130 132.11993
#
# Poissons Ratio (x) = 0.33366 0.61367
# Poissons Ratio (y) = 0.18304 0.27971
# Poissons Ratio (z) = 0.25867 0.21493
#
# Static dielectric constant tensor:
#      x y z
#    x 3.874270 0.000000 0.000000 
#    y 0.000000 3.795320 0.000000 
#    z 0.000000 0.000000 4.349780 
# 
# 
# High freq. dielectric constant tensor:
#      x y z
#    x 1.822180 0.000000 0.000000 
#    y 0.000000 1.829810 0.000000 
#    z 0.000000 0.000000 1.859350 
# 
# From -- ./inp_files/3355.got.cif
#   From: 2010.03.12/outbox.cif.g09.slc.cpg/sg45_2_cif.got.tgz:3355.got - 2010.04.14 02:50:11.
