data_PCOD8190374
_publ_section_title
;
Structure prediction by ZEFSAII (Michael W. Deem and Ramdas Pophale) SiO2 
 PCOD8190374
Probable space group: I B A 2
;
_chemical_formula_sum "Si O2"
_cell_formula_units_Z 64
_cell_length_a 9.468482
_cell_length_b 20.053501
_cell_length_c 19.692849
_cell_angle_alpha 90.000000
_cell_angle_beta 90.000000
_cell_angle_gamma 90.000000
_cell_volume 3739.203596
_symmetry_space_group_name_H-M "I B A 2"
_symmetry_group_IT_number 45
_symmetry_cell_setting 'orthorhombic'
loop_
_space_group_symop_operation_xyz
x,y,z
-x,-y,z
-x,y,1/2+z
x,-y,1/2+z
1/2+x,1/2+y,1/2+z
1/2-x,1/2-y,1/2+z
1/2-x,1/2+y,z
1/2+x,1/2-y,z
loop_
_atom_site_type_symbol
_atom_site_label
_atom_site_fract_x
_atom_site_fract_y
_atom_site_fract_z
Si Si1 0.750000 0.750000 0.770380
Si Si2 0.500000 0.846064 0.642683
Si Si3 1.000000 0.335952 0.301878
Si Si4 0.500000 0.701203 0.682542
Si Si5 0.698125 0.923402 0.547327
Si Si6 0.500000 0.922936 0.430337
Si Si7 0.500000 0.424839 0.090560
Si Si8 0.698125 0.076598 0.547327
O O1 0.644793 0.794865 0.815892
O O2 0.645147 0.704241 0.725404
O O3 0.855206 0.705135 0.815892
O O4 0.854853 0.795759 0.725405
O O5 0.500000 0.861063 0.723597
O O6 0.499999 0.765607 0.631879
O O7 0.638451 0.877901 0.608306
O O8 0.361550 0.877902 0.608306
O O9 1.000000 0.394440 0.355331
O O10 0.499999 0.629233 0.649256
O O11 0.636199 0.900814 0.474640
O O12 0.865404 0.914325 0.542492
O O13 0.654570 1.000000 0.562450
O O14 0.363801 0.900815 0.474640
O O15 0.500000 0.000000 0.416242
O O16 0.500000 0.500000 0.122257
O O17 0.634596 0.414325 0.042492
#
# Coordination Sequence:
#
# PCOD8190374 Si02
#       8
#     8   8   8   8   8   8   8   8
#     4   8  18  32  50  70 100 128 152 200 248 284
#     4   9  17  30  53  75  96 126 159 201 238 284
#     4  10  18  33  52  71  94 128 163 193 242 290
#     4  10  17  31  49  75 103 126 157 197 246 285
#     4   9  18  33  50  72 101 128 158 201 245 281
#     4   9  19  35  51  67  95 131 166 200 234 281
#     4  10  18  29  49  72  98 131 161 193 241 294
#     4   9  18  33  50  72 101 128 158 201 245 281
#
# _framework density 17.115943000000001
#
# number of rings (size 3 to 8) (size 9 to 14) (size 15 to 20)
#    0.000    3.000    0.000    4.125    0.000    1.000 
#    0.000    8.750    0.000    0.000    0.000    5.250 
#    0.000    0.000    0.000    0.000    0.000    0.000 
#
# Total GULP energy -396430.331617 kJ/mol
# GULP energy per Si atom -12388.447863 kJ/mol
# Density = 1.707699 g / cm^3
# Si number density = 17.115943 Si / 1000 Ang^3
#
#
#
# Elastic Constant Matrix: (Units=GPa)
#
#
# Indices 1 2 3 4 5 6 
#
# 1 153.0361 41.0123 40.8325 0.0000 0.0000 0.0000
# 2 41.0123 87.0016 51.4106 0.0000 0.0000 0.0000
# 3 40.8325 51.4106 99.4524 0.0000 0.0000 0.0000
# 4 0.0000 0.0000 0.0000 28.0348 0.0000 0.0000
# 5 0.0000 0.0000 0.0000 0.0000 5.6211 0.0000
# 6 0.0000 0.0000 0.0000 0.0000 0.0000 22.8353
#
#
#
# Elastic Compliance Matrix: (Units=1/GPa)
#
#
# Indices 1 2 3 4 5 6 
#
# 1 0.007709 -0.002539 -0.001852 0.000000 0.000000 0.000000
# 2 -0.002539 0.017386 -0.007945 0.000000 0.000000 0.000000
# 3 -0.001852 -0.007945 0.014923 0.000000 0.000000 0.000000
# 4 0.000000 0.000000 0.000000 0.035670 0.000000 0.000000
# 5 0.000000 0.000000 0.000000 0.000000 0.177900 0.000000
# 6 0.000000 0.000000 0.000000 0.000000 0.000000 0.043792
#
#
# Mechanical properties :
#
#
# Convention : Reuss Voigt Hill
#
# Bulk Modulus (GPa) = 65.17084 67.33344 66.25214
# Shear Modulus (GPa) = 15.28271 25.04722 20.16496
#
# Velocity S-wave (km/s) = 2.99137 3.82957 3.43613
# Velocity P-wave (km/s) = 7.07742 7.67979 7.38475
#
# Compressibility (1/GPa) = 0.01534429
#
# Stress axis : x y z
#
# Youngs Moduli (GPa) = 129.71476 57.51824 67.01266
#
# Poissons Ratio (x) = 0.14607 0.12414
# Poissons Ratio (y) = 0.32940 0.53240
# Poissons Ratio (z) = 0.24029 0.45697
#
# Static dielectric constant tensor:
#      x y z
#    x 3.603350 0.000000 0.000000 
#    y 0.000000 3.178800 0.000000 
#    z 0.000000 0.000000 2.857400 
# 
# 
# High freq. dielectric constant tensor:
#      x y z
#    x 1.684630 0.000000 0.000000 
#    y 0.000000 1.655100 0.000000 
#    z 0.000000 0.000000 1.623600 
# 
# From -- ./inp_files/8997.got.cif
#   From: 2010.03.12/outbox.cif.g09.slc.cpg/sg45_5_cif.got.tgz:8997.got - 2010.04.14 02:50:11.
