data_PCOD8190330
_publ_section_title
;
Structure prediction by ZEFSAII (Michael W. Deem and Ramdas Pophale) SiO2 
 PCOD8190330
Probable space group: I M M 2
;
_chemical_formula_sum "Si O2"
_cell_formula_units_Z 40
_cell_length_a 9.750922
_cell_length_b 9.249924
_cell_length_c 26.019955
_cell_angle_alpha 90.000000
_cell_angle_beta 90.000000
_cell_angle_gamma 90.000000
_cell_volume 2346.877320
_symmetry_space_group_name_H-M "I M M 2"
_symmetry_group_IT_number 44
_symmetry_cell_setting 'orthorhombic'
loop_
_space_group_symop_operation_xyz
x,y,z
-x,-y,z
-x,y,z
x,-y,z
1/2+x,1/2+y,1/2+z
1/2-x,1/2-y,1/2+z
1/2-x,1/2+y,1/2+z
1/2+x,1/2-y,1/2+z
loop_
_atom_site_type_symbol
_atom_site_label
_atom_site_fract_x
_atom_site_fract_y
_atom_site_fract_z
Si Si1 0.163084 0.838874 0.115480
Si Si2 0.663145 0.336776 0.810149
Si Si3 0.163729 0.662855 0.212055
Si Si4 0.347215 0.327944 0.502651
Si Si5 0.658889 0.169208 0.910614
O O1 0.221257 0.733996 0.159655
O O2 0.204709 0.777147 0.059154
O O3 0.000000 0.847036 0.118460
O O4 0.223459 0.000000 0.124273
O O5 0.500000 0.337188 0.808480
O O6 0.720738 0.500000 0.810289
O O7 0.720959 0.253509 0.760347
O O8 0.713948 0.254193 0.860977
O O9 0.220266 0.500000 0.215813
O O10 0.000000 0.663350 0.212234
O O11 0.500000 0.267312 0.491087
O O12 0.351651 0.500000 0.503083
O O13 0.243016 0.271177 0.459452
O O14 0.500000 0.201731 0.921384
O O15 0.684296 0.000000 0.900859
#
# Coordination Sequence:
#
# PCOD8190330 Si02
#       5
#     8   8   8   8   8
#     4   8  13  22  36  53  74 101 131 160 192 235
#     4   9  16  25  37  54  78 107 135 163 200 245
#     4   9  15  22  34  54  79 103 127 161 205 244
#     4   8  14  25  41  60  82 109 138 164 194 237
#     4   9  16  26  41  61  83 106 135 170 201 230
#
# _framework density 17.043924000000001
#
# number of rings (size 3 to 8) (size 9 to 14) (size 15 to 20)
#    0.000    3.400    0.000    2.400    0.000    4.800 
#    0.000    1.000    0.000    1.800    0.000    1.400 
#    0.000    4.800    0.000    0.000    0.000    0.000 
#
# Total GULP energy -247885.519888 kJ/mol
# GULP energy per Si atom -12394.275994 kJ/mol
# Density = 1.700513 g / cm^3
# Si number density = 17.043924 Si / 1000 Ang^3
#
#
#
# Elastic Constant Matrix: (Units=GPa)
#
#
# Indices 1 2 3 4 5 6 
#
# 1 25.1115 19.0830 39.6424 0.0000 0.0000 0.0000
# 2 19.0830 98.8459 79.0208 0.0000 0.0000 0.0000
# 3 39.6424 79.0208 195.8718 0.0000 0.0000 0.0000
# 4 0.0000 0.0000 0.0000 31.1722 0.0000 0.0000
# 5 0.0000 0.0000 0.0000 0.0000 20.9595 0.0000
# 6 0.0000 0.0000 0.0000 0.0000 0.0000 6.4685
#
#
#
# Elastic Compliance Matrix: (Units=1/GPa)
#
#
# Indices 1 2 3 4 5 6 
#
# 1 0.059012 -0.002723 -0.010845 0.000000 0.000000 0.000000
# 2 -0.002723 0.015058 -0.005524 0.000000 0.000000 0.000000
# 3 -0.010845 -0.005524 0.009529 0.000000 0.000000 0.000000
# 4 0.000000 0.000000 0.000000 0.032080 0.000000 0.000000
# 5 0.000000 0.000000 0.000000 0.000000 0.047711 0.000000
# 6 0.000000 0.000000 0.000000 0.000000 0.000000 0.154596
#
#
# Mechanical properties :
#
#
# Convention : Reuss Voigt Hill
#
# Bulk Modulus (GPa) = 22.01882 66.14686 44.08284
# Shear Modulus (GPa) = 13.46588 23.85889 18.66238
#
# Velocity S-wave (km/s) = 2.81387 3.74551 3.31261
# Velocity P-wave (km/s) = 4.84810 7.58940 6.36801
#
# Compressibility (1/GPa) = 0.04541569
#
# Stress axis : x y z
#
# Youngs Moduli (GPa) = 16.94569 66.40769 104.94484
#
# Poissons Ratio (x) = 0.18083 1.13812
# Poissons Ratio (y) = 0.04614 0.57971
# Poissons Ratio (z) = 0.18377 0.36683
#
# Static dielectric constant tensor:
#      x y z
#    x 2.631230 0.000000 0.000000 
#    y 0.000000 3.162100 0.000000 
#    z 0.000000 0.000000 3.596290 
# 
# 
# High freq. dielectric constant tensor:
#      x y z
#    x 1.579770 0.000000 0.000000 
#    y 0.000000 1.642040 0.000000 
#    z 0.000000 0.000000 1.677990 
# 
# From -- ./inp_files/22743.got.cif
#   From: 2010.03.12/outbox.cif.g09.slc.cpg/sg44_12_cif.got.tgz:22743.got - 2010.04.14 02:36:11.
