data_PCOD8190697
_publ_section_title
;
Structure prediction by ZEFSAII (Michael W. Deem and Ramdas Pophale) SiO2 
 PCOD8190697
Probable space group: I B A 2
;
_chemical_formula_sum "Si O2"
_cell_formula_units_Z 48
_cell_length_a 25.013714
_cell_length_b 16.150621
_cell_length_c 5.174639
_cell_angle_alpha 90.000000
_cell_angle_beta 90.000000
_cell_angle_gamma 90.000000
_cell_volume 2090.486961
_symmetry_space_group_name_H-M "I B A 2"
_symmetry_group_IT_number 45
_symmetry_cell_setting 'orthorhombic'
loop_
_space_group_symop_operation_xyz
x,y,z
-x,-y,z
-x,y,1/2+z
x,-y,1/2+z
1/2+x,1/2+y,1/2+z
1/2-x,1/2-y,1/2+z
1/2-x,1/2+y,z
1/2+x,1/2-y,z
loop_
_atom_site_type_symbol
_atom_site_label
_atom_site_fract_x
_atom_site_fract_y
_atom_site_fract_z
Si Si1 0.899976 0.312433 0.858620
Si Si2 0.560400 0.463583 0.897522
Si Si3 0.694968 0.055885 0.326394
Si Si4 0.606956 0.711266 0.364151
Si Si5 0.442552 0.034464 0.044427
Si Si6 0.269457 0.701121 0.892625
O O1 0.849819 0.373776 0.860203
O O2 0.913127 0.278736 0.573582
O O3 0.948645 0.370159 0.959894
O O4 0.893529 0.240019 0.067252
O O5 0.500000 0.500000 0.906711
O O6 0.590477 0.502849 0.651505
O O7 0.565334 0.364635 0.887419
O O8 0.749822 0.107555 0.345865
O O9 0.691493 0.987935 0.550317
O O10 0.667444 0.690360 0.441080
O O11 0.500000 0.000000 0.131080
O O12 0.411636 0.981247 0.818127
O O13 0.256941 0.759556 0.648365
#
# Coordination Sequence:
#
# PCOD8190697 Si02
#       6
#     8   8   8   8   8   8
#     4  12  23  41  65  99 132 175 228 269 332 417
#     4  10  23  46  70  97 135 171 224 293 347 397
#     4  12  24  39  65  97 133 176 222 271 331 394
#     4  12  24  42  72  98 131 185 218 277 353 396
#     4  10  21  40  60  87 129 173 212 276 325 381
#     4  12  23  44  64  96 143 176 227 284 332 404
#
# _framework density 22.961155999999999
#
# number of rings (size 3 to 8) (size 9 to 14) (size 15 to 20)
#    0.000    0.667    3.333    5.000    0.000    1.333 
#    0.000   20.000    0.000    0.000    0.000    0.000 
#    0.000    0.000    0.000    0.000    0.000    0.000 
#
# Total GULP energy -297453.170810 kJ/mol
# GULP energy per Si atom -12393.882117 kJ/mol
# Density = 2.290890 g / cm^3
# Si number density = 22.961156 Si / 1000 Ang^3
#
#
#
# Elastic Constant Matrix: (Units=GPa)
#
#
# Indices 1 2 3 4 5 6 
#
# 1 61.3126 31.1383 -2.0373 0.0000 0.0000 0.0000
# 2 31.1383 131.4007 35.7131 0.0000 0.0000 0.0000
# 3 -2.0373 35.7131 165.8534 0.0000 0.0000 0.0000
# 4 0.0000 0.0000 0.0000 54.7292 0.0000 0.0000
# 5 0.0000 0.0000 0.0000 0.0000 13.3336 0.0000
# 6 0.0000 0.0000 0.0000 0.0000 0.0000 49.2479
#
#
#
# Elastic Compliance Matrix: (Units=1/GPa)
#
#
# Indices 1 2 3 4 5 6 
#
# 1 0.018787 -0.004795 0.001263 0.000000 0.000000 0.000000
# 2 -0.004795 0.009307 -0.002063 0.000000 0.000000 0.000000
# 3 0.001263 -0.002063 0.006489 0.000000 0.000000 0.000000
# 4 0.000000 0.000000 0.000000 0.018272 0.000000 0.000000
# 5 0.000000 0.000000 0.000000 0.000000 0.074999 0.000000
# 6 0.000000 0.000000 0.000000 0.000000 0.000000 0.020305
#
#
# Mechanical properties :
#
#
# Convention : Reuss Voigt Hill
#
# Bulk Modulus (GPa) = 42.74671 54.24388 48.49529
# Shear Modulus (GPa) = 29.91363 43.04563 36.47963
#
# Velocity S-wave (km/s) = 3.61334 4.33450 3.99024
# Velocity P-wave (km/s) = 6.00547 6.98040 6.51121
#
# Compressibility (1/GPa) = 0.02339361
#
# Stress axis : x y z
#
# Youngs Moduli (GPa) = 53.22756 107.44127 154.10271
#
# Poissons Ratio (x) = 0.51523 -0.19469
# Poissons Ratio (y) = 0.25525 0.31792
# Poissons Ratio (z) = -0.06725 0.22166
#
# Static dielectric constant tensor:
#      x y z
#    x 4.271020 0.000000 0.000000 
#    y 0.000000 4.533790 0.000000 
#    z 0.000000 0.000000 5.557610 
# 
# 
# High freq. dielectric constant tensor:
#      x y z
#    x 1.885360 0.000000 0.000000 
#    y 0.000000 1.905950 0.000000 
#    z 0.000000 0.000000 1.945640 
# 
# From -- ./inp_files/604.got.cif
#   From: 2010.03.12/outbox.cif.g09.slc.cpg/sg45_1_cif.got.tgz:604.got - 2010.04.14 02:50:11.
