data_PCOD8190585
_publ_section_title
;
Structure prediction by ZEFSAII (Michael W. Deem and Ramdas Pophale) SiO2 
 PCOD8190585
Probable space group: I B A 2
;
_chemical_formula_sum "Si O2"
_cell_formula_units_Z 60
_cell_length_a 12.049143
_cell_length_b 8.888111
_cell_length_c 25.139454
_cell_angle_alpha 90.000000
_cell_angle_beta 90.000000
_cell_angle_gamma 90.000000
_cell_volume 2692.287714
_symmetry_space_group_name_H-M "I B A 2"
_symmetry_group_IT_number 45
_symmetry_cell_setting 'orthorhombic'
loop_
_space_group_symop_operation_xyz
x,y,z
-x,-y,z
-x,y,1/2+z
x,-y,1/2+z
1/2+x,1/2+y,1/2+z
1/2-x,1/2-y,1/2+z
1/2-x,1/2+y,z
1/2+x,1/2-y,z
loop_
_atom_site_type_symbol
_atom_site_label
_atom_site_fract_x
_atom_site_fract_y
_atom_site_fract_z
Si Si1 0.372319 0.041826 0.223180
Si Si2 0.252862 0.707898 0.784629
Si Si3 0.379581 0.924395 0.602676
Si Si4 0.000000 0.500000 0.953163
Si Si5 0.998920 0.161860 0.554717
Si Si6 0.683972 0.852171 0.524499
Si Si7 0.888744 0.204278 0.950490
Si Si8 0.123105 0.041593 0.342865
O O1 0.348597 0.188868 0.258834
O O2 0.337680 0.079583 0.162980
O O3 0.500000 0.000000 0.229705
O O4 0.299383 0.898993 0.240111
O O5 0.158837 0.815277 0.808433
O O6 0.302021 0.605775 0.832289
O O7 0.398798 0.755454 0.580785
O O8 0.500000 0.000000 0.598426
O O9 0.287871 0.010401 0.565475
O O10 0.929402 0.365817 0.923416
O O11 0.913836 0.586835 0.988412
O O12 0.873842 0.225308 0.561918
O O13 0.018408 0.145557 0.491084
O O14 0.000000 0.000000 0.582675
O O15 0.778147 0.783303 0.486840
O O16 0.868598 0.081300 0.905046
O O17 0.000000 0.000000 0.325250
#
# Coordination Sequence:
#
# PCOD8190585 Si02
#       8
#     8   8   8   4   8   8   8   8
#     4  10  21  43  69  95 133 175 213 285 337 390
#     4  10  24  44  68  99 128 165 231 278 342 405
#     4   9  18  39  63  91 132 177 216 258 326 393
#     4  10  22  44  58  94 140 170 218 266 322 392
#     4  10  21  36  57  95 135 163 218 266 305 394
#     4  10  20  40  61  90 132 176 213 261 318 388
#     4  11  24  38  66  90 131 176 215 269 327 390
#     4  11  25  45  68  98 129 172 221 279 336 403
#
# _framework density 22.285879999999999
#
# number of rings (size 3 to 8) (size 9 to 14) (size 15 to 20)
#    0.000    1.867    3.333    1.200    3.733    3.200 
#    3.600   10.000    0.000    0.000    0.000    0.000 
#    0.000    0.000    0.000    0.000    0.000    0.000 
#
# Total GULP energy -371669.566476 kJ/mol
# GULP energy per Si atom -12388.985549 kJ/mol
# Density = 2.223516 g / cm^3
# Si number density = 22.285880 Si / 1000 Ang^3
#
#
#
# Elastic Constant Matrix: (Units=GPa)
#
#
# Indices 1 2 3 4 5 6 
#
# 1 89.9095 57.5957 35.4335 0.0000 0.0000 0.0000
# 2 57.5957 174.2885 65.2949 0.0000 0.0000 0.0000
# 3 35.4335 65.2949 126.1754 0.0000 0.0000 0.0000
# 4 0.0000 0.0000 0.0000 24.8904 0.0000 0.0000
# 5 0.0000 0.0000 0.0000 0.0000 27.4348 0.0000
# 6 0.0000 0.0000 0.0000 0.0000 0.0000 32.0993
#
#
#
# Elastic Compliance Matrix: (Units=1/GPa)
#
#
# Indices 1 2 3 4 5 6 
#
# 1 0.014495 -0.004050 -0.001975 0.000000 0.000000 0.000000
# 2 -0.004050 0.008249 -0.003131 0.000000 0.000000 0.000000
# 3 -0.001975 -0.003131 0.010101 0.000000 0.000000 0.000000
# 4 0.000000 0.000000 0.000000 0.040176 0.000000 0.000000
# 5 0.000000 0.000000 0.000000 0.000000 0.036450 0.000000
# 6 0.000000 0.000000 0.000000 0.000000 0.000000 0.031153
#
#
# Mechanical properties :
#
#
# Convention : Reuss Voigt Hill
#
# Bulk Modulus (GPa) = 68.81345 78.55796 73.68570
# Shear Modulus (GPa) = 30.52851 32.35485 31.44168
#
# Velocity S-wave (km/s) = 3.70518 3.81440 3.76018
# Velocity P-wave (km/s) = 7.01777 7.39771 7.21024
#
# Compressibility (1/GPa) = 0.01453204
#
# Stress axis : x y z
#
# Youngs Moduli (GPa) = 68.98881 121.22303 99.00473
#
# Poissons Ratio (x) = 0.49099 0.19550
# Poissons Ratio (y) = 0.27943 0.31003
# Poissons Ratio (z) = 0.13623 0.37961
#
# Static dielectric constant tensor:
#      x y z
#    x 3.649010 0.000000 0.000000 
#    y 0.000000 4.567230 0.000000 
#    z 0.000000 0.000000 3.871590 
# 
# 
# High freq. dielectric constant tensor:
#      x y z
#    x 1.875130 0.000000 0.000000 
#    y 0.000000 1.898320 0.000000 
#    z 0.000000 0.000000 1.849150 
# 
# From -- ./inp_files/10026.got.cif
#   From: 2010.03.12/outbox.cif.g09.slc.cpg/sg45_6_cif.got.tgz:10026.got - 2010.04.14 02:50:11.
