data_PCOD8190142
_publ_section_title
;
Structure prediction by ZEFSAII (Michael W. Deem and Ramdas Pophale) SiO2 
 PCOD8190142
Probable space group: I M M 2
;
_chemical_formula_sum "Si O2"
_cell_formula_units_Z 48
_cell_length_a 8.826658
_cell_length_b 16.767642
_cell_length_c 16.770997
_cell_angle_alpha 90.000000
_cell_angle_beta 90.000000
_cell_angle_gamma 90.000000
_cell_volume 2482.145147
_symmetry_space_group_name_H-M "I M M 2"
_symmetry_group_IT_number 44
_symmetry_cell_setting 'orthorhombic'
loop_
_space_group_symop_operation_xyz
x,y,z
-x,-y,z
-x,y,z
x,-y,z
1/2+x,1/2+y,1/2+z
1/2-x,1/2-y,1/2+z
1/2-x,1/2+y,1/2+z
1/2+x,1/2-y,1/2+z
loop_
_atom_site_type_symbol
_atom_site_label
_atom_site_fract_x
_atom_site_fract_y
_atom_site_fract_z
Si Si1 0.174964 0.321823 0.183060
Si Si2 0.678421 0.350558 0.018095
Si Si3 0.174892 0.406704 0.344777
Si Si4 0.322764 0.000000 0.251246
Si Si5 0.323002 0.313034 0.484167
Si Si6 0.319817 0.000000 0.430773
Si Si7 0.172639 0.141409 0.159986
O O1 0.277112 0.352818 0.110884
O O2 0.226160 0.368176 0.261667
O O3 0.200286 0.228097 0.198396
O O4 0.000000 0.338776 0.161096
O O5 0.500000 0.360011 0.009347
O O6 0.730200 0.268679 0.976390
O O7 0.759431 0.422117 0.973850
O O8 0.204340 0.500000 0.338800
O O9 0.279702 0.372160 0.413726
O O10 0.000000 0.386884 0.363330
O O11 0.255543 0.000000 0.340443
O O12 0.276397 0.078991 0.204663
O O13 0.500000 0.000000 0.257463
O O14 0.500000 0.291640 0.481486
O O15 0.282583 0.356795 0.566894
O O16 0.500000 0.000000 0.433952
O O17 0.000000 0.113907 0.170617
#
# Coordination Sequence:
#
# PCOD8190142 Si02
#       7
#     8   8   8   4   8   4   8
#     4   9  20  40  63  89 121 162 199 241 303 366
#     4  11  23  40  64  93 120 156 203 252 301 357
#     4  10  22  38  60  93 126 159 200 248 301 355
#     4  11  25  39  59  90 119 150 199 251 300 349
#     4  10  22  41  63  88 120 163 203 245 302 361
#     4  11  25  43  61  88 125 162 197 245 306 363
#     4   9  20  39  61  84 117 159 200 239 296 360
#
# _framework density 19.33811
#
# number of rings (size 3 to 8) (size 9 to 14) (size 15 to 20)
#    0.000    2.000    0.000    3.500    4.667    5.667 
#    0.000    0.000    0.000    0.000    0.000    0.000 
#    0.000    0.000    0.000    0.000    0.000    0.000 
#
# Total GULP energy -297707.132152 kJ/mol
# GULP energy per Si atom -12404.463840 kJ/mol
# Density = 1.929410 g / cm^3
# Si number density = 19.338110 Si / 1000 Ang^3
#
#
#
# Elastic Constant Matrix: (Units=GPa)
#
#
# Indices 1 2 3 4 5 6 
#
# 1 72.5953 38.4594 37.2089 0.0000 0.0000 0.0000
# 2 38.4594 116.8453 76.6546 0.0000 0.0000 0.0000
# 3 37.2089 76.6546 113.4836 0.0000 0.0000 0.0000
# 4 0.0000 0.0000 0.0000 27.5445 0.0000 0.0000
# 5 0.0000 0.0000 0.0000 0.0000 30.4425 0.0000
# 6 0.0000 0.0000 0.0000 0.0000 0.0000 34.0512
#
#
#
# Elastic Compliance Matrix: (Units=1/GPa)
#
#
# Indices 1 2 3 4 5 6 
#
# 1 0.017341 -0.003552 -0.003287 0.000000 0.000000 0.000000
# 2 -0.003552 0.016096 -0.009708 0.000000 0.000000 0.000000
# 3 -0.003287 -0.009708 0.016447 0.000000 0.000000 0.000000
# 4 0.000000 0.000000 0.000000 0.036305 0.000000 0.000000
# 5 0.000000 0.000000 0.000000 0.000000 0.032849 0.000000
# 6 0.000000 0.000000 0.000000 0.000000 0.000000 0.029368
#
#
# Mechanical properties :
#
#
# Convention : Reuss Voigt Hill
#
# Bulk Modulus (GPa) = 59.55371 67.50781 63.53076
# Shear Modulus (GPa) = 26.72437 28.44772 27.58605
#
# Velocity S-wave (km/s) = 3.72150 3.83961 3.78102
# Velocity P-wave (km/s) = 7.02346 7.39201 7.21009
#
# Compressibility (1/GPa) = 0.01679157
#
# Stress axis : x y z
#
# Youngs Moduli (GPa) = 57.66610 62.12721 60.80170
#
# Poissons Ratio (x) = 0.22065 0.19985
# Poissons Ratio (y) = 0.20480 0.59026
# Poissons Ratio (z) = 0.18954 0.60312
#
# Static dielectric constant tensor:
#      x y z
#    x 3.478160 0.000000 0.000000 
#    y 0.000000 4.482010 0.000000 
#    z 0.000000 0.000000 3.675940 
# 
# 
# High freq. dielectric constant tensor:
#      x y z
#    x 1.751220 0.000000 0.000000 
#    y 0.000000 1.762130 0.000000 
#    z 0.000000 0.000000 1.760630 
# 
# From -- ./inp_files/18834.got.cif
#   From: 2010.03.12/outbox.cif.g09.slc.cpg/sg44_10_cif.got.tgz:18834.got - 2010.04.14 02:36:11.
