data_PCOD8190126
_publ_section_title
;
Structure prediction by ZEFSAII (Michael W. Deem and Ramdas Pophale) SiO2 
 PCOD8190126
Probable space group: I M M 2
;
_chemical_formula_sum "Si O2"
_cell_formula_units_Z 64
_cell_length_a 9.354942
_cell_length_b 14.608127
_cell_length_c 23.845287
_cell_angle_alpha 90.000000
_cell_angle_beta 90.000000
_cell_angle_gamma 90.000000
_cell_volume 3258.653542
_symmetry_space_group_name_H-M "I M M 2"
_symmetry_group_IT_number 44
_symmetry_cell_setting 'orthorhombic'
loop_
_space_group_symop_operation_xyz
x,y,z
-x,-y,z
-x,y,z
x,-y,z
1/2+x,1/2+y,1/2+z
1/2-x,1/2-y,1/2+z
1/2-x,1/2+y,1/2+z
1/2+x,1/2-y,1/2+z
loop_
_atom_site_type_symbol
_atom_site_label
_atom_site_fract_x
_atom_site_fract_y
_atom_site_fract_z
Si Si1 0.657647 0.391487 0.450190
Si Si2 0.334522 0.771594 0.742453
Si Si3 0.334611 0.606033 0.030552
Si Si4 0.168304 0.761829 0.632128
Si Si5 0.164356 0.103986 0.316486
Si Si6 0.667783 0.394175 0.574931
Si Si7 0.666138 0.105383 0.846142
Si Si8 0.838246 0.391352 0.923635
O O1 0.500000 0.350180 0.440563
O O2 0.650840 0.500000 0.447294
O O3 0.713869 0.364467 0.511948
O O4 0.758632 0.352512 0.401412
O O5 0.500000 0.787983 0.726453
O O6 0.235213 0.796181 0.690222
O O7 0.309300 0.666909 0.762170
O O8 0.284891 0.839095 0.791870
O O9 0.500000 0.618501 0.014538
O O10 0.298594 0.500000 0.042688
O O11 0.293672 0.662377 0.085829
O O12 0.241624 0.645887 0.978999
O O13 0.239498 0.664849 0.617666
O O14 0.000000 0.748235 0.639134
O O15 0.258773 0.142591 0.367665
O O16 0.000000 0.110231 0.336062
O O17 0.205917 0.000000 0.300102
O O18 0.500000 0.375715 0.584445
O O19 0.703650 0.500000 0.586203
O O20 0.500000 0.117739 0.857347
O O21 0.708789 0.000000 0.836468
O O22 0.832694 0.500000 0.924785
O O23 0.000000 0.354192 0.923544
#
# Coordination Sequence:
#
# PCOD8190126 Si02
#       8
#     8   8   8   8   8   8   8   8
#     4   8  15  30  53  80 106 133 168 207 251 310
#     4  10  22  38  53  72 101 138 181 220 256 312
#     4   9  19  37  57  76 105 144 179 214 263 323
#     4  11  24  38  54  79 106 136 182 232 270 307
#     4   9  18  34  55  76 101 136 172 206 252 312
#     4   9  19  37  59  81 109 145 178 210 258 321
#     4   9  18  33  53  77 105 136 169 211 264 314
#     4   9  17  30  52  83 111 133 165 212 264 314
#
# _framework density 19.640011999999999
#
# number of rings (size 3 to 8) (size 9 to 14) (size 15 to 20)
#    0.000    2.750    0.000    1.500    0.000    6.250 
#    0.000    6.250    0.000    0.000    0.000    0.000 
#    0.000    0.000    0.000    0.000    0.000    0.000 
#
# Total GULP energy -396802.510801 kJ/mol
# GULP energy per Si atom -12400.078463 kJ/mol
# Density = 1.959531 g / cm^3
# Si number density = 19.640012 Si / 1000 Ang^3
#
#
#
# Elastic Constant Matrix: (Units=GPa)
#
#
# Indices 1 2 3 4 5 6 
#
# 1 70.4134 6.9137 37.9431 0.0000 0.0000 0.0000
# 2 6.9137 33.8039 -0.5073 0.0000 0.0000 0.0000
# 3 37.9431 -0.5073 82.4090 0.0000 0.0000 0.0000
# 4 0.0000 0.0000 0.0000 29.7959 0.0000 0.0000
# 5 0.0000 0.0000 0.0000 0.0000 42.2443 0.0000
# 6 0.0000 0.0000 0.0000 0.0000 0.0000 16.6795
#
#
#
# Elastic Compliance Matrix: (Units=1/GPa)
#
#
# Indices 1 2 3 4 5 6 
#
# 1 0.019443 -0.004111 -0.008977 0.000000 0.000000 0.000000
# 2 -0.004111 0.030454 0.002080 0.000000 0.000000 0.000000
# 3 -0.008977 0.002080 0.016281 0.000000 0.000000 0.000000
# 4 0.000000 0.000000 0.000000 0.033562 0.000000 0.000000
# 5 0.000000 0.000000 0.000000 0.000000 0.023672 0.000000
# 6 0.000000 0.000000 0.000000 0.000000 0.000000 0.059954
#
#
# Mechanical properties :
#
#
# Convention : Reuss Voigt Hill
#
# Bulk Modulus (GPa) = 22.64398 30.59169 26.61783
# Shear Modulus (GPa) = 22.71665 27.22907 24.97286
#
# Velocity S-wave (km/s) = 3.40465 3.72749 3.56972
# Velocity P-wave (km/s) = 5.19712 5.84257 5.52927
#
# Compressibility (1/GPa) = 0.04416185
#
# Stress axis : x y z
#
# Youngs Moduli (GPa) = 51.43216 32.83589 61.42209
#
# Poissons Ratio (x) = 0.13500 0.55141
# Poissons Ratio (y) = 0.21145 -0.12778
# Poissons Ratio (z) = 0.46173 -0.06831
#
# Static dielectric constant tensor:
#      x y z
#    x 3.593350 0.000000 0.000000 
#    y 0.000000 3.505360 0.000000 
#    z 0.000000 0.000000 3.579470 
# 
# 
# High freq. dielectric constant tensor:
#      x y z
#    x 1.757820 0.000000 0.000000 
#    y 0.000000 1.762590 0.000000 
#    z 0.000000 0.000000 1.762070 
# 
# From -- ./inp_files/25113.got.cif
#   From: 2010.03.12/outbox.cif.g09.slc.cpg/sg44_13_cif.got.tgz:25113.got - 2010.04.14 02:36:11.
