data_PCOD8190560
_publ_section_title
;
Structure prediction by ZEFSAII (Michael W. Deem and Ramdas Pophale) SiO2 
 PCOD8190560
Probable space group: I B A 2
;
_chemical_formula_sum "Si O2"
_cell_formula_units_Z 48
_cell_length_a 16.077964
_cell_length_b 8.742146
_cell_length_c 16.479446
_cell_angle_alpha 90.000000
_cell_angle_beta 90.000000
_cell_angle_gamma 90.000000
_cell_volume 2316.283507
_symmetry_space_group_name_H-M "I B A 2"
_symmetry_group_IT_number 45
_symmetry_cell_setting 'orthorhombic'
loop_
_space_group_symop_operation_xyz
x,y,z
-x,-y,z
-x,y,1/2+z
x,-y,1/2+z
1/2+x,1/2+y,1/2+z
1/2-x,1/2-y,1/2+z
1/2-x,1/2+y,z
1/2+x,1/2-y,z
loop_
_atom_site_type_symbol
_atom_site_label
_atom_site_fract_x
_atom_site_fract_y
_atom_site_fract_z
Si Si1 0.500000 0.000000 0.474301
Si Si2 0.263386 0.335235 0.464742
Si Si3 0.896691 0.730398 0.373889
Si Si4 0.165001 0.417344 0.056892
Si Si5 0.845238 0.174485 0.297875
Si Si6 0.183410 0.478400 0.242819
Si Si7 0.500000 0.500000 0.314901
O O1 0.533437 0.133682 0.418262
O O2 0.429824 0.070488 0.530893
O O3 0.185826 0.242639 0.426513
O O4 0.226492 0.494408 0.495480
O O5 0.302944 0.255635 0.544565
O O6 0.334013 0.346965 0.395145
O O7 0.873662 0.645105 0.289454
O O8 0.934828 0.897956 0.364421
O O9 0.166384 0.474724 0.147967
O O10 0.834194 0.352004 0.275535
O O11 0.779663 0.064940 0.253472
O O12 0.937521 0.117696 0.267990
#
# Coordination Sequence:
#
# PCOD8190560 Si02
#       7
#     4   8   8   8   8   8   4
#     4  10  22  38  60  86 118 158 204 252 308 356
#     4  10  20  38  61  84 118 162 203 242 299 372
#     4  10  21  38  60  89 120 160 205 248 300 367
#     4  11  22  38  61  89 119 156 200 254 308 355
#     4  11  22  39  63  90 120 162 207 250 301 370
#     4  11  23  41  62  88 125 164 203 251 309 368
#     4  12  22  34  62  92 114 148 208 260 294 342
#
# _framework density 20.722853000000001
#
# number of rings (size 3 to 8) (size 9 to 14) (size 15 to 20)
#    0.000    1.333    0.000    9.000    0.000    2.000 
#    0.000    0.000    0.000   12.000    0.000    0.000 
#    0.000    0.000    0.000    0.000    0.000    0.000 
#
# Total GULP energy -297469.165879 kJ/mol
# GULP energy per Si atom -12394.548578 kJ/mol
# Density = 2.067569 g / cm^3
# Si number density = 20.722853 Si / 1000 Ang^3
#
#
#
# Elastic Constant Matrix: (Units=GPa)
#
#
# Indices 1 2 3 4 5 6 
#
# 1 116.4454 55.4258 36.5257 0.0000 0.0000 0.0000
# 2 55.4258 92.5144 18.3706 0.0000 0.0000 0.0000
# 3 36.5257 18.3706 109.9260 0.0000 0.0000 0.0000
# 4 0.0000 0.0000 0.0000 22.6257 0.0000 0.0000
# 5 0.0000 0.0000 0.0000 0.0000 9.7554 0.0000
# 6 0.0000 0.0000 0.0000 0.0000 0.0000 39.1724
#
#
#
# Elastic Compliance Matrix: (Units=1/GPa)
#
#
# Indices 1 2 3 4 5 6 
#
# 1 0.012968 -0.007151 -0.003114 0.000000 0.000000 0.000000
# 2 -0.007151 0.015123 -0.000151 0.000000 0.000000 0.000000
# 3 -0.003114 -0.000151 0.010157 0.000000 0.000000 0.000000
# 4 0.000000 0.000000 0.000000 0.044197 0.000000 0.000000
# 5 0.000000 0.000000 0.000000 0.000000 0.102507 0.000000
# 6 0.000000 0.000000 0.000000 0.000000 0.000000 0.025528
#
#
# Mechanical properties :
#
#
# Convention : Reuss Voigt Hill
#
# Bulk Modulus (GPa) = 57.41809 59.94779 58.68294
# Shear Modulus (GPa) = 21.08641 28.21495 24.65068
#
# Velocity S-wave (km/s) = 3.19336 3.69391 3.45271
# Velocity P-wave (km/s) = 6.43152 6.86909 6.65390
#
# Compressibility (1/GPa) = 0.01741611
#
# Stress axis : x y z
#
# Youngs Moduli (GPa) = 77.11158 66.12289 98.45420
#
# Poissons Ratio (x) = 0.47284 0.30658
# Poissons Ratio (y) = 0.55142 0.01489
# Poissons Ratio (z) = 0.24012 0.01000
#
# Static dielectric constant tensor:
#      x y z
#    x 4.062250 0.000000 0.000000 
#    y 0.000000 3.875550 0.000000 
#    z 0.000000 0.000000 3.518730 
# 
# 
# High freq. dielectric constant tensor:
#      x y z
#    x 1.826860 0.000000 0.000000 
#    y 0.000000 1.824610 0.000000 
#    z 0.000000 0.000000 1.784440 
# 
# From -- ./inp_files/5635.got.cif
#   From: 2010.03.12/outbox.cif.g09.slc.cpg/sg45_3_cif.got.tgz:5635.got - 2010.04.14 02:50:11.
