data_PCOD8190677
_publ_section_title
;
Structure prediction by ZEFSAII (Michael W. Deem and Ramdas Pophale) SiO2 
 PCOD8190677
Probable space group: I B A 2
;
_chemical_formula_sum "Si O2"
_cell_formula_units_Z 48
_cell_length_a 30.969914
_cell_length_b 4.878383
_cell_length_c 14.396809
_cell_angle_alpha 90.000000
_cell_angle_beta 90.000000
_cell_angle_gamma 90.000000
_cell_volume 2175.114562
_symmetry_space_group_name_H-M "I B A 2"
_symmetry_group_IT_number 45
_symmetry_cell_setting 'orthorhombic'
loop_
_space_group_symop_operation_xyz
x,y,z
-x,-y,z
-x,y,1/2+z
x,-y,1/2+z
1/2+x,1/2+y,1/2+z
1/2-x,1/2-y,1/2+z
1/2-x,1/2+y,z
1/2+x,1/2-y,z
loop_
_atom_site_type_symbol
_atom_site_label
_atom_site_fract_x
_atom_site_fract_y
_atom_site_fract_z
Si Si1 0.970158 0.245128 0.626890
Si Si2 0.778937 0.931580 0.130702
Si Si3 0.778937 0.931542 0.918357
Si Si4 0.905901 0.499994 0.274549
Si Si5 0.470158 0.254870 0.422216
Si Si6 0.849727 0.999996 0.274534
O O1 0.932747 0.338359 0.696326
O O2 0.951497 0.157951 0.524553
O O3 0.000000 0.500000 0.611692
O O4 0.000000 0.000000 0.668726
O O5 0.739559 0.729637 0.154228
O O6 0.820915 0.874784 0.192107
O O7 0.793611 0.897244 0.024530
O O8 0.760438 0.229582 0.894827
O O9 0.820916 0.874752 0.856953
O O10 0.932746 0.338380 0.352782
O O11 0.877401 0.747113 0.317244
O O12 0.877410 0.252861 0.231836
O O13 0.500000 0.500000 0.380381
O O14 0.500000 0.000000 0.437415
#
# Coordination Sequence:
#
# PCOD8190677 Si02
#       6
#     8   8   8   8   8   8
#     4  10  22  42  65  86 115 160 208 249 295 364
#     4  10  21  39  62  84 113 160 209 246 288 356
#     4  10  21  39  62  84 113 160 209 246 288 356
#     4  12  25  37  60  94 125 156 193 252 318 367
#     4  10  22  42  65  86 115 160 208 249 295 364
#     4  12  24  37  57  90 127 156 189 250 317 363
#
# _framework density 22.067805
#
# number of rings (size 3 to 8) (size 9 to 14) (size 15 to 20)
#    0.000    1.333    0.000    5.500    0.000    4.000 
#    0.000    0.000    0.000    0.000    0.000    0.000 
#    0.000    0.000    0.000    0.000    0.000    0.000 
#
# Total GULP energy -297514.450293 kJ/mol
# GULP energy per Si atom -12396.435429 kJ/mol
# Density = 2.201758 g / cm^3
# Si number density = 22.067805 Si / 1000 Ang^3
#
#
#
# Elastic Constant Matrix: (Units=GPa)
#
#
# Indices 1 2 3 4 5 6 
#
# 1 109.9960 43.2941 67.8400 0.0000 0.0000 0.0000
# 2 43.2941 124.4023 38.8132 0.0000 0.0000 0.0000
# 3 67.8400 38.8132 104.5986 0.0000 0.0000 0.0000
# 4 0.0000 0.0000 0.0000 30.3974 0.0000 0.0000
# 5 0.0000 0.0000 0.0000 0.0000 7.5278 0.0000
# 6 0.0000 0.0000 0.0000 0.0000 0.0000 22.4637
#
#
#
# Elastic Compliance Matrix: (Units=1/GPa)
#
#
# Indices 1 2 3 4 5 6 
#
# 1 0.015870 -0.002614 -0.009323 0.000000 0.000000 0.000000
# 2 -0.002614 0.009522 -0.001838 0.000000 0.000000 0.000000
# 3 -0.009323 -0.001838 0.016289 0.000000 0.000000 0.000000
# 4 0.000000 0.000000 0.000000 0.032898 0.000000 0.000000
# 5 0.000000 0.000000 0.000000 0.000000 0.132841 0.000000
# 6 0.000000 0.000000 0.000000 0.000000 0.000000 0.044516
#
#
# Mechanical properties :
#
#
# Convention : Reuss Voigt Hill
#
# Bulk Modulus (GPa) = 70.76660 70.98796 70.87728
# Shear Modulus (GPa) = 17.59353 24.68109 21.13731
#
# Velocity S-wave (km/s) = 2.82662 3.34791 3.09825
# Velocity P-wave (km/s) = 6.54144 6.86896 6.70720
#
# Compressibility (1/GPa) = 0.01413096
#
# Stress axis : x y z
#
# Youngs Moduli (GPa) = 63.01157 105.02447 61.39203
#
# Poissons Ratio (x) = 0.27457 0.57235
# Poissons Ratio (y) = 0.16474 0.11281
# Poissons Ratio (z) = 0.58745 0.19299
#
# Static dielectric constant tensor:
#      x y z
#    x 3.805740 0.000000 0.000000 
#    y 0.000000 4.221700 0.000000 
#    z 0.000000 0.000000 4.208100 
# 
# 
# High freq. dielectric constant tensor:
#      x y z
#    x 1.856740 0.000000 0.000000 
#    y 0.000000 1.890460 0.000000 
#    z 0.000000 0.000000 1.867050 
# 
# From -- ./inp_files/5186.got.cif
#   From: 2010.03.12/outbox.cif.g09.slc.cpg/sg45_3_cif.got.tgz:5186.got - 2010.04.14 02:50:11.
