data_PCOD8190587
_publ_section_title
;
Structure prediction by ZEFSAII (Michael W. Deem and Ramdas Pophale) SiO2 
 PCOD8190587
Probable space group: I B A 2
;
_chemical_formula_sum "Si O2"
_cell_formula_units_Z 64
_cell_length_a 8.557363
_cell_length_b 25.780814
_cell_length_c 13.761195
_cell_angle_alpha 90.000000
_cell_angle_beta 90.000000
_cell_angle_gamma 90.000000
_cell_volume 3035.936821
_symmetry_space_group_name_H-M "I B A 2"
_symmetry_group_IT_number 45
_symmetry_cell_setting 'orthorhombic'
loop_
_space_group_symop_operation_xyz
x,y,z
-x,-y,z
-x,y,1/2+z
x,-y,1/2+z
1/2+x,1/2+y,1/2+z
1/2-x,1/2-y,1/2+z
1/2-x,1/2+y,z
1/2+x,1/2-y,z
loop_
_atom_site_type_symbol
_atom_site_label
_atom_site_fract_x
_atom_site_fract_y
_atom_site_fract_z
Si Si1 0.041031 0.135541 0.914950
Si Si2 0.138090 0.769102 0.835113
Si Si3 0.966252 0.580674 0.525202
Si Si4 0.032021 0.586942 0.241996
Si Si5 0.738153 0.435986 0.406270
Si Si6 0.753698 0.451444 0.864164
Si Si7 0.929137 0.297776 0.219808
Si Si8 0.674654 0.186949 0.509093
O O1 0.134724 0.095899 0.843988
O O2 0.977664 0.183561 0.854732
O O3 0.896429 0.100472 0.952913
O O4 0.154837 0.158834 0.998842
O O5 0.308171 0.790220 0.808625
O O6 0.070215 0.741807 0.738664
O O7 0.149045 0.730605 0.927590
O O8 0.934109 0.564604 0.635822
O O9 0.825385 0.553077 0.470949
O O10 0.958302 0.642497 0.500431
O O11 0.132901 0.558983 0.490629
O O12 0.185519 0.587834 0.308985
O O13 0.985964 0.646806 0.227643
O O14 0.892975 0.552269 0.285997
O O15 0.673421 0.491925 0.368874
O O16 0.844048 0.287986 0.116173
#
# Coordination Sequence:
#
# PCOD8190587 Si02
#       8
#     8   8   8   8   8   8   8   8
#     4  11  23  42  60  87 131 160 201 264 312 363
#     4  12  23  41  64  88 128 165 209 257 314 379
#     4   9  20  39  64  89 123 160 205 254 307 374
#     4  10  20  40  63  92 123 158 207 255 307 378
#     4  11  21  38  65  91 117 164 213 252 313 373
#     4  10  22  39  61  89 124 162 205 259 314 368
#     4  11  24  40  64  95 125 166 212 256 318 382
#     4  10  24  43  63  93 127 167 207 260 316 384
#
# _framework density 21.080808999999999
#
# number of rings (size 3 to 8) (size 9 to 14) (size 15 to 20)
#    0.000    1.500    2.500    4.125    1.750    2.000 
#    4.500    0.000    0.000    3.000    0.000    0.000 
#    0.000    0.000    0.000    0.000    0.000    0.000 
#
# Total GULP energy -396553.693369 kJ/mol
# GULP energy per Si atom -12392.302918 kJ/mol
# Density = 2.103283 g / cm^3
# Si number density = 21.080809 Si / 1000 Ang^3
#
#
#
# Elastic Constant Matrix: (Units=GPa)
#
#
# Indices 1 2 3 4 5 6 
#
# 1 72.6507 27.9354 17.6105 0.0000 0.0000 0.0000
# 2 27.9354 113.2447 25.5275 0.0000 0.0000 -0.0001
# 3 17.6105 25.5275 107.5160 0.0004 -0.0005 -0.0002
# 4 0.0000 0.0000 0.0004 23.9279 -0.0003 -0.0001
# 5 0.0000 0.0000 -0.0005 -0.0003 20.0481 0.0000
# 6 0.0000 -0.0001 -0.0002 -0.0001 0.0000 34.4195
#
#
#
# Elastic Compliance Matrix: (Units=1/GPa)
#
#
# Indices 1 2 3 4 5 6 
#
# 1 0.015503 -0.003436 -0.001724 0.000000 0.000000 0.000000
# 2 -0.003436 0.010091 -0.001833 0.000000 0.000000 0.000000
# 3 -0.001724 -0.001833 0.010019 0.000000 0.000000 0.000000
# 4 0.000000 0.000000 0.000000 0.041792 0.000001 0.000000
# 5 0.000000 0.000000 0.000000 0.000001 0.049880 0.000000
# 6 0.000000 0.000000 0.000000 0.000000 0.000000 0.029053
#
#
# Mechanical properties :
#
#
# Convention : Reuss Voigt Hill
#
# Bulk Modulus (GPa) = 46.23665 48.39537 47.31601
# Shear Modulus (GPa) = 28.16370 30.50161 29.33266
#
# Velocity S-wave (km/s) = 3.65908 3.80793 3.73425
# Velocity P-wave (km/s) = 6.31130 6.50697 6.40988
#
# Compressibility (1/GPa) = 0.02162786
#
# Stress axis : x y z
#
# Youngs Moduli (GPa) = 64.50178 99.09587 99.81520
#
# Poissons Ratio (x) = 0.34048 0.17204
# Poissons Ratio (y) = 0.22162 0.18298
# Poissons Ratio (z) = 0.11118 0.18166
#
# Static dielectric constant tensor:
#      x y z
#    x 3.789850 0.000000 0.000000 
#    y 0.000000 4.030330 0.000000 
#    z 0.000000 0.000000 3.676350 
# 
# 
# High freq. dielectric constant tensor:
#      x y z
#    x 1.814860 0.000000 0.000000 
#    y 0.000000 1.846620 0.000000 
#    z 0.000000 0.000000 1.804840 
# 
# From -- ./inp_files/5862.got.cif
#   From: 2010.03.12/outbox.cif.g09.slc.cpg/sg45_3_cif.got.tgz:5862.got - 2010.04.14 02:50:11.
