data_PCOD8190775
_publ_section_title
;
Structure prediction by ZEFSAII (Michael W. Deem and Ramdas Pophale) SiO2 
 PCOD8190775
Probable space group: I B A 2
;
_chemical_formula_sum "Si O2"
_cell_formula_units_Z 48
_cell_length_a 28.463262
_cell_length_b 4.956606
_cell_length_c 15.881678
_cell_angle_alpha 90.000000
_cell_angle_beta 90.000000
_cell_angle_gamma 90.000000
_cell_volume 2240.605797
_symmetry_space_group_name_H-M "I B A 2"
_symmetry_group_IT_number 45
_symmetry_cell_setting 'orthorhombic'
loop_
_space_group_symop_operation_xyz
x,y,z
-x,-y,z
-x,y,1/2+z
x,-y,1/2+z
1/2+x,1/2+y,1/2+z
1/2-x,1/2-y,1/2+z
1/2-x,1/2+y,z
1/2+x,1/2-y,z
loop_
_atom_site_type_symbol
_atom_site_label
_atom_site_fract_x
_atom_site_fract_y
_atom_site_fract_z
Si Si1 0.279501 0.254193 0.258350
Si Si2 0.127279 0.363688 0.855898
Si Si3 0.946713 0.028323 0.606301
Si Si4 0.626696 0.364011 0.466936
Si Si5 0.553387 0.965462 0.217726
Si Si6 0.279495 0.278568 0.061868
O O1 0.263865 0.556305 0.282373
O O2 0.323611 0.136801 0.307616
O O3 0.292363 0.265915 0.160156
O O4 0.125862 0.554379 0.937610
O O5 0.087218 0.490398 0.797009
O O6 0.119747 0.058340 0.886695
O O7 0.935125 0.326578 0.641638
O O8 0.914516 0.940243 0.529946
O O9 0.938195 0.834271 0.684852
O O10 0.000000 0.000000 0.573358
O O11 0.676401 0.398094 0.512536
O O12 0.500000 0.000000 0.249460
O O13 0.236281 0.476868 0.037925
#
# Coordination Sequence:
#
# PCOD8190775 Si02
#       6
#     8   8   8   8   8   8
#     4  10  22  40  61  84 115 159 205 244 286 347
#     4  12  25  38  60  93 126 158 193 248 311 359
#     4  10  22  42  66  88 116 159 205 246 292 356
#     4  12  25  38  60  93 126 158 193 248 311 359
#     4  10  22  42  66  88 116 159 205 246 292 356
#     4  10  22  40  61  84 115 159 205 244 286 347
#
# _framework density 21.422778999999998
#
# number of rings (size 3 to 8) (size 9 to 14) (size 15 to 20)
#    0.000    1.333    0.000    5.000    0.000    9.333 
#    0.000    0.000    0.000    0.000    0.000    0.000 
#    0.000    0.000    0.000    0.000    0.000    0.000 
#
# Total GULP energy -297599.259355 kJ/mol
# GULP energy per Si atom -12399.969140 kJ/mol
# Density = 2.137402 g / cm^3
# Si number density = 21.422779 Si / 1000 Ang^3
#
#
#
# Elastic Constant Matrix: (Units=GPa)
#
#
# Indices 1 2 3 4 5 6 
#
# 1 114.2102 24.5870 67.4233 0.0000 0.0000 0.0000
# 2 24.5870 85.6429 19.8349 0.0000 0.0000 0.0000
# 3 67.4233 19.8349 78.6388 0.0000 0.0000 0.0000
# 4 0.0000 0.0000 0.0000 8.4124 0.0000 0.0000
# 5 0.0000 0.0000 0.0000 0.0000 85.1694 0.0000
# 6 0.0000 0.0000 0.0000 0.0000 0.0000 27.3999
#
#
#
# Elastic Compliance Matrix: (Units=1/GPa)
#
#
# Indices 1 2 3 4 5 6 
#
# 1 0.017956 -0.001688 -0.014970 0.000000 0.000000 0.000000
# 2 -0.001688 0.012559 -0.001721 0.000000 0.000000 0.000000
# 3 -0.014970 -0.001721 0.025985 0.000000 0.000000 0.000000
# 4 0.000000 0.000000 0.000000 0.118872 0.000000 0.000000
# 5 0.000000 0.000000 0.000000 0.000000 0.011741 0.000000
# 6 0.000000 0.000000 0.000000 0.000000 0.000000 0.036497
#
#
# Mechanical properties :
#
#
# Convention : Reuss Voigt Hill
#
# Bulk Modulus (GPa) = 50.64736 55.79802 53.22269
# Shear Modulus (GPa) = 18.73014 35.30611 27.01812
#
# Velocity S-wave (km/s) = 2.96008 4.06404 3.55517
# Velocity P-wave (km/s) = 5.94777 6.93719 6.46144
#
# Compressibility (1/GPa) = 0.01974437
#
# Stress axis : x y z
#
# Youngs Moduli (GPa) = 55.69020 79.62101 38.48367
#
# Poissons Ratio (x) = 0.13441 0.57609
# Poissons Ratio (y) = 0.09401 0.06621
# Poissons Ratio (z) = 0.83367 0.13699
#
# Static dielectric constant tensor:
#      x y z
#    x 3.865390 0.000000 0.000000 
#    y 0.000000 4.108640 0.000000 
#    z 0.000000 0.000000 3.726110 
# 
# 
# High freq. dielectric constant tensor:
#      x y z
#    x 1.842120 0.000000 0.000000 
#    y 0.000000 1.860180 0.000000 
#    z 0.000000 0.000000 1.834800 
# 
# From -- ./inp_files/7110.got.cif
#   From: 2010.03.12/outbox.cif.g09.slc.cpg/sg45_4_cif.got.tgz:7110.got - 2010.04.14 02:50:11.
