data_PCOD8190527
_publ_section_title
;
Structure prediction by ZEFSAII (Michael W. Deem and Ramdas Pophale) SiO2 
 PCOD8190527
Probable space group: I B A 2
;
_chemical_formula_sum "Si O2"
_cell_formula_units_Z 52
_cell_length_a 15.427629
_cell_length_b 10.882889
_cell_length_c 12.650387
_cell_angle_alpha 90.000000
_cell_angle_beta 90.000000
_cell_angle_gamma 90.000000
_cell_volume 2123.964227
_symmetry_space_group_name_H-M "I B A 2"
_symmetry_group_IT_number 45
_symmetry_cell_setting 'orthorhombic'
loop_
_space_group_symop_operation_xyz
x,y,z
-x,-y,z
-x,y,1/2+z
x,-y,1/2+z
1/2+x,1/2+y,1/2+z
1/2-x,1/2-y,1/2+z
1/2-x,1/2+y,z
1/2+x,1/2-y,z
loop_
_atom_site_type_symbol
_atom_site_label
_atom_site_fract_x
_atom_site_fract_y
_atom_site_fract_z
Si Si1 0.066230 0.154069 0.546820
Si Si2 0.878947 0.103306 0.477916
Si Si3 0.603041 0.863035 0.911958
Si Si4 0.291987 0.323069 0.672228
Si Si5 0.231426 0.915378 0.276729
Si Si6 0.500000 0.000000 0.570057
Si Si7 0.973387 0.723214 0.217954
O O1 0.129111 0.245660 0.483622
O O2 0.973363 0.165311 0.485456
O O3 0.051510 0.191564 0.671427
O O4 0.110849 0.023468 0.543255
O O5 0.804866 0.175443 0.544468
O O6 0.851223 0.087025 0.356126
O O7 0.682074 0.911499 0.844761
O O8 0.518663 0.831142 0.836438
O O9 0.580368 0.967171 0.995770
O O10 0.228241 0.207869 0.702110
O O11 0.259841 0.456431 0.713327
O O12 0.385565 0.302483 0.724792
O O13 0.462969 0.110482 0.638200
#
# Coordination Sequence:
#
# PCOD8190527 Si02
#       7
#     8   8   8   8   8   4   8
#     4   9  20  39  66  94 122 171 221 277 336 388
#     4  10  21  41  66  93 129 167 222 280 333 397
#     4  10  21  37  59  91 131 169 220 270 330 404
#     4  10  24  41  61  93 132 174 217 265 331 401
#     4  11  24  41  64  95 133 175 219 275 338 404
#     4  10  20  36  64  92 124 174 220 274 332 388
#     4   9  19  38  60  91 129 165 216 273 326 392
#
# _framework density 24.482523
#
# number of rings (size 3 to 8) (size 9 to 14) (size 15 to 20)
#    0.000    2.154    0.000    2.308    0.000    9.846 
#    0.000    9.231    0.000    0.000    0.000    0.000 
#    0.000    0.000    0.000    0.000    0.000    0.000 
#
# Total GULP energy -322121.410226 kJ/mol
# GULP energy per Si atom -12389.285009 kJ/mol
# Density = 2.442680 g / cm^3
# Si number density = 24.482523 Si / 1000 Ang^3
#
#
#
# Elastic Constant Matrix: (Units=GPa)
#
#
# Indices 1 2 3 4 5 6 
#
# 1 50.4383 18.5020 4.8725 0.0000 0.0000 0.0000
# 2 18.5020 140.9932 30.2038 0.0000 0.0000 0.0000
# 3 4.8725 30.2038 62.4132 0.0000 0.0000 0.0000
# 4 0.0000 0.0000 0.0000 2.9485 0.0000 0.0000
# 5 0.0000 0.0000 0.0000 0.0000 30.2453 0.0000
# 6 0.0000 0.0000 0.0000 0.0000 0.0000 26.1835
#
#
#
# Elastic Compliance Matrix: (Units=1/GPa)
#
#
# Indices 1 2 3 4 5 6 
#
# 1 0.020835 -0.002662 -0.000339 0.000000 0.000000 0.000000
# 2 -0.002662 0.008253 -0.003786 0.000000 0.000000 0.000000
# 3 -0.000339 -0.003786 0.017881 0.000000 0.000000 0.000000
# 4 0.000000 0.000000 0.000000 0.339161 0.000000 0.000000
# 5 0.000000 0.000000 0.000000 0.000000 0.033063 0.000000
# 6 0.000000 0.000000 0.000000 0.000000 0.000000 0.038192
#
#
# Mechanical properties :
#
#
# Convention : Reuss Voigt Hill
#
# Bulk Modulus (GPa) = 29.94315 40.11126 35.02721
# Shear Modulus (GPa) = 10.37152 25.22654 17.79903
#
# Velocity S-wave (km/s) = 2.06046 3.21345 2.69924
# Velocity P-wave (km/s) = 4.23292 5.49432 4.90434
#
# Compressibility (1/GPa) = 0.03339661
#
# Stress axis : x y z
#
# Youngs Moduli (GPa) = 47.99556 121.17001 55.92573
#
# Poissons Ratio (x) = 0.32251 0.01893
# Poissons Ratio (y) = 0.12775 0.21174
# Poissons Ratio (z) = 0.01625 0.45875
#
# Static dielectric constant tensor:
#      x y z
#    x 4.050880 0.000000 0.000000 
#    y 0.000000 4.726530 0.000000 
#    z 0.000000 0.000000 4.797670 
# 
# 
# High freq. dielectric constant tensor:
#      x y z
#    x 1.949420 0.000000 0.000000 
#    y 0.000000 1.981080 0.000000 
#    z 0.000000 0.000000 1.985120 
# 
# From -- ./inp_files/6790.got.cif
#   From: 2010.03.12/outbox.cif.g09.slc.cpg/sg45_4_cif.got.tgz:6790.got - 2010.04.14 02:50:11.
