data_PCOD8190484
_publ_section_title
;
Structure prediction by ZEFSAII (Michael W. Deem and Ramdas Pophale) SiO2 
 PCOD8190484
Probable space group: I B A 2
;
_chemical_formula_sum "Si O2"
_cell_formula_units_Z 32
_cell_length_a 5.307015
_cell_length_b 13.593383
_cell_length_c 19.710241
_cell_angle_alpha 90.000000
_cell_angle_beta 90.000000
_cell_angle_gamma 90.000000
_cell_volume 1421.902452
_symmetry_space_group_name_H-M "I B A 2"
_symmetry_group_IT_number 45
_symmetry_cell_setting 'orthorhombic'
loop_
_space_group_symop_operation_xyz
x,y,z
-x,-y,z
-x,y,1/2+z
x,-y,1/2+z
1/2+x,1/2+y,1/2+z
1/2-x,1/2-y,1/2+z
1/2-x,1/2+y,z
1/2+x,1/2-y,z
loop_
_atom_site_type_symbol
_atom_site_label
_atom_site_fract_x
_atom_site_fract_y
_atom_site_fract_z
Si Si1 0.398846 0.347476 0.597770
Si Si2 0.500000 0.500000 0.336535
Si Si3 0.398490 0.866500 0.042759
Si Si4 0.000000 0.500000 0.421550
Si Si5 0.071339 0.805888 0.754955
O O1 0.379670 0.251650 0.548533
O O2 0.640565 0.411511 0.574692
O O3 0.432735 0.312996 0.674153
O O4 0.138790 0.407143 0.586168
O O5 0.250620 0.473561 0.379401
O O6 0.573953 0.411954 0.287633
O O7 0.432423 0.903635 0.966027
O O8 0.324270 0.751992 0.779875
#
# Coordination Sequence:
#
# PCOD8190484 Si02
#       5
#     8   4   8   4   8
#     4  10  19  41  65 106 121 168 228 282 371 391
#     4  12  30  48  66 106 142 198 244 268 346 432
#     4  10  20  38  68  90 141 163 220 289 334 419
#     4  12  26  48  60 104 146 186 238 274 340 434
#     4  12  23  48  74 103 144 179 237 301 350 418
#
# _framework density 22.50506
#
# number of rings (size 3 to 8) (size 9 to 14) (size 15 to 20)
#    0.000    1.000    5.000    3.000    0.000    2.000 
#   27.000    0.000    0.000    0.000    0.000    0.000 
#    0.000    0.000    0.000    0.000    0.000    0.000 
#
# Total GULP energy -198328.889786 kJ/mol
# GULP energy per Si atom -12395.555612 kJ/mol
# Density = 2.245384 g / cm^3
# Si number density = 22.505060 Si / 1000 Ang^3
#
#
#
# Elastic Constant Matrix: (Units=GPa)
#
#
# Indices 1 2 3 4 5 6 
#
# 1 240.6283 25.7057 31.1367 0.0000 0.0000 0.0000
# 2 25.7057 60.9644 46.6610 0.0000 0.0000 0.0000
# 3 31.1367 46.6610 71.6529 0.0000 0.0000 0.0000
# 4 0.0000 0.0000 0.0000 2.0329 0.0000 0.0000
# 5 0.0000 0.0000 0.0000 0.0000 26.5976 0.0000
# 6 0.0000 0.0000 0.0000 0.0000 0.0000 30.9008
#
#
#
# Elastic Compliance Matrix: (Units=1/GPa)
#
#
# Indices 1 2 3 4 5 6 
#
# 1 0.004422 -0.000785 -0.001410 0.000000 0.000000 0.000000
# 2 -0.000785 0.032842 -0.021046 0.000000 0.000000 0.000000
# 3 -0.001410 -0.021046 0.028274 0.000000 0.000000 0.000000
# 4 0.000000 0.000000 0.000000 0.491913 0.000000 0.000000
# 5 0.000000 0.000000 0.000000 0.000000 0.037597 0.000000
# 6 0.000000 0.000000 0.000000 0.000000 0.000000 0.032362
#
#
# Mechanical properties :
#
#
# Convention : Reuss Voigt Hill
#
# Bulk Modulus (GPa) = 52.47741 64.47249 58.47495
# Shear Modulus (GPa) = 7.35029 29.88907 18.61968
#
# Velocity S-wave (km/s) = 1.80919 3.64827 2.87950
# Velocity P-wave (km/s) = 5.26620 6.81591 6.09055
#
# Compressibility (1/GPa) = 0.01905582
#
# Stress axis : x y z
#
# Youngs Moduli (GPa) = 226.13387 30.44861 35.36776
#
# Poissons Ratio (x) = 0.02391 0.04988
# Poissons Ratio (y) = 0.17755 0.74435
# Poissons Ratio (z) = 0.31893 0.64082
#
# Static dielectric constant tensor:
#      x y z
#    x 4.248260 0.000000 0.000000 
#    y 0.000000 3.660950 0.000000 
#    z 0.000000 0.000000 3.805810 
# 
# 
# High freq. dielectric constant tensor:
#      x y z
#    x 1.935070 0.000000 0.000000 
#    y 0.000000 1.877350 0.000000 
#    z 0.000000 0.000000 1.864380 
# 
# From -- ./inp_files/5041.got.cif
#   From: 2010.03.12/outbox.cif.g09.slc.cpg/sg45_3_cif.got.tgz:5041.got - 2010.04.14 02:50:11.
