data_PCOD8190242
_publ_section_title
;
Structure prediction by ZEFSAII (Michael W. Deem and Ramdas Pophale) SiO2 
 PCOD8190242
Probable space group: I M M 2
;
_chemical_formula_sum "Si O2"
_cell_formula_units_Z 64
_cell_length_a 14.743198
_cell_length_b 8.917504
_cell_length_c 28.357189
_cell_angle_alpha 90.000000
_cell_angle_beta 90.000000
_cell_angle_gamma 90.000000
_cell_volume 3728.191300
_symmetry_space_group_name_H-M "I M M 2"
_symmetry_group_IT_number 44
_symmetry_cell_setting 'orthorhombic'
loop_
_space_group_symop_operation_xyz
x,y,z
-x,-y,z
-x,y,z
x,-y,z
1/2+x,1/2+y,1/2+z
1/2-x,1/2-y,1/2+z
1/2-x,1/2+y,1/2+z
1/2+x,1/2-y,1/2+z
loop_
_atom_site_type_symbol
_atom_site_label
_atom_site_fract_x
_atom_site_fract_y
_atom_site_fract_z
Si Si1 0.223856 0.177408 0.100970
Si Si2 0.901556 0.678205 0.285837
Si Si3 0.103429 0.823286 0.635096
Si Si4 0.104680 0.326873 0.179053
Si Si5 0.780969 0.820927 0.826225
Si Si6 0.898492 0.178316 0.016543
Si Si7 0.898034 0.178334 0.911774
Si Si8 0.100181 0.821911 0.740988
O O1 0.326058 0.241511 0.100506
O O2 0.168449 0.226897 0.146708
O O3 0.172674 0.241707 0.054583
O O4 0.229051 0.000000 0.099682
O O5 0.905490 0.500000 0.285320
O O6 0.880035 0.729654 0.232523
O O7 0.823512 0.734360 0.321852
O O8 0.000000 0.741767 0.302164
O O9 0.128234 0.771587 0.688381
O O10 0.000000 0.776058 0.622632
O O11 0.114861 0.000000 0.629297
O O12 0.133967 0.500000 0.173645
O O13 0.000000 0.304940 0.164340
O O14 0.827078 0.755001 0.873580
O O15 0.832080 0.756533 0.780128
O O16 0.786219 0.000000 0.826624
O O17 0.000000 0.236924 0.028543
O O18 0.898998 0.000000 0.017690
O O19 0.870208 0.234146 0.964097
O O20 0.000000 0.233218 0.899422
O O21 0.895797 0.000000 0.909919
O O22 0.000000 0.760757 0.752844
O O23 0.099538 0.000000 0.742660
#
# Coordination Sequence:
#
# PCOD8190242 Si02
#       8
#     8   8   8   8   8   8   8   8
#     4  11  20  28  43  64  86 114 146 180 217 256
#     4   8  14  23  34  51  77 108 138 168 205 246
#     4   9  18  32  47  62  85 117 147 175 209 250
#     4   9  17  29  44  62  87 118 148 177 211 254
#     4   9  13  17  31  53  76 102 132 166 200 240
#     4   8  15  27  39  53  78 110 139 168 208 256
#     4   8  13  21  33  50  74 104 135 164 198 246
#     4   8  13  21  35  57  81 102 127 162 204 245
#
# _framework density 17.166501
#
# number of rings (size 3 to 8) (size 9 to 14) (size 15 to 20)
#    0.000    3.250    0.000    4.125    0.000    4.500 
#    0.000    0.000    0.000    0.750    0.000    3.500 
#    0.000    8.000    0.000   19.500    0.000   16.625 
#
# Total GULP energy -396527.270504 kJ/mol
# GULP energy per Si atom -12391.477203 kJ/mol
# Density = 1.712743 g / cm^3
# Si number density = 17.166501 Si / 1000 Ang^3
#
#
#
# Elastic Constant Matrix: (Units=GPa)
#
#
# Indices 1 2 3 4 5 6 
#
# 1 149.9799 20.8655 94.5454 0.0000 0.0000 0.0000
# 2 20.8655 17.5557 14.0570 0.0000 0.0000 0.0000
# 3 94.5454 14.0570 112.1538 0.0000 0.0000 0.0000
# 4 0.0000 0.0000 0.0000 12.0449 0.0000 0.0000
# 5 0.0000 0.0000 0.0000 0.0000 32.6051 0.0000
# 6 0.0000 0.0000 0.0000 0.0000 0.0000 17.0072
#
#
#
# Elastic Compliance Matrix: (Units=1/GPa)
#
#
# Indices 1 2 3 4 5 6 
#
# 1 0.015353 -0.008764 -0.011844 0.000000 0.000000 0.000000
# 2 -0.008764 0.068319 -0.001175 0.000000 0.000000 0.000000
# 3 -0.011844 -0.001175 0.019048 0.000000 0.000000 0.000000
# 4 0.000000 0.000000 0.000000 0.083023 0.000000 0.000000
# 5 0.000000 0.000000 0.000000 0.000000 0.030670 0.000000
# 6 0.000000 0.000000 0.000000 0.000000 0.000000 0.058799
#
#
# Mechanical properties :
#
#
# Convention : Reuss Voigt Hill
#
# Bulk Modulus (GPa) = 16.90506 59.84722 38.37614
# Shear Modulus (GPa) = 14.77123 22.34623 18.55873
#
# Velocity S-wave (km/s) = 2.93656 3.61187 3.29158
# Velocity P-wave (km/s) = 4.62243 7.23413 6.07040
#
# Compressibility (1/GPa) = 0.05915389
#
# Stress axis : x y z
#
# Youngs Moduli (GPa) = 65.13218 14.63732 52.49794
#
# Poissons Ratio (x) = 0.12828 0.62181
# Poissons Ratio (y) = 0.57082 0.06167
# Poissons Ratio (z) = 0.77145 0.01719
#
# Static dielectric constant tensor:
#      x y z
#    x 3.566990 0.000000 0.000000 
#    y 0.000000 2.567640 0.000000 
#    z 0.000000 0.000000 3.364580 
# 
# 
# High freq. dielectric constant tensor:
#      x y z
#    x 1.671490 0.000000 0.000000 
#    y 0.000000 1.595340 0.000000 
#    z 0.000000 0.000000 1.647420 
# 
# From -- ./inp_files/27510.got.cif
#   From: 2010.03.12/outbox.cif.g09.slc.cpg/sg44_14_cif.got.tgz:27510.got - 2010.04.14 02:36:11.
