data_PCOD8190984
_publ_section_title
;
Structure prediction by ZEFSAII (Michael W. Deem and Ramdas Pophale) SiO2 
 PCOD8190984
Probable space group: I B A 2
;
_chemical_formula_sum "Si O2"
_cell_formula_units_Z 60
_cell_length_a 14.663076
_cell_length_b 21.473176
_cell_length_c 9.154846
_cell_angle_alpha 90.000000
_cell_angle_beta 90.000000
_cell_angle_gamma 90.000000
_cell_volume 2882.520552
_symmetry_space_group_name_H-M "I B A 2"
_symmetry_group_IT_number 45
_symmetry_cell_setting 'orthorhombic'
loop_
_space_group_symop_operation_xyz
x,y,z
-x,-y,z
-x,y,1/2+z
x,-y,1/2+z
1/2+x,1/2+y,1/2+z
1/2-x,1/2-y,1/2+z
1/2-x,1/2+y,z
1/2+x,1/2-y,z
loop_
_atom_site_type_symbol
_atom_site_label
_atom_site_fract_x
_atom_site_fract_y
_atom_site_fract_z
Si Si1 0.513529 0.293063 0.432520
Si Si2 0.125818 0.926460 0.621040
Si Si3 0.837239 0.295798 0.816681
Si Si4 0.387552 0.062732 0.779405
Si Si5 0.812142 0.970249 0.816132
Si Si6 0.680749 0.709516 0.557325
Si Si7 0.500000 0.000000 0.528181
Si Si8 0.055645 0.875797 0.179252
O O1 0.568610 0.236264 0.364652
O O2 0.414640 0.268875 0.485053
O O3 0.575898 0.320531 0.564418
O O4 0.496532 0.348164 0.318630
O O5 0.167718 0.964120 0.486452
O O6 0.169401 0.857868 0.632460
O O7 0.016355 0.922835 0.603320
O O8 0.146244 0.964116 0.768050
O O9 0.865215 0.364717 0.771787
O O10 0.792990 0.259904 0.679549
O O11 0.761438 0.295530 0.941527
O O12 0.294510 0.024383 0.787353
O O13 0.437407 0.042981 0.630649
O O14 0.444331 0.047224 0.925222
O O15 0.852901 0.911085 0.727056
#
# Coordination Sequence:
#
# PCOD8190984 Si02
#       8
#     8   8   8   8   8   8   4   8
#     4  11  23  43  66  95 143 179 220 286 337 401
#     4  11  24  42  63  99 141 177 223 275 338 400
#     4  12  26  44  74  99 137 185 229 280 350 408
#     4  11  25  48  72 100 130 178 231 291 343 413
#     4  12  24  42  68  97 137 182 228 278 336 412
#     4  11  26  48  63 107 136 176 238 283 336 421
#     4  10  26  52  70  98 136 170 232 300 348 400
#     4  11  22  42  66  97 144 180 223 271 334 415
#
# _framework density 20.815116
#
# number of rings (size 3 to 8) (size 9 to 14) (size 15 to 20)
#    0.000    0.800    6.667    1.200    7.467    1.067 
#    2.400    0.000    0.000    0.000    0.000    0.000 
#    0.000    0.000    0.000    0.000    0.000    0.000 
#
# Total GULP energy -372074.723274 kJ/mol
# GULP energy per Si atom -12402.490776 kJ/mol
# Density = 2.076774 g / cm^3
# Si number density = 20.815116 Si / 1000 Ang^3
#
#
#
# Elastic Constant Matrix: (Units=GPa)
#
#
# Indices 1 2 3 4 5 6 
#
# 1 78.6665 20.0826 18.2325 0.0000 0.0000 0.0000
# 2 20.0826 98.3685 43.0484 0.0000 0.0000 0.0000
# 3 18.2325 43.0484 100.1533 0.0001 0.0000 0.0000
# 4 0.0000 0.0000 0.0001 33.5191 0.0000 0.0000
# 5 0.0000 0.0000 0.0000 0.0000 33.6981 0.0000
# 6 0.0000 0.0000 0.0000 0.0000 0.0000 21.8566
#
#
#
# Elastic Compliance Matrix: (Units=1/GPa)
#
#
# Indices 1 2 3 4 5 6 
#
# 1 0.013611 -0.002087 -0.001581 0.000000 0.000000 0.000000
# 2 -0.002087 0.012841 -0.005139 0.000000 0.000000 0.000000
# 3 -0.001581 -0.005139 0.012482 0.000000 0.000000 0.000000
# 4 0.000000 0.000000 0.000000 0.029834 0.000000 0.000000
# 5 0.000000 0.000000 0.000000 0.000000 0.029675 0.000000
# 6 0.000000 0.000000 0.000000 0.000000 0.000000 0.045753
#
#
# Mechanical properties :
#
#
# Convention : Reuss Voigt Hill
#
# Bulk Modulus (GPa) = 46.90620 48.87946 47.89283
# Shear Modulus (GPa) = 29.60043 30.86975 30.23509
#
# Velocity S-wave (km/s) = 3.77512 3.85521 3.81537
# Velocity P-wave (km/s) = 6.44869 6.58411 6.51675
#
# Compressibility (1/GPa) = 0.02131914
#
# Stress axis : x y z
#
# Youngs Moduli (GPa) = 73.46965 77.87498 80.11822
#
# Poissons Ratio (x) = 0.16252 0.12665
# Poissons Ratio (y) = 0.15333 0.41177
# Poissons Ratio (z) = 0.11614 0.40024
#
# Static dielectric constant tensor:
#      x y z
#    x 4.018100 0.000000 0.000000 
#    y 0.000000 3.806390 0.000000 
#    z 0.000000 0.000000 4.083910 
# 
# 
# High freq. dielectric constant tensor:
#      x y z
#    x 1.817210 0.000000 0.000000 
#    y 0.000000 1.811620 0.000000 
#    z 0.000000 0.000000 1.828720 
# 
# From -- ./inp_files/1893.got.cif
#   From: 2010.03.12/outbox.cif.g09.slc.cpg/sg45_1_cif.got.tgz:1893.got - 2010.04.14 02:50:11.
