data_PCOD8190226
_publ_section_title
;
Structure prediction by ZEFSAII (Michael W. Deem and Ramdas Pophale) SiO2 
 PCOD8190226
Probable space group: I M M 2
;
_chemical_formula_sum "Si O2"
_cell_formula_units_Z 56
_cell_length_a 14.467652
_cell_length_b 28.965382
_cell_length_c 5.608938
_cell_angle_alpha 90.000000
_cell_angle_beta 90.000000
_cell_angle_gamma 90.000000
_cell_volume 2350.487542
_symmetry_space_group_name_H-M "I M M 2"
_symmetry_group_IT_number 44
_symmetry_cell_setting 'orthorhombic'
loop_
_space_group_symop_operation_xyz
x,y,z
-x,-y,z
-x,y,z
x,-y,z
1/2+x,1/2+y,1/2+z
1/2-x,1/2-y,1/2+z
1/2-x,1/2+y,1/2+z
1/2+x,1/2-y,1/2+z
loop_
_atom_site_type_symbol
_atom_site_label
_atom_site_fract_x
_atom_site_fract_y
_atom_site_fract_z
Si Si1 0.601795 0.633676 0.659020
Si Si2 0.357796 0.728618 0.474682
Si Si3 0.101718 0.366319 0.310765
Si Si4 0.603136 0.552498 0.306660
Si Si5 0.141872 0.270317 0.478327
Si Si6 0.603264 0.052502 0.165579
Si Si7 0.749911 0.399384 0.985155
O O1 0.500000 0.638179 0.777984
O O2 0.616745 0.674403 0.467625
O O3 0.611421 0.583782 0.539381
O O4 0.685726 0.636775 0.843904
O O5 0.250019 0.738257 0.474282
O O6 0.399126 0.749729 0.725928
O O7 0.399877 0.748803 0.225267
O O8 0.115084 0.324305 0.494796
O O9 0.112698 0.415606 0.435633
O O10 0.000000 0.363165 0.190610
O O11 0.185406 0.363328 0.125063
O O12 0.500000 0.558222 0.192987
O O13 0.619928 0.500000 0.388094
O O14 0.682204 0.566869 0.125403
O O15 0.500000 0.058330 0.278491
O O16 0.682612 0.066296 0.347455
O O17 0.619305 0.000000 0.082496
#
# Coordination Sequence:
#
# PCOD8190226 Si02
#       7
#     8   8   8   8   8   8   8
#     4  11  26  44  67  99 137 182 234 291 352 424
#     4  10  23  42  71 105 139 186 236 290 356 425
#     4  11  26  44  67  99 137 182 234 291 352 424
#     4  10  23  43  67  98 137 179 228 286 351 424
#     4  10  23  42  71 105 139 186 236 290 356 425
#     4  10  23  43  67  98 137 179 228 286 351 424
#     4  12  23  40  70 100 134 182 230 288 351 422
#
# _framework density 23.824846000000001
#
# number of rings (size 3 to 8) (size 9 to 14) (size 15 to 20)
#    0.000    1.429    0.000    3.857   10.000    4.571 
#    0.000    2.857    0.000    0.000    0.000    0.000 
#    0.000    0.000    0.000    0.000    0.000    0.000 
#
# Total GULP energy -347053.996337 kJ/mol
# GULP energy per Si atom -12394.785583 kJ/mol
# Density = 2.377062 g / cm^3
# Si number density = 23.824846 Si / 1000 Ang^3
#
#
#
# Elastic Constant Matrix: (Units=GPa)
#
#
# Indices 1 2 3 4 5 6 
#
# 1 164.3256 42.1355 68.4269 -0.1622 -0.0266 -0.0395
# 2 42.1355 157.8277 65.8657 -0.2237 -0.1524 0.0430
# 3 68.4269 65.8657 137.9556 -0.5232 -0.0945 -0.2101
# 4 -0.1622 -0.2237 -0.5232 32.9438 -0.0397 -0.0714
# 5 -0.0266 -0.1524 -0.0945 -0.0397 32.6177 0.3183
# 6 -0.0395 0.0430 -0.2101 -0.0714 0.3183 32.1598
#
#
#
# Elastic Compliance Matrix: (Units=1/GPa)
#
#
# Indices 1 2 3 4 5 6 
#
# 1 0.007712 -0.000578 -0.003549 -0.000022 -0.000007 -0.000013
# 2 -0.000578 0.007956 -0.003512 -0.000005 0.000027 -0.000035
# 3 -0.003549 -0.003512 0.010687 0.000129 0.000011 0.000070
# 4 -0.000022 -0.000005 0.000129 0.030357 0.000037 0.000068
# 5 -0.000007 0.000027 0.000011 0.000037 0.030661 -0.000303
# 6 -0.000013 -0.000035 0.000070 0.000068 -0.000303 0.031098
#
#
# Mechanical properties :
#
#
# Convention : Reuss Voigt Hill
#
# Bulk Modulus (GPa) = 90.28410 90.32948 90.30679
# Shear Modulus (GPa) = 36.37936 38.45630 37.41783
#
# Velocity S-wave (km/s) = 3.91186 4.02198 3.96730
# Velocity P-wave (km/s) = 7.64073 7.71782 7.67937
#
# Compressibility (1/GPa) = 0.01107615
#
# Stress axis : x y z
#
# Youngs Moduli (GPa) = 129.67608 125.69246 93.57510
#
# Poissons Ratio (x) = 0.07260 0.33213
# Poissons Ratio (y) = 0.07490 0.32864
# Poissons Ratio (z) = 0.46026 0.44144
#
# Static dielectric constant tensor:
#      x y z
#    x 4.645700 0.000230 0.000340 
#    y 0.000230 4.247480 -0.000640 
#    z 0.000340 -0.000640 4.284750 
# 
# 
# High freq. dielectric constant tensor:
#      x y z
#    x 1.965390 0.000010 0.000020 
#    y 0.000010 1.954370 -0.000050 
#    z 0.000020 -0.000050 1.920570 
# 
# From -- ./inp_files/1691.got.cif
#   From: 2010.03.12/outbox.cif.g09.slc.cpg/sg44_1_cif.got.tgz:1691.got - 2010.04.14 02:36:11.
