data_PCOD8190978
_publ_section_title
;
Structure prediction by ZEFSAII (Michael W. Deem and Ramdas Pophale) SiO2 
 PCOD8190978
Probable space group: I B A 2
;
_chemical_formula_sum "Si O2"
_cell_formula_units_Z 40
_cell_length_a 8.215930
_cell_length_b 16.981476
_cell_length_c 11.947710
_cell_angle_alpha 90.000000
_cell_angle_beta 90.000000
_cell_angle_gamma 90.000000
_cell_volume 1666.927989
_symmetry_space_group_name_H-M "I B A 2"
_symmetry_group_IT_number 45
_symmetry_cell_setting 'orthorhombic'
loop_
_space_group_symop_operation_xyz
x,y,z
-x,-y,z
-x,y,1/2+z
x,-y,1/2+z
1/2+x,1/2+y,1/2+z
1/2-x,1/2-y,1/2+z
1/2-x,1/2+y,z
1/2+x,1/2-y,z
loop_
_atom_site_type_symbol
_atom_site_label
_atom_site_fract_x
_atom_site_fract_y
_atom_site_fract_z
Si Si1 0.750029 0.373003 0.139970
Si Si2 0.182089 0.971750 0.029368
Si Si3 0.141185 0.647360 0.366074
Si Si4 0.067699 0.914383 0.252213
Si Si5 0.220256 0.310690 0.416707
O O1 0.780729 0.450090 0.063160
O O2 0.891011 0.370277 0.233979
O O3 0.589009 0.364711 0.216339
O O4 0.739411 0.303280 0.049265
O O5 0.180376 0.918608 0.141593
O O6 0.268532 0.925388 0.928229
O O7 0.000000 0.000000 0.996273
O O8 0.256285 0.724049 0.369054
O O9 0.966264 0.662972 0.416651
O O10 0.164613 0.874254 0.353852
O O11 0.000000 0.000000 0.289369
#
# Coordination Sequence:
#
# PCOD8190978 Si02
#       5
#     8   8   8   8   8
#     4  10  26  47  75 111 148 208 256 318 390 459
#     4   9  24  47  81 105 152 205 260 315 386 461
#     4  12  29  48  77 115 164 199 266 321 399 470
#     4   9  23  47  79 105 151 201 265 309 388 458
#     4  12  29  47  78 115 160 204 259 327 399 469
#
# _framework density 23.996238000000002
#
# number of rings (size 3 to 8) (size 9 to 14) (size 15 to 20)
#    0.000    2.000    0.000    1.200   22.400    2.400 
#    3.600    0.000    0.000    0.000    0.000    0.000 
#    0.000    0.000    0.000    0.000    0.000    0.000 
#
# Total GULP energy -247843.480306 kJ/mol
# GULP energy per Si atom -12392.174015 kJ/mol
# Density = 2.394162 g / cm^3
# Si number density = 23.996238 Si / 1000 Ang^3
#
#
#
# Elastic Constant Matrix: (Units=GPa)
#
#
# Indices 1 2 3 4 5 6 
#
# 1 107.2296 45.4922 43.3200 0.0000 0.0000 0.0000
# 2 45.4922 112.3314 55.0221 -0.0003 0.0001 0.0001
# 3 43.3200 55.0221 189.4825 -0.0007 0.0002 0.0001
# 4 0.0000 -0.0003 -0.0007 30.9014 0.0002 0.0001
# 5 0.0000 0.0001 0.0002 0.0002 19.3376 0.0000
# 6 0.0000 0.0001 0.0001 0.0001 0.0000 39.0920
#
#
#
# Elastic Compliance Matrix: (Units=1/GPa)
#
#
# Indices 1 2 3 4 5 6 
#
# 1 0.011617 -0.003968 -0.001504 0.000000 0.000000 0.000000
# 2 -0.003968 0.011734 -0.002500 0.000000 0.000000 0.000000
# 3 -0.001504 -0.002500 0.006347 0.000000 0.000000 0.000000
# 4 0.000000 0.000000 0.000000 0.032361 0.000000 0.000000
# 5 0.000000 0.000000 0.000000 0.000000 0.051713 0.000000
# 6 0.000000 0.000000 0.000000 0.000000 0.000000 0.025581
#
#
# Mechanical properties :
#
#
# Convention : Reuss Voigt Hill
#
# Bulk Modulus (GPa) = 72.70461 77.41245 75.05853
# Shear Modulus (GPa) = 31.27340 35.54682 33.41011
#
# Velocity S-wave (km/s) = 3.61399 3.85301 3.73541
# Velocity P-wave (km/s) = 6.91221 7.21973 7.06764
#
# Compressibility (1/GPa) = 0.01375429
#
# Stress axis : x y z
#
# Youngs Moduli (GPa) = 86.08314 85.22379 157.54812
#
# Poissons Ratio (x) = 0.33817 0.23689
# Poissons Ratio (y) = 0.34158 0.39388
# Poissons Ratio (z) = 0.12943 0.21307
#
# Static dielectric constant tensor:
#      x y z
#    x 4.075410 0.000000 0.000000 
#    y 0.000000 4.236740 0.000000 
#    z 0.000000 0.000000 4.794030 
# 
# 
# High freq. dielectric constant tensor:
#      x y z
#    x 1.933630 0.000000 0.000000 
#    y 0.000000 1.941500 0.000000 
#    z 0.000000 0.000000 1.984940 
# 
# From -- ./inp_files/3147.got.cif
#   From: 2010.03.12/outbox.cif.g09.slc.cpg/sg45_2_cif.got.tgz:3147.got - 2010.04.14 02:50:11.
