data_PCOD8190000
_publ_section_title
;
Structure prediction by ZEFSAII (Michael W. Deem and Ramdas Pophale) SiO2 
 PCOD8190000
Probable space group: I M M 2
;
_chemical_formula_sum "Si O2"
_cell_formula_units_Z 48
_cell_length_a 13.679753
_cell_length_b 15.588066
_cell_length_c 10.209041
_cell_angle_alpha 90.000000
_cell_angle_beta 90.000000
_cell_angle_gamma 90.000000
_cell_volume 2176.985016
_symmetry_space_group_name_H-M "I M M 2"
_symmetry_group_IT_number 44
_symmetry_cell_setting 'orthorhombic'
loop_
_space_group_symop_operation_xyz
x,y,z
-x,-y,z
-x,y,z
x,-y,z
1/2+x,1/2+y,1/2+z
1/2-x,1/2-y,1/2+z
1/2-x,1/2+y,1/2+z
1/2+x,1/2-y,1/2+z
loop_
_atom_site_type_symbol
_atom_site_label
_atom_site_fract_x
_atom_site_fract_y
_atom_site_fract_z
Si Si1 0.892943 0.354005 0.314160
Si Si2 0.302276 0.399613 0.194037
Si Si3 0.888201 0.796723 0.932675
Si Si4 0.603275 0.094222 0.089566
Si Si5 0.308232 0.600397 0.664149
Si Si6 0.700422 0.687040 0.925330
O O1 0.814037 0.382492 0.207277
O O2 0.893644 0.421087 0.433106
O O3 0.868290 0.265184 0.386328
O O4 0.000000 0.348508 0.245730
O O5 0.324441 0.500000 0.181303
O O6 0.360652 0.363401 0.318178
O O7 0.335525 0.351122 0.062951
O O8 0.814968 0.715371 0.928159
O O9 0.000000 0.765147 0.915890
O O10 0.881548 0.845991 0.072596
O O11 0.500000 0.140697 0.129567
O O12 0.700725 0.142968 0.135381
O O13 0.605040 0.000000 0.154754
O O14 0.315930 0.500000 0.627698
O O15 0.323041 0.613697 0.818011
#
# Coordination Sequence:
#
# PCOD8190000 Si02
#       6
#     8   8   8   8   8   8
#     4  10  21  37  61  88 117 154 200 248 300 357
#     4  11  23  41  63  92 125 159 202 253 307 360
#     4  11  24  42  66  90 120 164 211 252 293 357
#     4   9  17  32  58  88 113 144 191 245 295 347
#     4  11  22  40  62  89 123 161 204 248 300 363
#     4  11  24  40  60  92 126 162 196 249 313 365
#
# _framework density 22.048840999999999
#
# number of rings (size 3 to 8) (size 9 to 14) (size 15 to 20)
#    0.000    1.500    3.333    3.500    0.000    6.333 
#    0.000    0.000    0.000    6.000    0.000    0.000 
#    0.000    0.000    0.000    0.000    0.000    0.000 
#
# Total GULP energy -297418.120180 kJ/mol
# GULP energy per Si atom -12392.421674 kJ/mol
# Density = 2.199866 g / cm^3
# Si number density = 22.048841 Si / 1000 Ang^3
#
#
#
# Elastic Constant Matrix: (Units=GPa)
#
#
# Indices 1 2 3 4 5 6 
#
# 1 94.0506 -3.0360 6.0088 0.0000 0.0000 0.0000
# 2 -3.0360 71.6945 21.8831 0.0000 0.0000 0.0000
# 3 6.0088 21.8831 103.8685 0.0000 0.0000 0.0000
# 4 0.0000 0.0000 0.0000 30.0919 0.0000 0.0000
# 5 0.0000 0.0000 0.0000 0.0000 7.7619 0.0000
# 6 0.0000 0.0000 0.0000 0.0000 0.0000 9.4176
#
#
#
# Elastic Compliance Matrix: (Units=1/GPa)
#
#
# Indices 1 2 3 4 5 6 
#
# 1 0.010704 0.000686 -0.000764 0.000000 0.000000 0.000000
# 2 0.000686 0.014951 -0.003190 0.000000 0.000000 0.000000
# 3 -0.000764 -0.003190 0.010344 0.000000 0.000000 0.000000
# 4 0.000000 0.000000 0.000000 0.033232 0.000000 0.000000
# 5 0.000000 0.000000 0.000000 0.000000 0.128835 0.000000
# 6 0.000000 0.000000 0.000000 0.000000 0.000000 0.106184
#
#
# Mechanical properties :
#
#
# Convention : Reuss Voigt Hill
#
# Bulk Modulus (GPa) = 33.93971 35.48061 34.71016
# Shear Modulus (GPa) = 15.59557 25.77145 20.68351
#
# Velocity S-wave (km/s) = 2.66243 3.42253 3.06613
# Velocity P-wave (km/s) = 4.98776 5.63427 5.32085
#
# Compressibility (1/GPa) = 0.02946401
#
# Stress axis : x y z
#
# Youngs Moduli (GPa) = 93.42712 66.88672 96.67707
#
# Poissons Ratio (x) = -0.04591 0.07384
# Poissons Ratio (y) = -0.06413 0.30835
# Poissons Ratio (z) = 0.07136 0.21334
#
# Static dielectric constant tensor:
#      x y z
#    x 4.091390 0.000000 0.000000 
#    y 0.000000 3.755150 0.000000 
#    z 0.000000 0.000000 3.905580 
# 
# 
# High freq. dielectric constant tensor:
#      x y z
#    x 1.862490 0.000000 0.000000 
#    y 0.000000 1.854950 0.000000 
#    z 0.000000 0.000000 1.856560 
# 
# From -- ./inp_files/7111.got.cif
#   From: 2010.03.12/outbox.cif.g09.slc.cpg/sg44_4_cif.got.tgz:7111.got - 2010.04.14 02:36:11.
