data_PCOD8190004
_publ_section_title
;
Structure prediction by ZEFSAII (Michael W. Deem and Ramdas Pophale) SiO2 
 PCOD8190004
Probable space group: I M M 2
;
_chemical_formula_sum "Si O2"
_cell_formula_units_Z 64
_cell_length_a 14.716574
_cell_length_b 17.671444
_cell_length_c 11.885206
_cell_angle_alpha 90.000000
_cell_angle_beta 90.000000
_cell_angle_gamma 90.000000
_cell_volume 3090.903675
_symmetry_space_group_name_H-M "I M M 2"
_symmetry_group_IT_number 44
_symmetry_cell_setting 'orthorhombic'
loop_
_space_group_symop_operation_xyz
x,y,z
-x,-y,z
-x,y,z
x,-y,z
1/2+x,1/2+y,1/2+z
1/2-x,1/2-y,1/2+z
1/2-x,1/2+y,1/2+z
1/2+x,1/2-y,1/2+z
loop_
_atom_site_type_symbol
_atom_site_label
_atom_site_fract_x
_atom_site_fract_y
_atom_site_fract_z
Si Si1 0.819679 0.909942 0.920730
Si Si2 0.361784 0.173728 0.874382
Si Si3 0.097843 0.413727 0.162808
Si Si4 0.722488 0.585456 0.053077
Si Si5 0.608986 0.343177 0.858479
Si Si6 0.223408 0.913015 0.168972
Si Si7 0.900199 0.151255 0.719885
Si Si8 0.102272 0.317584 0.636036
O O1 0.734222 0.866510 0.869442
O O2 0.901443 0.867896 0.854023
O O3 0.816124 0.000000 0.900572
O O4 0.825406 0.890874 0.052390
O O5 0.418076 0.127277 0.782271
O O6 0.363306 0.258527 0.826332
O O7 0.402133 0.175724 0.000352
O O8 0.125660 0.500000 0.189030
O O9 0.176098 0.381282 0.078664
O O10 0.000000 0.408686 0.100021
O O11 0.726963 0.500000 0.005865
O O12 0.668193 0.588709 0.170162
O O13 0.664445 0.638125 0.971041
O O14 0.500000 0.354233 0.873707
O O15 0.647321 0.396853 0.761530
O O16 0.320195 0.871703 0.186884
O O17 0.250450 0.000000 0.171731
O O18 0.869823 0.235445 0.683524
O O19 0.000000 0.137960 0.670486
O O20 0.000000 0.338884 0.678847
#
# Coordination Sequence:
#
# PCOD8190004 Si02
#       8
#     8   8   8   8   8   8   8   8
#     4  10  21  38  61  90 125 164 203 254 315 367
#     4  11  20  37  61  90 124 160 204 247 304 371
#     4  10  21  37  61  94 127 159 200 254 314 373
#     4  11  23  39  61  91 124 158 202 256 311 364
#     4  12  25  41  63  89 121 166 214 259 305 365
#     4  10  24  42  61  88 121 163 211 254 305 367
#     4  11  21  36  60  92 125 159 200 250 310 368
#     4  10  21  39  62  92 125 159 202 252 307 368
#
# _framework density 20.705918
#
# number of rings (size 3 to 8) (size 9 to 14) (size 15 to 20)
#    0.000    1.375    2.500    3.375    0.000    3.750 
#    0.000    1.875    0.000    3.750    0.000    0.000 
#    0.000    0.000    0.000    0.000    0.000    0.000 
#
# Total GULP energy -396496.512089 kJ/mol
# GULP energy per Si atom -12390.516003 kJ/mol
# Density = 2.065879 g / cm^3
# Si number density = 20.705918 Si / 1000 Ang^3
#
#
#
# Elastic Constant Matrix: (Units=GPa)
#
#
# Indices 1 2 3 4 5 6 
#
# 1 134.0004 49.2152 52.8106 0.0000 0.0000 0.0000
# 2 49.2152 77.4431 32.9578 0.0000 0.0000 0.0000
# 3 52.8106 32.9578 87.3427 0.0000 0.0000 0.0000
# 4 0.0000 0.0000 0.0000 33.0282 0.0000 0.0000
# 5 0.0000 0.0000 0.0000 0.0000 19.4877 0.0000
# 6 0.0000 0.0000 0.0000 0.0000 0.0000 20.8892
#
#
#
# Elastic Compliance Matrix: (Units=1/GPa)
#
#
# Indices 1 2 3 4 5 6 
#
# 1 0.011252 -0.005069 -0.004890 0.000000 0.000000 0.000000
# 2 -0.005069 0.017667 -0.003601 0.000000 0.000000 0.000000
# 3 -0.004890 -0.003601 0.015765 0.000000 0.000000 0.000000
# 4 0.000000 0.000000 0.000000 0.030277 0.000000 0.000000
# 5 0.000000 0.000000 0.000000 0.000000 0.051314 0.000000
# 6 0.000000 0.000000 0.000000 0.000000 0.000000 0.047872
#
#
# Mechanical properties :
#
#
# Convention : Reuss Voigt Hill
#
# Bulk Modulus (GPa) = 56.94237 63.19485 60.06861
# Shear Modulus (GPa) = 24.14025 25.60119 24.87072
#
# Velocity S-wave (km/s) = 3.41818 3.52009 3.46951
# Velocity P-wave (km/s) = 6.56801 6.86351 6.71739
#
# Compressibility (1/GPa) = 0.01756161
#
# Stress axis : x y z
#
# Youngs Moduli (GPa) = 88.87413 56.60309 63.43165
#
# Poissons Ratio (x) = 0.28694 0.31021
# Poissons Ratio (y) = 0.45053 0.22844
# Poissons Ratio (z) = 0.43463 0.20384
#
# Static dielectric constant tensor:
#      x y z
#    x 3.852260 0.000000 0.000000 
#    y 0.000000 3.705060 0.000000 
#    z 0.000000 0.000000 3.757500 
# 
# 
# High freq. dielectric constant tensor:
#      x y z
#    x 1.818370 0.000000 0.000000 
#    y 0.000000 1.809430 0.000000 
#    z 0.000000 0.000000 1.801240 
# 
# From -- ./inp_files/13443.got.cif
#   From: 2010.03.12/outbox.cif.g09.slc.cpg/sg44_7_cif.got.tgz:13443.got - 2010.04.14 02:36:11.
