data_PCOD8190541
_publ_section_title
;
Structure prediction by ZEFSAII (Michael W. Deem and Ramdas Pophale) SiO2 
 PCOD8190541
Probable space group: I B A 2
;
_chemical_formula_sum "Si O2"
_cell_formula_units_Z 40
_cell_length_a 14.824846
_cell_length_b 11.645519
_cell_length_c 10.042598
_cell_angle_alpha 90.000000
_cell_angle_beta 90.000000
_cell_angle_gamma 90.000000
_cell_volume 1733.784505
_symmetry_space_group_name_H-M "I B A 2"
_symmetry_group_IT_number 45
_symmetry_cell_setting 'orthorhombic'
loop_
_space_group_symop_operation_xyz
x,y,z
-x,-y,z
-x,y,1/2+z
x,-y,1/2+z
1/2+x,1/2+y,1/2+z
1/2-x,1/2-y,1/2+z
1/2-x,1/2+y,z
1/2+x,1/2-y,z
loop_
_atom_site_type_symbol
_atom_site_label
_atom_site_fract_x
_atom_site_fract_y
_atom_site_fract_z
Si Si1 0.095236 0.945818 0.611740
Si Si2 0.539636 0.874980 0.502738
Si Si3 0.517971 0.747103 0.762856
Si Si4 0.820921 0.824944 0.678507
Si Si5 0.201233 0.238263 0.953072
O O1 0.132516 0.863819 0.495902
O O2 0.077731 0.868029 0.744130
O O3 0.171150 0.040082 0.645524
O O4 0.000000 0.000000 0.562071
O O5 0.546736 0.845897 0.658707
O O6 0.474855 0.790147 0.415155
O O7 0.642340 0.857141 0.447981
O O8 0.500000 0.000000 0.480444
O O9 0.416349 0.722569 0.721322
O O10 0.758080 0.798457 0.808666
O O11 0.783845 0.753568 0.553695
#
# Coordination Sequence:
#
# PCOD8190541 Si02
#       5
#     8   8   8   8   8
#     4   9  20  40  65  88 116 157 207 258 301 348
#     4  10  20  37  59  86 119 155 196 246 301 357
#     4   9  20  37  61  87 114 155 207 248 293 363
#     4  10  22  39  59  88 124 158 197 251 305 355
#     4  10  23  39  60  93 123 157 203 245 303 371
#
# _framework density 23.070917999999999
#
# number of rings (size 3 to 8) (size 9 to 14) (size 15 to 20)
#    0.000    2.400    0.000    0.600    0.000   13.600 
#    0.000    6.000    0.000    0.000    0.000    0.000 
#    0.000    0.000    0.000    0.000    0.000    0.000 
#
# Total GULP energy -247843.699138 kJ/mol
# GULP energy per Si atom -12392.184957 kJ/mol
# Density = 2.301841 g / cm^3
# Si number density = 23.070918 Si / 1000 Ang^3
#
#
#
# Elastic Constant Matrix: (Units=GPa)
#
#
# Indices 1 2 3 4 5 6 
#
# 1 29.1791 36.3610 24.5386 0.0000 0.0000 0.0000
# 2 36.3610 117.6825 24.6825 0.0000 0.0000 0.0000
# 3 24.5386 24.6825 106.4248 0.0000 0.0000 0.0000
# 4 0.0000 0.0000 0.0000 19.7541 0.0000 0.0000
# 5 0.0000 0.0000 0.0000 0.0000 34.3914 0.0000
# 6 0.0000 0.0000 0.0000 0.0000 0.0000 42.5263
#
#
#
# Elastic Compliance Matrix: (Units=1/GPa)
#
#
# Indices 1 2 3 4 5 6 
#
# 1 0.066140 -0.018119 -0.011048 0.000000 0.000000 0.000000
# 2 -0.018119 0.013895 0.000955 0.000000 0.000000 0.000000
# 3 -0.011048 0.000955 0.011722 0.000000 0.000000 0.000000
# 4 0.000000 0.000000 0.000000 0.050622 0.000000 0.000000
# 5 0.000000 0.000000 0.000000 0.000000 0.029077 0.000000
# 6 0.000000 0.000000 0.000000 0.000000 0.000000 0.023515
#
#
# Mechanical properties :
#
#
# Convention : Reuss Voigt Hill
#
# Bulk Modulus (GPa) = 28.30086 47.16117 37.73102
# Shear Modulus (GPa) = 18.99890 30.51464 24.75677
#
# Velocity S-wave (km/s) = 2.87278 3.64076 3.27933
# Velocity P-wave (km/s) = 4.82673 6.17736 5.54333
#
# Compressibility (1/GPa) = 0.03533462
#
# Stress axis : x y z
#
# Youngs Moduli (GPa) = 15.11942 71.96665 85.30840
#
# Poissons Ratio (x) = 1.30393 0.94248
# Poissons Ratio (y) = 0.27394 -0.08147
# Poissons Ratio (z) = 0.16704 -0.06873
#
# Static dielectric constant tensor:
#      x y z
#    x 3.984890 0.000000 0.000000 
#    y 0.000000 4.178760 0.000000 
#    z 0.000000 0.000000 4.579080 
# 
# 
# High freq. dielectric constant tensor:
#      x y z
#    x 1.892660 0.000000 0.000000 
#    y 0.000000 1.900940 0.000000 
#    z 0.000000 0.000000 1.916940 
# 
# From -- ./inp_files/1246.got.cif
#   From: 2010.03.12/outbox.cif.g09.slc.cpg/sg45_1_cif.got.tgz:1246.got - 2010.04.14 02:50:11.
