data_PCOD8190316
_publ_section_title
;
Structure prediction by ZEFSAII (Michael W. Deem and Ramdas Pophale) SiO2 
 PCOD8190316
Probable space group: I M M 2
;
_chemical_formula_sum "Si O2"
_cell_formula_units_Z 40
_cell_length_a 7.630406
_cell_length_b 8.876888
_cell_length_c 32.748302
_cell_angle_alpha 90.000000
_cell_angle_beta 90.000000
_cell_angle_gamma 90.000000
_cell_volume 2218.181984
_symmetry_space_group_name_H-M "I M M 2"
_symmetry_group_IT_number 44
_symmetry_cell_setting 'orthorhombic'
loop_
_space_group_symop_operation_xyz
x,y,z
-x,-y,z
-x,y,z
x,-y,z
1/2+x,1/2+y,1/2+z
1/2-x,1/2-y,1/2+z
1/2-x,1/2+y,1/2+z
1/2+x,1/2-y,1/2+z
loop_
_atom_site_type_symbol
_atom_site_label
_atom_site_fract_x
_atom_site_fract_y
_atom_site_fract_z
Si Si1 0.500000 0.175154 0.786340
Si Si2 0.305106 0.828659 0.240173
Si Si3 0.000000 0.319323 0.573931
Si Si4 0.500000 0.322708 0.873582
Si Si5 0.297418 0.324707 0.425514
Si Si6 0.000000 0.675486 0.664041
Si Si7 0.192821 0.820848 0.017348
O O1 0.672810 0.212615 0.760400
O O2 0.500000 0.269860 0.827248
O O3 0.500000 0.000000 0.797059
O O4 0.500000 0.815728 0.260513
O O5 0.327230 0.786894 0.191630
O O6 0.235054 0.000000 0.245079
O O7 0.000000 0.246371 0.619510
O O8 0.829993 0.256840 0.550149
O O9 0.000000 0.500000 0.574047
O O10 0.500000 0.500000 0.874292
O O11 0.323699 0.266635 0.894930
O O12 0.500000 0.293627 0.414544
O O13 0.252501 0.500000 0.420699
O O14 0.256216 0.269439 0.471586
O O15 0.000000 0.500000 0.654917
O O16 0.000000 0.758845 0.028911
O O17 0.190333 0.000000 0.017831
#
# Coordination Sequence:
#
# PCOD8190316 Si02
#       7
#     4   8   4   4   8   4   8
#     4  12  24  37  57  80 101 131 174 218 263 317
#     4   8  17  36  56  75 104 138 170 209 262 314
#     4   9  13  21  39  71 111 137 163 208 252 299
#     4  12  25  37  53  79 107 135 171 216 264 315
#     4   9  18  35  56  77 107 144 178 215 258 303
#     4   7  14  29  48  72 105 141 170 204 259 311
#     4   8  14  24  42  71 106 140 169 204 254 299
#
# _framework density 18.032785000000001
#
# number of rings (size 3 to 8) (size 9 to 14) (size 15 to 20)
#    0.600    2.400    0.000    3.600    0.000    3.200 
#    1.800    0.000    0.000    0.000    0.000    5.600 
#    0.000    0.000    0.000    0.000    0.000    0.000 
#
# Total GULP energy -247798.782096 kJ/mol
# GULP energy per Si atom -12389.939105 kJ/mol
# Density = 1.799174 g / cm^3
# Si number density = 18.032785 Si / 1000 Ang^3
#
#
#
# Elastic Constant Matrix: (Units=GPa)
#
#
# Indices 1 2 3 4 5 6 
#
# 1 116.5344 35.8158 76.4327 0.0000 0.0000 0.0000
# 2 35.8158 57.3984 31.1776 0.0000 0.0000 0.0000
# 3 76.4327 31.1776 137.1641 0.0000 0.0000 0.0000
# 4 0.0000 0.0000 0.0000 15.8188 0.0000 0.0000
# 5 0.0000 0.0000 0.0000 0.0000 18.5095 0.0000
# 6 0.0000 0.0000 0.0000 0.0000 0.0000 20.2848
#
#
#
# Elastic Compliance Matrix: (Units=1/GPa)
#
#
# Indices 1 2 3 4 5 6 
#
# 1 0.014885 -0.005456 -0.007054 0.000000 0.000000 0.000000
# 2 -0.005456 0.021876 -0.001932 0.000000 0.000000 0.000000
# 3 -0.007054 -0.001932 0.011660 0.000000 0.000000 0.000000
# 4 0.000000 0.000000 0.000000 0.063216 0.000000 0.000000
# 5 0.000000 0.000000 0.000000 0.000000 0.054026 0.000000
# 6 0.000000 0.000000 0.000000 0.000000 0.000000 0.049298
#
#
# Mechanical properties :
#
#
# Convention : Reuss Voigt Hill
#
# Bulk Modulus (GPa) = 51.18603 66.43880 58.81241
# Shear Modulus (GPa) = 19.97135 22.10067 21.03601
#
# Velocity S-wave (km/s) = 3.33153 3.50463 3.41917
# Velocity P-wave (km/s) = 6.57612 7.30068 6.94785
#
# Compressibility (1/GPa) = 0.01953658
#
# Stress axis : x y z
#
# Youngs Moduli (GPa) = 67.18300 45.71184 85.75971
#
# Poissons Ratio (x) = 0.24941 0.60496
# Poissons Ratio (y) = 0.36657 0.16569
# Poissons Ratio (z) = 0.47391 0.08832
#
# Static dielectric constant tensor:
#      x y z
#    x 3.460250 0.000000 0.000000 
#    y 0.000000 2.835730 0.000000 
#    z 0.000000 0.000000 3.488450 
# 
# 
# High freq. dielectric constant tensor:
#      x y z
#    x 1.702220 0.000000 0.000000 
#    y 0.000000 1.649580 0.000000 
#    z 0.000000 0.000000 1.697530 
# 
# From -- ./inp_files/25987.got.cif
#   From: 2010.03.12/outbox.cif.g09.slc.cpg/sg44_13_cif.got.tgz:25987.got - 2010.04.14 02:36:11.
