data_PCOD8190790
_publ_section_title
;
Structure prediction by ZEFSAII (Michael W. Deem and Ramdas Pophale) SiO2 
 PCOD8190790
Probable space group: I B A 2
;
_chemical_formula_sum "Si O2"
_cell_formula_units_Z 52
_cell_length_a 6.443908
_cell_length_b 15.165530
_cell_length_c 22.605332
_cell_angle_alpha 90.000000
_cell_angle_beta 90.000000
_cell_angle_gamma 90.000000
_cell_volume 2209.112401
_symmetry_space_group_name_H-M "I B A 2"
_symmetry_group_IT_number 45
_symmetry_cell_setting 'orthorhombic'
loop_
_space_group_symop_operation_xyz
x,y,z
-x,-y,z
-x,y,1/2+z
x,-y,1/2+z
1/2+x,1/2+y,1/2+z
1/2-x,1/2-y,1/2+z
1/2-x,1/2+y,z
1/2+x,1/2-y,z
loop_
_atom_site_type_symbol
_atom_site_label
_atom_site_fract_x
_atom_site_fract_y
_atom_site_fract_z
Si Si1 0.837333 0.375052 0.036350
Si Si2 0.738693 0.530146 0.115247
Si Si3 0.000000 0.500000 0.220607
Si Si4 0.337333 0.875051 0.404863
Si Si5 0.621254 0.680677 0.035392
Si Si6 0.238693 0.030146 0.325966
Si Si7 0.621254 0.319323 0.405822
O O1 0.874288 0.450963 0.085115
O O2 0.590257 0.371230 0.030238
O O3 0.919579 0.279537 0.060059
O O4 0.925603 0.399014 0.970606
O O5 0.500000 0.500000 0.124439
O O6 0.769749 0.618577 0.075235
O O7 0.843037 0.554962 0.178321
O O8 0.156963 0.554962 0.262892
O O9 0.419578 0.779536 0.381154
O O10 0.090257 0.871230 0.410976
O O11 0.374287 0.950963 0.356097
O O12 0.728870 0.690965 0.970607
O O13 0.269749 0.118577 0.365979
O O14 0.000000 0.000000 0.316774
#
# Coordination Sequence:
#
# PCOD8190790 Si02
#       7
#     8   8   4   8   8   8   8
#     4   9  18  34  60  91 120 147 182 236 305 362
#     4  10  22  41  61  81 121 154 197 244 290 334
#     4  12  26  40  62  82 108 166 218 242 264 334
#     4   9  18  34  60  91 120 147 182 236 305 362
#     4   9  18  34  60  91 120 147 182 236 305 362
#     4  10  22  41  61  81 121 154 197 244 290 334
#     4   9  18  34  60  91 120 147 182 236 305 362
#
# _framework density 23.538865000000001
#
# number of rings (size 3 to 8) (size 9 to 14) (size 15 to 20)
#    0.000    2.462    0.000    1.385    4.308    3.692 
#    0.000    3.077    0.000    0.000    0.000    0.000 
#    0.000    0.000    0.000    0.000    0.000    0.000 
#
# Total GULP energy -322193.144367 kJ/mol
# GULP energy per Si atom -12392.044014 kJ/mol
# Density = 2.348529 g / cm^3
# Si number density = 23.538865 Si / 1000 Ang^3
#
#
#
# Elastic Constant Matrix: (Units=GPa)
#
#
# Indices 1 2 3 4 5 6 
#
# 1 54.8938 43.0884 33.0040 0.0000 0.0000 0.0000
# 2 43.0884 155.2158 86.8986 0.0000 0.0000 0.0000
# 3 33.0040 86.8986 152.2189 0.0000 0.0000 0.0000
# 4 0.0000 0.0000 0.0000 16.8549 0.0000 0.0000
# 5 0.0000 0.0000 0.0000 0.0000 34.3035 0.0000
# 6 0.0000 0.0000 0.0000 0.0000 0.0000 46.8700
#
#
#
# Elastic Compliance Matrix: (Units=1/GPa)
#
#
# Indices 1 2 3 4 5 6 
#
# 1 0.023713 -0.005444 -0.002033 0.000000 0.000000 0.000000
# 2 -0.005444 0.010719 -0.004939 0.000000 0.000000 0.000000
# 3 -0.002033 -0.004939 0.009830 0.000000 0.000000 0.000000
# 4 0.000000 0.000000 0.000000 0.059330 0.000000 0.000000
# 5 0.000000 0.000000 0.000000 0.000000 0.029152 0.000000
# 6 0.000000 0.000000 0.000000 0.000000 0.000000 0.021336
#
#
# Mechanical properties :
#
#
# Convention : Reuss Voigt Hill
#
# Bulk Modulus (GPa) = 51.47009 76.47892 63.97451
# Shear Modulus (GPa) = 26.97041 32.89486 29.93263
#
# Velocity S-wave (km/s) = 3.38861 3.74233 3.56986
# Velocity P-wave (km/s) = 6.10113 7.15782 6.65049
#
# Compressibility (1/GPa) = 0.01942876
#
# Stress axis : x y z
#
# Youngs Moduli (GPa) = 42.17084 93.29161 101.73116
#
# Poissons Ratio (x) = 0.50792 0.20685
# Poissons Ratio (y) = 0.22960 0.50243
# Poissons Ratio (z) = 0.08575 0.46075
#
# Static dielectric constant tensor:
#      x y z
#    x 4.618040 0.000000 0.000000 
#    y 0.000000 4.207050 0.000000 
#    z 0.000000 0.000000 4.162710 
# 
# 
# High freq. dielectric constant tensor:
#      x y z
#    x 1.995170 0.000000 0.000000 
#    y 0.000000 1.920360 0.000000 
#    z 0.000000 0.000000 1.888420 
# 
# From -- ./inp_files/8844.got.cif
#   From: 2010.03.12/outbox.cif.g09.slc.cpg/sg45_5_cif.got.tgz:8844.got - 2010.04.14 02:50:11.
