data_PCOD8190136
_publ_section_title
;
Structure prediction by ZEFSAII (Michael W. Deem and Ramdas Pophale) SiO2 
 PCOD8190136
Probable space group: I M M 2
;
_chemical_formula_sum "Si O2"
_cell_formula_units_Z 56
_cell_length_a 24.631760
_cell_length_b 8.670805
_cell_length_c 14.150793
_cell_angle_alpha 90.000000
_cell_angle_beta 90.000000
_cell_angle_gamma 90.000000
_cell_volume 3022.286574
_symmetry_space_group_name_H-M "I M M 2"
_symmetry_group_IT_number 44
_symmetry_cell_setting 'orthorhombic'
loop_
_space_group_symop_operation_xyz
x,y,z
-x,-y,z
-x,y,z
x,-y,z
1/2+x,1/2+y,1/2+z
1/2-x,1/2-y,1/2+z
1/2-x,1/2+y,1/2+z
1/2+x,1/2-y,1/2+z
loop_
_atom_site_type_symbol
_atom_site_label
_atom_site_fract_x
_atom_site_fract_y
_atom_site_fract_z
Si Si1 0.000000 0.817534 0.491820
Si Si2 0.396221 0.176742 0.892971
Si Si3 0.836760 0.673862 0.580086
Si Si4 0.108312 0.178899 0.744216
Si Si5 0.500000 0.181086 0.202404
Si Si6 0.723605 0.819354 0.571468
Si Si7 0.317953 0.317791 0.750281
Si Si8 0.707699 0.180684 0.356073
O O1 0.051462 0.761977 0.432415
O O2 0.000000 0.751593 0.597378
O O3 0.000000 0.000000 0.499257
O O4 0.372828 0.263801 0.801948
O O5 0.410763 0.000000 0.868501
O O6 0.348224 0.185607 0.969638
O O7 0.845225 0.500000 0.618285
O O8 0.877348 0.786836 0.635116
O O9 0.776063 0.723591 0.601916
O O10 0.156724 0.234735 0.810581
O O11 0.051885 0.266388 0.764162
O O12 0.098513 0.000000 0.760108
O O13 0.500000 0.000000 0.189292
O O14 0.679221 0.766802 0.648363
O O15 0.705945 0.773694 0.466219
O O16 0.736296 0.000000 0.578309
O O17 0.319531 0.500000 0.736752
O O18 0.264309 0.265088 0.808782
O O19 0.700183 0.000000 0.341505
#
# Coordination Sequence:
#
# PCOD8190136 Si02
#       8
#     4   8   8   8   4   8   8   8
#     4  12  24  38  60  87 118 153 196 242 292 344
#     4  11  23  38  58  84 119 158 197 237 289 349
#     4  11  21  33  54  83 119 156 192 235 286 344
#     4  12  24  37  58  86 118 153 196 240 287 346
#     4  12  24  40  60  83 118 157 194 236 292 348
#     4  11  22  37  57  83 117 156 199 240 287 347
#     4  11  22  37  58  85 119 154 195 242 292 346
#     4  10  22  38  57  83 118 156 193 237 290 347
#
# _framework density 18.529017
#
# number of rings (size 3 to 8) (size 9 to 14) (size 15 to 20)
#    0.000    0.857    4.286    4.286    0.000    2.857 
#    0.000    0.000    0.000    0.857    0.000    1.000 
#    0.000    0.000    0.000    0.000    0.000    0.000 
#
# Total GULP energy -347270.949579 kJ/mol
# GULP energy per Si atom -12402.533914 kJ/mol
# Density = 1.848684 g / cm^3
# Si number density = 18.529017 Si / 1000 Ang^3
#
#
#
# Elastic Constant Matrix: (Units=GPa)
#
#
# Indices 1 2 3 4 5 6 
#
# 1 89.8336 43.4993 22.8594 0.0000 0.0000 0.0000
# 2 43.4993 104.0656 38.7644 0.0000 0.0000 0.0000
# 3 22.8594 38.7644 88.5904 0.0000 0.0000 0.0000
# 4 0.0000 0.0000 0.0000 28.4927 0.0000 0.0000
# 5 0.0000 0.0000 0.0000 0.0000 27.4845 0.0000
# 6 0.0000 0.0000 0.0000 0.0000 0.0000 32.0572
#
#
#
# Elastic Compliance Matrix: (Units=1/GPa)
#
#
# Indices 1 2 3 4 5 6 
#
# 1 0.014074 -0.005412 -0.001263 0.000000 0.000000 0.000000
# 2 -0.005412 0.013562 -0.004538 0.000000 0.000000 0.000000
# 3 -0.001263 -0.004538 0.013599 0.000000 0.000000 0.000000
# 4 0.000000 0.000000 0.000000 0.035097 0.000000 0.000000
# 5 0.000000 0.000000 0.000000 0.000000 0.036384 0.000000
# 6 0.000000 0.000000 0.000000 0.000000 0.000000 0.031194
#
#
# Mechanical properties :
#
#
# Convention : Reuss Voigt Hill
#
# Bulk Modulus (GPa) = 53.16702 54.74842 53.95772
# Shear Modulus (GPa) = 28.96759 29.43130 29.19945
#
# Velocity S-wave (km/s) = 3.95823 3.98978 3.97404
# Velocity P-wave (km/s) = 7.04601 7.12994 7.08810
#
# Compressibility (1/GPa) = 0.01880865
#
# Stress axis : x y z
#
# Youngs Moduli (GPa) = 71.05350 73.73565 73.53239
#
# Poissons Ratio (x) = 0.39908 0.09289
# Poissons Ratio (y) = 0.38456 0.33367
# Poissons Ratio (z) = 0.08976 0.33459
#
# Static dielectric constant tensor:
#      x y z
#    x 3.473170 0.000000 0.000000 
#    y 0.000000 3.479050 0.000000 
#    z 0.000000 0.000000 3.388740 
# 
# 
# High freq. dielectric constant tensor:
#      x y z
#    x 1.709300 0.000000 0.000000 
#    y 0.000000 1.733030 0.000000 
#    z 0.000000 0.000000 1.706920 
# 
# From -- ./inp_files/16546.got.cif
#   From: 2010.03.12/outbox.cif.g09.slc.cpg/sg44_9_cif.got.tgz:16546.got - 2010.04.14 02:36:11.
