data_PCOD8190696
_publ_section_title
;
Structure prediction by ZEFSAII (Michael W. Deem and Ramdas Pophale) SiO2 
 PCOD8190696
Probable space group: I B A 2
;
_chemical_formula_sum "Si O2"
_cell_formula_units_Z 60
_cell_length_a 15.033984
_cell_length_b 8.076611
_cell_length_c 23.874294
_cell_angle_alpha 90.000000
_cell_angle_beta 90.000000
_cell_angle_gamma 90.000000
_cell_volume 2898.903693
_symmetry_space_group_name_H-M "I B A 2"
_symmetry_group_IT_number 45
_symmetry_cell_setting 'orthorhombic'
loop_
_space_group_symop_operation_xyz
x,y,z
-x,-y,z
-x,y,1/2+z
x,-y,1/2+z
1/2+x,1/2+y,1/2+z
1/2-x,1/2-y,1/2+z
1/2-x,1/2+y,z
1/2+x,1/2-y,z
loop_
_atom_site_type_symbol
_atom_site_label
_atom_site_fract_x
_atom_site_fract_y
_atom_site_fract_z
Si Si1 0.327542 0.395095 0.834570
Si Si2 0.916165 0.090999 0.427781
Si Si3 0.000000 0.500000 0.100787
Si Si4 0.363262 0.783285 0.033049
Si Si5 0.339101 0.263829 0.279223
Si Si6 0.004548 0.316466 0.336708
Si Si7 0.714598 0.470991 0.587324
Si Si8 0.344524 0.826177 0.654204
O O1 0.343388 0.465820 0.898587
O O2 0.342166 0.539745 0.789395
O O3 0.229206 0.319596 0.824324
O O4 0.396214 0.244400 0.821587
O O5 0.873296 0.226149 0.468797
O O6 0.961500 0.185059 0.377383
O O7 0.000000 0.000000 0.458640
O O8 0.052603 0.378341 0.058703
O O9 0.058048 0.600588 0.145560
O O10 0.350253 0.614661 0.067410
O O11 0.276959 0.902569 0.036624
O O12 0.437647 0.183709 0.283805
O O13 0.313969 0.231441 0.215307
O O14 0.000000 0.500000 0.363084
O O15 0.655622 0.322709 0.609936
O O16 0.775030 0.531942 0.638256
#
# Coordination Sequence:
#
# PCOD8190696 Si02
#       8
#     8   8   4   8   8   8   8   8
#     4  10  22  41  58  95 122 158 210 256 305 394
#     4   9  21  38  61  90 124 160 209 256 319 374
#     4  10  24  38  58  92 130 156 226 252 312 384
#     4  10  21  40  62  87 123 169 202 269 315 374
#     4  11  21  38  65  84 126 164 203 254 320 367
#     4  10  22  40  59  90 124 154 204 257 299 382
#     4   9  21  40  59  86 128 155 214 257 306 379
#     4  10  21  40  58  92 119 165 203 258 308 379
#
# _framework density 20.697479000000001
#
# number of rings (size 3 to 8) (size 9 to 14) (size 15 to 20)
#    0.000    2.133    0.000    2.800    3.733    2.133 
#    9.600    0.000    0.000    0.000    0.000    0.000 
#    0.000    0.000    0.000    0.000    0.000    0.000 
#
# Total GULP energy -371782.408897 kJ/mol
# GULP energy per Si atom -12392.746963 kJ/mol
# Density = 2.065037 g / cm^3
# Si number density = 20.697479 Si / 1000 Ang^3
#
#
#
# Elastic Constant Matrix: (Units=GPa)
#
#
# Indices 1 2 3 4 5 6 
#
# 1 91.9210 44.5793 34.8308 0.0000 0.0000 0.0000
# 2 44.5793 114.2246 23.7160 0.0000 0.0000 0.0000
# 3 34.8308 23.7160 87.9372 0.0000 0.0000 0.0000
# 4 0.0000 0.0000 0.0000 24.3610 0.0000 0.0000
# 5 0.0000 0.0000 0.0000 0.0000 14.6866 0.0000
# 6 0.0000 0.0000 0.0000 0.0000 0.0000 39.4897
#
#
#
# Elastic Compliance Matrix: (Units=1/GPa)
#
#
# Indices 1 2 3 4 5 6 
#
# 1 0.015005 -0.004896 -0.004623 0.000000 0.000000 0.000000
# 2 -0.004896 0.010872 -0.000993 0.000000 0.000000 0.000000
# 3 -0.004623 -0.000993 0.013471 0.000000 0.000000 0.000000
# 4 0.000000 0.000000 0.000000 0.041049 0.000000 0.000000
# 5 0.000000 0.000000 0.000000 0.000000 0.068089 0.000000
# 6 0.000000 0.000000 0.000000 0.000000 0.000000 0.025323
#
#
# Mechanical properties :
#
#
# Convention : Reuss Voigt Hill
#
# Bulk Modulus (GPa) = 54.57407 55.59279 55.08343
# Shear Modulus (GPa) = 24.88298 28.43793 26.66046
#
# Velocity S-wave (km/s) = 3.47107 3.71075 3.59291
# Velocity P-wave (km/s) = 6.51837 6.72886 6.62445
#
# Compressibility (1/GPa) = 0.01832372
#
# Stress axis : x y z
#
# Youngs Moduli (GPa) = 66.64348 91.98177 74.23625
#
# Poissons Ratio (x) = 0.45038 0.34318
# Poissons Ratio (y) = 0.32631 0.07369
# Poissons Ratio (z) = 0.30808 0.09130
#
# Static dielectric constant tensor:
#      x y z
#    x 4.210830 0.000000 0.000000 
#    y 0.000000 3.980580 0.000000 
#    z 0.000000 0.000000 3.452060 
# 
# 
# High freq. dielectric constant tensor:
#      x y z
#    x 1.812140 0.000000 0.000000 
#    y 0.000000 1.827960 0.000000 
#    z 0.000000 0.000000 1.786480 
# 
# From -- ./inp_files/9763.got.cif
#   From: 2010.03.12/outbox.cif.g09.slc.cpg/sg45_5_cif.got.tgz:9763.got - 2010.04.14 02:50:11.
