data_PCOD8190633
_publ_section_title
;
Structure prediction by ZEFSAII (Michael W. Deem and Ramdas Pophale) SiO2 
 PCOD8190633
Probable space group: I B A 2
;
_chemical_formula_sum "Si O2"
_cell_formula_units_Z 48
_cell_length_a 13.800576
_cell_length_b 4.986812
_cell_length_c 31.930466
_cell_angle_alpha 90.000000
_cell_angle_beta 90.000000
_cell_angle_gamma 90.000000
_cell_volume 2197.482705
_symmetry_space_group_name_H-M "I B A 2"
_symmetry_group_IT_number 45
_symmetry_cell_setting 'orthorhombic'
loop_
_space_group_symop_operation_xyz
x,y,z
-x,-y,z
-x,y,1/2+z
x,-y,1/2+z
1/2+x,1/2+y,1/2+z
1/2-x,1/2-y,1/2+z
1/2-x,1/2+y,z
1/2+x,1/2-y,z
loop_
_atom_site_type_symbol
_atom_site_label
_atom_site_fract_x
_atom_site_fract_y
_atom_site_fract_z
Si Si1 0.813697 0.532526 0.752920
Si Si2 0.438741 0.754183 0.585042
Si Si3 0.813870 0.189390 0.914513
Si Si4 0.000000 0.500000 0.806980
Si Si5 0.068577 0.242548 0.494086
Si Si6 0.500000 0.500000 0.363059
Si Si7 0.691536 0.016734 0.657194
O O1 0.726869 0.326663 0.763359
O O2 0.906883 0.439380 0.778564
O O3 0.846563 0.541622 0.704358
O O4 0.500000 0.500000 0.600850
O O5 0.384410 0.693075 0.540975
O O6 0.383316 0.867590 0.624593
O O7 0.500000 0.000000 0.568177
O O8 0.768964 0.476024 0.902325
O O9 0.911655 0.114566 0.890225
O O10 0.839186 0.224698 0.963498
O O11 0.032449 0.246323 0.834238
O O12 0.000000 0.500000 0.486776
O O13 0.000000 0.000000 0.482381
O O14 0.786582 0.203183 0.649368
#
# Coordination Sequence:
#
# PCOD8190633 Si02
#       7
#     8   8   8   4   8   4   8
#     4  10  23  43  65  96 132 164 214 269 312 391
#     4  10  21  36  59  94 125 172 217 262 316 375
#     4  12  26  43  70 100 128 178 217 264 339 396
#     4  12  26  44  72  96 122 182 208 258 356 386
#     4  10  21  40  64  89 135 174 216 277 321 377
#     4  12  28  46  66 100 136 158 218 286 318 404
#     4  10  21  38  59  88 129 167 205 268 320 365
#
# _framework density 21.843177000000001
#
# number of rings (size 3 to 8) (size 9 to 14) (size 15 to 20)
#    0.000    1.333    0.833    4.000    2.333    5.333 
#    1.500    0.000    0.000    0.000    0.000    0.000 
#    0.000    0.000    0.000    0.000    0.000    0.000 
#
# Total GULP energy -297364.122751 kJ/mol
# GULP energy per Si atom -12390.171781 kJ/mol
# Density = 2.179346 g / cm^3
# Si number density = 21.843177 Si / 1000 Ang^3
#
#
#
# Elastic Constant Matrix: (Units=GPa)
#
#
# Indices 1 2 3 4 5 6 
#
# 1 79.2749 10.9320 46.9157 0.0000 0.0000 0.0000
# 2 10.9320 114.1512 18.0656 0.0000 0.0000 0.0000
# 3 46.9157 18.0656 98.5369 0.0000 0.0000 0.0000
# 4 0.0000 0.0000 0.0000 8.9171 0.0000 0.0000
# 5 0.0000 0.0000 0.0000 0.0000 -50.9272 0.0000
# 6 0.0000 0.0000 0.0000 0.0000 0.0000 33.3137
#
#
#
# Elastic Compliance Matrix: (Units=1/GPa)
#
#
# Indices 1 2 3 4 5 6 
#
# 1 0.017578 -0.000370 -0.008302 0.000000 0.000000 0.000000
# 2 -0.000370 0.009030 -0.001480 0.000000 0.000000 0.000000
# 3 -0.008302 -0.001480 0.014372 0.000000 0.000000 0.000000
# 4 0.000000 0.000000 0.000000 0.112144 0.000000 0.000000
# 5 0.000000 0.000000 0.000000 0.000000 -0.019636 0.000000
# 6 0.000000 0.000000 0.000000 0.000000 0.000000 0.030018
#
#
# Mechanical properties :
#
#
# Convention : Reuss Voigt Hill
#
# Bulk Modulus (GPa) = 48.35851 49.30995 48.83423
# Shear Modulus (GPa) = 26.21908 12.66404 19.44156
#
# Velocity S-wave (km/s) = 3.46834 2.41046 2.98661
# Velocity P-wave (km/s) = 6.18273 5.51095 5.85648
#
# Compressibility (1/GPa) = 0.02067888
#
# Stress axis : x y z
#
# Youngs Moduli (GPa) = 56.88828 110.74367 69.57806
#
# Poissons Ratio (x) = 0.04093 0.57761
# Poissons Ratio (y) = 0.02103 0.10294
# Poissons Ratio (z) = 0.47227 0.16385
#
# Static dielectric constant tensor:
#      x y z
#    x 3.611080 0.000000 0.000000 
#    y 0.000000 4.282300 0.000000 
#    z 0.000000 0.000000 4.130650 
# 
# 
# High freq. dielectric constant tensor:
#      x y z
#    x 1.832120 0.000000 0.000000 
#    y 0.000000 1.882950 0.000000 
#    z 0.000000 0.000000 1.874430 
# 
# From -- ./inp_files/10066.got.cif
#   From: 2010.03.12/outbox.cif.g09.slc.cpg/sg45_6_cif.got.tgz:10066.got - 2010.04.14 02:50:11.
