data_PCOD8190853
_publ_section_title
;
Structure prediction by ZEFSAII (Michael W. Deem and Ramdas Pophale) SiO2 
 PCOD8190853
Probable space group: I B A 2
;
_chemical_formula_sum "Si O2"
_cell_formula_units_Z 56
_cell_length_a 15.096212
_cell_length_b 8.753383
_cell_length_c 19.899581
_cell_angle_alpha 90.000000
_cell_angle_beta 90.000000
_cell_angle_gamma 90.000000
_cell_volume 2629.588849
_symmetry_space_group_name_H-M "I B A 2"
_symmetry_group_IT_number 45
_symmetry_cell_setting 'orthorhombic'
loop_
_space_group_symop_operation_xyz
x,y,z
-x,-y,z
-x,y,1/2+z
x,-y,1/2+z
1/2+x,1/2+y,1/2+z
1/2-x,1/2-y,1/2+z
1/2-x,1/2+y,z
1/2+x,1/2-y,z
loop_
_atom_site_type_symbol
_atom_site_label
_atom_site_fract_x
_atom_site_fract_y
_atom_site_fract_z
Si Si1 0.675760 0.195915 0.272750
Si Si2 0.259838 0.537012 0.361871
Si Si3 0.564864 0.364492 0.895680
Si Si4 0.754314 0.458526 0.074874
Si Si5 0.822965 0.199396 0.164260
Si Si6 0.991414 0.181270 0.252120
Si Si7 0.173081 0.700277 0.485949
O O1 0.697424 0.358066 0.305121
O O2 0.747535 0.153258 0.216932
O O3 0.579898 0.220182 0.237351
O O4 0.678738 0.060108 0.328554
O O5 0.335270 0.420137 0.384267
O O6 0.231541 0.639244 0.424268
O O7 0.500000 0.500000 0.917935
O O8 0.533139 0.277520 0.829016
O O9 0.574770 0.242597 0.957211
O O10 0.802564 0.361067 0.131165
O O11 0.676657 0.562731 0.108921
O O12 0.829247 0.570766 0.043165
O O13 0.714191 0.355423 0.016127
O O14 0.916969 0.228041 0.199196
O O15 0.000000 0.000000 0.246725
#
# Coordination Sequence:
#
# PCOD8190853 Si02
#       7
#     8   8   8   8   8   8   8
#     4  12  22  38  70 101 129 165 208 269 345 391
#     4  12  20  38  71  97 125 165 205 270 339 394
#     4  11  21  37  66  97 128 160 211 264 332 391
#     4  10  23  40  68  87 124 183 227 254 315 376
#     4  11  22  42  65  93 130 174 220 267 313 396
#     4  11  21  39  66  98 128 163 211 266 330 399
#     4  11  21  42  67  93 123 173 223 263 311 391
#
# _framework density 21.296105000000001
#
# number of rings (size 3 to 8) (size 9 to 14) (size 15 to 20)
#    0.000    0.857    7.143    1.714    0.000    0.000 
#    0.000   10.000    3.143    0.000    0.000    0.000 
#    0.000    0.000    0.000    0.000    0.000    0.000 
#
# Total GULP energy -347097.259213 kJ/mol
# GULP energy per Si atom -12396.330686 kJ/mol
# Density = 2.124763 g / cm^3
# Si number density = 21.296105 Si / 1000 Ang^3
#
#
#
# Elastic Constant Matrix: (Units=GPa)
#
#
# Indices 1 2 3 4 5 6 
#
# 1 105.3687 26.2943 37.0258 0.0000 0.0000 0.0000
# 2 26.2943 90.3739 35.7432 0.0000 0.0000 0.0000
# 3 37.0258 35.7432 86.4829 0.0000 0.0000 0.0000
# 4 0.0000 0.0000 0.0000 41.9216 0.0000 0.0000
# 5 0.0000 0.0000 0.0000 0.0000 28.3597 0.0000
# 6 0.0000 0.0000 0.0000 0.0000 0.0000 26.8042
#
#
#
# Elastic Compliance Matrix: (Units=1/GPa)
#
#
# Indices 1 2 3 4 5 6 
#
# 1 0.011374 -0.001654 -0.004186 0.000000 0.000000 0.000000
# 2 -0.001654 0.013468 -0.004858 0.000000 0.000000 0.000000
# 3 -0.004186 -0.004858 0.015363 0.000000 0.000000 0.000000
# 4 0.000000 0.000000 0.000000 0.023854 0.000000 0.000000
# 5 0.000000 0.000000 0.000000 0.000000 0.035261 0.000000
# 6 0.000000 0.000000 0.000000 0.000000 0.000000 0.037308
#
#
# Mechanical properties :
#
#
# Convention : Reuss Voigt Hill
#
# Bulk Modulus (GPa) = 53.16631 53.37247 53.26939
# Shear Modulus (GPa) = 30.43335 31.62791 31.03063
#
# Velocity S-wave (km/s) = 3.78439 3.85795 3.82134
# Velocity P-wave (km/s) = 6.64191 6.70533 6.67369
#
# Compressibility (1/GPa) = 0.01880890
#
# Stress axis : x y z
#
# Youngs Moduli (GPa) = 87.91882 74.25167 65.09120
#
# Poissons Ratio (x) = 0.12279 0.27248
# Poissons Ratio (y) = 0.14539 0.31623
# Poissons Ratio (z) = 0.36804 0.36073
#
# Static dielectric constant tensor:
#      x y z
#    x 3.712370 0.000000 0.000000 
#    y 0.000000 4.040420 0.000000 
#    z 0.000000 0.000000 4.250860 
# 
# 
# High freq. dielectric constant tensor:
#      x y z
#    x 1.801800 0.000000 0.000000 
#    y 0.000000 1.848220 0.000000 
#    z 0.000000 0.000000 1.845520 
# 
# From -- ./inp_files/8866.got.cif
#   From: 2010.03.12/outbox.cif.g09.slc.cpg/sg45_5_cif.got.tgz:8866.got - 2010.04.14 02:50:11.
