data_PCOD8190140
_publ_section_title
;
Structure prediction by ZEFSAII (Michael W. Deem and Ramdas Pophale) SiO2 
 PCOD8190140
Probable space group: I M M 2
;
_chemical_formula_sum "Si O2"
_cell_formula_units_Z 48
_cell_length_a 10.313867
_cell_length_b 8.783538
_cell_length_c 27.915999
_cell_angle_alpha 90.000000
_cell_angle_beta 90.000000
_cell_angle_gamma 90.000000
_cell_volume 2528.972957
_symmetry_space_group_name_H-M "I M M 2"
_symmetry_group_IT_number 44
_symmetry_cell_setting 'orthorhombic'
loop_
_space_group_symop_operation_xyz
x,y,z
-x,-y,z
-x,y,z
x,-y,z
1/2+x,1/2+y,1/2+z
1/2-x,1/2-y,1/2+z
1/2-x,1/2+y,1/2+z
1/2+x,1/2-y,1/2+z
loop_
_atom_site_type_symbol
_atom_site_label
_atom_site_fract_x
_atom_site_fract_y
_atom_site_fract_z
Si Si1 0.251881 0.320686 0.384000
Si Si2 0.500000 0.321025 0.536407
Si Si3 0.348769 0.675573 0.684797
Si Si4 0.000000 0.679695 0.932230
Si Si5 0.733602 0.823216 0.592715
Si Si6 0.500000 0.179409 0.939488
Si Si7 0.649944 0.323043 0.793019
Si Si8 0.500000 0.324061 0.041968
O O1 0.270818 0.500000 0.390043
O O2 0.375187 0.236098 0.404330
O O3 0.127602 0.257268 0.413049
O O4 0.235914 0.279497 0.328175
O O5 0.500000 0.500000 0.527793
O O6 0.500000 0.239267 0.485870
O O7 0.372141 0.276555 0.565349
O O8 0.500000 0.711286 0.678131
O O9 0.320758 0.500000 0.672858
O O10 0.267432 0.781315 0.648892
O O11 0.305176 0.713541 0.738900
O O12 0.000000 0.500000 0.933809
O O13 0.874675 0.781505 0.572914
O O14 0.700605 0.000000 0.585611
O O15 0.500000 0.000000 0.935571
O O16 0.500000 0.225997 0.994320
O O17 0.500000 0.278761 0.799436
O O18 0.671502 0.500000 0.804748
O O19 0.500000 0.500000 0.027097
#
# Coordination Sequence:
#
# PCOD8190140 Si02
#       8
#     8   4   8   4   8   4   8   4
#     4  11  22  39  60  88 120 153 192 240 291 346
#     4  12  24  40  61  86 115 150 193 244 292 346
#     4   9  18  34  57  86 117 149 191 239 286 339
#     4  12  26  42  59  84 117 156 197 240 290 352
#     4  11  22  38  59  86 116 153 196 239 288 345
#     4  10  22  38  59  86 113 146 193 236 280 338
#     4   9  18  34  58  87 117 152 193 238 288 342
#     4  10  24  40  55  80 117 152 189 234 282 338
#
# _framework density 18.980035000000001
#
# number of rings (size 3 to 8) (size 9 to 14) (size 15 to 20)
#    0.000    1.667    1.667    4.500    0.000    6.000 
#    0.000    2.500    0.000    4.000    0.000    0.000 
#    0.000    0.000    0.000    0.000    0.000    0.000 
#
# Total GULP energy -297695.917084 kJ/mol
# GULP energy per Si atom -12403.996545 kJ/mol
# Density = 1.893684 g / cm^3
# Si number density = 18.980035 Si / 1000 Ang^3
#
#
#
# Elastic Constant Matrix: (Units=GPa)
#
#
# Indices 1 2 3 4 5 6 
#
# 1 127.9960 49.2983 60.7000 0.0000 0.0000 0.0000
# 2 49.2983 82.9452 43.7091 0.0000 0.0000 0.0000
# 3 60.7000 43.7091 137.1128 0.0000 0.0000 0.0000
# 4 0.0000 0.0000 0.0000 39.6872 0.0000 0.0000
# 5 0.0000 0.0000 0.0000 0.0000 27.7425 0.0000
# 6 0.0000 0.0000 0.0000 0.0000 0.0000 31.2700
#
#
#
# Elastic Compliance Matrix: (Units=1/GPa)
#
#
# Indices 1 2 3 4 5 6 
#
# 1 0.011347 -0.004924 -0.003454 0.000000 0.000000 0.000000
# 2 -0.004924 0.016627 -0.003121 0.000000 0.000000 0.000000
# 3 -0.003454 -0.003121 0.009817 0.000000 0.000000 0.000000
# 4 0.000000 0.000000 0.000000 0.025197 0.000000 0.000000
# 5 0.000000 0.000000 0.000000 0.000000 0.036046 0.000000
# 6 0.000000 0.000000 0.000000 0.000000 0.000000 0.031979
#
#
# Mechanical properties :
#
#
# Convention : Reuss Voigt Hill
#
# Bulk Modulus (GPa) = 67.59215 72.82988 70.21102
# Shear Modulus (GPa) = 31.45801 32.69638 32.07719
#
# Velocity S-wave (km/s) = 4.07557 4.15501 4.11548
# Velocity P-wave (km/s) = 7.60503 7.84053 7.72368
#
# Compressibility (1/GPa) = 0.01479462
#
# Stress axis : x y z
#
# Youngs Moduli (GPa) = 88.12770 60.14221 101.86448
#
# Poissons Ratio (x) = 0.29615 0.35180
# Poissons Ratio (y) = 0.43396 0.31787
# Poissons Ratio (z) = 0.30436 0.18767
#
# Static dielectric constant tensor:
#      x y z
#    x 3.448730 0.000000 0.000000 
#    y 0.000000 3.426610 0.000000 
#    z 0.000000 0.000000 3.681230 
# 
# 
# High freq. dielectric constant tensor:
#      x y z
#    x 1.725850 0.000000 0.000000 
#    y 0.000000 1.738750 0.000000 
#    z 0.000000 0.000000 1.753380 
# 
# From -- ./inp_files/27055.got.cif
#   From: 2010.03.12/outbox.cif.g09.slc.cpg/sg44_14_cif.got.tgz:27055.got - 2010.04.14 02:36:11.
