data_PCOD8190095
_publ_section_title
;
Structure prediction by ZEFSAII (Michael W. Deem and Ramdas Pophale) SiO2 
 PCOD8190095
Probable space group: I M M 2
;
_chemical_formula_sum "Si O2"
_cell_formula_units_Z 48
_cell_length_a 7.936811
_cell_length_b 16.286734
_cell_length_c 18.566394
_cell_angle_alpha 90.000000
_cell_angle_beta 90.000000
_cell_angle_gamma 90.000000
_cell_volume 2399.979899
_symmetry_space_group_name_H-M "I M M 2"
_symmetry_group_IT_number 44
_symmetry_cell_setting 'orthorhombic'
loop_
_space_group_symop_operation_xyz
x,y,z
-x,-y,z
-x,y,z
x,-y,z
1/2+x,1/2+y,1/2+z
1/2-x,1/2-y,1/2+z
1/2-x,1/2+y,1/2+z
1/2+x,1/2-y,1/2+z
loop_
_atom_site_type_symbol
_atom_site_label
_atom_site_fract_x
_atom_site_fract_y
_atom_site_fract_z
Si Si1 0.000000 0.096031 0.755450
Si Si2 0.193739 0.656497 0.505446
Si Si3 0.500000 0.403728 0.097093
Si Si4 0.700368 0.000000 0.094057
Si Si5 0.301327 0.000000 0.258339
Si Si6 0.689444 0.166414 0.839482
Si Si7 0.685517 0.835353 0.513566
Si Si8 0.192546 0.853937 0.359425
O O1 0.171410 0.120627 0.794066
O O2 0.000000 0.136457 0.676339
O O3 0.000000 0.000000 0.748816
O O4 0.266871 0.581048 0.552511
O O5 0.209271 0.635709 0.421295
O O6 0.300852 0.737325 0.521675
O O7 0.000000 0.675412 0.525572
O O8 0.500000 0.500000 0.101484
O O9 0.329460 0.377881 0.058694
O O10 0.500000 0.000000 0.091034
O O11 0.767913 0.000000 0.176242
O O12 0.237906 0.081347 0.297949
O O13 0.500000 0.000000 0.257470
O O14 0.500000 0.144781 0.812433
O O15 0.722638 0.263112 0.829098
O O16 0.500000 0.861206 0.541744
O O17 0.697039 0.865710 0.430874
O O18 0.000000 0.865194 0.383604
#
# Coordination Sequence:
#
# PCOD8190095 Si02
#       8
#     4   8   4   4   4   8   8   8
#     4  11  26  42  64  93 123 161 211 257 322 374
#     4   9  18  38  63  93 128 167 210 254 303 366
#     4  11  26  46  62  89 125 165 203 261 326 372
#     4   9  20  37  59  91 135 175 206 249 313 377
#     4  11  23  35  57  97 131 170 213 249 310 382
#     4   9  21  40  66  93 121 163 213 259 308 364
#     4  11  22  40  67  95 120 161 214 260 309 368
#     4  10  21  40  62  89 127 168 209 255 306 368
#
# _framework density 20.000166
#
# number of rings (size 3 to 8) (size 9 to 14) (size 15 to 20)
#    0.000    2.000    1.667    1.750    8.167    2.667 
#    0.000    5.417    0.000    0.000    0.000    0.000 
#    0.000    0.000    0.000    0.000    0.000    0.000 
#
# Total GULP energy -297577.081561 kJ/mol
# GULP energy per Si atom -12399.045065 kJ/mol
# Density = 1.995465 g / cm^3
# Si number density = 20.000166 Si / 1000 Ang^3
#
#
#
# Elastic Constant Matrix: (Units=GPa)
#
#
# Indices 1 2 3 4 5 6 
#
# 1 130.2657 30.9940 48.1842 0.0000 0.0000 0.0000
# 2 30.9940 93.9090 67.8627 0.0000 0.0000 0.0000
# 3 48.1842 67.8627 120.2989 0.0000 0.0000 0.0000
# 4 0.0000 0.0000 0.0000 -153.3064 0.0000 0.0000
# 5 0.0000 0.0000 0.0000 0.0000 17.0656 0.0000
# 6 0.0000 0.0000 0.0000 0.0000 0.0000 28.1621
#
#
#
# Elastic Compliance Matrix: (Units=1/GPa)
#
#
# Indices 1 2 3 4 5 6 
#
# 1 0.009033 -0.000619 -0.003269 0.000000 0.000000 0.000000
# 2 -0.000619 0.018019 -0.009917 0.000000 0.000000 0.000000
# 3 -0.003269 -0.009917 0.015216 0.000000 0.000000 0.000000
# 4 0.000000 0.000000 0.000000 -0.006523 0.000000 0.000000
# 5 0.000000 0.000000 0.000000 0.000000 0.058597 0.000000
# 6 0.000000 0.000000 0.000000 0.000000 0.000000 0.035509
#
#
# Mechanical properties :
#
#
# Convention : Reuss Voigt Hill
#
# Bulk Modulus (GPa) = 68.21863 70.95060 69.58461
# Shear Modulus (GPa) = 30.79797 -8.45357 11.17220
#
# Velocity S-wave (km/s) = 3.92839 -2.05814 2.36605
# Velocity P-wave (km/s) = 7.39996 5.46847 6.50629
#
# Compressibility (1/GPa) = 0.01465875
#
# Stress axis : x y z
#
# Youngs Moduli (GPa) = 110.70479 55.49550 65.71884
#
# Poissons Ratio (x) = 0.03436 0.21482
# Poissons Ratio (y) = 0.06854 0.65174
# Poissons Ratio (z) = 0.36187 0.55036
#
# Static dielectric constant tensor:
#      x y z
#    x 3.625750 0.000000 0.000000 
#    y 0.000000 3.614070 0.000000 
#    z 0.000000 0.000000 3.737440 
# 
# 
# High freq. dielectric constant tensor:
#      x y z
#    x 1.784460 0.000000 0.000000 
#    y 0.000000 1.781990 0.000000 
#    z 0.000000 0.000000 1.771700 
# 
# From -- ./inp_files/20384.got.cif
#   From: 2010.03.12/outbox.cif.g09.slc.cpg/sg44_11_cif.got.tgz:20384.got - 2010.04.14 02:36:11.
