data_PCOD8190109
_publ_section_title
;
Structure prediction by ZEFSAII (Michael W. Deem and Ramdas Pophale) SiO2 
 PCOD8190109
Probable space group: I M M 2
;
_chemical_formula_sum "Si O2"
_cell_formula_units_Z 64
_cell_length_a 18.789611
_cell_length_b 14.462770
_cell_length_c 11.472820
_cell_angle_alpha 90.000000
_cell_angle_beta 90.000000
_cell_angle_gamma 90.000000
_cell_volume 3117.736796
_symmetry_space_group_name_H-M "I M M 2"
_symmetry_group_IT_number 44
_symmetry_cell_setting 'orthorhombic'
loop_
_space_group_symop_operation_xyz
x,y,z
-x,-y,z
-x,y,z
x,-y,z
1/2+x,1/2+y,1/2+z
1/2-x,1/2-y,1/2+z
1/2-x,1/2+y,1/2+z
1/2+x,1/2-y,1/2+z
loop_
_atom_site_type_symbol
_atom_site_label
_atom_site_fract_x
_atom_site_fract_y
_atom_site_fract_z
Si Si1 0.581178 0.274142 0.207470
Si Si2 0.301392 0.658670 0.593029
Si Si3 0.331679 0.896970 0.747261
Si Si4 0.221048 0.644584 0.005471
Si Si5 0.082237 0.221251 0.264372
Si Si6 0.881939 0.895516 0.489052
Si Si7 0.326686 0.894894 0.249602
Si Si8 0.318658 0.398377 0.347341
O O1 0.500000 0.258601 0.244207
O O2 0.584899 0.335057 0.091775
O O3 0.616907 0.173633 0.188764
O O4 0.620083 0.327343 0.312444
O O5 0.265504 0.748319 0.534267
O O6 0.376036 0.683147 0.652646
O O7 0.249753 0.613902 0.688067
O O8 0.315710 0.589371 0.486760
O O9 0.327266 0.900212 0.606857
O O10 0.390369 0.825040 0.794036
O O11 0.255873 0.861166 0.795888
O O12 0.350106 0.000000 0.794192
O O13 0.297211 0.596036 0.999697
O O14 0.179666 0.631100 0.885083
O O15 0.094342 0.152158 0.370243
O O16 0.000000 0.226902 0.230961
O O17 0.912709 0.000000 0.492680
O O18 0.353978 0.000000 0.235936
O O19 0.334424 0.500000 0.293892
#
# Coordination Sequence:
#
# PCOD8190109 Si02
#       8
#     8   8   8   8   8   8   8   8
#     4  12  26  43  62  91 130 167 204 255 315 377
#     4  11  22  40  64  93 127 164 206 257 315 369
#     4  10  21  40  67  94 123 162 212 264 311 366
#     4  11  20  39  69  96 122 156 212 269 311 356
#     4  11  25  41  60  91 131 168 206 255 311 372
#     4  12  23  41  68  94 122 161 211 262 312 371
#     4  12  24  42  69  96 123 164 214 262 309 367
#     4  11  22  40  65  93 122 160 208 261 314 372
#
# _framework density 20.527711
#
# number of rings (size 3 to 8) (size 9 to 14) (size 15 to 20)
#    0.000    0.750    5.000    3.750    0.000    3.250 
#    0.000    0.000    0.000    3.000    0.000    0.000 
#    0.000    0.000    0.000    0.000    0.000    0.000 
#
# Total GULP energy -396904.663930 kJ/mol
# GULP energy per Si atom -12403.270748 kJ/mol
# Density = 2.048099 g / cm^3
# Si number density = 20.527711 Si / 1000 Ang^3
#
#
#
# Elastic Constant Matrix: (Units=GPa)
#
#
# Indices 1 2 3 4 5 6 
#
# 1 126.4450 52.4041 36.8230 0.0000 0.0000 0.0000
# 2 52.4041 141.1844 45.0377 0.0000 0.0000 0.0000
# 3 36.8230 45.0377 109.0814 0.0000 0.0000 0.0000
# 4 0.0000 0.0000 0.0000 26.3526 0.0000 0.0000
# 5 0.0000 0.0000 0.0000 0.0000 -10.2776 0.0000
# 6 0.0000 0.0000 0.0000 0.0000 0.0000 8.1347
#
#
#
# Elastic Compliance Matrix: (Units=1/GPa)
#
#
# Indices 1 2 3 4 5 6 
#
# 1 0.009735 -0.002954 -0.002066 0.000000 0.000000 0.000000
# 2 -0.002954 0.009054 -0.002741 0.000000 0.000000 0.000000
# 3 -0.002066 -0.002741 0.010997 0.000000 0.000000 0.000000
# 4 0.000000 0.000000 0.000000 0.037947 0.000000 0.000000
# 5 0.000000 0.000000 0.000000 0.000000 -0.097299 0.000000
# 6 0.000000 0.000000 0.000000 0.000000 0.000000 0.122929
#
#
# Mechanical properties :
#
#
# Convention : Reuss Voigt Hill
#
# Bulk Modulus (GPa) = 70.11529 71.69338 70.90433
# Shear Modulus (GPa) = 43.99871 21.00502 32.50187
#
# Velocity S-wave (km/s) = 4.63469 3.20230 3.98341
# Velocity P-wave (km/s) = 7.92912 6.97667 7.46810
#
# Compressibility (1/GPa) = 0.01426223
#
# Stress axis : x y z
#
# Youngs Moduli (GPa) = 102.72577 110.45142 90.93606
#
# Poissons Ratio (x) = 0.32628 0.18792
# Poissons Ratio (y) = 0.30346 0.24925
# Poissons Ratio (z) = 0.21228 0.30274
#
# Static dielectric constant tensor:
#      x y z
#    x 3.475040 0.000000 0.000000 
#    y 0.000000 3.934490 0.000000 
#    z 0.000000 0.000000 3.789830 
# 
# 
# High freq. dielectric constant tensor:
#      x y z
#    x 1.772910 0.000000 0.000000 
#    y 0.000000 1.819510 0.000000 
#    z 0.000000 0.000000 1.808720 
# 
# From -- ./inp_files/13453.got.cif
#   From: 2010.03.12/outbox.cif.g09.slc.cpg/sg44_7_cif.got.tgz:13453.got - 2010.04.14 02:36:11.
