data_PCOD8190661
_publ_section_title
;
Structure prediction by ZEFSAII (Michael W. Deem and Ramdas Pophale) SiO2 
 PCOD8190661
Probable space group: I B A 2
;
_chemical_formula_sum "Si O2"
_cell_formula_units_Z 48
_cell_length_a 13.691542
_cell_length_b 17.639765
_cell_length_c 8.924805
_cell_angle_alpha 90.000000
_cell_angle_beta 90.000000
_cell_angle_gamma 90.000000
_cell_volume 2155.479486
_symmetry_space_group_name_H-M "I B A 2"
_symmetry_group_IT_number 45
_symmetry_cell_setting 'orthorhombic'
loop_
_space_group_symop_operation_xyz
x,y,z
-x,-y,z
-x,y,1/2+z
x,-y,1/2+z
1/2+x,1/2+y,1/2+z
1/2-x,1/2-y,1/2+z
1/2-x,1/2+y,z
1/2+x,1/2-y,z
loop_
_atom_site_type_symbol
_atom_site_label
_atom_site_fract_x
_atom_site_fract_y
_atom_site_fract_z
Si Si1 0.103492 0.036801 0.042420
Si Si2 0.017673 0.586293 0.064153
Si Si3 0.723983 0.542725 0.818251
Si Si4 0.302519 0.317305 0.428524
Si Si5 0.816836 0.315044 0.217497
Si Si6 0.862557 0.590002 0.271683
O O1 0.125534 0.035818 0.218016
O O2 0.113931 0.120845 0.969856
O O3 0.000000 0.000000 0.006428
O O4 0.192251 0.985012 0.981120
O O5 0.094516 0.636019 0.155950
O O6 0.000000 0.500000 0.121573
O O7 0.909754 0.618633 0.112714
O O8 0.046257 0.588711 0.890365
O O9 0.752650 0.630333 0.822923
O O10 0.815334 0.493639 0.757462
O O11 0.250724 0.286089 0.579203
O O12 0.352805 0.252663 0.326150
O O13 0.220033 0.352451 0.322349
#
# Coordination Sequence:
#
# PCOD8190661 Si02
#       6
#     8   8   8   8   8   8
#     4  10  21  40  65  91 119 159 220 264 305 369
#     4  11  21  36  63  95 127 159 211 259 308 376
#     4  10  21  38  63  90 121 164 207 260 317 368
#     4   9  22  41  61  90 128 169 209 250 320 376
#     4  10  21  40  60  89 129 168 206 253 318 379
#     4  10  22  38  61  94 126 165 208 255 312 372
#
# _framework density 22.268827000000002
#
# number of rings (size 3 to 8) (size 9 to 14) (size 15 to 20)
#    0.000    2.000    1.667    2.000    0.000    4.000 
#    3.000    0.000    0.000    0.000    0.000    0.000 
#    0.000    0.000    0.000    0.000    0.000    0.000 
#
# Total GULP energy -297313.197372 kJ/mol
# GULP energy per Si atom -12388.049891 kJ/mol
# Density = 2.221814 g / cm^3
# Si number density = 22.268827 Si / 1000 Ang^3
#
#
#
# Elastic Constant Matrix: (Units=GPa)
#
#
# Indices 1 2 3 4 5 6 
#
# 1 87.2015 17.2705 21.2685 0.0000 0.0000 0.0000
# 2 17.2705 88.8443 42.4335 0.0000 0.0000 0.0000
# 3 21.2685 42.4335 51.7228 0.0000 0.0000 0.0000
# 4 0.0000 0.0000 0.0000 33.1717 0.0000 0.0000
# 5 0.0000 0.0000 0.0000 0.0000 37.5909 0.0000
# 6 0.0000 0.0000 0.0000 0.0000 0.0000 28.9579
#
#
#
# Elastic Compliance Matrix: (Units=1/GPa)
#
#
# Indices 1 2 3 4 5 6 
#
# 1 0.012746 0.000042 -0.005276 0.000000 0.000000 0.000000
# 2 0.000042 0.018508 -0.015201 0.000000 0.000000 0.000000
# 3 -0.005276 -0.015201 0.033974 0.000000 0.000000 0.000000
# 4 0.000000 0.000000 0.000000 0.030146 0.000000 0.000000
# 5 0.000000 0.000000 0.000000 0.000000 0.026602 0.000000
# 6 0.000000 0.000000 0.000000 0.000000 0.000000 0.034533
#
#
# Mechanical properties :
#
#
# Convention : Reuss Voigt Hill
#
# Bulk Modulus (GPa) = 41.05332 43.30152 42.17742
# Shear Modulus (GPa) = 24.33108 29.73050 27.03079
#
# Velocity S-wave (km/s) = 3.30905 3.65783 3.48780
# Velocity P-wave (km/s) = 5.75109 6.10956 5.93303
#
# Compressibility (1/GPa) = 0.02435856
#
# Stress axis : x y z
#
# Youngs Moduli (GPa) = 78.45521 54.03136 29.43407
#
# Poissons Ratio (x) = -0.00227 0.15529
# Poissons Ratio (y) = -0.00330 0.44743
# Poissons Ratio (z) = 0.41391 0.82134
#
# Static dielectric constant tensor:
#      x y z
#    x 3.808040 0.000000 0.000000 
#    y 0.000000 3.850130 0.000000 
#    z 0.000000 0.000000 4.003780 
# 
# 
# High freq. dielectric constant tensor:
#      x y z
#    x 1.865760 0.000000 0.000000 
#    y 0.000000 1.858650 0.000000 
#    z 0.000000 0.000000 1.883820 
# 
# From -- ./inp_files/1722.got.cif
#   From: 2010.03.12/outbox.cif.g09.slc.cpg/sg45_1_cif.got.tgz:1722.got - 2010.04.14 02:50:11.
