data_PCOD8190819
_publ_section_title
;
Structure prediction by ZEFSAII (Michael W. Deem and Ramdas Pophale) SiO2 
 PCOD8190819
Probable space group: I B A 2
;
_chemical_formula_sum "Si O2"
_cell_formula_units_Z 60
_cell_length_a 14.260105
_cell_length_b 15.254056
_cell_length_c 12.198657
_cell_angle_alpha 90.000000
_cell_angle_beta 90.000000
_cell_angle_gamma 90.000000
_cell_volume 2653.506036
_symmetry_space_group_name_H-M "I B A 2"
_symmetry_group_IT_number 45
_symmetry_cell_setting 'orthorhombic'
loop_
_space_group_symop_operation_xyz
x,y,z
-x,-y,z
-x,y,1/2+z
x,-y,1/2+z
1/2+x,1/2+y,1/2+z
1/2-x,1/2-y,1/2+z
1/2-x,1/2+y,z
1/2+x,1/2-y,z
loop_
_atom_site_type_symbol
_atom_site_label
_atom_site_fract_x
_atom_site_fract_y
_atom_site_fract_z
Si Si1 0.319149 0.410627 0.241060
Si Si2 0.896887 0.813790 0.951612
Si Si3 0.855354 0.406005 0.857860
Si Si4 0.404504 0.289497 0.861406
Si Si5 0.000000 0.500000 0.227442
Si Si6 0.840102 0.603487 0.601965
Si Si7 0.280333 0.711961 0.544887
Si Si8 0.630356 0.414341 0.163488
O O1 0.363818 0.351821 0.335883
O O2 0.227066 0.455291 0.292418
O O3 0.273401 0.355379 0.143049
O O4 0.393123 0.484681 0.198368
O O5 0.996248 0.770163 0.921947
O O6 0.822882 0.744792 0.004419
O O7 0.910356 0.890492 0.043255
O O8 0.849963 0.301259 0.840341
O O9 0.953836 0.431890 0.809010
O O10 0.839763 0.438255 0.981339
O O11 0.413977 0.346594 0.751156
O O12 0.334834 0.338413 0.946678
O O13 0.070874 0.559963 0.159116
O O14 0.847477 0.708549 0.587000
O O15 0.743211 0.586713 0.664873
#
# Coordination Sequence:
#
# PCOD8190819 Si02
#       8
#     8   8   8   8   4   8   8   8
#     4  12  24  46  73 102 145 195 242 306 374 444
#     4  11  26  48  72 106 144 192 252 310 363 456
#     4  11  23  44  67 107 137 183 245 298 378 443
#     4  11  26  46  74 105 141 195 248 300 372 450
#     4  12  24  38  74 104 144 188 240 310 376 452
#     4  10  22  43  64 100 144 182 234 301 364 447
#     4  10  25  45  72 101 142 192 243 302 378 438
#     4  11  25  47  72 100 152 192 246 307 370 443
#
# _framework density 22.611594
#
# number of rings (size 3 to 8) (size 9 to 14) (size 15 to 20)
#    0.000    1.067    5.333    2.000    5.600    3.733 
#    2.400    0.000    0.000    0.000    0.000    0.000 
#    0.000    0.000    0.000    0.000    0.000    0.000 
#
# Total GULP energy -371719.209091 kJ/mol
# GULP energy per Si atom -12390.640303 kJ/mol
# Density = 2.256013 g / cm^3
# Si number density = 22.611594 Si / 1000 Ang^3
#
#
#
# Elastic Constant Matrix: (Units=GPa)
#
#
# Indices 1 2 3 4 5 6 
#
# 1 94.3261 11.8897 34.4592 0.0000 0.0000 0.0000
# 2 11.8897 42.2997 28.2726 0.0000 0.0000 0.0000
# 3 34.4592 28.2726 127.5247 0.0000 0.0000 0.0000
# 4 0.0000 0.0000 0.0000 26.0443 0.0000 0.0000
# 5 0.0000 0.0000 0.0000 0.0000 41.9229 0.0000
# 6 0.0000 0.0000 0.0000 0.0000 0.0000 18.6118
#
#
#
# Elastic Compliance Matrix: (Units=1/GPa)
#
#
# Indices 1 2 3 4 5 6 
#
# 1 0.011832 -0.001396 -0.002888 0.000000 0.000000 0.000000
# 2 -0.001396 0.027918 -0.005812 0.000000 0.000000 0.000000
# 3 -0.002888 -0.005812 0.009911 0.000000 0.000000 0.000000
# 4 0.000000 0.000000 0.000000 0.038396 0.000000 0.000000
# 5 0.000000 0.000000 0.000000 0.000000 0.023853 0.000000
# 6 0.000000 0.000000 0.000000 0.000000 0.000000 0.053729
#
#
# Mechanical properties :
#
#
# Convention : Reuss Voigt Hill
#
# Bulk Modulus (GPa) = 33.93369 45.93260 39.93314
# Shear Modulus (GPa) = 25.55520 29.95107 27.75314
#
# Velocity S-wave (km/s) = 3.36546 3.64344 3.50721
# Velocity P-wave (km/s) = 5.49014 6.16907 5.83948
#
# Compressibility (1/GPa) = 0.02946924
#
# Stress axis : x y z
#
# Youngs Moduli (GPa) = 84.51343 35.81908 100.90207
#
# Poissons Ratio (x) = 0.04999 0.29139
# Poissons Ratio (y) = 0.11795 0.58648
# Poissons Ratio (z) = 0.24407 0.20819
#
# Static dielectric constant tensor:
#      x y z
#    x 3.952950 0.000000 0.000000 
#    y 0.000000 3.901330 0.000000 
#    z 0.000000 0.000000 4.359430 
# 
# 
# High freq. dielectric constant tensor:
#      x y z
#    x 1.892870 0.000000 0.000000 
#    y 0.000000 1.870830 0.000000 
#    z 0.000000 0.000000 1.913600 
# 
# From -- ./inp_files/4245.got.cif
#   From: 2010.03.12/outbox.cif.g09.slc.cpg/sg45_3_cif.got.tgz:4245.got - 2010.04.14 02:50:11.
