data_PCOD8190005
_publ_section_title
;
Structure prediction by ZEFSAII (Michael W. Deem and Ramdas Pophale) SiO2 
 PCOD8190005
Probable space group: I M M 2
;
_chemical_formula_sum "Si O2"
_cell_formula_units_Z 48
_cell_length_a 10.026318
_cell_length_b 8.489222
_cell_length_c 28.168777
_cell_angle_alpha 90.000000
_cell_angle_beta 90.000000
_cell_angle_gamma 90.000000
_cell_volume 2397.603464
_symmetry_space_group_name_H-M "I M M 2"
_symmetry_group_IT_number 44
_symmetry_cell_setting 'orthorhombic'
loop_
_space_group_symop_operation_xyz
x,y,z
-x,-y,z
-x,y,z
x,-y,z
1/2+x,1/2+y,1/2+z
1/2-x,1/2-y,1/2+z
1/2-x,1/2+y,1/2+z
1/2+x,1/2-y,1/2+z
loop_
_atom_site_type_symbol
_atom_site_label
_atom_site_fract_x
_atom_site_fract_y
_atom_site_fract_z
Si Si1 0.000000 0.687087 0.967931
Si Si2 0.753713 0.683784 0.417131
Si Si3 0.500000 0.186729 0.575599
Si Si4 0.000000 0.188280 0.581890
Si Si5 0.344750 0.814726 0.320082
Si Si6 0.500000 0.315889 0.973832
Si Si7 0.241078 0.312659 0.135169
Si Si8 0.343983 0.813215 0.739197
O O1 0.875291 0.767625 0.945026
O O2 0.000000 0.500000 0.959587
O O3 0.000000 0.739284 0.021848
O O4 0.781617 0.500000 0.419240
O O5 0.734239 0.733253 0.362849
O O6 0.873905 0.769545 0.442917
O O7 0.371502 0.257834 0.601035
O O8 0.500000 0.000000 0.580259
O O9 0.000000 0.256600 0.527646
O O10 0.123246 0.253486 0.612684
O O11 0.000000 0.000000 0.579761
O O12 0.500000 0.755694 0.315615
O O13 0.256821 0.772850 0.274552
O O14 0.345189 0.000000 0.328626
O O15 0.500000 0.500000 0.980998
O O16 0.241390 0.500000 0.134556
O O17 0.209891 0.255090 0.188244
O O18 0.500000 0.763712 0.746186
O O19 0.330548 0.000000 0.745302
#
# Coordination Sequence:
#
# PCOD8190005 Si02
#       8
#     4   8   4   4   8   4   8   8
#     4  11  21  37  64  95 124 161 206 255 308 365
#     4  12  25  42  64  91 125 163 206 257 312 374
#     4   9  16  29  54  85 118 153 196 249 298 353
#     4   9  18  31  54  89 122 157 206 255 298 351
#     4  11  25  44  65  88 118 159 209 259 312 375
#     4  11  23  41  64  93 128 167 212 259 308 363
#     4   9  16  30  52  86 123 155 197 250 302 356
#     4  10  21  37  61  94 128 159 198 252 313 370
#
# _framework density 20.019988999999999
#
# number of rings (size 3 to 8) (size 9 to 14) (size 15 to 20)
#    0.000    1.667    1.667    3.500    2.333    4.000 
#    0.000    0.000    0.000    6.000    0.000    0.000 
#    0.000    0.000    0.000    0.000    0.000    0.000 
#
# Total GULP energy -297504.360095 kJ/mol
# GULP energy per Si atom -12396.015004 kJ/mol
# Density = 1.997442 g / cm^3
# Si number density = 20.019989 Si / 1000 Ang^3
#
#
#
# Elastic Constant Matrix: (Units=GPa)
#
#
# Indices 1 2 3 4 5 6 
#
# 1 151.6420 6.1844 62.6814 0.0000 0.0000 0.0000
# 2 6.1844 40.4475 12.6483 0.0000 0.0000 0.0000
# 3 62.6814 12.6483 143.3985 0.0000 0.0000 0.0000
# 4 0.0000 0.0000 0.0000 25.1335 0.0000 0.0000
# 5 0.0000 0.0000 0.0000 0.0000 44.6262 0.0000
# 6 0.0000 0.0000 0.0000 0.0000 0.0000 23.8227
#
#
#
# Elastic Compliance Matrix: (Units=1/GPa)
#
#
# Indices 1 2 3 4 5 6 
#
# 1 0.008049 -0.000134 -0.003507 0.000000 0.000000 0.000000
# 2 -0.000134 0.025427 -0.002184 0.000000 0.000000 0.000000
# 3 -0.003507 -0.002184 0.008699 0.000000 0.000000 0.000000
# 4 0.000000 0.000000 0.000000 0.039787 0.000000 0.000000
# 5 0.000000 0.000000 0.000000 0.000000 0.022408 0.000000
# 6 0.000000 0.000000 0.000000 0.000000 0.000000 0.041977
#
#
# Mechanical properties :
#
#
# Convention : Reuss Voigt Hill
#
# Bulk Modulus (GPa) = 32.75955 55.39070 44.07512
# Shear Modulus (GPa) = 29.73128 35.64809 32.68968
#
# Velocity S-wave (km/s) = 3.85785 4.22432 4.04524
# Velocity P-wave (km/s) = 6.02022 7.17781 6.62435
#
# Compressibility (1/GPa) = 0.03052545
#
# Stress axis : x y z
#
# Youngs Moduli (GPa) = 124.23223 39.32843 114.95528
#
# Poissons Ratio (x) = 0.00528 0.40311
# Poissons Ratio (y) = 0.01667 0.25107
# Poissons Ratio (z) = 0.43564 0.08590
#
# Static dielectric constant tensor:
#      x y z
#    x 3.880190 0.000000 0.000000 
#    y 0.000000 3.321970 0.000000 
#    z 0.000000 0.000000 4.098390 
# 
# 
# High freq. dielectric constant tensor:
#      x y z
#    x 1.800990 0.000000 0.000000 
#    y 0.000000 1.746600 0.000000 
#    z 0.000000 0.000000 1.801910 
# 
# From -- ./inp_files/27049.got.cif
#   From: 2010.03.12/outbox.cif.g09.slc.cpg/sg44_14_cif.got.tgz:27049.got - 2010.04.14 02:36:11.
