data_PCOD8190090
_publ_section_title
;
Structure prediction by ZEFSAII (Michael W. Deem and Ramdas Pophale) SiO2 
 PCOD8190090
Probable space group: I M M 2
;
_chemical_formula_sum "Si O2"
_cell_formula_units_Z 40
_cell_length_a 18.550441
_cell_length_b 13.895366
_cell_length_c 7.116766
_cell_angle_alpha 90.000000
_cell_angle_beta 90.000000
_cell_angle_gamma 90.000000
_cell_volume 1834.454378
_symmetry_space_group_name_H-M "I M M 2"
_symmetry_group_IT_number 44
_symmetry_cell_setting 'orthorhombic'
loop_
_space_group_symop_operation_xyz
x,y,z
-x,-y,z
-x,y,z
x,-y,z
1/2+x,1/2+y,1/2+z
1/2-x,1/2-y,1/2+z
1/2-x,1/2+y,1/2+z
1/2+x,1/2-y,1/2+z
loop_
_atom_site_type_symbol
_atom_site_label
_atom_site_fract_x
_atom_site_fract_y
_atom_site_fract_z
Si Si1 0.083318 0.112115 0.484010
Si Si2 0.421340 0.894561 0.887933
Si Si3 0.187914 0.793089 0.783524
Si Si4 0.220776 0.608799 0.579451
Si Si5 0.581493 0.276331 0.621887
O O1 0.143450 0.166209 0.607091
O O2 0.100093 0.136612 0.265994
O O3 0.000000 0.143647 0.530242
O O4 0.092912 0.000000 0.519005
O O5 0.500000 0.870371 0.974415
O O6 0.365466 0.887702 0.058008
O O7 0.402861 0.823608 0.721525
O O8 0.419405 0.000000 0.796048
O O9 0.234398 0.696430 0.727686
O O10 0.243364 0.869791 0.875211
O O11 0.369210 0.726502 0.443250
O O12 0.244019 0.500000 0.647068
O O13 0.500000 0.287401 0.551205
#
# Coordination Sequence:
#
# PCOD8190090 Si02
#       5
#     8   8   8   8   8
#     4  10  22  41  67  98 131 170 217 273 337 396
#     4   9  18  37  63  90 123 161 204 260 323 388
#     4  12  24  43  64  93 132 179 218 275 330 389
#     4  11  25  42  64  96 130 172 224 271 326 397
#     4  10  21  39  65  95 126 164 214 267 325 393
#
# _framework density 21.804849000000001
#
# number of rings (size 3 to 8) (size 9 to 14) (size 15 to 20)
#    0.000    1.600    2.000    2.400    0.000    3.200 
#    0.000    3.000    0.000    0.000    0.000    0.000 
#    0.000    0.000    0.000    0.000    0.000    0.000 
#
# Total GULP energy -247822.521483 kJ/mol
# GULP energy per Si atom -12391.126074 kJ/mol
# Density = 2.175522 g / cm^3
# Si number density = 21.804849 Si / 1000 Ang^3
#
#
#
# Elastic Constant Matrix: (Units=GPa)
#
#
# Indices 1 2 3 4 5 6 
#
# 1 38.6876 22.6547 12.0846 0.0000 0.0000 0.0000
# 2 22.6547 143.9183 23.9592 0.0000 0.0000 0.0000
# 3 12.0846 23.9592 67.0213 0.0000 0.0000 0.0000
# 4 0.0000 0.0000 0.0000 25.1450 0.0000 0.0000
# 5 0.0000 0.0000 0.0000 0.0000 39.0950 0.0000
# 6 0.0000 0.0000 0.0000 0.0000 0.0000 29.0753
#
#
#
# Elastic Compliance Matrix: (Units=1/GPa)
#
#
# Indices 1 2 3 4 5 6 
#
# 1 0.029390 -0.003981 -0.003876 0.000000 0.000000 0.000000
# 2 -0.003981 0.007927 -0.002116 0.000000 0.000000 0.000000
# 3 -0.003876 -0.002116 0.016376 0.000000 0.000000 0.000000
# 4 0.000000 0.000000 0.000000 0.039769 0.000000 0.000000
# 5 0.000000 0.000000 0.000000 0.000000 0.025579 0.000000
# 6 0.000000 0.000000 0.000000 0.000000 0.000000 0.034393
#
#
# Mechanical properties :
#
#
# Convention : Reuss Voigt Hill
#
# Bulk Modulus (GPa) = 29.63241 40.78045 35.20643
# Shear Modulus (GPa) = 27.08112 31.39165 29.23638
#
# Velocity S-wave (km/s) = 3.52799 3.79841 3.66569
# Velocity P-wave (km/s) = 5.49681 6.16281 5.83932
#
# Compressibility (1/GPa) = 0.03374683
#
# Stress axis : x y z
#
# Youngs Moduli (GPa) = 34.02505 126.14557 61.06497
#
# Poissons Ratio (x) = 0.50220 0.23669
# Poissons Ratio (y) = 0.13546 0.12922
# Poissons Ratio (z) = 0.13188 0.26694
#
# Static dielectric constant tensor:
#      x y z
#    x 4.432400 0.000000 0.000000 
#    y 0.000000 4.323850 0.000000 
#    z 0.000000 0.000000 3.707900 
# 
# 
# High freq. dielectric constant tensor:
#      x y z
#    x 1.879920 0.000000 0.000000 
#    y 0.000000 1.870120 0.000000 
#    z 0.000000 0.000000 1.823460 
# 
# From -- ./inp_files/6977.got.cif
#   From: 2010.03.12/outbox.cif.g09.slc.cpg/sg44_4_cif.got.tgz:6977.got - 2010.04.14 02:36:11.
