data_PCOD8190631
_publ_section_title
;
Structure prediction by ZEFSAII (Michael W. Deem and Ramdas Pophale) SiO2 
 PCOD8190631
Probable space group: I B A 2
;
_chemical_formula_sum "Si O2"
_cell_formula_units_Z 40
_cell_length_a 13.995258
_cell_length_b 16.363476
_cell_length_c 8.531891
_cell_angle_alpha 90.000000
_cell_angle_beta 90.000000
_cell_angle_gamma 90.000000
_cell_volume 1953.897473
_symmetry_space_group_name_H-M "I B A 2"
_symmetry_group_IT_number 45
_symmetry_cell_setting 'orthorhombic'
loop_
_space_group_symop_operation_xyz
x,y,z
-x,-y,z
-x,y,1/2+z
x,-y,1/2+z
1/2+x,1/2+y,1/2+z
1/2-x,1/2-y,1/2+z
1/2-x,1/2+y,z
1/2+x,1/2-y,z
loop_
_atom_site_type_symbol
_atom_site_label
_atom_site_fract_x
_atom_site_fract_y
_atom_site_fract_z
Si Si1 0.259706 0.889305 0.965630
Si Si2 0.912947 0.787530 0.515736
Si Si3 0.411158 0.770612 0.863190
Si Si4 0.917200 0.105896 0.491710
Si Si5 0.322412 0.489443 0.235447
O O1 0.364688 0.852551 0.934338
O O2 0.251025 0.966290 0.851346
O O3 0.185531 0.814544 0.933568
O O4 0.239813 0.922088 0.141441
O O5 0.895140 0.739389 0.677616
O O6 0.974052 0.728711 0.399317
O O7 0.971901 0.874250 0.537196
O O8 0.365688 0.693024 0.956516
O O9 0.907925 0.052557 0.333503
O O10 0.868118 0.060668 0.633551
#
# Coordination Sequence:
#
# PCOD8190631 Si02
#       5
#     8   8   8   8   8
#     4  11  22  38  63  89 120 157 196 247 302 357
#     4  10  21  39  58  92 114 157 198 245 298 345
#     4  10  23  39  59  89 118 159 203 240 294 355
#     4   9  21  36  55  89 123 155 191 240 301 352
#     4  10  21  36  58  92 124 155 188 247 307 361
#
# _framework density 20.471902
#
# number of rings (size 3 to 8) (size 9 to 14) (size 15 to 20)
#    1.200    0.800    2.000    1.200    2.800    4.800 
#    0.000    0.000    0.000    3.600    0.000    0.000 
#    0.000    0.000    0.000    0.000    0.000    0.000 
#
# Total GULP energy -247785.978542 kJ/mol
# GULP energy per Si atom -12389.298927 kJ/mol
# Density = 2.042531 g / cm^3
# Si number density = 20.471902 Si / 1000 Ang^3
#
#
#
# Elastic Constant Matrix: (Units=GPa)
#
#
# Indices 1 2 3 4 5 6 
#
# 1 58.3964 25.1457 10.6476 0.0000 0.0000 0.0000
# 2 25.1457 52.7918 19.8187 0.0000 0.0000 0.0000
# 3 10.6476 19.8187 84.1180 0.0000 0.0000 0.0000
# 4 0.0000 0.0000 0.0000 23.8990 0.0000 0.0000
# 5 0.0000 0.0000 0.0000 0.0000 18.9335 0.0000
# 6 0.0000 0.0000 0.0000 0.0000 0.0000 33.8302
#
#
#
# Elastic Compliance Matrix: (Units=1/GPa)
#
#
# Indices 1 2 3 4 5 6 
#
# 1 0.021552 -0.010138 -0.000339 0.000000 0.000000 0.000000
# 2 -0.010138 0.025549 -0.004736 0.000000 0.000000 0.000000
# 3 -0.000339 -0.004736 0.013047 0.000000 0.000000 0.000000
# 4 0.000000 0.000000 0.000000 0.041843 0.000000 0.000000
# 5 0.000000 0.000000 0.000000 0.000000 0.052816 0.000000
# 6 0.000000 0.000000 0.000000 0.000000 0.000000 0.029559
#
#
# Mechanical properties :
#
#
# Convention : Reuss Voigt Hill
#
# Bulk Modulus (GPa) = 33.64688 34.05890 33.85289
# Shear Modulus (GPa) = 22.25180 24.64549 23.44865
#
# Velocity S-wave (km/s) = 3.30046 3.47345 3.38806
# Velocity P-wave (km/s) = 5.56735 5.72359 5.64601
#
# Compressibility (1/GPa) = 0.02972044
#
# Stress axis : x y z
#
# Youngs Moduli (GPa) = 46.40002 39.13989 76.64638
#
# Poissons Ratio (x) = 0.39680 0.02601
# Poissons Ratio (y) = 0.47041 0.36302
# Poissons Ratio (z) = 0.01575 0.18538
#
# Static dielectric constant tensor:
#      x y z
#    x 3.278660 0.000000 0.000000 
#    y 0.000000 3.569360 0.000000 
#    z 0.000000 0.000000 3.778020 
# 
# 
# High freq. dielectric constant tensor:
#      x y z
#    x 1.756360 0.000000 0.000000 
#    y 0.000000 1.783240 0.000000 
#    z 0.000000 0.000000 1.810240 
# 
# From -- ./inp_files/1621.got.cif
#   From: 2010.03.12/outbox.cif.g09.slc.cpg/sg45_1_cif.got.tgz:1621.got - 2010.04.14 02:50:11.
