data_PCOD8190320
_publ_section_title
;
Structure prediction by ZEFSAII (Michael W. Deem and Ramdas Pophale) SiO2 
 PCOD8190320
Probable space group: I M M 2
;
_chemical_formula_sum "Si O2"
_cell_formula_units_Z 56
_cell_length_a 18.231008
_cell_length_b 9.809852
_cell_length_c 21.053649
_cell_angle_alpha 90.000000
_cell_angle_beta 90.000000
_cell_angle_gamma 90.000000
_cell_volume 3765.308071
_symmetry_space_group_name_H-M "I M M 2"
_symmetry_group_IT_number 44
_symmetry_cell_setting 'orthorhombic'
loop_
_space_group_symop_operation_xyz
x,y,z
-x,-y,z
-x,y,z
x,-y,z
1/2+x,1/2+y,1/2+z
1/2-x,1/2-y,1/2+z
1/2-x,1/2+y,1/2+z
1/2+x,1/2-y,1/2+z
loop_
_atom_site_type_symbol
_atom_site_label
_atom_site_fract_x
_atom_site_fract_y
_atom_site_fract_z
Si Si1 0.415695 0.157116 0.552410
Si Si2 0.779820 0.347785 0.631165
Si Si3 0.697486 0.651915 0.497798
Si Si4 0.164524 0.341814 0.183426
Si Si5 0.418782 0.162206 0.061025
Si Si6 0.917381 0.662280 0.309147
Si Si7 0.842098 0.662099 0.435724
O O1 0.500000 0.201691 0.549142
O O2 0.371050 0.245499 0.500865
O O3 0.387863 0.185003 0.623537
O O4 0.405088 0.000000 0.533941
O O5 0.779640 0.500000 0.661121
O O6 0.739017 0.351660 0.564307
O O7 0.739854 0.243328 0.678444
O O8 0.862986 0.295513 0.617688
O O9 0.668535 0.500000 0.481235
O O10 0.756449 0.703356 0.445161
O O11 0.185971 0.500000 0.189289
O O12 0.121677 0.287749 0.245000
O O13 0.500000 0.219879 0.076069
O O14 0.419622 0.000000 0.056338
O O15 0.391639 0.221553 0.993185
O O16 0.919617 0.500000 0.310759
O O17 0.872335 0.721019 0.369305
O O18 0.000000 0.720665 0.310989
O O19 0.847848 0.500000 0.436335
#
# Coordination Sequence:
#
# PCOD8190320 Si02
#       7
#     8   8   8   8   8   8   8
#     4   9  16  25  37  54  76 100 125 154 186 217
#     4   8  14  24  37  53  74  99 125 153 185 220
#     4   8  14  24  37  54  75  97 122 152 186 223
#     4   9  16  25  37  54  77 103 128 152 178 213
#     4   8  12  19  34  56  78  97 119 151 189 223
#     4   9  15  22  35  56  79 102 127 152 178 212
#     4   8  13  21  34  54  79 101 120 148 185 221
#
# _framework density 14.872621000000001
#
# number of rings (size 3 to 8) (size 9 to 14) (size 15 to 20)
#    0.000    3.571    0.000    2.571    0.000    3.714 
#    0.000    0.000    0.000    2.571    0.000    1.000 
#    0.000    9.143    0.000    0.000    0.000    0.000 
#
# Total GULP energy -346987.036650 kJ/mol
# GULP energy per Si atom -12392.394166 kJ/mol
# Density = 1.483877 g / cm^3
# Si number density = 14.872621 Si / 1000 Ang^3
#
#
#
# Elastic Constant Matrix: (Units=GPa)
#
#
# Indices 1 2 3 4 5 6 
#
# 1 142.7196 47.2065 60.0654 0.0000 0.0000 0.0000
# 2 47.2065 37.5742 25.7918 0.0000 0.0000 0.0000
# 3 60.0654 25.7918 69.9336 0.0000 0.0000 0.0000
# 4 0.0000 0.0000 0.0000 11.8932 0.0000 0.0000
# 5 0.0000 0.0000 0.0000 0.0000 26.1063 0.0000
# 6 0.0000 0.0000 0.0000 0.0000 0.0000 18.7084
#
#
#
# Elastic Compliance Matrix: (Units=1/GPa)
#
#
# Indices 1 2 3 4 5 6 
#
# 1 0.014543 -0.012984 -0.007702 0.000000 0.000000 0.000000
# 2 -0.012984 0.047228 -0.006266 0.000000 0.000000 0.000000
# 3 -0.007702 -0.006266 0.023226 0.000000 0.000000 0.000000
# 4 0.000000 0.000000 0.000000 0.084082 0.000000 0.000000
# 5 0.000000 0.000000 0.000000 0.000000 0.038305 0.000000
# 6 0.000000 0.000000 0.000000 0.000000 0.000000 0.053452
#
#
# Mechanical properties :
#
#
# Convention : Reuss Voigt Hill
#
# Bulk Modulus (GPa) = 32.16276 57.37275 44.76775
# Shear Modulus (GPa) = 15.37971 19.15248 17.26609
#
# Velocity S-wave (km/s) = 3.21922 3.59244 3.41094
# Velocity P-wave (km/s) = 5.95737 7.47445 6.75861
#
# Compressibility (1/GPa) = 0.03109186
#
# Stress axis : x y z
#
# Youngs Moduli (GPa) = 68.76130 21.17397 43.05609
#
# Poissons Ratio (x) = 0.27493 0.33163
# Poissons Ratio (y) = 0.89281 0.26978
# Poissons Ratio (z) = 0.52962 0.13267
#
# Static dielectric constant tensor:
#      x y z
#    x 3.182090 0.000000 0.000000 
#    y 0.000000 2.620880 0.000000 
#    z 0.000000 0.000000 2.796370 
# 
# 
# High freq. dielectric constant tensor:
#      x y z
#    x 1.573360 0.000000 0.000000 
#    y 0.000000 1.527420 0.000000 
#    z 0.000000 0.000000 1.536680 
# 
# From -- ./inp_files/21460.got.cif
#   From: 2010.03.12/outbox.cif.g09.slc.cpg/sg44_11_cif.got.tgz:21460.got - 2010.04.14 02:36:11.
