data_PCOD8190108
_publ_section_title
;
Structure prediction by ZEFSAII (Michael W. Deem and Ramdas Pophale) SiO2 
 PCOD8190108
Probable space group: I M M 2
;
_chemical_formula_sum "Si O2"
_cell_formula_units_Z 64
_cell_length_a 30.531682
_cell_length_b 8.857492
_cell_length_c 11.928254
_cell_angle_alpha 90.000000
_cell_angle_beta 90.000000
_cell_angle_gamma 90.000000
_cell_volume 3225.806982
_symmetry_space_group_name_H-M "I M M 2"
_symmetry_group_IT_number 44
_symmetry_cell_setting 'orthorhombic'
loop_
_space_group_symop_operation_xyz
x,y,z
-x,-y,z
-x,y,z
x,-y,z
1/2+x,1/2+y,1/2+z
1/2-x,1/2-y,1/2+z
1/2-x,1/2+y,1/2+z
1/2+x,1/2-y,1/2+z
loop_
_atom_site_type_symbol
_atom_site_label
_atom_site_fract_x
_atom_site_fract_y
_atom_site_fract_z
Si Si1 0.951289 0.327829 0.825970
Si Si2 0.208025 0.672894 0.835215
Si Si3 0.071873 0.176031 0.600596
Si Si4 0.625094 0.677998 0.729169
Si Si5 0.625723 0.822985 0.488270
Si Si6 0.661937 0.170670 0.104477
Si Si7 0.950641 0.673655 0.372249
Si Si8 0.298769 0.172854 0.865613
O O1 0.939509 0.500000 0.792855
O O2 0.950743 0.227507 0.714916
O O3 0.916197 0.269100 0.916153
O O4 0.000000 0.316807 0.878783
O O5 0.222175 0.500000 0.854231
O O6 0.169477 0.717789 0.920379
O O7 0.192831 0.701018 0.709122
O O8 0.248715 0.780956 0.853448
O O9 0.123206 0.209624 0.606165
O O10 0.050122 0.262220 0.497329
O O11 0.063968 0.000000 0.583021
O O12 0.622530 0.500000 0.734222
O O13 0.625446 0.730330 0.601765
O O14 0.582529 0.741089 0.791340
O O15 0.669791 0.728763 0.787889
O O16 0.622744 0.000000 0.515528
O O17 0.642824 0.000000 0.108777
O O18 0.690247 0.198311 0.994755
O O19 0.935858 0.500000 0.376525
O O20 0.000000 0.690529 0.324783
O O21 0.304538 0.000000 0.828759
#
# Coordination Sequence:
#
# PCOD8190108 Si02
#       8
#     8   8   8   8   8   8   8   8
#     4  10  21  40  66  92 122 165 212 254 302 367
#     4  10  22  41  65  93 126 162 207 261 310 361
#     4  12  23  36  61  96 132 164 200 255 314 368
#     4  12  26  43  64  92 128 164 204 258 317 371
#     4  10  22  42  65  91 124 165 213 258 306 370
#     4  10  21  41  66  90 123 166 206 254 308 367
#     4  11  24  43  67  92 122 164 211 256 307 372
#     4  11  24  41  65  94 126 164 209 255 308 374
#
# _framework density 19.839998000000001
#
# number of rings (size 3 to 8) (size 9 to 14) (size 15 to 20)
#    0.000    1.250    2.500    3.375    1.750    5.250 
#    0.000    1.250    0.000    0.000    0.000    0.000 
#    0.000    0.000    0.000    0.000    0.000    0.000 
#
# Total GULP energy -396955.614192 kJ/mol
# GULP energy per Si atom -12404.862944 kJ/mol
# Density = 1.979484 g / cm^3
# Si number density = 19.839998 Si / 1000 Ang^3
#
#
#
# Elastic Constant Matrix: (Units=GPa)
#
#
# Indices 1 2 3 4 5 6 
#
# 1 136.6653 54.3651 64.0027 0.0000 0.0000 0.0000
# 2 54.3651 114.6104 67.3868 0.0000 0.0000 0.0000
# 3 64.0027 67.3868 143.3621 0.0000 0.0000 0.0000
# 4 0.0000 0.0000 0.0000 -0.2819 0.0000 0.0000
# 5 0.0000 0.0000 0.0000 0.0000 24.2644 0.0000
# 6 0.0000 0.0000 0.0000 0.0000 0.0000 32.9780
#
#
#
# Elastic Compliance Matrix: (Units=1/GPa)
#
#
# Indices 1 2 3 4 5 6 
#
# 1 0.009903 -0.002899 -0.003058 0.000000 0.000000 0.000000
# 2 -0.002899 0.012906 -0.004772 0.000000 0.000000 0.000000
# 3 -0.003058 -0.004772 0.010584 0.000000 0.000000 0.000000
# 4 0.000000 0.000000 0.000000 -3.547248 0.000000 0.000000
# 5 0.000000 0.000000 0.000000 0.000000 0.041213 0.000000
# 6 0.000000 0.000000 0.000000 0.000000 0.000000 0.030323
#
#
# Mechanical properties :
#
#
# Convention : Reuss Voigt Hill
#
# Bulk Modulus (GPa) = 83.79744 85.12744 84.46244
# Shear Modulus (GPa) = -1.46332 25.31765 11.92716
#
# Velocity S-wave (km/s) = -0.85975 3.57612 2.45453
# Velocity P-wave (km/s) = 6.42983 7.74930 7.12020
#
# Compressibility (1/GPa) = 0.01193354
#
# Stress axis : x y z
#
# Youngs Moduli (GPa) = 100.98327 77.48122 94.48367
#
# Poissons Ratio (x) = 0.22463 0.28895
# Poissons Ratio (y) = 0.29277 0.45090
# Poissons Ratio (z) = 0.30883 0.36976
#
# Static dielectric constant tensor:
#      x y z
#    x 3.691220 0.000000 0.000000 
#    y 0.000000 3.591430 0.000000 
#    z 0.000000 0.000000 3.694830 
# 
# 
# High freq. dielectric constant tensor:
#      x y z
#    x 1.787450 0.000000 0.000000 
#    y 0.000000 1.771180 0.000000 
#    z 0.000000 0.000000 1.779390 
# 
# From -- ./inp_files/15087.got.cif
#   From: 2010.03.12/outbox.cif.g09.slc.cpg/sg44_8_cif.got.tgz:15087.got - 2010.04.14 02:36:11.
