data_PCOD8190421
_publ_section_title
;
Structure prediction by ZEFSAII (Michael W. Deem and Ramdas Pophale) SiO2 
 PCOD8190421
Probable space group: I B A 2
;
_chemical_formula_sum "Si O2"
_cell_formula_units_Z 64
_cell_length_a 26.727578
_cell_length_b 9.304772
_cell_length_c 11.489499
_cell_angle_alpha 90.000000
_cell_angle_beta 90.000000
_cell_angle_gamma 90.000000
_cell_volume 2857.369687
_symmetry_space_group_name_H-M "I B A 2"
_symmetry_group_IT_number 45
_symmetry_cell_setting 'orthorhombic'
loop_
_space_group_symop_operation_xyz
x,y,z
-x,-y,z
-x,y,1/2+z
x,-y,1/2+z
1/2+x,1/2+y,1/2+z
1/2-x,1/2-y,1/2+z
1/2-x,1/2+y,z
1/2+x,1/2-y,z
loop_
_atom_site_type_symbol
_atom_site_label
_atom_site_fract_x
_atom_site_fract_y
_atom_site_fract_z
Si Si1 0.036696 0.201520 0.975640
Si Si2 0.921091 0.707191 0.222941
Si Si3 0.776314 0.602234 0.717943
Si Si4 0.930005 0.105526 0.938112
Si Si5 0.133136 0.689367 0.079595
Si Si6 0.070439 0.602771 0.285270
Si Si7 0.189826 0.300747 0.158067
Si Si8 0.835234 0.586158 0.933552
O O1 0.031065 0.305850 0.861799
O O2 0.980321 0.154723 0.004594
O O3 0.072110 0.066813 0.941264
O O4 0.059341 0.275419 0.091222
O O5 0.932684 0.845194 0.302664
O O6 0.946397 0.564359 0.278696
O O7 0.861278 0.679277 0.230290
O O8 0.817494 0.710823 0.660072
O O9 0.777659 0.446722 0.658263
O O10 0.720985 0.666296 0.704449
O O11 0.785748 0.571331 0.854377
O O12 0.881174 0.170467 0.003452
O O13 0.082713 0.653444 0.153585
O O14 0.146702 0.559979 0.993745
O O15 0.121017 0.637897 0.352191
O O16 0.175000 0.283155 0.023072
#
# Coordination Sequence:
#
# PCOD8190421 Si02
#       8
#     8   8   8   8   8   8   8   8
#     4  11  28  46  67 109 141 186 240 298 359 434
#     4  12  24  47  73  98 144 189 242 298 356 433
#     4  10  23  38  66  94 138 178 230 288 350 421
#     4  11  27  46  70  99 150 188 231 295 371 427
#     4  10  20  41  70  93 134 191 228 283 356 412
#     4  11  20  43  71  96 134 182 234 295 346 407
#     4  11  22  42  63  99 135 176 235 285 357 416
#     4  10  18  42  64  92 136 178 222 292 342 404
#
# _framework density 22.398222000000001
#
# number of rings (size 3 to 8) (size 9 to 14) (size 15 to 20)
#    0.000    1.250    6.250    0.000    3.500    5.500 
#    2.250    1.250    0.000    0.000    0.000    0.000 
#    0.000    0.000    0.000    0.000    0.000    0.000 
#
# Total GULP energy -396585.702102 kJ/mol
# GULP energy per Si atom -12393.303191 kJ/mol
# Density = 2.234724 g / cm^3
# Si number density = 22.398222 Si / 1000 Ang^3
#
#
#
# Elastic Constant Matrix: (Units=GPa)
#
#
# Indices 1 2 3 4 5 6 
#
# 1 56.6165 37.5466 16.4992 0.0000 0.0000 0.0000
# 2 37.5466 117.5961 45.9632 0.0000 0.0000 0.0000
# 3 16.4992 45.9632 119.4869 0.0000 0.0000 0.0000
# 4 0.0000 0.0000 0.0000 31.9715 0.0000 0.0000
# 5 0.0000 0.0000 0.0000 0.0000 27.6005 0.0000
# 6 0.0000 0.0000 0.0000 0.0000 0.0000 40.7662
#
#
#
# Elastic Compliance Matrix: (Units=1/GPa)
#
#
# Indices 1 2 3 4 5 6 
#
# 1 0.022424 -0.007002 -0.000403 0.000000 0.000000 0.000000
# 2 -0.007002 0.012195 -0.003724 0.000000 0.000000 0.000000
# 3 -0.000403 -0.003724 0.009857 0.000000 0.000000 0.000000
# 4 0.000000 0.000000 0.000000 0.031278 0.000000 0.000000
# 5 0.000000 0.000000 0.000000 0.000000 0.036231 0.000000
# 6 0.000000 0.000000 0.000000 0.000000 0.000000 0.024530
#
#
# Mechanical properties :
#
#
# Convention : Reuss Voigt Hill
#
# Bulk Modulus (GPa) = 45.00901 54.85751 49.93326
# Shear Modulus (GPa) = 30.08797 32.98033 31.53415
#
# Velocity S-wave (km/s) = 3.66911 3.84142 3.75625
# Velocity P-wave (km/s) = 6.17158 6.64984 6.41517
#
# Compressibility (1/GPa) = 0.02221777
#
# Stress axis : x y z
#
# Youngs Moduli (GPa) = 44.59568 82.00115 101.44734
#
# Poissons Ratio (x) = 0.57418 0.04087
# Poissons Ratio (y) = 0.31226 0.37781
# Poissons Ratio (z) = 0.01797 0.30539
#
# Static dielectric constant tensor:
#      x y z
#    x 3.971900 0.000000 0.000000 
#    y 0.000000 3.777790 0.000000 
#    z 0.000000 0.000000 4.565670 
# 
# 
# High freq. dielectric constant tensor:
#      x y z
#    x 1.871320 0.000000 0.000000 
#    y 0.000000 1.859980 0.000000 
#    z 0.000000 0.000000 1.896670 
# 
# From -- ./inp_files/4954.got.cif
#   From: 2010.03.12/outbox.cif.g09.slc.cpg/sg45_3_cif.got.tgz:4954.got - 2010.04.14 02:50:11.
