data_PCOD8190816
_publ_section_title
;
Structure prediction by ZEFSAII (Michael W. Deem and Ramdas Pophale) SiO2 
 PCOD8190816
Probable space group: I B A 2
;
_chemical_formula_sum "Si O2"
_cell_formula_units_Z 56
_cell_length_a 25.253986
_cell_length_b 8.487413
_cell_length_c 11.539756
_cell_angle_alpha 90.000000
_cell_angle_beta 90.000000
_cell_angle_gamma 90.000000
_cell_volume 2473.442946
_symmetry_space_group_name_H-M "I B A 2"
_symmetry_group_IT_number 45
_symmetry_cell_setting 'orthorhombic'
loop_
_space_group_symop_operation_xyz
x,y,z
-x,-y,z
-x,y,1/2+z
x,-y,1/2+z
1/2+x,1/2+y,1/2+z
1/2-x,1/2-y,1/2+z
1/2-x,1/2+y,z
1/2+x,1/2-y,z
loop_
_atom_site_type_symbol
_atom_site_label
_atom_site_fract_x
_atom_site_fract_y
_atom_site_fract_z
Si Si1 0.735917 0.241059 0.280300
Si Si2 0.404299 0.995636 0.484750
Si Si3 0.902848 0.842490 0.572642
Si Si4 0.552557 0.769250 0.300793
Si Si5 0.000000 0.500000 0.651845
Si Si6 0.290075 0.023328 0.440989
Si Si7 0.203756 0.010285 0.624363
Si Si8 0.500000 0.500000 0.956028
O O1 0.699693 0.107867 0.340847
O O2 0.771385 0.317396 0.380678
O O3 0.776196 0.167282 0.187762
O O4 0.697976 0.367647 0.216577
O O5 0.421727 0.081541 0.366873
O O6 0.400399 0.805017 0.483568
O O7 0.447549 0.041509 0.579697
O O8 0.344646 0.056875 0.510990
O O9 0.904452 0.796511 0.709191
O O10 0.851368 0.953023 0.559030
O O11 0.955456 0.935658 0.540943
O O12 0.504785 0.842239 0.226746
O O13 0.527889 0.634344 0.379912
O O14 0.246193 0.958259 0.528678
#
# Coordination Sequence:
#
# PCOD8190816 Si02
#       8
#     8   8   8   8   4   8   8   4
#     4  10  23  40  65  96 128 172 214 258 330 386
#     4  11  23  42  68  93 125 170 219 264 318 386
#     4  11  25  43  65  96 129 169 216 265 326 386
#     4  11  23  43  66  91 130 167 211 270 321 387
#     4  10  22  42  66  94 122 164 218 266 320 382
#     4  11  23  42  65  95 130 168 215 266 319 387
#     4  11  23  44  65  95 134 168 215 270 319 387
#     4  12  26  44  66  96 130 170 214 264 330 384
#
# _framework density 22.640505000000001
#
# number of rings (size 3 to 8) (size 9 to 14) (size 15 to 20)
#    0.000    1.143    0.000    6.857    0.000    9.143 
#    0.000    5.714    0.000    0.000    0.000    0.000 
#    0.000    0.000    0.000    0.000    0.000    0.000 
#
# Total GULP energy -347125.195173 kJ/mol
# GULP energy per Si atom -12397.328399 kJ/mol
# Density = 2.258897 g / cm^3
# Si number density = 22.640505 Si / 1000 Ang^3
#
#
#
# Elastic Constant Matrix: (Units=GPa)
#
#
# Indices 1 2 3 4 5 6 
#
# 1 137.0096 32.6149 41.6133 0.0000 0.0000 0.0000
# 2 32.6149 86.0778 39.9966 0.0000 0.0000 0.0000
# 3 41.6133 39.9966 101.1506 0.0000 0.0000 0.0000
# 4 0.0000 0.0000 0.0000 38.0070 0.0000 0.0000
# 5 0.0000 0.0000 0.0000 0.0000 17.8654 0.0000
# 6 0.0000 0.0000 0.0000 0.0000 0.0000 26.3649
#
#
#
# Elastic Compliance Matrix: (Units=1/GPa)
#
#
# Indices 1 2 3 4 5 6 
#
# 1 0.008608 -0.001980 -0.002758 0.000000 0.000000 0.000000
# 2 -0.001980 0.014688 -0.004993 0.000000 0.000000 0.000000
# 3 -0.002758 -0.004993 0.012995 0.000000 0.000000 0.000000
# 4 0.000000 0.000000 0.000000 0.026311 0.000000 0.000000
# 5 0.000000 0.000000 0.000000 0.000000 0.055974 0.000000
# 6 0.000000 0.000000 0.000000 0.000000 0.000000 0.037929
#
#
# Mechanical properties :
#
#
# Convention : Reuss Voigt Hill
#
# Bulk Modulus (GPa) = 59.42455 61.40972 60.41713
# Shear Modulus (GPa) = 27.53643 30.44834 28.99238
#
# Velocity S-wave (km/s) = 3.49126 3.67121 3.58236
# Velocity P-wave (km/s) = 6.52348 6.71961 6.62227
#
# Compressibility (1/GPa) = 0.01682806
#
# Stress axis : x y z
#
# Youngs Moduli (GPa) = 116.17304 68.08417 76.94981
#
# Poissons Ratio (x) = 0.13479 0.21226
# Poissons Ratio (y) = 0.23000 0.38423
# Poissons Ratio (z) = 0.32045 0.33996
#
# Static dielectric constant tensor:
#      x y z
#    x 3.994510 0.000000 0.000000 
#    y 0.000000 4.200880 0.000000 
#    z 0.000000 0.000000 4.226160 
# 
# 
# High freq. dielectric constant tensor:
#      x y z
#    x 1.888550 0.000000 0.000000 
#    y 0.000000 1.902300 0.000000 
#    z 0.000000 0.000000 1.897170 
# 
# From -- ./inp_files/4888.got.cif
#   From: 2010.03.12/outbox.cif.g09.slc.cpg/sg45_3_cif.got.tgz:4888.got - 2010.04.14 02:50:11.
