data_PCOD8190304
_publ_section_title
;
Structure prediction by ZEFSAII (Michael W. Deem and Ramdas Pophale) SiO2 
 PCOD8190304
Probable space group: I M M 2
;
_chemical_formula_sum "Si O2"
_cell_formula_units_Z 32
_cell_length_a 9.137566
_cell_length_b 7.595430
_cell_length_c 23.613016
_cell_angle_alpha 90.000000
_cell_angle_beta 90.000000
_cell_angle_gamma 90.000000
_cell_volume 1638.831692
_symmetry_space_group_name_H-M "I M M 2"
_symmetry_group_IT_number 44
_symmetry_cell_setting 'orthorhombic'
loop_
_space_group_symop_operation_xyz
x,y,z
-x,-y,z
-x,y,z
x,-y,z
1/2+x,1/2+y,1/2+z
1/2-x,1/2-y,1/2+z
1/2-x,1/2+y,1/2+z
1/2+x,1/2-y,1/2+z
loop_
_atom_site_type_symbol
_atom_site_label
_atom_site_fract_x
_atom_site_fract_y
_atom_site_fract_z
Si Si1 0.671149 0.000000 0.704430
Si Si2 0.170723 0.500000 0.336424
Si Si3 0.834933 0.293636 0.032456
Si Si4 0.328950 0.798112 0.403755
Si Si5 0.167143 0.302051 0.638872
O O1 0.706345 0.000000 0.770389
O O2 0.738088 0.175782 0.678085
O O3 0.500000 0.000000 0.691015
O O4 0.238234 0.676039 0.362215
O O5 0.000000 0.500000 0.349106
O O6 0.827844 0.500000 0.044936
O O7 0.725226 0.196046 0.074516
O O8 0.000000 0.225139 0.042533
O O9 0.786324 0.252316 0.968340
O O10 0.500000 0.763860 0.394160
O O11 0.289399 0.000000 0.389994
O O12 0.179092 0.500000 0.663116
O O13 0.000000 0.236481 0.638797
#
# Coordination Sequence:
#
# PCOD8190304 Si02
#       5
#     4   4   8   8   8
#     4  11  25  45  63  83 117 163 210 251 296 357
#     4  11  25  41  61  89 121 159 204 253 302 353
#     4   9  18  35  60  89 122 159 197 239 291 355
#     4   9  20  39  62  90 121 158 202 244 293 357
#     4  11  24  39  59  91 123 154 196 249 308 359
#
# _framework density 19.526107
#
# number of rings (size 3 to 8) (size 9 to 14) (size 15 to 20)
#    0.000    2.000    1.250    3.000    1.750    6.500 
#    0.000    7.500    0.000    0.000    0.000    0.000 
#    0.000    0.000    0.000    0.000    0.000    0.000 
#
# Total GULP energy -198441.980410 kJ/mol
# GULP energy per Si atom -12402.623776 kJ/mol
# Density = 1.948166 g / cm^3
# Si number density = 19.526107 Si / 1000 Ang^3
#
#
#
# Elastic Constant Matrix: (Units=GPa)
#
#
# Indices 1 2 3 4 5 6 
#
# 1 120.1426 68.3571 89.3625 0.0000 0.0000 0.0000
# 2 68.3571 118.4995 74.6063 0.0000 0.0000 0.0000
# 3 89.3625 74.6063 127.4850 0.0000 0.0000 0.0000
# 4 0.0000 0.0000 0.0000 14.5933 0.0000 0.0000
# 5 0.0000 0.0000 0.0000 0.0000 35.2773 0.0000
# 6 0.0000 0.0000 0.0000 0.0000 0.0000 29.2761
#
#
#
# Elastic Compliance Matrix: (Units=1/GPa)
#
#
# Indices 1 2 3 4 5 6 
#
# 1 0.018499 -0.003970 -0.010644 0.000000 0.000000 0.000000
# 2 -0.003970 0.014214 -0.005535 0.000000 0.000000 0.000000
# 3 -0.010644 -0.005535 0.018545 0.000000 0.000000 0.000000
# 4 0.000000 0.000000 0.000000 0.068525 0.000000 0.000000
# 5 0.000000 0.000000 0.000000 0.000000 0.028347 0.000000
# 6 0.000000 0.000000 0.000000 0.000000 0.000000 0.034158
#
#
# Mechanical properties :
#
#
# Convention : Reuss Voigt Hill
#
# Bulk Modulus (GPa) = 91.24980 92.30877 91.77929
# Shear Modulus (GPa) = 22.10051 24.74942 23.42497
#
# Velocity S-wave (km/s) = 3.36794 3.56406 3.46739
# Velocity P-wave (km/s) = 7.87132 8.01960 7.94580
#
# Compressibility (1/GPa) = 0.01095893
#
# Stress axis : x y z
#
# Youngs Moduli (GPa) = 54.05595 70.35287 53.92396
#
# Poissons Ratio (x) = 0.27930 0.57397
# Poissons Ratio (y) = 0.21460 0.29849
# Poissons Ratio (z) = 0.57538 0.38944
#
# Static dielectric constant tensor:
#      x y z
#    x 3.564130 0.000000 0.000000 
#    y 0.000000 3.524120 0.000000 
#    z 0.000000 0.000000 3.582490 
# 
# 
# High freq. dielectric constant tensor:
#      x y z
#    x 1.760370 0.000000 0.000000 
#    y 0.000000 1.769850 0.000000 
#    z 0.000000 0.000000 1.758010 
# 
# From -- ./inp_files/24564.got.cif
#   From: 2010.03.12/outbox.cif.g09.slc.cpg/sg44_13_cif.got.tgz:24564.got - 2010.04.14 02:36:11.
