data_PCOD8190128
_publ_section_title
;
Structure prediction by ZEFSAII (Michael W. Deem and Ramdas Pophale) SiO2 
 PCOD8190128
Probable space group: I M M 2
;
_chemical_formula_sum "Si O2"
_cell_formula_units_Z 48
_cell_length_a 9.786879
_cell_length_b 7.645540
_cell_length_c 34.356677
_cell_angle_alpha 90.000000
_cell_angle_beta 90.000000
_cell_angle_gamma 90.000000
_cell_volume 2570.771850
_symmetry_space_group_name_H-M "I M M 2"
_symmetry_group_IT_number 44
_symmetry_cell_setting 'orthorhombic'
loop_
_space_group_symop_operation_xyz
x,y,z
-x,-y,z
-x,y,z
x,-y,z
1/2+x,1/2+y,1/2+z
1/2-x,1/2-y,1/2+z
1/2-x,1/2+y,1/2+z
1/2+x,1/2-y,1/2+z
loop_
_atom_site_type_symbol
_atom_site_label
_atom_site_fract_x
_atom_site_fract_y
_atom_site_fract_z
Si Si1 0.657713 0.298654 0.602300
Si Si2 0.337675 0.806983 0.255993
Si Si3 0.657882 0.500000 0.966594
Si Si4 0.347121 0.791641 0.172255
Si Si5 0.157882 0.500000 0.042004
Si Si6 0.150283 0.801623 0.838579
Si Si7 0.657191 0.203047 0.906114
O O1 0.500000 0.280310 0.614281
O O2 0.693996 0.500000 0.591540
O O3 0.745468 0.228433 0.638667
O O4 0.692701 0.175559 0.565973
O O5 0.500000 0.813924 0.254734
O O6 0.293269 0.720318 0.214527
O O7 0.288750 0.705407 0.294645
O O8 0.274709 0.000000 0.259784
O O9 0.500000 0.500000 0.979217
O O10 0.693101 0.323832 0.942863
O O11 0.749858 0.500000 0.004371
O O12 0.500000 0.721562 0.162945
O O13 0.349803 0.000000 0.175065
O O14 0.000000 0.500000 0.029389
O O15 0.254882 0.721544 0.869849
O O16 0.000000 0.708703 0.840865
O O17 0.131551 0.000000 0.850545
O O18 0.500000 0.226450 0.893998
O O19 0.688766 0.000000 0.916522
#
# Coordination Sequence:
#
# PCOD8190128 Si02
#       7
#     8   8   4   8   4   8   8
#     4   9  18  34  54  73  99 134 164 198 248 297
#     4   8  14  25  42  66  97 130 163 205 250 286
#     4  10  22  38  56  78 102 128 164 206 248 302
#     4   8  14  27  47  70  97 130 169 207 244 289
#     4  10  22  38  54  78 106 128 160 206 252 302
#     4   9  17  29  46  70  98 128 167 208 244 289
#     4   9  19  36  54  72 100 134 162 198 250 298
#
# _framework density 18.671434000000001
#
# number of rings (size 3 to 8) (size 9 to 14) (size 15 to 20)
#    0.000    3.167    0.000    1.000    1.167    2.000 
#    1.500    0.833    0.000    1.000    0.000    0.000 
#    0.000    0.000    0.000    0.000    0.000    0.000 
#
# Total GULP energy -297363.995353 kJ/mol
# GULP energy per Si atom -12390.166473 kJ/mol
# Density = 1.862894 g / cm^3
# Si number density = 18.671434 Si / 1000 Ang^3
#
#
#
# Elastic Constant Matrix: (Units=GPa)
#
#
# Indices 1 2 3 4 5 6 
#
# 1 81.2596 33.9403 92.7916 0.0000 0.0000 0.0000
# 2 33.9403 68.8175 53.3328 0.0000 0.0000 0.0000
# 3 92.7916 53.3328 184.8142 0.0000 0.0000 0.0000
# 4 0.0000 0.0000 0.0000 15.1958 0.0000 0.0000
# 5 0.0000 0.0000 0.0000 0.0000 35.2444 0.0000
# 6 0.0000 0.0000 0.0000 0.0000 0.0000 13.8299
#
#
#
# Elastic Compliance Matrix: (Units=1/GPa)
#
#
# Indices 1 2 3 4 5 6 
#
# 1 0.029664 -0.003977 -0.013746 0.000000 0.000000 0.000000
# 2 -0.003977 0.019250 -0.003558 0.000000 0.000000 0.000000
# 3 -0.013746 -0.003558 0.013339 0.000000 0.000000 0.000000
# 4 0.000000 0.000000 0.000000 0.065808 0.000000 0.000000
# 5 0.000000 0.000000 0.000000 0.000000 0.028373 0.000000
# 6 0.000000 0.000000 0.000000 0.000000 0.000000 0.072307
#
#
# Mechanical properties :
#
#
# Convention : Reuss Voigt Hill
#
# Bulk Modulus (GPa) = 50.78512 77.22453 64.00483
# Shear Modulus (GPa) = 17.99409 23.17581 20.58495
#
# Velocity S-wave (km/s) = 3.10776 3.52695 3.32397
# Velocity P-wave (km/s) = 6.33529 7.61809 7.00612
#
# Compressibility (1/GPa) = 0.01969081
#
# Stress axis : x y z
#
# Youngs Moduli (GPa) = 33.71041 51.94709 74.96586
#
# Poissons Ratio (x) = 0.20660 1.03050
# Poissons Ratio (y) = 0.13407 0.26675
# Poissons Ratio (z) = 0.46339 0.18485
#
# Static dielectric constant tensor:
#      x y z
#    x 3.421060 0.000000 0.000000 
#    y 0.000000 3.434410 0.000000 
#    z 0.000000 0.000000 3.508600 
# 
# 
# High freq. dielectric constant tensor:
#      x y z
#    x 1.698770 0.000000 0.000000 
#    y 0.000000 1.717060 0.000000 
#    z 0.000000 0.000000 1.723870 
# 
# From -- ./inp_files/26934.got.cif
#   From: 2010.03.12/outbox.cif.g09.slc.cpg/sg44_14_cif.got.tgz:26934.got - 2010.04.14 02:36:11.
