data_PCOD8190428
_publ_section_title
;
Structure prediction by ZEFSAII (Michael W. Deem and Ramdas Pophale) SiO2 
 PCOD8190428
Probable space group: I B A 2
;
_chemical_formula_sum "Si O2"
_cell_formula_units_Z 48
_cell_length_a 5.170588
_cell_length_b 25.939871
_cell_length_c 15.196762
_cell_angle_alpha 90.000000
_cell_angle_beta 90.000000
_cell_angle_gamma 90.000000
_cell_volume 2038.256368
_symmetry_space_group_name_H-M "I B A 2"
_symmetry_group_IT_number 45
_symmetry_cell_setting 'orthorhombic'
loop_
_space_group_symop_operation_xyz
x,y,z
-x,-y,z
-x,y,1/2+z
x,-y,1/2+z
1/2+x,1/2+y,1/2+z
1/2-x,1/2-y,1/2+z
1/2-x,1/2+y,z
1/2+x,1/2-y,z
loop_
_atom_site_type_symbol
_atom_site_label
_atom_site_fract_x
_atom_site_fract_y
_atom_site_fract_z
Si Si1 0.511885 0.880605 0.242160
Si Si2 0.986948 0.380158 0.037976
Si Si3 0.475176 0.443454 0.241328
Si Si4 0.973699 0.056693 0.038040
Si Si5 0.175010 0.269842 0.494397
Si Si6 0.688778 0.772472 0.301094
O O1 0.475029 0.865338 0.140210
O O2 0.254350 0.907994 0.282383
O O3 0.579597 0.830033 0.297741
O O4 0.747876 0.918888 0.254983
O O5 0.747866 0.417545 0.023602
O O6 0.924761 0.328100 0.985087
O O7 0.241906 0.408243 0.997354
O O8 0.500000 0.500000 0.285668
O O9 0.397850 0.450257 0.139719
O O10 0.000000 0.000000 0.994043
O O11 0.452549 0.264476 0.544721
O O12 0.271891 0.245148 0.401816
O O13 0.467993 0.735812 0.255023
#
# Coordination Sequence:
#
# PCOD8190428 Si02
#       6
#     8   8   8   8   8   8
#     4  10  19  31  51  79 108 139 178 220 260 313
#     4  10  19  31  51  79 108 139 178 220 260 313
#     4   9  17  30  49  77 112 142 168 208 265 323
#     4   9  17  30  49  77 112 142 168 208 265 323
#     4  10  21  36  52  73 101 141 183 221 269 318
#     4  10  21  36  52  73 101 141 183 221 269 318
#
# _framework density 23.54954
#
# number of rings (size 3 to 8) (size 9 to 14) (size 15 to 20)
#    0.000    2.333    0.000    3.000    0.000    5.333 
#    0.000    0.000    0.000    0.000    0.000   70.000 
#    0.000    0.000    0.000    0.000    0.000    2.000 
#
# Total GULP energy -297329.523432 kJ/mol
# GULP energy per Si atom -12388.730143 kJ/mol
# Density = 2.349594 g / cm^3
# Si number density = 23.549540 Si / 1000 Ang^3
#
#
#
# Elastic Constant Matrix: (Units=GPa)
#
#
# Indices 1 2 3 4 5 6 
#
# 1 154.2039 27.6770 3.3537 0.0000 0.0000 0.0000
# 2 27.6770 154.9379 22.8708 0.0000 0.0000 0.0000
# 3 3.3537 22.8708 37.2832 -0.0004 0.0000 0.0000
# 4 0.0000 0.0000 -0.0004 93.2847 0.0000 0.0000
# 5 0.0000 0.0000 0.0000 0.0000 8.3900 0.0000
# 6 0.0000 0.0000 0.0000 0.0000 0.0000 51.9790
#
#
#
# Elastic Compliance Matrix: (Units=1/GPa)
#
#
# Indices 1 2 3 4 5 6 
#
# 1 0.006700 -0.001218 0.000145 0.000000 0.000000 0.000000
# 2 -0.001218 0.007318 -0.004380 0.000000 0.000000 0.000000
# 3 0.000145 -0.004380 0.029495 0.000000 0.000000 0.000000
# 4 0.000000 0.000000 0.000000 0.010720 0.000000 0.000000
# 5 0.000000 0.000000 0.000000 0.000000 0.119189 0.000000
# 6 0.000000 0.000000 0.000000 0.000000 0.000000 0.019239
#
#
# Mechanical properties :
#
#
# Convention : Reuss Voigt Hill
#
# Bulk Modulus (GPa) = 30.66791 50.46979 40.56885
# Shear Modulus (GPa) = 23.31681 50.23232 36.77456
#
# Velocity S-wave (km/s) = 3.15003 4.62350 3.95597
# Velocity P-wave (km/s) = 5.12652 7.06967 6.17501
#
# Compressibility (1/GPa) = 0.03260738
#
# Stress axis : x y z
#
# Youngs Moduli (GPa) = 149.24413 136.64338 33.90361
#
# Poissons Ratio (x) = 0.16647 -0.00490
# Poissons Ratio (y) = 0.18182 0.14849
# Poissons Ratio (z) = -0.02158 0.59846
#
# Static dielectric constant tensor:
#      x y z
#    x 6.488080 0.000000 0.000000 
#    y 0.000000 4.340390 0.000000 
#    z 0.000000 0.000000 3.803820 
# 
# 
# High freq. dielectric constant tensor:
#      x y z
#    x 1.969810 0.000000 0.000000 
#    y 0.000000 1.940150 0.000000 
#    z 0.000000 0.000000 1.874100 
# 
# From -- ./inp_files/7300.got.cif
#   From: 2010.03.12/outbox.cif.g09.slc.cpg/sg45_4_cif.got.tgz:7300.got - 2010.04.14 02:50:11.
