data_PCOD8190426
_publ_section_title
;
Structure prediction by ZEFSAII (Michael W. Deem and Ramdas Pophale) SiO2 
 PCOD8190426
Probable space group: I B A 2
;
_chemical_formula_sum "Si O2"
_cell_formula_units_Z 52
_cell_length_a 24.879338
_cell_length_b 13.655485
_cell_length_c 9.078815
_cell_angle_alpha 90.000000
_cell_angle_beta 90.000000
_cell_angle_gamma 90.000000
_cell_volume 3084.431405
_symmetry_space_group_name_H-M "I B A 2"
_symmetry_group_IT_number 45
_symmetry_cell_setting 'orthorhombic'
loop_
_space_group_symop_operation_xyz
x,y,z
-x,-y,z
-x,y,1/2+z
x,-y,1/2+z
1/2+x,1/2+y,1/2+z
1/2-x,1/2-y,1/2+z
1/2-x,1/2+y,z
1/2+x,1/2-y,z
loop_
_atom_site_type_symbol
_atom_site_label
_atom_site_fract_x
_atom_site_fract_y
_atom_site_fract_z
Si Si1 0.229748 0.897901 0.391240
Si Si2 0.896905 0.408505 0.725625
Si Si3 0.000000 0.500000 0.311310
Si Si4 0.167646 0.739050 0.230984
Si Si5 0.167646 0.260950 0.391635
Si Si6 0.229748 0.897901 0.731379
Si Si7 0.603095 0.091495 0.896994
O O1 0.181069 0.840357 0.312457
O O2 0.283931 0.836748 0.373103
O O3 0.214794 0.914337 0.561310
O O4 0.238211 0.000000 0.311310
O O5 0.961331 0.428549 0.715437
O O6 0.884483 0.308800 0.813784
O O7 0.872728 0.401755 0.561310
O O8 0.869098 0.500000 0.811310
O O9 0.038669 0.571451 0.407182
O O10 0.216070 0.663253 0.249516
O O11 0.115517 0.691200 0.308835
O O12 0.154363 0.760942 0.061310
O O13 0.181069 0.159643 0.310162
#
# Coordination Sequence:
#
# PCOD8190426 Si02
#       7
#     8   8   4   8   8   8   8
#     4  10  20  33  48  69  98 131 168 207 245 293
#     4  10  19  31  48  70  99 130 162 201 246 295
#     4   8  22  32  50  72 104 132 166 204 250 302
#     4  10  20  32  49  71  97 131 168 204 248 296
#     4  10  20  32  49  71  97 131 168 204 248 296
#     4  10  20  33  48  69  98 131 168 207 245 293
#     4  10  19  31  48  70  99 130 162 201 246 295
#
# _framework density 16.858861999999998
#
# number of rings (size 3 to 8) (size 9 to 14) (size 15 to 20)
#    0.923    1.231    0.000    4.154    0.000    6.154 
#    0.000    0.000    0.000    0.000    0.000    1.077 
#    0.000    7.385    0.000    0.000    0.000    0.000 
#
# Total GULP energy -322252.098274 kJ/mol
# GULP energy per Si atom -12394.311472 kJ/mol
# Density = 1.682049 g / cm^3
# Si number density = 16.858862 Si / 1000 Ang^3
#
#
#
# Elastic Constant Matrix: (Units=GPa)
#
#
# Indices 1 2 3 4 5 6 
#
# 1 45.8694 8.7306 22.2264 0.0000 0.0000 0.0000
# 2 8.7306 56.6712 43.6999 0.0000 0.0000 0.0000
# 3 22.2264 43.6999 156.3592 0.0000 0.0000 0.0000
# 4 0.0000 0.0000 0.0000 34.4376 0.0000 0.0000
# 5 0.0000 0.0000 0.0000 0.0000 20.0434 0.0000
# 6 0.0000 0.0000 0.0000 0.0000 0.0000 32.5208
#
#
#
# Elastic Compliance Matrix: (Units=1/GPa)
#
#
# Indices 1 2 3 4 5 6 
#
# 1 0.023492 -0.001331 -0.002967 0.000000 0.000000 0.000000
# 2 -0.001331 0.022569 -0.006118 0.000000 0.000000 0.000000
# 3 -0.002967 -0.006118 0.008527 0.000000 0.000000 0.000000
# 4 0.000000 0.000000 0.000000 0.029038 0.000000 0.000000
# 5 0.000000 0.000000 0.000000 0.000000 0.049892 0.000000
# 6 0.000000 0.000000 0.000000 0.000000 0.000000 0.030750
#
#
# Mechanical properties :
#
#
# Convention : Reuss Voigt Hill
#
# Bulk Modulus (GPa) = 29.62550 45.35708 37.49129
# Shear Modulus (GPa) = 25.46439 29.68322 27.57380
#
# Velocity S-wave (km/s) = 3.89066 4.20061 4.04860
# Velocity P-wave (km/s) = 6.14767 7.10558 6.64391
#
# Compressibility (1/GPa) = 0.03375471
#
# Stress axis : x y z
#
# Youngs Moduli (GPa) = 42.56727 44.30922 117.26980
#
# Poissons Ratio (x) = 0.05897 0.34799
# Poissons Ratio (y) = 0.05665 0.71750
# Poissons Ratio (z) = 0.12632 0.27110
#
# Static dielectric constant tensor:
#      x y z
#    x 2.843830 0.000000 0.000000 
#    y 0.000000 3.070980 0.000000 
#    z 0.000000 0.000000 3.261110 
# 
# 
# High freq. dielectric constant tensor:
#      x y z
#    x 1.611020 0.000000 0.000000 
#    y 0.000000 1.632950 0.000000 
#    z 0.000000 0.000000 1.669440 
# 
# From -- ./inp_files/1472.got.cif
#   From: 2010.03.12/outbox.cif.g09.slc.cpg/sg45_1_cif.got.tgz:1472.got - 2010.04.14 02:50:11.
