data_PCOD8190145
_publ_section_title
;
Structure prediction by ZEFSAII (Michael W. Deem and Ramdas Pophale) SiO2 
 PCOD8190145
Probable space group: I M M 2
;
_chemical_formula_sum "Si O2"
_cell_formula_units_Z 48
_cell_length_a 31.423571
_cell_length_b 9.217699
_cell_length_c 9.054477
_cell_angle_alpha 90.000000
_cell_angle_beta 90.000000
_cell_angle_gamma 90.000000
_cell_volume 2622.656598
_symmetry_space_group_name_H-M "I M M 2"
_symmetry_group_IT_number 44
_symmetry_cell_setting 'orthorhombic'
loop_
_space_group_symop_operation_xyz
x,y,z
-x,-y,z
-x,y,z
x,-y,z
1/2+x,1/2+y,1/2+z
1/2-x,1/2-y,1/2+z
1/2-x,1/2+y,1/2+z
1/2+x,1/2-y,1/2+z
loop_
_atom_site_type_symbol
_atom_site_label
_atom_site_fract_x
_atom_site_fract_y
_atom_site_fract_z
Si Si1 0.210024 0.829647 0.566510
Si Si2 0.863375 0.164947 0.041108
Si Si3 0.871950 0.168304 0.387098
Si Si4 0.454690 0.663816 0.572216
Si Si5 0.453350 0.830976 0.869921
Si Si6 0.708420 0.170277 0.374082
O O1 0.168386 0.775666 0.479172
O O2 0.250786 0.788059 0.470115
O O3 0.213561 0.745079 0.717804
O O4 0.208072 0.000000 0.599441
O O5 0.863444 0.201958 0.215016
O O6 0.911714 0.187697 0.976453
O O7 0.847659 0.000000 0.014185
O O8 0.833564 0.275257 0.956286
O O9 0.914236 0.248670 0.449273
O O10 0.879339 0.000000 0.414234
O O11 0.500000 0.679082 0.483136
O O12 0.451406 0.500000 0.639792
O O13 0.455271 0.779723 0.701709
O O14 0.500000 0.799557 0.943673
O O15 0.443003 0.000000 0.873274
O O16 0.704469 0.000000 0.349299
#
# Coordination Sequence:
#
# PCOD8190145 Si02
#       6
#     8   8   8   8   8   8
#     4  10  22  39  56  75 101 132 167 208 251 297
#     4   9  17  31  52  77 106 136 167 209 253 292
#     4   9  18  33  53  75 100 134 174 210 246 293
#     4   8  14  26  45  69  98 134 173 208 243 288
#     4   9  16  25  41  70 105 135 164 204 252 295
#     4  11  23  37  55  78 102 131 167 205 251 306
#
# _framework density 18.302053000000001
#
# number of rings (size 3 to 8) (size 9 to 14) (size 15 to 20)
#    0.000    2.667    0.000    3.000    0.000    7.000 
#    0.000    0.000    0.000    1.000    0.000    2.333 
#    0.000    0.000    0.000    0.000    0.000    0.000 
#
# Total GULP energy -297386.581473 kJ/mol
# GULP energy per Si atom -12391.107561 kJ/mol
# Density = 1.826040 g / cm^3
# Si number density = 18.302053 Si / 1000 Ang^3
#
#
#
# Elastic Constant Matrix: (Units=GPa)
#
#
# Indices 1 2 3 4 5 6 
#
# 1 196.3868 67.4704 64.2466 0.0000 0.0000 0.0000
# 2 67.4704 58.5314 40.9169 0.0000 0.0000 0.0000
# 3 64.2466 40.9169 75.7112 0.0000 0.0000 0.0000
# 4 0.0000 0.0000 0.0000 23.8754 0.0000 0.0000
# 5 0.0000 0.0000 0.0000 0.0000 21.5340 0.0000
# 6 0.0000 0.0000 0.0000 0.0000 0.0000 30.9075
#
#
#
# Elastic Compliance Matrix: (Units=1/GPa)
#
#
# Indices 1 2 3 4 5 6 
#
# 1 0.008895 -0.007999 -0.003225 0.000000 0.000000 0.000000
# 2 -0.007999 0.034652 -0.011939 0.000000 0.000000 0.000000
# 3 -0.003225 -0.011939 0.022397 0.000000 0.000000 0.000000
# 4 0.000000 0.000000 0.000000 0.041884 0.000000 0.000000
# 5 0.000000 0.000000 0.000000 0.000000 0.046438 0.000000
# 6 0.000000 0.000000 0.000000 0.000000 0.000000 0.032355
#
#
# Mechanical properties :
#
#
# Convention : Reuss Voigt Hill
#
# Bulk Modulus (GPa) = 50.97559 75.09968 63.03763
# Shear Modulus (GPa) = 20.87790 25.79639 23.33714
#
# Velocity S-wave (km/s) = 3.38115 3.75838 3.57474
# Velocity P-wave (km/s) = 6.56930 7.74315 7.18026
#
# Compressibility (1/GPa) = 0.01961723
#
# Stress axis : x y z
#
# Youngs Moduli (GPa) = 112.41878 28.85856 44.64819
#
# Poissons Ratio (x) = 0.23084 0.14401
# Poissons Ratio (y) = 0.89925 0.53306
# Poissons Ratio (z) = 0.36259 0.34455
#
# Static dielectric constant tensor:
#      x y z
#    x 4.056140 0.000000 0.000000 
#    y 0.000000 3.339240 0.000000 
#    z 0.000000 0.000000 2.936470 
# 
# 
# High freq. dielectric constant tensor:
#      x y z
#    x 1.742250 0.000000 0.000000 
#    y 0.000000 1.709190 0.000000 
#    z 0.000000 0.000000 1.653940 
# 
# From -- ./inp_files/4916.got.cif
#   From: 2010.03.12/outbox.cif.g09.slc.cpg/sg44_3_cif.got.tgz:4916.got - 2010.04.14 02:36:11.
