data_PCOD8190519
_publ_section_title
;
Structure prediction by ZEFSAII (Michael W. Deem and Ramdas Pophale) SiO2 
 PCOD8190519
Probable space group: I B A 2
;
_chemical_formula_sum "Si O2"
_cell_formula_units_Z 64
_cell_length_a 20.037038
_cell_length_b 9.238415
_cell_length_c 16.839743
_cell_angle_alpha 90.000000
_cell_angle_beta 90.000000
_cell_angle_gamma 90.000000
_cell_volume 3117.212782
_symmetry_space_group_name_H-M "I B A 2"
_symmetry_group_IT_number 45
_symmetry_cell_setting 'orthorhombic'
loop_
_space_group_symop_operation_xyz
x,y,z
-x,-y,z
-x,y,1/2+z
x,-y,1/2+z
1/2+x,1/2+y,1/2+z
1/2-x,1/2-y,1/2+z
1/2-x,1/2+y,z
1/2+x,1/2-y,z
loop_
_atom_site_type_symbol
_atom_site_label
_atom_site_fract_x
_atom_site_fract_y
_atom_site_fract_z
Si Si1 0.559632 0.089509 0.885160
Si Si2 0.462082 0.787597 0.135926
Si Si3 0.582324 0.915783 0.203148
Si Si4 0.822983 0.796579 0.170794
Si Si5 0.198367 0.140685 0.994337
Si Si6 0.705278 0.067600 0.919558
Si Si7 0.549954 0.367278 0.971698
Si Si8 0.721652 0.996218 0.239594
O O1 0.564028 0.045051 0.793318
O O2 0.500000 0.000000 0.925155
O O3 0.626417 0.039644 0.931218
O O4 0.546332 0.261533 0.895288
O O5 0.536452 0.778278 0.175919
O O6 0.403943 0.692916 0.179509
O O7 0.469691 0.733403 0.046320
O O8 0.435855 0.952692 0.143637
O O9 0.662467 0.892470 0.203139
O O10 0.801537 0.780567 0.079297
O O11 0.792016 0.945454 0.203614
O O12 0.792888 0.662446 0.219552
O O13 0.125115 0.071251 0.979343
O O14 0.253769 0.016207 0.987664
O O15 0.217268 0.261240 0.929083
O O16 0.729437 0.018391 0.833560
O O17 0.500000 0.500000 0.960995
#
# Coordination Sequence:
#
# PCOD8190519 Si02
#       8
#     8   8   8   8   8   8   8   8
#     4  10  20  37  63  88 113 150 205 251 288 349
#     4   9  18  37  59  80 116 151 190 243 290 341
#     4   9  18  37  62  86 111 147 201 251 286 336
#     4  10  20  36  58  82 118 150 188 243 287 345
#     4  10  21  40  58  83 123 153 194 244 292 355
#     4  10  21  37  60  84 117 155 191 246 299 348
#     4  10  23  40  55  85 127 158 190 241 303 364
#     4  10  20  36  58  87 114 149 195 241 290 349
#
# _framework density 20.531162999999999
#
# number of rings (size 3 to 8) (size 9 to 14) (size 15 to 20)
#    0.000    2.250    1.250    1.500    1.750    2.000 
#    9.000    0.625    0.000    0.000    0.000    0.000 
#    0.000    0.000    0.000    0.000    0.000    0.000 
#
# Total GULP energy -396557.727454 kJ/mol
# GULP energy per Si atom -12392.428983 kJ/mol
# Density = 2.048443 g / cm^3
# Si number density = 20.531163 Si / 1000 Ang^3
#
#
#
# Elastic Constant Matrix: (Units=GPa)
#
#
# Indices 1 2 3 4 5 6 
#
# 1 105.8905 40.5367 16.7343 0.0000 0.0000 0.0000
# 2 40.5367 66.8584 23.5032 0.0000 0.0000 0.0000
# 3 16.7343 23.5032 49.8724 0.0000 0.0000 0.0000
# 4 0.0000 0.0000 0.0000 17.8645 0.0000 0.0000
# 5 0.0000 0.0000 0.0000 0.0000 27.7670 0.0000
# 6 0.0000 0.0000 0.0000 0.0000 0.0000 43.0972
#
#
#
# Elastic Compliance Matrix: (Units=1/GPa)
#
#
# Indices 1 2 3 4 5 6 
#
# 1 0.012321 -0.007212 -0.000736 0.000000 0.000000 0.000000
# 2 -0.007212 0.022148 -0.008018 0.000000 0.000000 0.000000
# 3 -0.000736 -0.008018 0.024077 0.000000 0.000000 0.000000
# 4 0.000000 0.000000 0.000000 0.055977 0.000000 0.000000
# 5 0.000000 0.000000 0.000000 0.000000 0.036014 0.000000
# 6 0.000000 0.000000 0.000000 0.000000 0.000000 0.023203
#
#
# Mechanical properties :
#
#
# Convention : Reuss Voigt Hill
#
# Bulk Modulus (GPa) = 37.57235 42.68553 40.12894
# Shear Modulus (GPa) = 23.30557 27.20220 25.25388
#
# Velocity S-wave (km/s) = 3.37283 3.64390 3.51098
# Velocity P-wave (km/s) = 5.78859 6.20804 6.00198
#
# Compressibility (1/GPa) = 0.02661532
#
# Stress axis : x y z
#
# Youngs Moduli (GPa) = 81.16457 45.15094 41.53421
#
# Poissons Ratio (x) = 0.32561 0.03055
# Poissons Ratio (y) = 0.58532 0.33301
# Poissons Ratio (z) = 0.05970 0.36201
#
# Static dielectric constant tensor:
#      x y z
#    x 4.170010 0.000000 0.000000 
#    y 0.000000 3.381720 0.000000 
#    z 0.000000 0.000000 3.589330 
# 
# 
# High freq. dielectric constant tensor:
#      x y z
#    x 1.817480 0.000000 0.000000 
#    y 0.000000 1.768670 0.000000 
#    z 0.000000 0.000000 1.796640 
# 
# From -- ./inp_files/8462.got.cif
#   From: 2010.03.12/outbox.cif.g09.slc.cpg/sg45_5_cif.got.tgz:8462.got - 2010.04.14 02:50:11.
