data_PCOD8190329
_publ_section_title
;
Structure prediction by ZEFSAII (Michael W. Deem and Ramdas Pophale) SiO2 
 PCOD8190329
Probable space group: I M M 2
;
_chemical_formula_sum "Si O2"
_cell_formula_units_Z 64
_cell_length_a 9.446515
_cell_length_b 14.579305
_cell_length_c 28.691705
_cell_angle_alpha 90.000000
_cell_angle_beta 90.000000
_cell_angle_gamma 90.000000
_cell_volume 3951.525573
_symmetry_space_group_name_H-M "I M M 2"
_symmetry_group_IT_number 44
_symmetry_cell_setting 'orthorhombic'
loop_
_space_group_symop_operation_xyz
x,y,z
-x,-y,z
-x,y,z
x,-y,z
1/2+x,1/2+y,1/2+z
1/2-x,1/2-y,1/2+z
1/2-x,1/2+y,1/2+z
1/2+x,1/2-y,1/2+z
loop_
_atom_site_type_symbol
_atom_site_label
_atom_site_fract_x
_atom_site_fract_y
_atom_site_fract_z
Si Si1 0.162770 0.106082 0.680160
Si Si2 0.665032 0.897387 0.771648
Si Si3 0.831589 0.896520 0.402880
Si Si4 0.168411 0.896520 0.505985
Si Si5 0.662770 0.393918 0.728705
Si Si6 0.834968 0.397387 0.637217
Si Si7 0.833495 0.216176 0.317218
Si Si8 0.666505 0.283824 0.091647
O O1 0.251874 0.131952 0.725578
O O2 0.225685 0.163373 0.636931
O O3 0.000000 0.131484 0.690442
O O4 0.179724 0.000000 0.667155
O O5 0.500000 0.892176 0.759161
O O6 0.702595 0.824689 0.812603
O O7 0.707637 0.000000 0.788434
O O8 0.774894 0.869261 0.454432
O O9 0.766842 0.825947 0.364648
O O10 0.000000 0.891693 0.403057
O O11 0.783195 0.000000 0.390349
O O12 0.233158 0.825947 0.544217
O O13 0.000000 0.891693 0.505808
O O14 0.216805 0.000000 0.518516
O O15 0.500000 0.368516 0.718423
O O16 0.679724 0.500000 0.741710
O O17 0.751874 0.368048 0.683287
O O18 0.725685 0.336627 0.771934
O O19 0.792363 0.500000 0.620431
O O20 0.797405 0.324689 0.596262
O O21 0.000000 0.392176 0.649704
O O22 0.000000 0.198922 0.319030
O O23 0.500000 0.301078 0.089835
#
# Coordination Sequence:
#
# PCOD8190329 Si02
#       8
#     8   8   8   8   8   8   8   8
#     4   9  16  25  38  56  76  97 123 155 187 217
#     4   9  17  27  37  51  75 105 130 150 176 214
#     4   8  13  21  34  53  75  96 119 150 188 226
#     4   8  13  21  34  53  75  96 119 150 188 226
#     4   9  16  25  38  56  76  97 123 155 187 217
#     4   9  17  27  37  51  75 105 130 150 176 214
#     4   9  15  23  36  52  72  99 126 151 183 221
#     4   9  15  23  36  52  72  99 126 151 183 221
#
# _framework density 16.196276000000001
#
# number of rings (size 3 to 8) (size 9 to 14) (size 15 to 20)
#    0.000    3.250    0.000    2.250    0.000    3.000 
#    0.000    0.000    0.000    0.750    0.000    5.250 
#    0.000    4.000    0.000   24.000    0.000   23.000 
#
# Total GULP energy -396550.580038 kJ/mol
# GULP energy per Si atom -12392.205626 kJ/mol
# Density = 1.615941 g / cm^3
# Si number density = 16.196276 Si / 1000 Ang^3
#
#
#
# Elastic Constant Matrix: (Units=GPa)
#
#
# Indices 1 2 3 4 5 6 
#
# 1 16.1787 15.3954 19.0639 0.0000 0.0000 0.0000
# 2 15.3954 116.4893 90.5582 0.0000 0.0000 0.0000
# 3 19.0639 90.5582 128.9483 0.0000 0.0000 0.0000
# 4 0.0000 0.0000 0.0000 31.2577 0.0000 0.0000
# 5 0.0000 0.0000 0.0000 0.0000 11.7002 0.0000
# 6 0.0000 0.0000 0.0000 0.0000 0.0000 11.0938
#
#
#
# Elastic Compliance Matrix: (Units=1/GPa)
#
#
# Indices 1 2 3 4 5 6 
#
# 1 0.075278 -0.002857 -0.009123 0.000000 0.000000 0.000000
# 2 -0.002857 0.019015 -0.012932 0.000000 0.000000 0.000000
# 3 -0.009123 -0.012932 0.018185 0.000000 0.000000 0.000000
# 4 0.000000 0.000000 0.000000 0.031992 0.000000 0.000000
# 5 0.000000 0.000000 0.000000 0.000000 0.085469 0.000000
# 6 0.000000 0.000000 0.000000 0.000000 0.000000 0.090141
#
#
# Mechanical properties :
#
#
# Convention : Reuss Voigt Hill
#
# Bulk Modulus (GPa) = 15.96022 56.85017 36.40519
# Shear Modulus (GPa) = 12.79468 19.91691 16.35580
#
# Velocity S-wave (km/s) = 2.81370 3.51054 3.18126
# Velocity P-wave (km/s) = 4.52013 7.18393 6.00168
#
# Compressibility (1/GPa) = 0.06265579
#
# Stress axis : x y z
#
# Youngs Moduli (GPa) = 13.28411 52.59024 54.98911
#
# Poissons Ratio (x) = 0.15023 0.50167
# Poissons Ratio (y) = 0.03795 0.71109
# Poissons Ratio (z) = 0.12119 0.68007
#
# Static dielectric constant tensor:
#      x y z
#    x 2.628340 0.000000 0.000000 
#    y 0.000000 3.290200 0.000000 
#    z 0.000000 0.000000 3.255620 
# 
# 
# High freq. dielectric constant tensor:
#      x y z
#    x 1.566790 0.000000 0.000000 
#    y 0.000000 1.631060 0.000000 
#    z 0.000000 0.000000 1.607730 
# 
# From -- ./inp_files/19695.got.cif
#   From: 2010.03.12/outbox.cif.g09.slc.cpg/sg44_10_cif.got.tgz:19695.got - 2010.04.14 02:36:11.
