data_PCOD8190930
_publ_section_title
;
Structure prediction by ZEFSAII (Michael W. Deem and Ramdas Pophale) SiO2 
 PCOD8190930
Probable space group: I B A 2
;
_chemical_formula_sum "Si O2"
_cell_formula_units_Z 40
_cell_length_a 17.781814
_cell_length_b 8.994446
_cell_length_c 10.956420
_cell_angle_alpha 90.000000
_cell_angle_beta 90.000000
_cell_angle_gamma 90.000000
_cell_volume 1752.343145
_symmetry_space_group_name_H-M "I B A 2"
_symmetry_group_IT_number 45
_symmetry_cell_setting 'orthorhombic'
loop_
_space_group_symop_operation_xyz
x,y,z
-x,-y,z
-x,y,1/2+z
x,-y,1/2+z
1/2+x,1/2+y,1/2+z
1/2-x,1/2-y,1/2+z
1/2-x,1/2+y,z
1/2+x,1/2-y,z
loop_
_atom_site_type_symbol
_atom_site_label
_atom_site_fract_x
_atom_site_fract_y
_atom_site_fract_z
Si Si1 0.846833 0.224300 0.731350
Si Si2 0.882778 0.666372 0.496909
Si Si3 0.293755 0.953791 0.692794
Si Si4 0.979661 0.168456 0.541259
Si Si5 0.933492 0.404094 0.358438
O O1 0.872714 0.247825 0.869810
O O2 0.789958 0.084630 0.736790
O O3 0.802304 0.368726 0.681497
O O4 0.917547 0.184622 0.646549
O O5 0.804081 0.635677 0.565148
O O6 0.916751 0.502932 0.477833
O O7 0.942072 0.754091 0.583752
O O8 0.358651 0.888916 0.779537
O O9 0.956469 0.242718 0.410967
O O10 0.000000 0.000000 0.512636
O O11 0.000000 0.500000 0.288421
#
# Coordination Sequence:
#
# PCOD8190930 Si02
#       5
#     8   8   8   8   8
#     4  11  27  45  68 108 137 185 234 283 360 417
#     4  10  24  44  70  97 139 188 229 285 348 417
#     4  11  25  43  71  98 146 182 232 291 350 425
#     4  11  25  44  71 101 141 177 238 293 340 417
#     4   9  21  43  71  98 130 185 238 276 347 416
#
# _framework density 22.82658
#
# number of rings (size 3 to 8) (size 9 to 14) (size 15 to 20)
#    0.000    1.600    2.000    0.000   14.000    2.400 
#    0.000    0.000    0.000    0.000    0.000    0.000 
#    0.000    0.000    0.000    0.000    0.000    0.000 
#
# Total GULP energy -247827.511179 kJ/mol
# GULP energy per Si atom -12391.375559 kJ/mol
# Density = 2.277463 g / cm^3
# Si number density = 22.826580 Si / 1000 Ang^3
#
#
#
# Elastic Constant Matrix: (Units=GPa)
#
#
# Indices 1 2 3 4 5 6 
#
# 1 125.5418 49.4517 45.2346 0.0000 0.0000 0.0000
# 2 49.4517 138.9770 34.9491 0.0000 0.0000 0.0000
# 3 45.2346 34.9491 71.5696 0.0000 0.0000 0.0000
# 4 0.0000 0.0000 0.0000 18.7096 0.0000 0.0000
# 5 0.0000 0.0000 0.0000 0.0000 32.6608 0.0000
# 6 0.0000 0.0000 0.0000 0.0000 0.0000 47.1350
#
#
#
# Elastic Compliance Matrix: (Units=1/GPa)
#
#
# Indices 1 2 3 4 5 6 
#
# 1 0.011012 -0.002472 -0.005753 0.000000 0.000000 0.000000
# 2 -0.002472 0.008757 -0.002714 0.000000 0.000000 0.000000
# 3 -0.005753 -0.002714 0.018934 0.000000 0.000000 0.000000
# 4 0.000000 0.000000 0.000000 0.053448 0.000000 0.000000
# 5 0.000000 0.000000 0.000000 0.000000 0.030618 0.000000
# 6 0.000000 0.000000 0.000000 0.000000 0.000000 0.021216
#
#
# Mechanical properties :
#
#
# Convention : Reuss Voigt Hill
#
# Bulk Modulus (GPa) = 59.43351 66.15101 62.79226
# Shear Modulus (GPa) = 29.15933 33.46462 31.31198
#
# Velocity S-wave (km/s) = 3.57799 3.83304 3.70771
# Velocity P-wave (km/s) = 6.56984 6.97369 6.77478
#
# Compressibility (1/GPa) = 0.01682553
#
# Stress axis : x y z
#
# Youngs Moduli (GPa) = 90.81041 114.18809 52.81503
#
# Poissons Ratio (x) = 0.28223 0.30385
# Poissons Ratio (y) = 0.22445 0.14336
# Poissons Ratio (z) = 0.52243 0.30994
#
# Static dielectric constant tensor:
#      x y z
#    x 4.211040 0.000000 0.000000 
#    y 0.000000 4.109760 0.000000 
#    z 0.000000 0.000000 3.840350 
# 
# 
# High freq. dielectric constant tensor:
#      x y z
#    x 1.908040 0.000000 0.000000 
#    y 0.000000 1.897350 0.000000 
#    z 0.000000 0.000000 1.888360 
# 
# From -- ./inp_files/3152.got.cif
#   From: 2010.03.12/outbox.cif.g09.slc.cpg/sg45_2_cif.got.tgz:3152.got - 2010.04.14 02:50:11.
