data_PCOD8190902
_publ_section_title
;
Structure prediction by ZEFSAII (Michael W. Deem and Ramdas Pophale) SiO2 
 PCOD8190902
Probable space group: I B A 2
;
_chemical_formula_sum "Si O2"
_cell_formula_units_Z 64
_cell_length_a 29.144479
_cell_length_b 8.682779
_cell_length_c 11.595005
_cell_angle_alpha 90.000000
_cell_angle_beta 90.000000
_cell_angle_gamma 90.000000
_cell_volume 2934.174805
_symmetry_space_group_name_H-M "I B A 2"
_symmetry_group_IT_number 45
_symmetry_cell_setting 'orthorhombic'
loop_
_space_group_symop_operation_xyz
x,y,z
-x,-y,z
-x,y,1/2+z
x,-y,1/2+z
1/2+x,1/2+y,1/2+z
1/2-x,1/2-y,1/2+z
1/2-x,1/2+y,z
1/2+x,1/2-y,z
loop_
_atom_site_type_symbol
_atom_site_label
_atom_site_fract_x
_atom_site_fract_y
_atom_site_fract_z
Si Si1 0.249969 0.023739 0.242350
Si Si2 0.693979 0.778851 0.624464
Si Si3 0.079422 0.674966 0.006620
Si Si4 0.012009 0.821941 0.425513
Si Si5 0.042770 0.387389 0.110463
Si Si6 0.189622 0.779787 0.357854
Si Si7 0.904379 0.741648 0.760900
Si Si8 0.386958 0.887027 0.281923
O O1 0.269870 0.916170 0.141043
O O2 0.225922 0.918109 0.340123
O O3 0.211918 0.122616 0.179430
O O4 0.290724 0.124155 0.298653
O O5 0.682555 0.753705 0.491810
O O6 0.649116 0.821389 0.694252
O O7 0.119978 0.685687 0.910464
O O8 0.034579 0.723508 0.933104
O O9 0.077929 0.494092 0.038512
O O10 0.088843 0.772795 0.122852
O O11 0.036343 0.773558 0.544631
O O12 0.046591 0.782787 0.319668
O O13 0.000000 0.000000 0.423010
O O14 0.063103 0.337183 0.232958
O O15 0.000000 0.500000 0.133256
O O16 0.140151 0.836054 0.305607
O O17 0.887945 0.570497 0.788753
#
# Coordination Sequence:
#
# PCOD8190902 Si02
#       8
#     8   8   8   8   8   8   8   8
#     4  10  24  44  68 107 138 181 229 285 357 420
#     4  11  23  43  71 101 132 186 225 285 350 414
#     4  10  24  41  65  94 132 175 226 290 326 402
#     4  11  24  43  65  92 133 176 224 279 349 403
#     4   9  20  38  65  92 123 168 222 270 325 394
#     4  11  23  46  72 102 146 180 234 289 349 421
#     4  11  24  43  67 101 133 183 232 281 336 413
#     4  11  22  39  68  98 128 171 234 274 332 404
#
# _framework density 21.811924000000001
#
# number of rings (size 3 to 8) (size 9 to 14) (size 15 to 20)
#    0.000    1.500    2.500    1.500    7.000    1.500 
#   15.750    0.000    0.000    0.000    0.000    0.000 
#    0.000    0.000    0.000    0.000    0.000    0.000 
#
# Total GULP energy -396435.060786 kJ/mol
# GULP energy per Si atom -12388.595650 kJ/mol
# Density = 2.176228 g / cm^3
# Si number density = 21.811924 Si / 1000 Ang^3
#
#
#
# Elastic Constant Matrix: (Units=GPa)
#
#
# Indices 1 2 3 4 5 6 
#
# 1 100.5109 35.5820 66.7475 0.0000 0.0000 0.0000
# 2 35.5820 85.1939 54.8394 0.0000 0.0000 0.0000
# 3 66.7475 54.8394 144.0419 0.0000 0.0000 0.0000
# 4 0.0000 0.0000 0.0000 0.3704 0.0000 0.0000
# 5 0.0000 0.0000 0.0000 0.0000 40.4274 0.0000
# 6 0.0000 0.0000 0.0000 0.0000 0.0000 1285.1949
#
#
#
# Elastic Compliance Matrix: (Units=1/GPa)
#
#
# Indices 1 2 3 4 5 6 
#
# 1 0.014712 -0.002326 -0.005932 0.000000 0.000000 0.000000
# 2 -0.002326 0.015916 -0.004982 0.000000 0.000000 0.000000
# 3 -0.005932 -0.004982 0.011588 0.000000 0.000000 0.000000
# 4 0.000000 0.000000 0.000000 2.699740 0.000000 0.000000
# 5 0.000000 0.000000 0.000000 0.000000 0.024736 0.000000
# 6 0.000000 0.000000 0.000000 0.000000 0.000000 0.000778
#
#
# Mechanical properties :
#
#
# Convention : Reuss Voigt Hill
#
# Bulk Modulus (GPa) = 63.54622 71.56494 67.55558
# Shear Modulus (GPa) = 1.78623 276.70372 139.24497
#
# Velocity S-wave (km/s) = 0.90593 11.27539 7.99859
# Velocity P-wave (km/s) = 5.50375 14.22651 10.78622
#
# Compressibility (1/GPa) = 0.01573658
#
# Stress axis : x y z
#
# Youngs Moduli (GPa) = 67.97268 62.82905 86.29872
#
# Poissons Ratio (x) = 0.14616 0.51189
# Poissons Ratio (y) = 0.15813 0.42991
# Poissons Ratio (z) = 0.40319 0.31299
#
# Static dielectric constant tensor:
#      x y z
#    x 4.058270 0.000000 0.000000 
#    y 0.000000 3.794670 0.000000 
#    z 0.000000 0.000000 4.143230 
# 
# 
# High freq. dielectric constant tensor:
#      x y z
#    x 1.861600 0.000000 0.000000 
#    y 0.000000 1.835610 0.000000 
#    z 0.000000 0.000000 1.868450 
# 
# From -- ./inp_files/4963.got.cif
#   From: 2010.03.12/outbox.cif.g09.slc.cpg/sg45_3_cif.got.tgz:4963.got - 2010.04.14 02:50:11.
