data_PCOD8190468
_publ_section_title
;
Structure prediction by ZEFSAII (Michael W. Deem and Ramdas Pophale) SiO2 
 PCOD8190468
Probable space group: I B A 2
;
_chemical_formula_sum "Si O2"
_cell_formula_units_Z 64
_cell_length_a 18.447660
_cell_length_b 9.852011
_cell_length_c 17.164070
_cell_angle_alpha 90.000000
_cell_angle_beta 90.000000
_cell_angle_gamma 90.000000
_cell_volume 3119.510493
_symmetry_space_group_name_H-M "I B A 2"
_symmetry_group_IT_number 45
_symmetry_cell_setting 'orthorhombic'
loop_
_space_group_symop_operation_xyz
x,y,z
-x,-y,z
-x,y,1/2+z
x,-y,1/2+z
1/2+x,1/2+y,1/2+z
1/2-x,1/2-y,1/2+z
1/2-x,1/2+y,z
1/2+x,1/2-y,z
loop_
_atom_site_type_symbol
_atom_site_label
_atom_site_fract_x
_atom_site_fract_y
_atom_site_fract_z
Si Si1 0.013825 0.151863 0.144800
Si Si2 0.289202 0.010612 0.576866
Si Si3 0.061073 0.600281 0.077830
Si Si4 0.938927 0.600281 0.393579
Si Si5 0.830747 0.808712 0.894041
Si Si6 0.669253 0.691288 0.577370
Si Si7 0.710798 0.989388 0.394544
Si Si8 0.513825 0.651863 0.326610
O O1 0.095294 0.195988 0.125207
O O2 0.956264 0.245729 0.100413
O O3 1.000000 0.166003 0.235705
O O4 0.000000 0.000000 0.114753
O O5 0.286041 0.170620 0.594947
O O6 0.290701 0.981370 0.485705
O O7 0.361619 0.944108 0.613787
O O8 0.217672 0.934223 0.609128
O O9 0.000000 0.500000 0.112929
O O10 0.062886 0.585236 0.985705
O O11 0.861619 0.555892 0.357623
O O12 0.000000 0.500000 0.358480
O O13 0.956264 0.754271 0.370996
O O14 0.786041 0.670620 0.876463
O O15 0.904706 0.804012 0.846204
O O16 0.782328 0.934223 0.862282
O O17 0.849535 0.819005 0.985705
O O18 0.500000 0.500000 0.356657
#
# Coordination Sequence:
#
# PCOD8190468 Si02
#       8
#     8   8   8   8   8   8   8   8
#     4  11  25  41  58  82 125 165 210 254 295 357
#     4   9  19  34  58  92 124 150 190 250 307 364
#     4  10  19  37  63  89 117 153 203 257 307 358
#     4  10  19  37  63  89 117 153 203 257 307 358
#     4  10  20  38  62  92 123 155 199 251 307 364
#     4  10  20  38  62  92 123 155 199 251 307 364
#     4   9  19  34  58  92 124 150 190 250 307 364
#     4  11  25  41  58  82 125 165 210 254 295 357
#
# _framework density 20.516038999999999
#
# number of rings (size 3 to 8) (size 9 to 14) (size 15 to 20)
#    0.000    2.000    2.500    0.750    3.500    2.500 
#    0.000    1.250    0.000    0.000    0.000    0.000 
#    0.000    0.000    0.000    0.000    0.000    0.000 
#
# Total GULP energy -396811.953851 kJ/mol
# GULP energy per Si atom -12400.373558 kJ/mol
# Density = 2.046934 g / cm^3
# Si number density = 20.516039 Si / 1000 Ang^3
#
#
#
# Elastic Constant Matrix: (Units=GPa)
#
#
# Indices 1 2 3 4 5 6 
#
# 1 91.5461 35.6635 32.8823 0.0000 0.0000 0.0000
# 2 35.6635 116.5691 20.4049 0.0000 0.0000 0.0000
# 3 32.8823 20.4049 29.3316 0.0000 0.0000 0.0000
# 4 0.0000 0.0000 0.0000 19.9138 0.0000 0.0000
# 5 0.0000 0.0000 0.0000 0.0000 17.6716 0.0000
# 6 0.0000 0.0000 0.0000 0.0000 0.0000 41.8024
#
#
#
# Elastic Compliance Matrix: (Units=1/GPa)
#
#
# Indices 1 2 3 4 5 6 
#
# 1 0.018837 -0.002353 -0.019481 0.000000 0.000000 0.000000
# 2 -0.002353 0.010062 -0.004362 0.000000 0.000000 0.000000
# 3 -0.019481 -0.004362 0.058966 0.000000 0.000000 0.000000
# 4 0.000000 0.000000 0.000000 0.050217 0.000000 0.000000
# 5 0.000000 0.000000 0.000000 0.000000 0.056588 0.000000
# 6 0.000000 0.000000 0.000000 0.000000 0.000000 0.023922
#
#
# Mechanical properties :
#
#
# Convention : Reuss Voigt Hill
#
# Bulk Modulus (GPa) = 28.18942 46.14983 37.16962
# Shear Modulus (GPa) = 17.67982 25.77730 21.72856
#
# Velocity S-wave (km/s) = 2.93875 3.54848 3.25791
# Velocity P-wave (km/s) = 5.02842 6.27155 5.68407
#
# Compressibility (1/GPa) = 0.03547430
#
# Stress axis : x y z
#
# Youngs Moduli (GPa) = 53.08580 99.38336 16.95886
#
# Poissons Ratio (x) = 0.23386 0.33037
# Poissons Ratio (y) = 0.12492 0.07397
# Poissons Ratio (z) = 1.03415 0.43349
#
# Static dielectric constant tensor:
#      x y z
#    x 3.936290 0.000000 0.000000 
#    y 0.000000 3.953190 0.000000 
#    z 0.000000 0.000000 3.238530 
# 
# 
# High freq. dielectric constant tensor:
#      x y z
#    x 1.810650 0.000000 0.000000 
#    y 0.000000 1.818730 0.000000 
#    z 0.000000 0.000000 1.753840 
# 
# From -- ./inp_files/8950.got.cif
#   From: 2010.03.12/outbox.cif.g09.slc.cpg/sg45_5_cif.got.tgz:8950.got - 2010.04.14 02:50:11.
