data_PCOD8190167
_publ_section_title
;
Structure prediction by ZEFSAII (Michael W. Deem and Ramdas Pophale) SiO2 
 PCOD8190167
Probable space group: I M M 2
;
_chemical_formula_sum "Si O2"
_cell_formula_units_Z 64
_cell_length_a 8.576049
_cell_length_b 35.137699
_cell_length_c 10.194541
_cell_angle_alpha 90.000000
_cell_angle_beta 90.000000
_cell_angle_gamma 90.000000
_cell_volume 3072.049780
_symmetry_space_group_name_H-M "I M M 2"
_symmetry_group_IT_number 44
_symmetry_cell_setting 'orthorhombic'
loop_
_space_group_symop_operation_xyz
x,y,z
-x,-y,z
-x,y,z
x,-y,z
1/2+x,1/2+y,1/2+z
1/2-x,1/2-y,1/2+z
1/2-x,1/2+y,1/2+z
1/2+x,1/2-y,1/2+z
loop_
_atom_site_type_symbol
_atom_site_label
_atom_site_fract_x
_atom_site_fract_y
_atom_site_fract_z
Si Si1 0.680735 0.291049 0.132260
Si Si2 0.818965 0.668847 0.376160
Si Si3 0.180260 0.544200 0.127160
Si Si4 0.183278 0.957648 0.111469
Si Si5 0.319643 0.917258 0.357509
Si Si6 0.317678 0.412310 0.361827
Si Si7 0.680606 0.336168 0.872203
Si Si8 0.819707 0.210593 0.115385
O O1 0.500000 0.295779 0.167745
O O2 0.782742 0.302767 0.256933
O O3 0.715066 0.247694 0.093975
O O4 0.726627 0.317130 0.009363
O O5 0.774704 0.626346 0.333649
O O6 0.721519 0.679832 0.504681
O O7 0.000000 0.671644 0.410044
O O8 0.212743 0.500000 0.103076
O O9 0.288641 0.558557 0.244077
O O10 0.000000 0.551992 0.161673
O O11 0.231765 0.566732 0.997805
O O12 0.220359 0.938963 0.249597
O O13 0.000000 0.960774 0.094217
O O14 0.257387 0.000000 0.103164
O O15 0.249406 0.931453 0.994349
O O16 0.500000 0.925304 0.329573
O O17 0.287786 0.872600 0.351533
O O18 0.500000 0.402927 0.372370
O O19 0.500000 0.348498 0.868824
O O20 0.718176 0.306585 0.757249
O O21 0.000000 0.221873 0.103276
#
# Coordination Sequence:
#
# PCOD8190167 Si02
#       8
#     8   8   8   8   8   8   8   8
#     4  11  23  41  65  93 122 156 200 250 304 361
#     4  12  25  41  61  89 124 163 205 247 297 358
#     4  10  22  40  60  86 121 157 195 243 299 360
#     4  10  22  40  61  86 118 155 195 242 297 355
#     4  11  23  38  60  89 119 154 197 243 291 348
#     4  11  23  40  62  89 119 154 201 252 300 354
#     4  10  23  41  61  87 120 156 196 243 297 357
#     4  11  23  41  64  91 123 159 199 248 303 359
#
# _framework density 20.832996000000001
#
# number of rings (size 3 to 8) (size 9 to 14) (size 15 to 20)
#    0.000    1.250    0.000    5.625    0.000   11.500 
#    0.000    0.000    0.000    0.000    0.000    0.000 
#    0.000    0.000    0.000    0.000    0.000    0.000 
#
# Total GULP energy -397073.820895 kJ/mol
# GULP energy per Si atom -12408.556903 kJ/mol
# Density = 2.078558 g / cm^3
# Si number density = 20.832996 Si / 1000 Ang^3
#
#
#
# Elastic Constant Matrix: (Units=GPa)
#
#
# Indices 1 2 3 4 5 6 
#
# 1 42.1096 26.2323 33.0999 -0.0017 0.0000 -0.0002
# 2 26.2323 103.3056 18.3613 -0.0062 -0.0002 -0.0014
# 3 33.0999 18.3613 105.5433 -0.0078 -0.0005 -0.0025
# 4 -0.0017 -0.0062 -0.0078 38.2182 -0.0006 -0.0018
# 5 0.0000 -0.0002 -0.0005 -0.0006 29.3281 -0.0009
# 6 -0.0002 -0.0014 -0.0025 -0.0018 -0.0009 28.4484
#
#
#
# Elastic Compliance Matrix: (Units=1/GPa)
#
#
# Indices 1 2 3 4 5 6 
#
# 1 0.036308 -0.007426 -0.010095 -0.000002 0.000000 -0.000001
# 2 -0.007426 0.011507 0.000327 0.000002 0.000000 0.000001
# 3 -0.010095 0.000327 0.012584 0.000002 0.000000 0.000001
# 4 -0.000002 0.000002 0.000002 0.026166 0.000001 0.000002
# 5 0.000000 0.000000 0.000000 0.000001 0.034097 0.000001
# 6 -0.000001 0.000001 0.000001 0.000002 0.000001 0.035151
#
#
# Mechanical properties :
#
#
# Convention : Reuss Voigt Hill
#
# Bulk Modulus (GPa) = 38.44333 45.14951 41.79642
# Shear Modulus (GPa) = 25.14181 30.74995 27.94588
#
# Velocity S-wave (km/s) = 3.47771 3.84607 3.66652
# Velocity P-wave (km/s) = 5.88380 6.43756 6.16690
#
# Compressibility (1/GPa) = 0.02601231
#
# Stress axis : x y z
#
# Youngs Moduli (GPa) = 27.54179 86.89988 79.46676
#
# Poissons Ratio (x) = 0.64528 0.80222
# Poissons Ratio (y) = 0.20451 -0.02597
# Poissons Ratio (z) = 0.27804 -0.02840
#
# Static dielectric constant tensor:
#      x y z
#    x 3.654870 0.000000 0.000000 
#    y 0.000000 4.005120 0.000000 
#    z 0.000000 0.000000 3.829300 
# 
# 
# High freq. dielectric constant tensor:
#      x y z
#    x 1.810750 0.000000 0.000000 
#    y 0.000000 1.829730 0.000000 
#    z 0.000000 0.000000 1.830170 
# 
# From -- ./inp_files/11536.got.cif
#   From: 2010.03.12/outbox.cif.g09.slc.cpg/sg44_6_cif.got.tgz:11536.got - 2010.04.14 02:36:11.
