data_PCOD8190988
_publ_section_title
;
Structure prediction by ZEFSAII (Michael W. Deem and Ramdas Pophale) SiO2 
 PCOD8190988
Probable space group: I B A 2
;
_chemical_formula_sum "Si O2"
_cell_formula_units_Z 60
_cell_length_a 9.712799
_cell_length_b 23.151991
_cell_length_c 12.222032
_cell_angle_alpha 90.000000
_cell_angle_beta 90.000000
_cell_angle_gamma 90.000000
_cell_volume 2748.376097
_symmetry_space_group_name_H-M "I B A 2"
_symmetry_group_IT_number 45
_symmetry_cell_setting 'orthorhombic'
loop_
_space_group_symop_operation_xyz
x,y,z
-x,-y,z
-x,y,1/2+z
x,-y,1/2+z
1/2+x,1/2+y,1/2+z
1/2-x,1/2-y,1/2+z
1/2-x,1/2+y,z
1/2+x,1/2-y,z
loop_
_atom_site_type_symbol
_atom_site_label
_atom_site_fract_x
_atom_site_fract_y
_atom_site_fract_z
Si Si1 0.097297 0.757664 0.328700
Si Si2 0.500000 0.000000 0.127108
Si Si3 0.428250 0.090920 0.970111
Si Si4 0.224574 0.543584 0.775786
Si Si5 0.788827 0.149509 0.175965
Si Si6 0.301026 0.915759 0.833987
Si Si7 0.167440 0.812089 0.935791
Si Si8 0.463268 0.842527 0.667051
O O1 0.166575 0.814166 0.280841
O O2 0.193425 0.724740 0.416113
O O3 0.071636 0.718291 0.221685
O O4 0.959008 0.774480 0.392175
O O5 0.399833 0.038886 0.053611
O O6 0.587009 0.041041 0.204925
O O7 0.418534 0.151865 0.037911
O O8 0.312730 0.085717 0.877989
O O9 0.585310 0.081779 0.929493
O O10 0.333214 0.582142 0.704191
O O11 0.268991 0.478857 0.811404
O O12 0.625175 0.149375 0.172505
O O13 0.854458 0.173274 0.063889
O O14 0.178492 0.872665 0.870087
O O15 0.377351 0.893134 0.726435
#
# Coordination Sequence:
#
# PCOD8190988 Si02
#       8
#     8   4   8   8   8   8   8   8
#     4  11  27  47  65 100 132 177 229 286 331 416
#     4  12  16  28  52  94 142 168 210 270 330 382
#     4  12  18  31  60  95 142 175 214 275 341 384
#     4  12  21  34  58 102 141 177 223 281 325 410
#     4  12  24  41  69  96 134 175 223 280 340 401
#     4  11  20  36  61 100 140 177 224 274 333 404
#     4  11  26  44  74  96 135 177 223 279 351 394
#     4  11  22  37  61  99 135 177 223 281 337 395
#
# _framework density 21.831074000000001
#
# number of rings (size 3 to 8) (size 9 to 14) (size 15 to 20)
#    0.000    0.533    9.333    0.000    1.867    1.067 
#    0.000    2.000    0.000    1.600    0.000    0.000 
#    0.000    0.000    0.000    0.000    0.000    0.000 
#
# Total GULP energy -371670.168047 kJ/mol
# GULP energy per Si atom -12389.005602 kJ/mol
# Density = 2.178139 g / cm^3
# Si number density = 21.831074 Si / 1000 Ang^3
#
#
#
# Elastic Constant Matrix: (Units=GPa)
#
#
# Indices 1 2 3 4 5 6 
#
# 1 47.0223 40.3832 27.3210 0.0001 0.0000 0.0000
# 2 40.3832 149.2799 52.5827 0.0000 0.0000 0.0000
# 3 27.3210 52.5827 113.4580 -0.0005 0.0001 0.0000
# 4 0.0001 0.0000 -0.0005 40.2775 0.0000 0.0000
# 5 0.0000 0.0000 0.0001 0.0000 16.4067 0.0000
# 6 0.0000 0.0000 0.0000 0.0000 0.0000 24.8169
#
#
#
# Elastic Compliance Matrix: (Units=1/GPa)
#
#
# Indices 1 2 3 4 5 6 
#
# 1 0.029162 -0.006472 -0.004023 0.000000 0.000000 0.000000
# 2 -0.006472 0.009442 -0.002818 0.000000 0.000000 0.000000
# 3 -0.004023 -0.002818 0.011088 0.000000 0.000000 0.000000
# 4 0.000000 0.000000 0.000000 0.024828 0.000000 0.000000
# 5 0.000000 0.000000 0.000000 0.000000 0.060951 0.000000
# 6 0.000000 0.000000 0.000000 0.000000 0.000000 0.040295
#
#
# Mechanical properties :
#
#
# Convention : Reuss Voigt Hill
#
# Bulk Modulus (GPa) = 43.35036 61.14822 52.24929
# Shear Modulus (GPa) = 23.80051 28.93179 26.36615
#
# Velocity S-wave (km/s) = 3.30542 3.64436 3.47902
# Velocity P-wave (km/s) = 5.87095 6.76602 6.33431
#
# Compressibility (1/GPa) = 0.02306786
#
# Stress axis : x y z
#
# Youngs Moduli (GPa) = 34.29122 105.90924 90.18483
#
# Poissons Ratio (x) = 0.68543 0.36280
# Poissons Ratio (y) = 0.22193 0.25410
# Poissons Ratio (z) = 0.13795 0.29840
#
# Static dielectric constant tensor:
#      x y z
#    x 3.430750 -0.000010 0.000000 
#    y -0.000010 4.786480 0.000000 
#    z 0.000000 0.000000 4.293270 
# 
# 
# High freq. dielectric constant tensor:
#      x y z
#    x 1.791040 0.000000 0.000000 
#    y 0.000000 1.881750 0.000000 
#    z 0.000000 0.000000 1.877020 
# 
# From -- ./inp_files/3357.got.cif
#   From: 2010.03.12/outbox.cif.g09.slc.cpg/sg45_2_cif.got.tgz:3357.got - 2010.04.14 02:50:11.
