data_PCOD8190681
_publ_section_title
;
Structure prediction by ZEFSAII (Michael W. Deem and Ramdas Pophale) SiO2 
 PCOD8190681
Probable space group: I B A 2
;
_chemical_formula_sum "Si O2"
_cell_formula_units_Z 56
_cell_length_a 22.716992
_cell_length_b 5.554889
_cell_length_c 20.473026
_cell_angle_alpha 90.000000
_cell_angle_beta 90.000000
_cell_angle_gamma 90.000000
_cell_volume 2583.498705
_symmetry_space_group_name_H-M "I B A 2"
_symmetry_group_IT_number 45
_symmetry_cell_setting 'orthorhombic'
loop_
_space_group_symop_operation_xyz
x,y,z
-x,-y,z
-x,y,1/2+z
x,-y,1/2+z
1/2+x,1/2+y,1/2+z
1/2-x,1/2-y,1/2+z
1/2-x,1/2+y,z
1/2+x,1/2-y,z
loop_
_atom_site_type_symbol
_atom_site_label
_atom_site_fract_x
_atom_site_fract_y
_atom_site_fract_z
Si Si1 0.061666 0.630648 0.594780
Si Si2 0.225118 0.196618 0.710636
Si Si3 0.598842 0.832108 0.210491
Si Si4 0.500000 0.500000 0.370795
Si Si5 0.500000 0.500000 0.174462
Si Si6 0.061582 0.629060 0.451159
Si Si7 0.729471 0.275563 0.354373
Si Si8 0.899011 0.670369 0.335669
O O1 0.102770 0.480665 0.643159
O O2 0.091231 0.661838 0.522912
O O3 0.000000 0.500000 0.586920
O O4 0.049897 0.887791 0.627797
O O5 0.245638 0.454802 0.678497
O O6 0.154873 0.157276 0.705991
O O7 0.239353 0.217277 0.786383
O O8 0.536791 0.689141 0.218634
O O9 0.604205 0.002836 0.272721
O O10 0.450719 0.383669 0.417370
O O11 0.539919 0.320519 0.326953
O O12 0.102655 0.478281 0.403070
O O13 0.000000 0.500000 0.460152
O O14 0.757318 0.513875 0.390567
O O15 0.660217 0.327667 0.341278
#
# Coordination Sequence:
#
# PCOD8190681 Si02
#       8
#     8   8   8   4   4   8   8   8
#     4   9  20  38  58  86 122 168 214 256 321 398
#     4  10  21  39  63  90 122 170 220 265 315 387
#     4  11  23  38  62  94 130 162 213 274 330 390
#     4  10  23  37  60  88 133 171 206 268 339 397
#     4  10  23  37  60  88 133 171 206 268 339 397
#     4   9  20  38  58  86 122 168 214 256 321 398
#     4  10  21  39  63  90 122 170 220 265 315 387
#     4  11  23  38  62  94 130 162 213 274 330 390
#
# _framework density 21.676031999999999
#
# number of rings (size 3 to 8) (size 9 to 14) (size 15 to 20)
#    0.000    2.000    2.857    0.429    4.000    8.571 
#    0.000    0.000    0.000    1.714    0.000    0.000 
#    0.000    0.000    0.000    0.000    0.000    0.000 
#
# Total GULP energy -346884.409031 kJ/mol
# GULP energy per Si atom -12388.728894 kJ/mol
# Density = 2.162670 g / cm^3
# Si number density = 21.676032 Si / 1000 Ang^3
#
#
#
# Elastic Constant Matrix: (Units=GPa)
#
#
# Indices 1 2 3 4 5 6 
#
# 1 98.2010 30.7493 38.1079 0.0000 0.0000 0.0000
# 2 30.7493 118.6730 3.2967 0.0000 0.0000 0.0000
# 3 38.1079 3.2967 69.0576 0.0000 0.0000 0.0000
# 4 0.0000 0.0000 0.0000 17.8554 0.0000 0.0000
# 5 0.0000 0.0000 0.0000 0.0000 7.7810 0.0000
# 6 0.0000 0.0000 0.0000 0.0000 0.0000 36.2868
#
#
#
# Elastic Compliance Matrix: (Units=1/GPa)
#
#
# Indices 1 2 3 4 5 6 
#
# 1 0.014263 -0.003482 -0.007705 0.000000 0.000000 0.000000
# 2 -0.003482 0.009288 0.001478 0.000000 0.000000 0.000000
# 3 -0.007705 0.001478 0.018662 0.000000 0.000000 0.000000
# 4 0.000000 0.000000 0.000000 0.056006 0.000000 0.000000
# 5 0.000000 0.000000 0.000000 0.000000 0.128518 0.000000
# 6 0.000000 0.000000 0.000000 0.000000 0.000000 0.027558
#
#
# Mechanical properties :
#
#
# Convention : Reuss Voigt Hill
#
# Bulk Modulus (GPa) = 43.86782 47.80438 45.83610
# Shear Modulus (GPa) = 17.77401 26.63650 22.20525
#
# Velocity S-wave (km/s) = 2.86664 3.50929 3.20412
# Velocity P-wave (km/s) = 5.58916 6.20662 5.90596
#
# Compressibility (1/GPa) = 0.02279575
#
# Stress axis : x y z
#
# Youngs Moduli (GPa) = 70.11008 107.67036 53.58553
#
# Poissons Ratio (x) = 0.37488 0.41286
# Poissons Ratio (y) = 0.24410 -0.07920
# Poissons Ratio (z) = 0.54017 -0.15913
#
# Static dielectric constant tensor:
#      x y z
#    x 3.794010 0.000000 0.000000 
#    y 0.000000 4.696950 0.000000 
#    z 0.000000 0.000000 4.075500 
# 
# 
# High freq. dielectric constant tensor:
#      x y z
#    x 1.835590 0.000000 0.000000 
#    y 0.000000 1.866870 0.000000 
#    z 0.000000 0.000000 1.811160 
# 
# From -- ./inp_files/9338.got.cif
#   From: 2010.03.12/outbox.cif.g09.slc.cpg/sg45_5_cif.got.tgz:9338.got - 2010.04.14 02:50:11.
