data_PCOD8190892
_publ_section_title
;
Structure prediction by ZEFSAII (Michael W. Deem and Ramdas Pophale) SiO2 
 PCOD8190892
Probable space group: I B A 2
;
_chemical_formula_sum "Si O2"
_cell_formula_units_Z 48
_cell_length_a 8.604333
_cell_length_b 23.029007
_cell_length_c 11.451243
_cell_angle_alpha 90.000000
_cell_angle_beta 90.000000
_cell_angle_gamma 90.000000
_cell_volume 2269.055153
_symmetry_space_group_name_H-M "I B A 2"
_symmetry_group_IT_number 45
_symmetry_cell_setting 'orthorhombic'
loop_
_space_group_symop_operation_xyz
x,y,z
-x,-y,z
-x,y,1/2+z
x,-y,1/2+z
1/2+x,1/2+y,1/2+z
1/2-x,1/2-y,1/2+z
1/2-x,1/2+y,z
1/2+x,1/2-y,z
loop_
_atom_site_type_symbol
_atom_site_label
_atom_site_fract_x
_atom_site_fract_y
_atom_site_fract_z
Si Si1 0.293865 0.388556 0.496530
Si Si2 0.620694 0.365643 0.617384
Si Si3 0.738434 0.675131 0.891447
Si Si4 0.707903 0.050138 0.275196
Si Si5 0.364497 0.081235 0.225319
Si Si6 0.895534 0.791819 0.839631
O O1 0.461122 0.385889 0.557297
O O2 0.272932 0.442720 0.407224
O O3 0.158739 0.395684 0.592960
O O4 0.275265 0.330088 0.417880
O O5 0.753980 0.347462 0.524375
O O6 0.670652 0.422555 0.686322
O O7 0.605855 0.310668 0.704214
O O8 0.759211 0.620781 0.807401
O O9 0.859756 0.724175 0.854182
O O10 0.567574 0.700985 0.885997
O O11 0.544082 0.083888 0.261645
O O12 0.697865 0.983512 0.240651
#
# Coordination Sequence:
#
# PCOD8190892 Si02
#       6
#     8   8   8   8   8   8
#     4  10  23  47  65  97 143 172 229 287 335 412
#     4  10  23  46  66  99 136 177 231 281 342 408
#     4  11  25  41  68  96 134 178 224 283 338 401
#     4  10  26  44  70 102 134 183 229 276 354 413
#     4  11  25  44  69 100 137 177 230 285 339 413
#     4  10  24  43  64 101 133 179 230 278 344 406
#
# _framework density 21.15418
#
# number of rings (size 3 to 8) (size 9 to 14) (size 15 to 20)
#    0.000    1.667    1.667    0.000   11.667    2.000 
#    3.000    0.000    0.000    0.000    0.000    0.000 
#    0.000    0.000    0.000    0.000    0.000    0.000 
#
# Total GULP energy -297580.431838 kJ/mol
# GULP energy per Si atom -12399.184660 kJ/mol
# Density = 2.110603 g / cm^3
# Si number density = 21.154180 Si / 1000 Ang^3
#
#
#
# Elastic Constant Matrix: (Units=GPa)
#
#
# Indices 1 2 3 4 5 6 
#
# 1 77.5893 39.4141 43.6069 0.0000 0.0000 0.0000
# 2 39.4141 71.3945 38.0142 0.0002 0.0000 0.0000
# 3 43.6069 38.0142 164.8108 0.0009 -0.0001 -0.0003
# 4 0.0000 0.0002 0.0009 18.7527 -0.0001 -0.0001
# 5 0.0000 0.0000 -0.0001 -0.0001 35.1007 0.0001
# 6 0.0000 0.0000 -0.0003 -0.0001 0.0001 25.9865
#
#
#
# Elastic Compliance Matrix: (Units=1/GPa)
#
#
# Indices 1 2 3 4 5 6 
#
# 1 0.019124 -0.008964 -0.002992 0.000000 0.000000 0.000000
# 2 -0.008964 0.020170 -0.002280 0.000000 0.000000 0.000000
# 3 -0.002992 -0.002280 0.007385 0.000000 0.000000 0.000000
# 4 0.000000 0.000000 0.000000 0.053326 0.000000 0.000000
# 5 0.000000 0.000000 0.000000 0.000000 0.028489 0.000000
# 6 0.000000 0.000000 0.000000 0.000000 0.000000 0.038482
#
#
# Mechanical properties :
#
#
# Convention : Reuss Voigt Hill
#
# Bulk Modulus (GPa) = 54.93022 61.76278 58.34650
# Shear Modulus (GPa) = 24.81172 28.81860 26.81516
#
# Velocity S-wave (km/s) = 3.42848 3.69496 3.56421
# Velocity P-wave (km/s) = 6.45721 6.88937 6.67679
#
# Compressibility (1/GPa) = 0.01820491
#
# Stress axis : x y z
#
# Youngs Moduli (GPa) = 52.29080 49.57935 135.40482
#
# Poissons Ratio (x) = 0.44444 0.40517
# Poissons Ratio (y) = 0.46875 0.30877
# Poissons Ratio (z) = 0.15647 0.11306
#
# Static dielectric constant tensor:
#      x y z
#    x 3.781130 0.000000 0.000000 
#    y 0.000000 3.799400 0.000000 
#    z 0.000000 0.000000 4.179690 
# 
# 
# High freq. dielectric constant tensor:
#      x y z
#    x 1.825120 0.000000 0.000000 
#    y 0.000000 1.826220 0.000000 
#    z 0.000000 0.000000 1.848470 
# 
# From -- ./inp_files/3257.got.cif
#   From: 2010.03.12/outbox.cif.g09.slc.cpg/sg45_2_cif.got.tgz:3257.got - 2010.04.14 02:50:11.
