data_PCOD8190935
_publ_section_title
;
Structure prediction by ZEFSAII (Michael W. Deem and Ramdas Pophale) SiO2 
 PCOD8190935
Probable space group: I B A 2
;
_chemical_formula_sum "Si O2"
_cell_formula_units_Z 56
_cell_length_a 12.535288
_cell_length_b 23.140872
_cell_length_c 8.723393
_cell_angle_alpha 90.000000
_cell_angle_beta 90.000000
_cell_angle_gamma 90.000000
_cell_volume 2530.459990
_symmetry_space_group_name_H-M "I B A 2"
_symmetry_group_IT_number 45
_symmetry_cell_setting 'orthorhombic'
loop_
_space_group_symop_operation_xyz
x,y,z
-x,-y,z
-x,y,1/2+z
x,-y,1/2+z
1/2+x,1/2+y,1/2+z
1/2-x,1/2-y,1/2+z
1/2-x,1/2+y,z
1/2+x,1/2-y,z
loop_
_atom_site_type_symbol
_atom_site_label
_atom_site_fract_x
_atom_site_fract_y
_atom_site_fract_z
Si Si1 0.929654 0.445147 0.366810
Si Si2 0.627694 0.650853 0.493329
Si Si3 0.611628 0.475325 0.101652
Si Si4 0.905509 0.822778 0.342977
Si Si5 0.697838 0.438252 0.400594
Si Si6 0.858595 0.305563 0.905756
Si Si7 0.477665 0.135635 0.628038
O O1 0.808443 0.457696 0.321449
O O2 0.911949 0.393892 0.491396
O O3 0.000000 0.500000 0.423665
O O4 0.982639 0.420480 0.216290
O O5 0.639380 0.581957 0.504844
O O6 0.606899 0.678217 0.659862
O O7 0.529606 0.667164 0.382797
O O8 0.736127 0.675278 0.419490
O O9 0.500000 0.500000 0.047736
O O10 0.609896 0.462438 0.281603
O O11 0.693172 0.527235 0.060418
O O12 0.827398 0.870395 0.420796
O O13 0.864074 0.763171 0.412922
O O14 0.906062 0.325698 0.741261
O O15 0.925109 0.328665 0.052307
#
# Coordination Sequence:
#
# PCOD8190935 Si02
#       7
#     8   8   8   8   8   8   8
#     4  11  25  42  68 100 143 183 238 292 351 427
#     4  11  26  44  72 104 141 186 238 294 364 425
#     4  11  23  43  67  99 136 174 227 292 349 429
#     4  11  25  46  69 105 138 186 241 293 357 435
#     4  11  26  40  68  98 136 181 230 287 355 423
#     4  11  25  47  75 100 148 188 240 300 358 430
#     4  10  24  45  66 104 138 186 239 289 353 431
#
# _framework density 22.130362999999999
#
# number of rings (size 3 to 8) (size 9 to 14) (size 15 to 20)
#    0.000    1.143    1.429    3.429   10.000    6.857 
#    0.000    0.000    0.000    0.000    0.000    0.000 
#    0.000    0.000    0.000    0.000    0.000    0.000 
#
# Total GULP energy -347091.850131 kJ/mol
# GULP energy per Si atom -12396.137505 kJ/mol
# Density = 2.207999 g / cm^3
# Si number density = 22.130363 Si / 1000 Ang^3
#
#
#
# Elastic Constant Matrix: (Units=GPa)
#
#
# Indices 1 2 3 4 5 6 
#
# 1 141.8831 55.6281 27.1481 -0.0009 -0.0001 0.0000
# 2 55.6281 154.9147 37.4831 -0.0002 -0.0001 0.0000
# 3 27.1481 37.4831 80.0526 -0.0008 -0.0002 -0.0004
# 4 -0.0009 -0.0002 -0.0008 30.3580 0.0001 -0.0001
# 5 -0.0001 -0.0001 -0.0002 0.0001 28.0297 0.0000
# 6 0.0000 0.0000 -0.0004 -0.0001 0.0000 31.7032
#
#
#
# Elastic Compliance Matrix: (Units=1/GPa)
#
#
# Indices 1 2 3 4 5 6 
#
# 1 0.008384 -0.002620 -0.001617 0.000000 0.000000 0.000000
# 2 -0.002620 0.008098 -0.002904 0.000000 0.000000 0.000000
# 3 -0.001617 -0.002904 0.014400 0.000000 0.000000 0.000000
# 4 0.000000 0.000000 0.000000 0.032940 0.000000 0.000000
# 5 0.000000 0.000000 0.000000 0.000000 0.035676 0.000000
# 6 0.000000 0.000000 0.000000 0.000000 0.000000 0.031543
#
#
# Mechanical properties :
#
#
# Convention : Reuss Voigt Hill
#
# Bulk Modulus (GPa) = 60.23161 68.59655 64.41408
# Shear Modulus (GPa) = 33.14422 35.12425 34.13424
#
# Velocity S-wave (km/s) = 3.87419 3.98823 3.93162
# Velocity P-wave (km/s) = 6.87665 7.22993 7.05550
#
# Compressibility (1/GPa) = 0.01660258
#
# Stress axis : x y z
#
# Youngs Moduli (GPa) = 119.26804 123.48186 69.44620
#
# Poissons Ratio (x) = 0.32347 0.11228
# Poissons Ratio (y) = 0.31243 0.20164
# Poissons Ratio (z) = 0.19284 0.35853
#
# Static dielectric constant tensor:
#      x y z
#    x 3.852750 0.000000 0.000000 
#    y 0.000000 4.187930 0.000000 
#    z 0.000000 0.000000 3.884270 
# 
# 
# High freq. dielectric constant tensor:
#      x y z
#    x 1.873560 0.000000 0.000000 
#    y 0.000000 1.881620 0.000000 
#    z 0.000000 0.000000 1.873830 
# 
# From -- ./inp_files/1815.got.cif
#   From: 2010.03.12/outbox.cif.g09.slc.cpg/sg45_1_cif.got.tgz:1815.got - 2010.04.14 02:50:11.
