data_PCOD8190386
_publ_section_title
;
Structure prediction by ZEFSAII (Michael W. Deem and Ramdas Pophale) SiO2 
 PCOD8190386
Probable space group: I B A 2
;
_chemical_formula_sum "Si O2"
_cell_formula_units_Z 64
_cell_length_a 11.926952
_cell_length_b 30.706596
_cell_length_c 8.730142
_cell_angle_alpha 90.000000
_cell_angle_beta 90.000000
_cell_angle_gamma 90.000000
_cell_volume 3197.293129
_symmetry_space_group_name_H-M "I B A 2"
_symmetry_group_IT_number 45
_symmetry_cell_setting 'orthorhombic'
loop_
_space_group_symop_operation_xyz
x,y,z
-x,-y,z
-x,y,1/2+z
x,-y,1/2+z
1/2+x,1/2+y,1/2+z
1/2-x,1/2-y,1/2+z
1/2-x,1/2+y,z
1/2+x,1/2-y,z
loop_
_atom_site_type_symbol
_atom_site_label
_atom_site_fract_x
_atom_site_fract_y
_atom_site_fract_z
Si Si1 0.150172 0.281524 0.633370
Si Si2 0.946375 0.703767 0.310732
Si Si3 0.387252 0.700946 0.222180
Si Si4 0.195067 0.441125 0.448176
Si Si5 0.114278 0.183713 0.569830
Si Si6 0.668626 0.985135 0.224494
Si Si7 0.198309 0.374271 0.202059
Si Si8 0.065814 0.445265 0.009218
O O1 0.077262 0.297625 0.490300
O O2 0.269203 0.306085 0.635083
O O3 0.166125 0.229306 0.628729
O O4 0.081110 0.296051 0.784891
O O5 0.900142 0.747418 0.234083
O O6 0.891045 0.663336 0.227358
O O7 0.485441 0.679212 0.123289
O O8 0.383951 0.679073 0.387814
O O9 0.250026 0.455058 0.613461
O O10 0.230285 0.479620 0.330024
O O11 0.232241 0.396808 0.365019
O O12 0.064705 0.434289 0.495609
O O13 0.185780 0.144042 0.636500
O O14 0.598668 0.952586 0.331811
O O15 0.587741 0.010781 0.105395
O O16 0.139633 0.406843 0.082760
#
# Coordination Sequence:
#
# PCOD8190386 Si02
#       8
#     8   8   8   8   8   8   8   8
#     4  10  22  39  63  81 111 161 207 256 316 377
#     4  10  23  37  57  86 118 151 208 255 315 373
#     4  10  22  41  65  78 107 166 214 258 312 369
#     4  10  18  30  52  79 116 162 190 234 294 358
#     4  10  23  40  59  84 112 151 217 262 310 369
#     4   9  16  32  52  76 113 163 205 218 271 396
#     4  11  23  35  49  84 127 150 194 267 305 352
#     4  10  18  30  52  78 118 161 195 232 300 356
#
# _framework density 20.016933000000002
#
# number of rings (size 3 to 8) (size 9 to 14) (size 15 to 20)
#    0.000    2.000    1.250    3.750    5.250    2.000 
#    2.250    0.000    0.000    0.000    0.000    0.000 
#    0.000   48.000    0.000   16.000    0.000    0.000 
#
# Total GULP energy -396476.487881 kJ/mol
# GULP energy per Si atom -12389.890246 kJ/mol
# Density = 1.997137 g / cm^3
# Si number density = 20.016933 Si / 1000 Ang^3
#
#
#
# Elastic Constant Matrix: (Units=GPa)
#
#
# Indices 1 2 3 4 5 6 
#
# 1 98.6473 30.4418 38.9981 -0.0025 0.0004 -0.0002
# 2 30.4418 76.9345 40.8491 0.0036 -0.0012 -0.0020
# 3 38.9981 40.8491 119.1263 0.0203 -0.0167 -0.0037
# 4 -0.0025 0.0036 0.0203 32.5653 -0.0104 -0.0030
# 5 0.0004 -0.0012 -0.0167 -0.0104 22.2957 0.0025
# 6 -0.0002 -0.0020 -0.0037 -0.0030 0.0025 20.0398
#
#
#
# Elastic Compliance Matrix: (Units=1/GPa)
#
#
# Indices 1 2 3 4 5 6 
#
# 1 0.012308 -0.003338 -0.002884 0.000003 -0.000003 -0.000001
# 2 -0.003338 0.016797 -0.004667 0.000001 -0.000003 0.000001
# 3 -0.002884 -0.004667 0.010939 -0.000007 0.000008 0.000002
# 4 0.000003 0.000001 -0.000007 0.030708 0.000014 0.000005
# 5 -0.000003 -0.000003 0.000008 0.000014 0.044852 -0.000006
# 6 -0.000001 0.000001 0.000002 0.000005 -0.000006 0.049901
#
#
# Mechanical properties :
#
#
# Convention : Reuss Voigt Hill
#
# Bulk Modulus (GPa) = 54.75186 57.25401 56.00294
# Shear Modulus (GPa) = 25.85702 27.27475 26.56589
#
# Velocity S-wave (km/s) = 3.59800 3.69532 3.64699
# Velocity P-wave (km/s) = 6.68378 6.84632 6.76554
#
# Compressibility (1/GPa) = 0.01826422
#
# Stress axis : x y z
#
# Youngs Moduli (GPa) = 81.25052 59.53446 91.41609
#
# Poissons Ratio (x) = 0.19875 0.26367
# Poissons Ratio (y) = 0.27125 0.42663
# Poissons Ratio (z) = 0.23435 0.27784
#
# Static dielectric constant tensor:
#      x y z
#    x 3.293570 0.000000 0.000000 
#    y 0.000000 3.716300 -0.000010 
#    z 0.000000 -0.000010 4.080340 
# 
# 
# High freq. dielectric constant tensor:
#      x y z
#    x 1.732540 0.000000 0.000000 
#    y 0.000000 1.768820 0.000000 
#    z 0.000000 0.000000 1.803090 
# 
# From -- ./inp_files/1516.got.cif
#   From: 2010.03.12/outbox.cif.g09.slc.cpg/sg45_1_cif.got.tgz:1516.got - 2010.04.14 02:50:11.
