data_PCOD8190793
_publ_section_title
;
Structure prediction by ZEFSAII (Michael W. Deem and Ramdas Pophale) SiO2 
 PCOD8190793
Probable space group: I B A 2
;
_chemical_formula_sum "Si O2"
_cell_formula_units_Z 40
_cell_length_a 14.944450
_cell_length_b 10.183555
_cell_length_c 11.651002
_cell_angle_alpha 90.000000
_cell_angle_beta 90.000000
_cell_angle_gamma 90.000000
_cell_volume 1773.138364
_symmetry_space_group_name_H-M "I B A 2"
_symmetry_group_IT_number 45
_symmetry_cell_setting 'orthorhombic'
loop_
_space_group_symop_operation_xyz
x,y,z
-x,-y,z
-x,y,1/2+z
x,-y,1/2+z
1/2+x,1/2+y,1/2+z
1/2-x,1/2-y,1/2+z
1/2-x,1/2+y,z
1/2+x,1/2-y,z
loop_
_atom_site_type_symbol
_atom_site_label
_atom_site_fract_x
_atom_site_fract_y
_atom_site_fract_z
Si Si1 0.000000 0.000000 0.649010
Si Si2 0.933009 0.232370 0.515069
Si Si3 0.746454 0.284310 0.572224
Si Si4 0.150356 0.120970 0.784512
Si Si5 0.197615 0.538884 0.932277
Si Si6 0.500000 0.000000 0.454204
O O1 0.084916 0.013069 0.730932
O O2 0.998685 0.122822 0.563269
O O3 0.846399 0.231493 0.597656
O O4 0.899785 0.204496 0.383969
O O5 0.987969 0.367865 0.528547
O O6 0.686915 0.281969 0.686504
O O7 0.762006 0.429515 0.518418
O O8 0.697347 0.184317 0.486355
O O9 0.235746 0.037732 0.825343
O O10 0.095599 0.511003 0.887009
#
# Coordination Sequence:
#
# PCOD8190793 Si02
#       6
#     4   8   8   8   8   4
#     4  12  24  42  68  94 128 174 224 272 324 394
#     4  10  24  42  64  98 130 170 224 269 323 399
#     4  10  22  41  64  90 128 168 211 266 323 388
#     4  11  23  40  67  95 128 173 215 269 332 382
#     4  10  23  42  64  94 128 166 218 265 318 394
#     4  10  22  42  64  90 132 166 202 274 326 372
#
# _framework density 22.558869999999999
#
# number of rings (size 3 to 8) (size 9 to 14) (size 15 to 20)
#    0.000    1.600    0.000    4.200    0.000   12.800 
#    0.000    8.000    0.000    0.000    0.000    0.000 
#    0.000    0.000    0.000    0.000    0.000    0.000 
#
# Total GULP energy -247788.188859 kJ/mol
# GULP energy per Si atom -12389.409443 kJ/mol
# Density = 2.250753 g / cm^3
# Si number density = 22.558870 Si / 1000 Ang^3
#
#
#
# Elastic Constant Matrix: (Units=GPa)
#
#
# Indices 1 2 3 4 5 6 
#
# 1 155.4798 63.3603 66.2924 0.0000 0.0000 0.0000
# 2 63.3603 140.4943 44.8898 0.0000 0.0000 0.0000
# 3 66.2924 44.8898 103.5416 0.0000 0.0000 0.0000
# 4 0.0000 0.0000 0.0000 9.3048 0.0000 0.0000
# 5 0.0000 0.0000 0.0000 0.0000 37.4777 0.0000
# 6 0.0000 0.0000 0.0000 0.0000 0.0000 42.2926
#
#
#
# Elastic Compliance Matrix: (Units=1/GPa)
#
#
# Indices 1 2 3 4 5 6 
#
# 1 0.009696 -0.002773 -0.005006 0.000000 0.000000 0.000000
# 2 -0.002773 0.009056 -0.002150 0.000000 0.000000 0.000000
# 3 -0.005006 -0.002150 0.013795 0.000000 0.000000 0.000000
# 4 0.000000 0.000000 0.000000 0.107472 0.000000 0.000000
# 5 0.000000 0.000000 0.000000 0.000000 0.026683 0.000000
# 6 0.000000 0.000000 0.000000 0.000000 0.000000 0.023645
#
#
# Mechanical properties :
#
#
# Convention : Reuss Voigt Hill
#
# Bulk Modulus (GPa) = 78.81366 83.17784 80.99575
# Shear Modulus (GPa) = 23.31725 32.81322 28.06523
#
# Velocity S-wave (km/s) = 3.21848 3.81801 3.53099
# Velocity P-wave (km/s) = 6.98743 7.50918 7.25300
#
# Compressibility (1/GPa) = 0.01268816
#
# Stress axis : x y z
#
# Youngs Moduli (GPa) = 103.13375 110.42964 72.49011
#
# Poissons Ratio (x) = 0.30627 0.36285
# Poissons Ratio (y) = 0.28604 0.15587
# Poissons Ratio (z) = 0.51624 0.23745
#
# Static dielectric constant tensor:
#      x y z
#    x 4.415990 0.000000 0.000000 
#    y 0.000000 4.175790 0.000000 
#    z 0.000000 0.000000 3.749070 
# 
# 
# High freq. dielectric constant tensor:
#      x y z
#    x 1.912450 0.000000 0.000000 
#    y 0.000000 1.902770 0.000000 
#    z 0.000000 0.000000 1.852130 
# 
# From -- ./inp_files/3168.got.cif
#   From: 2010.03.12/outbox.cif.g09.slc.cpg/sg45_2_cif.got.tgz:3168.got - 2010.04.14 02:50:11.
