data_PCOD8190926
_publ_section_title
;
Structure prediction by ZEFSAII (Michael W. Deem and Ramdas Pophale) SiO2 
 PCOD8190926
Probable space group: I B A 2
;
_chemical_formula_sum "Si O2"
_cell_formula_units_Z 48
_cell_length_a 11.545732
_cell_length_b 21.544410
_cell_length_c 8.667411
_cell_angle_alpha 90.000000
_cell_angle_beta 90.000000
_cell_angle_gamma 90.000000
_cell_volume 2155.983678
_symmetry_space_group_name_H-M "I B A 2"
_symmetry_group_IT_number 45
_symmetry_cell_setting 'orthorhombic'
loop_
_space_group_symop_operation_xyz
x,y,z
-x,-y,z
-x,y,1/2+z
x,-y,1/2+z
1/2+x,1/2+y,1/2+z
1/2-x,1/2-y,1/2+z
1/2-x,1/2+y,z
1/2+x,1/2-y,z
loop_
_atom_site_type_symbol
_atom_site_label
_atom_site_fract_x
_atom_site_fract_y
_atom_site_fract_z
Si Si1 0.425541 0.158106 0.343750
Si Si2 0.725291 0.418174 0.458142
Si Si3 0.658368 0.140255 0.497177
Si Si4 0.876610 0.200900 0.410052
Si Si5 0.818997 0.958498 0.123964
Si Si6 0.523290 0.630422 0.123182
O O1 0.343735 0.121154 0.464926
O O2 0.554765 0.132760 0.374843
O O3 0.393467 0.149663 0.166440
O O4 0.417028 0.230782 0.372490
O O5 0.703647 0.469379 0.590336
O O6 0.727469 0.450898 0.294844
O O7 0.619259 0.371095 0.486555
O O8 0.737639 0.197550 0.436402
O O9 0.742209 0.080273 0.500892
O O10 0.917464 0.149963 0.283544
O O11 0.932577 0.183525 0.575067
O O12 0.953495 0.935672 0.126783
#
# Coordination Sequence:
#
# PCOD8190926 Si02
#       6
#     8   8   8   8   8   8
#     4  11  26  44  69 100 143 191 243 292 368 435
#     4  11  25  42  68 101 137 185 232 296 359 430
#     4  10  26  45  65 101 138 189 241 293 360 436
#     4  11  25  42  71 101 146 182 242 301 365 438
#     4  10  24  44  66 101 140 177 239 290 362 432
#     4  11  23  43  68 104 138 187 234 303 364 424
#
# _framework density 22.263618999999998
#
# number of rings (size 3 to 8) (size 9 to 14) (size 15 to 20)
#    0.000    1.333    1.667    1.500   11.667    2.000 
#    0.000    3.333    0.000    0.000    0.000    0.000 
#    0.000    0.000    0.000    0.000    0.000    0.000 
#
# Total GULP energy -297491.618445 kJ/mol
# GULP energy per Si atom -12395.484102 kJ/mol
# Density = 2.221295 g / cm^3
# Si number density = 22.263619 Si / 1000 Ang^3
#
#
#
# Elastic Constant Matrix: (Units=GPa)
#
#
# Indices 1 2 3 4 5 6 
#
# 1 158.8773 29.2393 42.2937 -0.0005 0.0001 0.0000
# 2 29.2393 71.8171 27.4694 -0.0005 -0.0001 0.0000
# 3 42.2937 27.4694 76.6851 -0.0009 0.0000 0.0003
# 4 -0.0005 -0.0005 -0.0009 28.2175 0.0003 0.0001
# 5 0.0001 -0.0001 0.0000 0.0003 44.3556 0.0000
# 6 0.0000 0.0000 0.0003 0.0001 0.0000 25.1392
#
#
#
# Elastic Compliance Matrix: (Units=1/GPa)
#
#
# Indices 1 2 3 4 5 6 
#
# 1 0.007556 -0.001718 -0.003552 0.000000 0.000000 0.000000
# 2 -0.001718 0.016525 -0.004972 0.000000 0.000000 0.000000
# 3 -0.003552 -0.004972 0.016780 0.000000 0.000000 0.000000
# 4 0.000000 0.000000 0.000000 0.035439 0.000000 0.000000
# 5 0.000000 0.000000 0.000000 0.000000 0.022545 0.000000
# 6 0.000000 0.000000 0.000000 0.000000 0.000000 0.039779
#
#
# Mechanical properties :
#
#
# Convention : Reuss Voigt Hill
#
# Bulk Modulus (GPa) = 49.07257 56.15383 52.61320
# Shear Modulus (GPa) = 30.13852 33.43426 31.78639
#
# Velocity S-wave (km/s) = 3.68327 3.87944 3.78263
# Velocity P-wave (km/s) = 6.33862 6.73377 6.53918
#
# Compressibility (1/GPa) = 0.02037798
#
# Stress axis : x y z
#
# Youngs Moduli (GPa) = 132.34840 60.51285 59.59321
#
# Poissons Ratio (x) = 0.10394 0.21167
# Poissons Ratio (y) = 0.22733 0.29631
# Poissons Ratio (z) = 0.47009 0.30089
#
# Static dielectric constant tensor:
#      x y z
#    x 4.257490 0.000000 0.000000 
#    y 0.000000 3.878830 0.000000 
#    z 0.000000 0.000000 3.935570 
# 
# 
# High freq. dielectric constant tensor:
#      x y z
#    x 1.888290 0.000000 0.000000 
#    y 0.000000 1.865330 0.000000 
#    z 0.000000 0.000000 1.878690 
# 
# From -- ./inp_files/1359.got.cif
#   From: 2010.03.12/outbox.cif.g09.slc.cpg/sg45_1_cif.got.tgz:1359.got - 2010.04.14 02:50:11.
