data_PCOD8190566
_publ_section_title
;
Structure prediction by ZEFSAII (Michael W. Deem and Ramdas Pophale) SiO2 
 PCOD8190566
Probable space group: I B A 2
;
_chemical_formula_sum "Si O2"
_cell_formula_units_Z 64
_cell_length_a 9.195149
_cell_length_b 20.456539
_cell_length_c 17.239124
_cell_angle_alpha 90.000000
_cell_angle_beta 90.000000
_cell_angle_gamma 90.000000
_cell_volume 3242.695156
_symmetry_space_group_name_H-M "I B A 2"
_symmetry_group_IT_number 45
_symmetry_cell_setting 'orthorhombic'
loop_
_space_group_symop_operation_xyz
x,y,z
-x,-y,z
-x,y,1/2+z
x,-y,1/2+z
1/2+x,1/2+y,1/2+z
1/2-x,1/2-y,1/2+z
1/2-x,1/2+y,z
1/2+x,1/2-y,z
loop_
_atom_site_type_symbol
_atom_site_label
_atom_site_fract_x
_atom_site_fract_y
_atom_site_fract_z
Si Si1 0.526156 0.783107 0.250000
Si Si2 0.199490 0.784267 0.849184
Si Si3 0.756920 0.667637 0.464444
Si Si4 0.437741 0.362147 0.979470
Si Si5 0.872042 0.375781 0.649870
Si Si6 0.151810 0.027748 0.593179
Si Si7 0.180034 0.764317 0.094121
Si Si8 0.094235 0.558094 0.035504
O O1 0.644615 0.801637 0.314179
O O2 0.420353 0.726175 0.282080
O O3 0.434777 0.849744 0.231979
O O4 0.605565 0.755109 0.174368
O O5 0.204802 0.716343 0.895802
O O6 0.161724 0.844486 0.905353
O O7 0.602337 0.633401 0.450030
O O8 0.762668 0.700913 0.549241
O O9 0.876045 0.609682 0.467004
O O10 0.381582 0.430050 0.015673
O O11 0.435254 0.303650 0.042008
O O12 0.735386 0.426310 0.656651
O O13 0.820642 0.310340 0.605719
O O14 0.002124 0.409878 0.604432
O O15 0.253048 0.966857 0.570835
O O16 0.000000 0.000000 0.628267
O O17 0.000000 0.500000 0.997997
#
# Coordination Sequence:
#
# PCOD8190566 Si02
#       8
#     8   8   8   8   8   8   8   8
#     4  12  21  39  56  93 130 172 194 245 317 407
#     4  11  25  36  60  92 136 166 206 245 334 392
#     4  11  20  36  59  92 127 159 202 272 311 376
#     4  10  21  37  58  94 123 159 204 272 308 381
#     4  10  21  36  58  92 129 157 208 257 320 378
#     4  10  20  38  63  93 118 160 218 271 311 354
#     4  10  21  33  61  90 128 156 204 252 331 372
#     4  10  21  36  61  92 121 163 214 269 307 358
#
# _framework density 19.736668999999999
#
# number of rings (size 3 to 8) (size 9 to 14) (size 15 to 20)
#    0.000    1.500    5.000    0.750    1.750    2.000 
#    0.000    0.000    0.000    6.750    3.250    0.000 
#    0.000    0.000    0.000    0.000    0.000    0.000 
#
# Total GULP energy -396718.719383 kJ/mol
# GULP energy per Si atom -12397.459981 kJ/mol
# Density = 1.969175 g / cm^3
# Si number density = 19.736669 Si / 1000 Ang^3
#
#
#
# Elastic Constant Matrix: (Units=GPa)
#
#
# Indices 1 2 3 4 5 6 
#
# 1 122.9839 46.4440 31.4934 0.0000 0.0000 0.0000
# 2 46.4440 93.3075 34.2649 0.0000 0.0000 0.0000
# 3 31.4934 34.2649 75.2480 0.0000 0.0000 0.0000
# 4 0.0000 0.0000 0.0000 27.1036 0.0000 0.0000
# 5 0.0000 0.0000 0.0000 0.0000 34.3521 0.0000
# 6 0.0000 0.0000 0.0000 0.0000 0.0000 43.3517
#
#
#
# Elastic Compliance Matrix: (Units=1/GPa)
#
#
# Indices 1 2 3 4 5 6 
#
# 1 0.010358 -0.004280 -0.002387 0.000000 0.000000 0.000000
# 2 -0.004280 0.014637 -0.004874 0.000000 0.000000 0.000000
# 3 -0.002387 -0.004874 0.016508 0.000000 0.000000 0.000000
# 4 0.000000 0.000000 0.000000 0.036895 0.000000 0.000000
# 5 0.000000 0.000000 0.000000 0.000000 0.029110 0.000000
# 6 0.000000 0.000000 0.000000 0.000000 0.000000 0.023067
#
#
# Mechanical properties :
#
#
# Convention : Reuss Voigt Hill
#
# Bulk Modulus (GPa) = 54.28001 57.32713 55.80357
# Shear Modulus (GPa) = 31.28953 32.91728 32.10340
#
# Velocity S-wave (km/s) = 3.98596 4.08833 4.03747
# Velocity P-wave (km/s) = 6.98181 7.16903 7.07604
#
# Compressibility (1/GPa) = 0.01842299
#
# Stress axis : x y z
#
# Youngs Moduli (GPa) = 96.53985 68.31859 60.57765
#
# Poissons Ratio (x) = 0.29237 0.14457
# Poissons Ratio (y) = 0.41314 0.29526
# Poissons Ratio (z) = 0.23040 0.33300
#
# Static dielectric constant tensor:
#      x y z
#    x 3.880730 0.000000 0.000000 
#    y 0.000000 3.724750 0.000000 
#    z 0.000000 0.000000 3.385360 
# 
# 
# High freq. dielectric constant tensor:
#      x y z
#    x 1.793540 0.000000 0.000000 
#    y 0.000000 1.762640 0.000000 
#    z 0.000000 0.000000 1.733130 
# 
# From -- ./inp_files/7782.got.cif
#   From: 2010.03.12/outbox.cif.g09.slc.cpg/sg45_4_cif.got.tgz:7782.got - 2010.04.14 02:50:11.
