data_PCOD8190311
_publ_section_title
;
Structure prediction by ZEFSAII (Michael W. Deem and Ramdas Pophale) SiO2 
 PCOD8190311
Probable space group: I M M 2
;
_chemical_formula_sum "Si O2"
_cell_formula_units_Z 40
_cell_length_a 7.559448
_cell_length_b 28.644261
_cell_length_c 9.468155
_cell_angle_alpha 90.000000
_cell_angle_beta 90.000000
_cell_angle_gamma 90.000000
_cell_volume 2050.185064
_symmetry_space_group_name_H-M "I M M 2"
_symmetry_group_IT_number 44
_symmetry_cell_setting 'orthorhombic'
loop_
_space_group_symop_operation_xyz
x,y,z
-x,-y,z
-x,y,z
x,-y,z
1/2+x,1/2+y,1/2+z
1/2-x,1/2-y,1/2+z
1/2-x,1/2+y,1/2+z
1/2+x,1/2-y,1/2+z
loop_
_atom_site_type_symbol
_atom_site_label
_atom_site_fract_x
_atom_site_fract_y
_atom_site_fract_z
Si Si1 0.500000 0.055201 0.964771
Si Si2 0.795622 0.212065 0.470854
Si Si3 0.298163 0.605266 0.967595
Si Si4 0.793977 0.106699 0.136071
Si Si5 0.198114 0.792434 0.166992
Si Si6 0.000000 0.555196 0.140156
O O1 0.500000 0.072521 0.802437
O O2 0.500000 0.000000 0.972694
O O3 0.677069 0.072462 0.042225
O O4 0.764624 0.158682 0.515904
O O5 0.709859 0.219832 0.315720
O O6 0.691450 0.247544 0.569444
O O7 0.000000 0.226753 0.481834
O O8 0.500000 0.591016 0.999100
O O9 0.256621 0.598226 0.802018
O O10 0.174697 0.572987 0.061689
O O11 0.728363 0.159789 0.097338
O O12 0.000000 0.097762 0.098744
O O13 0.000000 0.807166 0.212964
O O14 0.000000 0.500000 0.132067
#
# Coordination Sequence:
#
# PCOD8190311 Si02
#       6
#     4   8   8   8   8   4
#     4  11  25  41  59  87 119 151 191 243 302 355
#     4   9  19  34  52  79 113 147 185 228 276 331
#     4   9  20  40  62  84 115 153 195 242 287 341
#     4   9  20  40  62  84 115 153 195 242 287 341
#     4   9  19  34  52  79 113 147 185 228 276 331
#     4  11  25  41  59  87 119 151 191 243 302 355
#
# _framework density 19.510432999999999
#
# number of rings (size 3 to 8) (size 9 to 14) (size 15 to 20)
#    0.000    2.600    0.000    3.000    2.800    5.600 
#    0.000    8.000    0.000    0.000    0.000    0.000 
#    0.000    0.000    0.000    0.000    0.000    0.000 
#
# Total GULP energy -247894.252198 kJ/mol
# GULP energy per Si atom -12394.712610 kJ/mol
# Density = 1.946603 g / cm^3
# Si number density = 19.510433 Si / 1000 Ang^3
#
#
#
# Elastic Constant Matrix: (Units=GPa)
#
#
# Indices 1 2 3 4 5 6 
#
# 1 96.5964 44.5438 57.3779 -0.0001 -0.0001 -0.0001
# 2 44.5438 96.7610 66.2536 -0.0005 -0.0001 -0.0002
# 3 57.3779 66.2536 113.8782 -0.0001 -0.0003 -0.0002
# 4 -0.0001 -0.0005 -0.0001 38.4611 -0.0001 -0.0001
# 5 -0.0001 -0.0001 -0.0003 -0.0001 27.2777 -0.0001
# 6 -0.0001 -0.0002 -0.0002 -0.0001 -0.0001 33.9079
#
#
#
# Elastic Compliance Matrix: (Units=1/GPa)
#
#
# Indices 1 2 3 4 5 6 
#
# 1 0.015256 -0.002925 -0.005985 0.000000 0.000000 0.000000
# 2 -0.002925 0.017739 -0.008846 0.000000 0.000000 0.000000
# 3 -0.005985 -0.008846 0.016944 0.000000 0.000000 0.000000
# 4 0.000000 0.000000 0.000000 0.026000 0.000000 0.000000
# 5 0.000000 0.000000 0.000000 0.000000 0.036660 0.000000
# 6 0.000000 0.000000 0.000000 0.000000 0.000000 0.029492
#
#
# Mechanical properties :
#
#
# Convention : Reuss Voigt Hill
#
# Bulk Modulus (GPa) = 69.32228 71.50956 70.41592
# Shear Modulus (GPa) = 27.41044 29.20002 28.30523
#
# Velocity S-wave (km/s) = 3.75228 3.87284 3.81304
# Velocity P-wave (km/s) = 7.37434 7.53193 7.45355
#
# Compressibility (1/GPa) = 0.01442538
#
# Stress axis : x y z
#
# Youngs Moduli (GPa) = 65.54631 56.37448 59.01907
#
# Poissons Ratio (x) = 0.16490 0.35324
# Poissons Ratio (y) = 0.19173 0.52210
# Poissons Ratio (z) = 0.39230 0.49871
#
# Static dielectric constant tensor:
#      x y z
#    x 3.425490 0.000000 0.000000 
#    y 0.000000 3.439090 0.000000 
#    z 0.000000 0.000000 3.502760 
# 
# 
# High freq. dielectric constant tensor:
#      x y z
#    x 1.763070 0.000000 0.000000 
#    y 0.000000 1.757840 0.000000 
#    z 0.000000 0.000000 1.752420 
# 
# From -- ./inp_files/4423.got.cif
#   From: 2010.03.12/outbox.cif.g09.slc.cpg/sg44_3_cif.got.tgz:4423.got - 2010.04.14 02:36:11.
