data_PCOD8190045
_publ_section_title
;
Structure prediction by ZEFSAII (Michael W. Deem and Ramdas Pophale) SiO2 
 PCOD8190045
Probable space group: I M M 2
;
_chemical_formula_sum "Si O2"
_cell_formula_units_Z 48
_cell_length_a 20.058285
_cell_length_b 13.721948
_cell_length_c 8.781490
_cell_angle_alpha 90.000000
_cell_angle_beta 90.000000
_cell_angle_gamma 90.000000
_cell_volume 2417.006276
_symmetry_space_group_name_H-M "I M M 2"
_symmetry_group_IT_number 44
_symmetry_cell_setting 'orthorhombic'
loop_
_space_group_symop_operation_xyz
x,y,z
-x,-y,z
-x,y,z
x,-y,z
1/2+x,1/2+y,1/2+z
1/2-x,1/2-y,1/2+z
1/2-x,1/2+y,1/2+z
1/2+x,1/2-y,1/2+z
loop_
_atom_site_type_symbol
_atom_site_label
_atom_site_fract_x
_atom_site_fract_y
_atom_site_fract_z
Si Si1 0.076419 0.761678 0.816220
Si Si2 0.576369 0.609525 0.600906
Si Si3 0.685080 0.889776 0.200685
Si Si4 0.161683 0.108817 0.646402
Si Si5 0.708797 0.106444 0.842474
Si Si6 0.178775 0.187213 0.325889
O O1 0.122233 0.672814 0.759525
O O2 0.090583 0.855085 0.709488
O O3 0.000000 0.728564 0.800903
O O4 0.092651 0.802508 0.984940
O O5 0.500000 0.616189 0.652998
O O6 0.591012 0.500000 0.534604
O O7 0.621110 0.623638 0.750405
O O8 0.749031 0.850409 0.284844
O O9 0.669408 0.000000 0.251310
O O10 0.703284 0.886445 0.023439
O O11 0.215200 0.117264 0.784015
O O12 0.179149 0.180007 0.508180
O O13 0.155351 0.000000 0.583561
O O14 0.668081 0.198889 0.777137
O O15 0.680642 0.000000 0.788081
#
# Coordination Sequence:
#
# PCOD8190045 Si02
#       6
#     8   8   8   8   8   8
#     4  11  23  40  60  85 119 165 209 251 302 358
#     4  10  23  42  64  90 124 164 202 248 311 374
#     4  11  23  40  62  90 120 160 205 251 305 364
#     4  11  22  36  59  93 123 152 195 254 311 364
#     4  10  21  38  61  89 123 157 195 246 306 362
#     4  12  21  39  62  94 124 155 201 249 306 366
#
# _framework density 19.859278
#
# number of rings (size 3 to 8) (size 9 to 14) (size 15 to 20)
#    0.000    1.167    3.333    3.000    2.333    3.333 
#    0.000    0.000    0.000    1.500    0.000    0.000 
#    0.000    0.000    0.000    0.000    0.000    0.000 
#
# Total GULP energy -297368.903926 kJ/mol
# GULP energy per Si atom -12390.370997 kJ/mol
# Density = 1.981408 g / cm^3
# Si number density = 19.859278 Si / 1000 Ang^3
#
#
#
# Elastic Constant Matrix: (Units=GPa)
#
#
# Indices 1 2 3 4 5 6 
#
# 1 101.6027 70.0965 49.8232 0.0000 0.0000 0.0000
# 2 70.0965 58.6898 90.9922 0.0000 0.0000 0.0000
# 3 49.8232 90.9922 55.9662 0.0000 0.0000 0.0000
# 4 0.0000 0.0000 0.0000 29.7220 0.0000 0.0000
# 5 0.0000 0.0000 0.0000 0.0000 23.2884 0.0000
# 6 0.0000 0.0000 0.0000 0.0000 0.0000 27.2563
#
#
#
# Elastic Compliance Matrix: (Units=1/GPa)
#
#
# Indices 1 2 3 4 5 6 
#
# 1 0.017070 -0.002086 -0.011804 0.000000 0.000000 0.000000
# 2 -0.002086 -0.010950 0.019660 0.000000 0.000000 0.000000
# 3 -0.011804 0.019660 -0.003587 0.000000 0.000000 0.000000
# 4 0.000000 0.000000 0.000000 0.033645 0.000000 0.000000
# 5 0.000000 0.000000 0.000000 0.000000 0.042940 0.000000
# 6 0.000000 0.000000 0.000000 0.000000 0.000000 0.036689
#
#
# Mechanical properties :
#
#
# Convention : Reuss Voigt Hill
#
# Bulk Modulus (GPa) = 71.06558 70.89805 70.98182
# Shear Modulus (GPa) = 45.88821 16.40981 31.14901
#
# Velocity S-wave (km/s) = 4.81216 2.87767 3.96471
# Velocity P-wave (km/s) = 8.16934 6.84244 7.53515
#
# Compressibility (1/GPa) = 0.01407151
#
# Stress axis : x y z
#
# Youngs Moduli (GPa) = 58.58146 -91.32777 -278.80331
#
# Poissons Ratio (x) = -0.19054 -3.29113
# Poissons Ratio (y) = 0.12222 5.48117
# Poissons Ratio (z) = 0.69152 1.79547
#
# Static dielectric constant tensor:
#      x y z
#    x 3.463650 0.000000 0.000000 
#    y 0.000000 4.110650 0.000000 
#    z 0.000000 0.000000 4.011660 
# 
# 
# High freq. dielectric constant tensor:
#      x y z
#    x 1.750380 0.000000 0.000000 
#    y 0.000000 1.798280 0.000000 
#    z 0.000000 0.000000 1.773270 
# 
# From -- ./inp_files/7096.got.cif
#   From: 2010.03.12/outbox.cif.g09.slc.cpg/sg44_4_cif.got.tgz:7096.got - 2010.04.14 02:36:11.
