data_PCOD8190724
_publ_section_title
;
Structure prediction by ZEFSAII (Michael W. Deem and Ramdas Pophale) SiO2 
 PCOD8190724
Probable space group: I B A 2
;
_chemical_formula_sum "Si O2"
_cell_formula_units_Z 60
_cell_length_a 16.830962
_cell_length_b 18.110659
_cell_length_c 9.637947
_cell_angle_alpha 90.000000
_cell_angle_beta 90.000000
_cell_angle_gamma 90.000000
_cell_volume 2937.837206
_symmetry_space_group_name_H-M "I B A 2"
_symmetry_group_IT_number 45
_symmetry_cell_setting 'orthorhombic'
loop_
_space_group_symop_operation_xyz
x,y,z
-x,-y,z
-x,y,1/2+z
x,-y,1/2+z
1/2+x,1/2+y,1/2+z
1/2-x,1/2-y,1/2+z
1/2-x,1/2+y,z
1/2+x,1/2-y,z
loop_
_atom_site_type_symbol
_atom_site_label
_atom_site_fract_x
_atom_site_fract_y
_atom_site_fract_z
Si Si1 0.366259 0.041872 0.047710
Si Si2 0.357940 0.765933 0.844286
Si Si3 0.000000 0.500000 0.371222
Si Si4 0.133279 0.736529 0.654514
Si Si5 0.263023 0.989731 0.293128
Si Si6 0.201367 0.147511 0.343753
Si Si7 0.291272 0.650799 0.662557
Si Si8 0.519605 0.141378 0.701983
O O1 0.338464 0.010628 0.196074
O O2 0.417775 0.117125 0.078503
O O3 0.425002 0.983553 0.972200
O O4 0.292808 0.048231 0.938370
O O5 0.286071 0.819532 0.801051
O O6 0.358118 0.694773 0.746067
O O7 0.437439 0.811854 0.821191
O O8 0.350011 0.735536 0.999524
O O9 0.017818 0.430560 0.273428
O O10 0.133974 0.808994 0.754427
O O11 0.202940 0.680332 0.698438
O O12 0.050700 0.692922 0.647788
O O13 0.206242 0.060191 0.315744
O O14 0.206822 0.933669 0.210664
O O15 0.183247 0.159830 0.504262
#
# Coordination Sequence:
#
# PCOD8190724 Si02
#       8
#     8   8   4   8   8   8   8   8
#     4  12  24  36  60  90 132 168 202 259 316 388
#     4  10  22  39  59  85 122 164 216 257 315 387
#     4  12  24  36  56  92 132 166 204 248 308 386
#     4  10  24  39  60  87 124 174 212 260 319 392
#     4  12  23  39  64  94 123 163 217 266 324 373
#     4  10  21  42  60  85 125 165 215 262 317 382
#     4  10  23  38  61  90 120 160 213 271 320 378
#     4  12  24  40  60  92 132 171 211 259 324 396
#
# _framework density 20.423186000000001
#
# number of rings (size 3 to 8) (size 9 to 14) (size 15 to 20)
#    0.000    1.067    4.000    2.000    5.600    4.267 
#    0.000    0.000    0.000    0.800    0.000    3.733 
#    0.000    0.000    0.000    0.000    0.000    0.000 
#
# Total GULP energy -371933.907708 kJ/mol
# GULP energy per Si atom -12397.796924 kJ/mol
# Density = 2.037670 g / cm^3
# Si number density = 20.423186 Si / 1000 Ang^3
#
#
#
# Elastic Constant Matrix: (Units=GPa)
#
#
# Indices 1 2 3 4 5 6 
#
# 1 45.7328 42.3864 30.2783 0.0000 0.0000 0.0000
# 2 42.3864 127.6424 59.6300 0.0000 0.0000 0.0000
# 3 30.2783 59.6300 117.4550 0.0000 0.0000 0.0000
# 4 0.0000 0.0000 0.0000 35.6443 0.0000 0.0000
# 5 0.0000 0.0000 0.0000 0.0000 28.2013 0.0000
# 6 0.0000 0.0000 0.0000 0.0000 0.0000 39.1865
#
#
#
# Elastic Compliance Matrix: (Units=1/GPa)
#
#
# Indices 1 2 3 4 5 6 
#
# 1 0.032860 -0.009117 -0.003842 0.000000 0.000000 0.000000
# 2 -0.009117 0.012800 -0.004148 0.000000 0.000000 0.000000
# 3 -0.003842 -0.004148 0.011610 0.000000 0.000000 0.000000
# 4 0.000000 0.000000 0.000000 0.028055 0.000000 0.000000
# 5 0.000000 0.000000 0.000000 0.000000 0.035459 0.000000
# 6 0.000000 0.000000 0.000000 0.000000 0.000000 0.025519
#
#
# Mechanical properties :
#
#
# Convention : Reuss Voigt Hill
#
# Bulk Modulus (GPa) = 43.37382 61.71329 52.54355
# Shear Modulus (GPa) = 26.56720 31.17548 28.87134
#
# Velocity S-wave (km/s) = 3.61062 3.91125 3.76394
# Velocity P-wave (km/s) = 6.21818 7.11899 6.68378
#
# Compressibility (1/GPa) = 0.02305538
#
# Stress axis : x y z
#
# Youngs Moduli (GPa) = 30.43244 78.12755 86.13072
#
# Poissons Ratio (x) = 0.71227 0.33094
# Poissons Ratio (y) = 0.27744 0.35727
# Poissons Ratio (z) = 0.11693 0.32407
#
# Static dielectric constant tensor:
#      x y z
#    x 3.324920 0.000000 0.000000 
#    y 0.000000 3.667720 0.000000 
#    z 0.000000 0.000000 3.869360 
# 
# 
# High freq. dielectric constant tensor:
#      x y z
#    x 1.751570 0.000000 0.000000 
#    y 0.000000 1.783130 0.000000 
#    z 0.000000 0.000000 1.820470 
# 
# From -- ./inp_files/2137.got.cif
#   From: 2010.03.12/outbox.cif.g09.slc.cpg/sg45_2_cif.got.tgz:2137.got - 2010.04.14 02:50:11.
