data_PCOD8190199
_publ_section_title
;
Structure prediction by ZEFSAII (Michael W. Deem and Ramdas Pophale) SiO2 
 PCOD8190199
Probable space group: I M M 2
;
_chemical_formula_sum "Si O2"
_cell_formula_units_Z 56
_cell_length_a 21.450234
_cell_length_b 13.551984
_cell_length_c 9.501565
_cell_angle_alpha 90.000000
_cell_angle_beta 90.000000
_cell_angle_gamma 90.000000
_cell_volume 2762.040601
_symmetry_space_group_name_H-M "I M M 2"
_symmetry_group_IT_number 44
_symmetry_cell_setting 'orthorhombic'
loop_
_space_group_symop_operation_xyz
x,y,z
-x,-y,z
-x,y,z
x,-y,z
1/2+x,1/2+y,1/2+z
1/2-x,1/2-y,1/2+z
1/2-x,1/2+y,1/2+z
1/2+x,1/2-y,1/2+z
loop_
_atom_site_type_symbol
_atom_site_label
_atom_site_fract_x
_atom_site_fract_y
_atom_site_fract_z
Si Si1 0.500000 0.383581 0.098740
Si Si2 0.663211 0.227345 0.492983
Si Si3 0.710676 0.385997 0.987849
Si Si4 0.878551 0.781521 0.688318
Si Si5 0.072978 0.386462 0.501004
Si Si6 0.135594 0.886733 0.204203
Si Si7 0.500000 0.382391 0.782990
Si Si8 0.568801 0.883612 0.683894
O O1 0.500000 0.500000 0.093748
O O2 0.439669 0.347966 0.180784
O O3 0.500000 0.338359 0.940915
O O4 0.727491 0.174893 0.454968
O O5 0.631438 0.261423 0.350835
O O6 0.674325 0.322372 0.592763
O O7 0.618398 0.151220 0.571031
O O8 0.727867 0.500000 0.012652
O O9 0.662643 0.373538 0.859889
O O10 0.679501 0.342966 0.128030
O O11 0.885843 0.678455 0.606127
O O12 0.091425 0.500000 0.527124
O O13 0.089729 0.354004 0.341760
O O14 0.000000 0.370324 0.532205
O O15 0.063383 0.848194 0.204115
O O16 0.139786 0.000000 0.155857
O O17 0.500000 0.500000 0.794275
O O18 0.500000 0.837779 0.654313
O O19 0.563740 0.000000 0.674178
#
# Coordination Sequence:
#
# PCOD8190199 Si02
#       8
#     4   8   8   8   8   8   4   8
#     4  11  22  39  64  98 129 165 213 264 320 380
#     4  12  26  39  61  93 134 162 201 255 332 380
#     4  11  24  46  67  85 119 172 225 262 300 374
#     4  12  24  38  64  98 129 168 207 263 327 381
#     4   9  19  38  63  92 126 166 214 261 304 369
#     4  10  22  41  66  92 122 163 214 263 308 372
#     4   9  18  37  67  94 115 161 216 258 301 358
#     4   9  20  38  61  88 121 166 214 257 306 368
#
# _framework density 20.274864000000001
#
# number of rings (size 3 to 8) (size 9 to 14) (size 15 to 20)
#    0.000    1.571    2.143    3.429    2.000    2.286 
#    0.000    2.857    0.000    0.000    0.000    0.000 
#    0.000    0.000    0.000    0.000    0.000    0.000 
#
# Total GULP energy -347324.730311 kJ/mol
# GULP energy per Si atom -12404.454654 kJ/mol
# Density = 2.022872 g / cm^3
# Si number density = 20.274864 Si / 1000 Ang^3
#
#
#
# Elastic Constant Matrix: (Units=GPa)
#
#
# Indices 1 2 3 4 5 6 
#
# 1 76.2692 33.0179 13.8655 0.0000 0.0000 0.0000
# 2 33.0179 84.1221 35.1553 0.0000 0.0000 0.0000
# 3 13.8655 35.1553 97.1191 0.0000 0.0000 0.0000
# 4 0.0000 0.0000 0.0000 23.8825 0.0000 0.0000
# 5 0.0000 0.0000 0.0000 0.0000 -54.5359 0.0000
# 6 0.0000 0.0000 0.0000 0.0000 0.0000 40.5340
#
#
#
# Elastic Compliance Matrix: (Units=1/GPa)
#
#
# Indices 1 2 3 4 5 6 
#
# 1 0.015795 -0.006194 -0.000013 0.000000 0.000000 0.000000
# 2 -0.006194 0.016435 -0.005065 0.000000 0.000000 0.000000
# 3 -0.000013 -0.005065 0.012132 0.000000 0.000000 0.000000
# 4 0.000000 0.000000 0.000000 0.041872 0.000000 0.000000
# 5 0.000000 0.000000 0.000000 0.000000 -0.018337 0.000000
# 6 0.000000 0.000000 0.000000 0.000000 0.000000 0.024671
#
#
# Mechanical properties :
#
#
# Convention : Reuss Voigt Hill
#
# Bulk Modulus (GPa) = 45.83277 46.84309 46.33793
# Shear Modulus (GPa) = 40.85446 13.67422 27.26434
#
# Velocity S-wave (km/s) = 4.49378 2.59982 3.67104
# Velocity P-wave (km/s) = 7.04132 5.67153 6.39322
#
# Compressibility (1/GPa) = 0.02181845
#
# Stress axis : x y z
#
# Youngs Moduli (GPa) = 63.30961 60.84418 82.42735
#
# Poissons Ratio (x) = 0.37689 0.00106
# Poissons Ratio (y) = 0.39216 0.41749
# Poissons Ratio (z) = 0.00081 0.30817
#
# Static dielectric constant tensor:
#      x y z
#    x 3.902710 0.000000 0.000000 
#    y 0.000000 3.843160 0.000000 
#    z 0.000000 0.000000 3.492170 
# 
# 
# High freq. dielectric constant tensor:
#      x y z
#    x 1.787460 0.000000 0.000000 
#    y 0.000000 1.815200 0.000000 
#    z 0.000000 0.000000 1.777740 
# 
# From -- ./inp_files/8947.got.cif
#   From: 2010.03.12/outbox.cif.g09.slc.cpg/sg44_5_cif.got.tgz:8947.got - 2010.04.14 02:36:11.
