data_PCOD8190268
_publ_section_title
;
Structure prediction by ZEFSAII (Michael W. Deem and Ramdas Pophale) SiO2 
 PCOD8190268
Probable space group: I M M 2
;
_chemical_formula_sum "Si O2"
_cell_formula_units_Z 48
_cell_length_a 28.235707
_cell_length_b 8.403432
_cell_length_c 10.284204
_cell_angle_alpha 90.000000
_cell_angle_beta 90.000000
_cell_angle_gamma 90.000000
_cell_volume 2440.203466
_symmetry_space_group_name_H-M "I M M 2"
_symmetry_group_IT_number 44
_symmetry_cell_setting 'orthorhombic'
loop_
_space_group_symop_operation_xyz
x,y,z
-x,-y,z
-x,y,z
x,-y,z
1/2+x,1/2+y,1/2+z
1/2-x,1/2-y,1/2+z
1/2-x,1/2+y,1/2+z
1/2+x,1/2-y,1/2+z
loop_
_atom_site_type_symbol
_atom_site_label
_atom_site_fract_x
_atom_site_fract_y
_atom_site_fract_z
Si Si1 0.448655 0.810772 0.615370
Si Si2 0.294519 0.814581 0.487280
Si Si3 0.851445 0.817035 0.752555
Si Si4 0.552944 0.187349 0.319298
Si Si5 0.692498 0.185530 0.996123
Si Si6 0.353773 0.810843 0.732844
O O1 0.500000 0.748864 0.665877
O O2 0.440683 0.754559 0.467603
O O3 0.406703 0.742857 0.706030
O O4 0.448205 0.000000 0.616673
O O5 0.329784 0.790126 0.366827
O O6 0.247586 0.711712 0.466863
O O7 0.318947 0.751568 0.619126
O O8 0.281454 0.000000 0.496767
O O9 0.907056 0.775095 0.733891
O O10 0.823900 0.784752 0.619700
O O11 0.844891 0.000000 0.789779
O O12 0.500000 0.233206 0.269842
O O13 0.560673 0.000000 0.306482
O O14 0.682488 0.000000 0.019553
O O15 0.663685 0.251912 0.871769
O O16 0.354379 0.000000 0.730645
#
# Coordination Sequence:
#
# PCOD8190268 Si02
#       6
#     8   8   8   8   8   8
#     4   8  13  26  53  85 109 132 171 225 284 340
#     4  11  21  38  62  85 111 145 191 245 293 344
#     4  12  24  38  56  83 119 160 197 232 281 343
#     4   9  17  33  60  88 111 142 189 243 295 343
#     4  11  23  38  56  82 117 153 191 238 289 346
#     4   9  18  33  55  82 110 139 178 233 292 338
#
# _framework density 19.670491999999999
#
# number of rings (size 3 to 8) (size 9 to 14) (size 15 to 20)
#    0.000    2.000    1.667    4.500    0.000    1.667 
#    0.000    3.333    0.000    3.000    0.000    0.000 
#    0.000    0.000    0.000    0.000    0.000    0.000 
#
# Total GULP energy -297592.817491 kJ/mol
# GULP energy per Si atom -12399.700729 kJ/mol
# Density = 1.962572 g / cm^3
# Si number density = 19.670492 Si / 1000 Ang^3
#
#
#
# Elastic Constant Matrix: (Units=GPa)
#
#
# Indices 1 2 3 4 5 6 
#
# 1 135.4741 17.3711 32.7615 0.0000 0.0000 0.0000
# 2 17.3711 39.0203 14.1847 0.0000 0.0000 0.0000
# 3 32.7615 14.1847 85.9948 0.0000 0.0000 0.0000
# 4 0.0000 0.0000 0.0000 15.9242 0.0000 0.0000
# 5 0.0000 0.0000 0.0000 0.0000 16.9867 0.0000
# 6 0.0000 0.0000 0.0000 0.0000 0.0000 24.9822
#
#
#
# Elastic Compliance Matrix: (Units=1/GPa)
#
#
# Indices 1 2 3 4 5 6 
#
# 1 0.008397 -0.002740 -0.002747 0.000000 0.000000 0.000000
# 2 -0.002740 0.028156 -0.003601 0.000000 0.000000 0.000000
# 3 -0.002747 -0.003601 0.013269 0.000000 0.000000 0.000000
# 4 0.000000 0.000000 0.000000 0.062798 0.000000 0.000000
# 5 0.000000 0.000000 0.000000 0.000000 0.058870 0.000000
# 6 0.000000 0.000000 0.000000 0.000000 0.000000 0.040029
#
#
# Mechanical properties :
#
#
# Convention : Reuss Voigt Hill
#
# Bulk Modulus (GPa) = 31.59788 43.23598 37.41693
# Shear Modulus (GPa) = 20.81234 24.65673 22.73454
#
# Velocity S-wave (km/s) = 3.25629 3.54430 3.40335
# Velocity P-wave (km/s) = 5.49876 6.22714 5.87425
#
# Compressibility (1/GPa) = 0.03164770
#
# Stress axis : x y z
#
# Youngs Moduli (GPa) = 119.08854 35.51616 75.36295
#
# Poissons Ratio (x) = 0.09730 0.20703
# Poissons Ratio (y) = 0.32625 0.27135
# Poissons Ratio (z) = 0.32716 0.12788
#
# Static dielectric constant tensor:
#      x y z
#    x 3.987550 0.000000 0.000000 
#    y 0.000000 3.150680 0.000000 
#    z 0.000000 0.000000 3.528030 
# 
# 
# High freq. dielectric constant tensor:
#      x y z
#    x 1.786590 0.000000 0.000000 
#    y 0.000000 1.734630 0.000000 
#    z 0.000000 0.000000 1.746370 
# 
# From -- ./inp_files/4883.got.cif
#   From: 2010.03.12/outbox.cif.g09.slc.cpg/sg44_3_cif.got.tgz:4883.got - 2010.04.14 02:36:11.
