data_PCOD8190871
_publ_section_title
;
Structure prediction by ZEFSAII (Michael W. Deem and Ramdas Pophale) SiO2 
 PCOD8190871
Probable space group: I B A 2
;
_chemical_formula_sum "Si O2"
_cell_formula_units_Z 56
_cell_length_a 28.202277
_cell_length_b 5.623334
_cell_length_c 14.307701
_cell_angle_alpha 90.000000
_cell_angle_beta 90.000000
_cell_angle_gamma 90.000000
_cell_volume 2269.070079
_symmetry_space_group_name_H-M "I B A 2"
_symmetry_group_IT_number 45
_symmetry_cell_setting 'orthorhombic'
loop_
_space_group_symop_operation_xyz
x,y,z
-x,-y,z
-x,y,1/2+z
x,-y,1/2+z
1/2+x,1/2+y,1/2+z
1/2-x,1/2-y,1/2+z
1/2-x,1/2+y,z
1/2+x,1/2-y,z
loop_
_atom_site_type_symbol
_atom_site_label
_atom_site_fract_x
_atom_site_fract_y
_atom_site_fract_z
Si Si1 0.127401 0.814415 0.638050
Si Si2 0.570439 0.016574 0.999346
Si Si3 0.764886 0.153233 0.618146
Si Si4 0.124131 0.218185 0.350613
Si Si5 0.954354 0.840521 0.850428
Si Si6 0.955941 0.173624 0.147829
Si Si7 0.730206 0.220539 0.409258
O O1 0.111851 0.615527 0.564895
O O2 0.179559 0.898535 0.609720
O O3 0.126118 0.705186 0.742140
O O4 0.093070 0.038732 0.627880
O O5 0.536792 0.859382 0.064631
O O6 0.536215 0.201410 0.946626
O O7 0.594503 0.905438 0.908588
O O8 0.756491 0.412939 0.669554
O O9 0.739909 0.197355 0.519046
O O10 0.176371 0.202665 0.392385
O O11 0.096563 0.969217 0.360396
O O12 0.953440 0.700164 0.750364
O O13 0.000000 0.000000 0.841040
O O14 0.000000 0.000000 0.141723
O O15 0.758242 0.454860 0.366632
#
# Coordination Sequence:
#
# PCOD8190871 Si02
#       7
#     8   8   8   8   8   8   8
#     4  11  26  44  69 107 149 193 248 317 386 460
#     4  12  24  43  76 104 140 196 254 298 385 464
#     4  10  23  42  69 103 144 194 252 319 383 463
#     4  11  26  44  69 107 149 193 248 317 386 460
#     4  10  25  48  73 108 151 192 249 319 386 463
#     4  10  25  48  73 108 151 192 249 319 386 463
#     4  10  23  42  69 103 144 194 252 319 383 463
#
# _framework density 24.679714000000001
#
# number of rings (size 3 to 8) (size 9 to 14) (size 15 to 20)
#    0.000    1.429    0.000    3.429   12.000    5.714 
#    0.000    4.286    0.000    2.571    0.000    0.000 
#    0.000    0.000    0.000    0.000    0.000    0.000 
#
# Total GULP energy -346890.764219 kJ/mol
# GULP energy per Si atom -12388.955865 kJ/mol
# Density = 2.462354 g / cm^3
# Si number density = 24.679714 Si / 1000 Ang^3
#
#
#
# Elastic Constant Matrix: (Units=GPa)
#
#
# Indices 1 2 3 4 5 6 
#
# 1 119.2893 33.4050 27.8836 0.0000 0.0000 0.0000
# 2 33.4050 137.7183 38.5470 0.0000 0.0000 0.0000
# 3 27.8836 38.5470 134.6301 0.0000 0.0000 0.0000
# 4 0.0000 0.0000 0.0000 53.1512 0.0000 0.0000
# 5 0.0000 0.0000 0.0000 0.0000 39.8581 0.0000
# 6 0.0000 0.0000 0.0000 0.0000 0.0000 34.3552
#
#
#
# Elastic Compliance Matrix: (Units=1/GPa)
#
#
# Indices 1 2 3 4 5 6 
#
# 1 0.009224 -0.001851 -0.001380 0.000000 0.000000 0.000000
# 2 -0.001851 0.008265 -0.001983 0.000000 0.000000 0.000000
# 3 -0.001380 -0.001983 0.008281 0.000000 0.000000 0.000000
# 4 0.000000 0.000000 0.000000 0.018814 0.000000 0.000000
# 5 0.000000 0.000000 0.000000 0.000000 0.025089 0.000000
# 6 0.000000 0.000000 0.000000 0.000000 0.000000 0.029108
#
#
# Mechanical properties :
#
#
# Convention : Reuss Voigt Hill
#
# Bulk Modulus (GPa) = 65.18222 65.70099 65.44161
# Shear Modulus (GPa) = 43.73512 44.92639 44.33075
#
# Velocity S-wave (km/s) = 4.21421 4.27122 4.24281
# Velocity P-wave (km/s) = 7.08152 7.14168 7.11167
#
# Compressibility (1/GPa) = 0.01534161
#
# Stress axis : x y z
#
# Youngs Moduli (GPa) = 108.41293 120.98853 120.75156
#
# Poissons Ratio (x) = 0.22395 0.16669
# Poissons Ratio (y) = 0.20067 0.23947
# Poissons Ratio (z) = 0.14966 0.23994
#
# Static dielectric constant tensor:
#      x y z
#    x 4.408900 0.000000 0.000000 
#    y 0.000000 1.985480 0.000000 
#    z 0.000000 0.000000 4.823640 
# 
# 
# High freq. dielectric constant tensor:
#      x y z
#    x 1.992820 0.000000 0.000000 
#    y 0.000000 1.975450 0.000000 
#    z 0.000000 0.000000 1.995060 
# 
# From -- ./inp_files/7162.got.cif
#   From: 2010.03.12/outbox.cif.g09.slc.cpg/sg45_4_cif.got.tgz:7162.got - 2010.04.14 02:50:11.
