data_PCOD8190077
_publ_section_title
;
Structure prediction by ZEFSAII (Michael W. Deem and Ramdas Pophale) SiO2 
 PCOD8190077
Probable space group: I M M 2
;
_chemical_formula_sum "Si O2"
_cell_formula_units_Z 40
_cell_length_a 32.914637
_cell_length_b 10.824831
_cell_length_c 5.177067
_cell_angle_alpha 90.000000
_cell_angle_beta 90.000000
_cell_angle_gamma 90.000000
_cell_volume 1844.565069
_symmetry_space_group_name_H-M "I M M 2"
_symmetry_group_IT_number 44
_symmetry_cell_setting 'orthorhombic'
loop_
_space_group_symop_operation_xyz
x,y,z
-x,-y,z
-x,y,z
x,-y,z
1/2+x,1/2+y,1/2+z
1/2-x,1/2-y,1/2+z
1/2-x,1/2+y,1/2+z
1/2+x,1/2-y,1/2+z
loop_
_atom_site_type_symbol
_atom_site_label
_atom_site_fract_x
_atom_site_fract_y
_atom_site_fract_z
Si Si1 0.919331 0.637554 0.540200
Si Si2 0.286281 0.863339 0.091733
Si Si3 0.045634 0.734670 0.054941
Si Si4 0.197480 0.780561 0.091570
Si Si5 0.115434 0.136561 0.295089
O O1 0.899060 0.500000 0.546906
O O2 0.944029 0.657485 0.801044
O O3 0.886006 0.748921 0.502100
O O4 0.950731 0.642790 0.300458
O O5 0.237367 0.864673 0.115496
O O6 0.306228 0.775112 0.305247
O O7 0.302372 0.000000 0.146010
O O8 0.299870 0.826799 0.804996
O O9 0.000000 0.787969 0.035050
O O10 0.077680 0.847099 0.094854
O O11 0.157551 0.861619 0.138665
O O12 0.111525 0.000000 0.424749
#
# Coordination Sequence:
#
# PCOD8190077 Si02
#       5
#     8   8   8   8   8
#     4  10  23  41  65  95 123 161 210 265 318 373
#     4  10  21  39  62  90 125 164 207 262 312 369
#     4  10  23  42  65  93 126 166 212 262 316 377
#     4  10  22  39  61  92 122 165 212 251 313 376
#     4  10  25  45  65  95 131 171 212 261 319 384
#
# _framework density 21.685327999999998
#
# number of rings (size 3 to 8) (size 9 to 14) (size 15 to 20)
#    1.200    0.800    0.000    2.400    2.800    5.200 
#    0.000    2.000    0.000    0.000    0.000    0.000 
#    0.000    0.000    0.000    0.000    0.000    0.000 
#
# Total GULP energy -247802.800670 kJ/mol
# GULP energy per Si atom -12390.140033 kJ/mol
# Density = 2.163597 g / cm^3
# Si number density = 21.685328 Si / 1000 Ang^3
#
#
#
# Elastic Constant Matrix: (Units=GPa)
#
#
# Indices 1 2 3 4 5 6 
#
# 1 105.2804 26.3928 6.2917 0.0113 0.0061 0.0036
# 2 26.3928 144.4840 15.3793 0.0037 -0.0018 -0.0001
# 3 6.2917 15.3793 112.9770 0.0173 -0.0037 -0.0034
# 4 0.0113 0.0037 0.0173 2.9257 0.0027 -0.0035
# 5 0.0061 -0.0018 -0.0037 0.0027 16.4093 -0.0040
# 6 0.0036 -0.0001 -0.0034 -0.0035 -0.0040 8.5959
#
#
#
# Elastic Compliance Matrix: (Units=1/GPa)
#
#
# Indices 1 2 3 4 5 6 
#
# 1 0.009965 -0.001787 -0.000312 -0.000035 -0.000004 -0.000004
# 2 -0.001787 0.007343 -0.000900 0.000003 0.000001 0.000000
# 3 -0.000312 -0.000900 0.008991 -0.000051 0.000002 0.000004
# 4 -0.000035 0.000003 -0.000051 0.341803 -0.000057 0.000139
# 5 -0.000004 0.000001 0.000002 -0.000057 0.060941 0.000029
# 6 -0.000004 0.000000 0.000004 0.000139 0.000029 0.116334
#
#
# Mechanical properties :
#
#
# Convention : Reuss Voigt Hill
#
# Bulk Modulus (GPa) = 49.25642 50.98546 50.12094
# Shear Modulus (GPa) = 8.95828 26.56470 17.76149
#
# Velocity S-wave (km/s) = 2.03470 3.50381 2.86502
# Velocity P-wave (km/s) = 5.31822 6.31913 5.84016
#
# Compressibility (1/GPa) = 0.02030192
#
# Stress axis : x y z
#
# Youngs Moduli (GPa) = 100.35024 136.17582 111.21920
#
# Poissons Ratio (x) = 0.24337 0.03466
# Poissons Ratio (y) = 0.17934 0.10011
# Poissons Ratio (z) = 0.03128 0.12257
#
# Static dielectric constant tensor:
#      x y z
#    x 3.850600 0.000050 0.000020 
#    y 0.000050 3.603110 -0.000020 
#    z 0.000020 -0.000020 3.784520 
# 
# 
# High freq. dielectric constant tensor:
#      x y z
#    x 1.847430 0.000000 0.000000 
#    y 0.000000 1.833210 0.000000 
#    z 0.000000 0.000000 1.849550 
# 
# From -- ./inp_files/3238.got.cif
#   From: 2010.03.12/outbox.cif.g09.slc.cpg/sg44_2_cif.got.tgz:3238.got - 2010.04.14 02:36:11.
