data_PCOD8190486
_publ_section_title
;
Structure prediction by ZEFSAII (Michael W. Deem and Ramdas Pophale) SiO2 
 PCOD8190486
Probable space group: I B A 2
;
_chemical_formula_sum "Si O2"
_cell_formula_units_Z 64
_cell_length_a 31.093512
_cell_length_b 12.846152
_cell_length_c 9.276569
_cell_angle_alpha 90.000000
_cell_angle_beta 90.000000
_cell_angle_gamma 90.000000
_cell_volume 3705.358336
_symmetry_space_group_name_H-M "I B A 2"
_symmetry_group_IT_number 45
_symmetry_cell_setting 'orthorhombic'
loop_
_space_group_symop_operation_xyz
x,y,z
-x,-y,z
-x,y,1/2+z
x,-y,1/2+z
1/2+x,1/2+y,1/2+z
1/2-x,1/2-y,1/2+z
1/2-x,1/2+y,z
1/2+x,1/2-y,z
loop_
_atom_site_type_symbol
_atom_site_label
_atom_site_fract_x
_atom_site_fract_y
_atom_site_fract_z
Si Si1 0.770944 0.114125 0.001890
Si Si2 0.038773 0.617956 0.246266
Si Si3 0.458449 0.895667 0.400402
Si Si4 0.864502 0.594389 0.355404
Si Si5 0.819788 0.295706 0.601867
Si Si6 0.311801 0.818267 0.594428
Si Si7 0.277213 0.413092 0.671136
Si Si8 0.629150 0.149417 0.838462
O O1 0.722655 0.148054 0.041622
O O2 0.803687 0.209831 0.014312
O O3 0.789279 0.024530 0.105756
O O4 0.772669 0.071973 0.840904
O O5 0.034297 0.602545 0.073969
O O6 0.041602 0.511594 0.336543
O O7 0.081346 0.684725 0.286985
O O8 0.995451 0.670759 0.315289
O O9 0.411477 0.850447 0.360454
O O10 0.831357 0.652719 0.252759
O O11 0.844894 0.606033 0.513860
O O12 0.867049 0.473978 0.315479
O O13 0.812510 0.172874 0.626305
O O14 0.861385 0.314632 0.501084
O O15 0.268057 0.880381 0.606548
O O16 0.333675 0.793221 0.747510
#
# Coordination Sequence:
#
# PCOD8190486 Si02
#       8
#     8   8   8   8   8   8   8   8
#     4  11  24  38  55  74 105 138 174 222 265 308
#     4  10  20  31  47  71 103 140 175 208 259 307
#     4  10  20  31  47  70 103 140 173 212 256 311
#     4  11  21  35  52  75 107 141 179 213 257 304
#     4  11  24  36  53  78 104 139 181 218 256 312
#     4  11  22  38  51  76 106 135 181 216 256 308
#     4  11  24  38  55  75 103 140 174 220 269 302
#     4  11  21  33  54  77 103 143 177 215 254 308
#
# _framework density 17.272283999999999
#
# number of rings (size 3 to 8) (size 9 to 14) (size 15 to 20)
#    0.000    1.250    3.750    3.750   10.500    0.000 
#    0.000    0.000    0.000    0.000    0.000    0.000 
#    0.000    6.000    0.000    0.000    0.000    0.000 
#
# Total GULP energy -396669.639805 kJ/mol
# GULP energy per Si atom -12395.926244 kJ/mol
# Density = 1.723297 g / cm^3
# Si number density = 17.272284 Si / 1000 Ang^3
#
#
#
# Elastic Constant Matrix: (Units=GPa)
#
#
# Indices 1 2 3 4 5 6 
#
# 1 97.5580 22.0055 28.7749 0.0000 0.0000 0.0000
# 2 22.0055 39.2634 33.2026 0.0000 0.0000 0.0000
# 3 28.7749 33.2026 97.8159 0.0000 0.0000 0.0000
# 4 0.0000 0.0000 0.0000 25.6125 0.0000 0.0000
# 5 0.0000 0.0000 0.0000 0.0000 27.7010 0.0000
# 6 0.0000 0.0000 0.0000 0.0000 0.0000 13.2798
#
#
#
# Elastic Compliance Matrix: (Units=1/GPa)
#
#
# Indices 1 2 3 4 5 6 
#
# 1 0.011941 -0.005221 -0.001741 0.000000 0.000000 0.000000
# 2 -0.005221 0.038005 -0.011365 0.000000 0.000000 0.000000
# 3 -0.001741 -0.011365 0.014593 0.000000 0.000000 0.000000
# 4 0.000000 0.000000 0.000000 0.039043 0.000000 0.000000
# 5 0.000000 0.000000 0.000000 0.000000 0.036100 0.000000
# 6 0.000000 0.000000 0.000000 0.000000 0.000000 0.075302
#
#
# Mechanical properties :
#
#
# Convention : Reuss Voigt Hill
#
# Bulk Modulus (GPa) = 35.85832 44.73372 40.29602
# Shear Modulus (GPa) = 19.16196 23.36226 21.26211
#
# Velocity S-wave (km/s) = 3.33439 3.68174 3.51236
# Velocity P-wave (km/s) = 5.96908 6.63544 6.31106
#
# Compressibility (1/GPa) = 0.02788753
#
# Stress axis : x y z
#
# Youngs Moduli (GPa) = 83.74284 26.31199 68.52578
#
# Poissons Ratio (x) = 0.13736 0.11929
# Poissons Ratio (y) = 0.43719 0.77878
# Poissons Ratio (z) = 0.14578 0.29903
#
# Static dielectric constant tensor:
#      x y z
#    x 3.930490 0.000000 0.000000 
#    y 0.000000 2.900770 0.000000 
#    z 0.000000 0.000000 3.361510 
# 
# 
# High freq. dielectric constant tensor:
#      x y z
#    x 1.671240 0.000000 0.000000 
#    y 0.000000 1.611230 0.000000 
#    z 0.000000 0.000000 1.691680 
# 
# From -- ./inp_files/2002.got.cif
#   From: 2010.03.12/outbox.cif.g09.slc.cpg/sg45_2_cif.got.tgz:2002.got - 2010.04.14 02:50:11.
