data_PCOD8190891
_publ_section_title
;
Structure prediction by ZEFSAII (Michael W. Deem and Ramdas Pophale) SiO2 
 PCOD8190891
Probable space group: I B A 2
;
_chemical_formula_sum "Si O2"
_cell_formula_units_Z 60
_cell_length_a 26.868813
_cell_length_b 8.646430
_cell_length_c 11.756402
_cell_angle_alpha 90.000000
_cell_angle_beta 90.000000
_cell_angle_gamma 90.000000
_cell_volume 2731.239210
_symmetry_space_group_name_H-M "I B A 2"
_symmetry_group_IT_number 45
_symmetry_cell_setting 'orthorhombic'
loop_
_space_group_symop_operation_xyz
x,y,z
-x,-y,z
-x,y,1/2+z
x,-y,1/2+z
1/2+x,1/2+y,1/2+z
1/2-x,1/2-y,1/2+z
1/2-x,1/2+y,z
1/2+x,1/2-y,z
loop_
_atom_site_type_symbol
_atom_site_label
_atom_site_fract_x
_atom_site_fract_y
_atom_site_fract_z
Si Si1 0.735316 0.851874 0.494050
Si Si2 0.577058 0.799625 0.188394
Si Si3 0.436020 0.228946 0.436093
Si Si4 0.106206 0.959553 0.024525
Si Si5 0.500000 0.000000 0.569022
Si Si6 0.350072 0.051316 0.340984
Si Si7 0.672208 0.707042 0.858460
Si Si8 0.202046 0.922606 0.628777
O O1 0.705913 0.913028 0.382791
O O2 0.786553 0.769083 0.456226
O O3 0.699173 0.730831 0.553240
O O4 0.749379 0.980751 0.589166
O O5 0.552036 0.730058 0.303661
O O6 0.575305 0.674302 0.087663
O O7 0.545347 0.946931 0.148512
O O8 0.633103 0.862977 0.222807
O O9 0.426401 0.387442 0.504848
O O10 0.388860 0.109445 0.438626
O O11 0.482935 0.144246 0.491855
O O12 0.151076 0.988050 0.110753
O O13 0.127684 0.902342 0.903267
O O14 0.353108 0.867234 0.321577
O O15 0.703336 0.619861 0.760790
#
# Coordination Sequence:
#
# PCOD8190891 Si02
#       8
#     8   8   8   8   4   8   8   8
#     4  11  23  42  60  96 138 185 236 282 332 401
#     4  10  25  45  75 103 137 178 239 289 368 435
#     4  10  24  45  73 100 141 172 238 290 357 445
#     4  11  23  45  68 103 138 183 227 297 350 427
#     4  12  24  48  76 106 136 180 230 304 370 438
#     4  10  23  45  70  96 136 188 238 285 346 435
#     4  11  25  39  66  98 138 186 238 287 341 405
#     4  11  24  38  64  93 141 181 232 281 338 393
#
# _framework density 21.968050000000002
#
# number of rings (size 3 to 8) (size 9 to 14) (size 15 to 20)
#    0.800    0.533    2.667    2.000    3.733    3.733 
#    0.000    1.333    0.000    0.000    0.000    0.000 
#    0.000    0.000    0.000    0.000    0.000    0.000 
#
# Total GULP energy -371823.903083 kJ/mol
# GULP energy per Si atom -12394.130103 kJ/mol
# Density = 2.191805 g / cm^3
# Si number density = 21.968050 Si / 1000 Ang^3
#
#
#
# Elastic Constant Matrix: (Units=GPa)
#
#
# Indices 1 2 3 4 5 6 
#
# 1 70.3828 41.0353 32.2609 0.0000 0.0000 0.0000
# 2 41.0353 119.8088 38.3758 0.0000 0.0000 0.0000
# 3 32.2609 38.3758 93.1149 0.0000 0.0000 0.0000
# 4 0.0000 0.0000 0.0000 39.4679 0.0000 0.0000
# 5 0.0000 0.0000 0.0000 0.0000 33.0541 0.0000
# 6 0.0000 0.0000 0.0000 0.0000 0.0000 37.8181
#
#
#
# Elastic Compliance Matrix: (Units=1/GPa)
#
#
# Indices 1 2 3 4 5 6 
#
# 1 0.019303 -0.005149 -0.004566 0.000000 0.000000 0.000000
# 2 -0.005149 0.010989 -0.002745 0.000000 0.000000 0.000000
# 3 -0.004566 -0.002745 0.013453 0.000000 0.000000 0.000000
# 4 0.000000 0.000000 0.000000 0.025337 0.000000 0.000000
# 5 0.000000 0.000000 0.000000 0.000000 0.030253 0.000000
# 6 0.000000 0.000000 0.000000 0.000000 0.000000 0.026442
#
#
# Mechanical properties :
#
#
# Convention : Reuss Voigt Hill
#
# Bulk Modulus (GPa) = 53.12001 56.29452 54.70726
# Shear Modulus (GPa) = 31.85273 33.51030 32.68152
#
# Velocity S-wave (km/s) = 3.81196 3.90989 3.86124
# Velocity P-wave (km/s) = 6.60362 6.78706 6.69597
#
# Compressibility (1/GPa) = 0.01882530
#
# Stress axis : x y z
#
# Youngs Moduli (GPa) = 51.80620 90.99605 74.33481
#
# Poissons Ratio (x) = 0.46853 0.33939
# Poissons Ratio (y) = 0.26674 0.20407
# Poissons Ratio (z) = 0.23653 0.24981
#
# Static dielectric constant tensor:
#      x y z
#    x 3.589910 0.000000 0.000000 
#    y 0.000000 3.895500 0.000000 
#    z 0.000000 0.000000 3.759240 
# 
# 
# High freq. dielectric constant tensor:
#      x y z
#    x 1.844420 0.000000 0.000000 
#    y 0.000000 1.866850 0.000000 
#    z 0.000000 0.000000 1.857640 
# 
# From -- ./inp_files/4880.got.cif
#   From: 2010.03.12/outbox.cif.g09.slc.cpg/sg45_3_cif.got.tgz:4880.got - 2010.04.14 02:50:11.
