data_PCOD8190262
_publ_section_title
;
Structure prediction by ZEFSAII (Michael W. Deem and Ramdas Pophale) SiO2 
 PCOD8190262
Probable space group: I M M 2
;
_chemical_formula_sum "Si O2"
_cell_formula_units_Z 48
_cell_length_a 7.724415
_cell_length_b 18.295158
_cell_length_c 18.369956
_cell_angle_alpha 90.000000
_cell_angle_beta 90.000000
_cell_angle_gamma 90.000000
_cell_volume 2596.031029
_symmetry_space_group_name_H-M "I M M 2"
_symmetry_group_IT_number 44
_symmetry_cell_setting 'orthorhombic'
loop_
_space_group_symop_operation_xyz
x,y,z
-x,-y,z
-x,y,z
x,-y,z
1/2+x,1/2+y,1/2+z
1/2-x,1/2-y,1/2+z
1/2-x,1/2+y,1/2+z
1/2+x,1/2-y,1/2+z
loop_
_atom_site_type_symbol
_atom_site_label
_atom_site_fract_x
_atom_site_fract_y
_atom_site_fract_z
Si Si1 0.304915 0.322640 0.775150
Si Si2 0.694555 0.822047 0.115990
Si Si3 0.500000 0.417862 0.557330
Si Si4 0.500000 0.581930 0.384851
Si Si5 0.695837 0.184372 0.872446
Si Si6 0.706466 0.418151 0.909755
Si Si7 0.798243 0.213380 0.499655
O O1 0.500000 0.343880 0.752665
O O2 0.190112 0.320421 0.702937
O O3 0.299551 0.241913 0.807367
O O4 0.232740 0.381931 0.833284
O O5 0.500000 0.841592 0.089046
O O6 0.825890 0.882007 0.087439
O O7 0.745681 0.741624 0.081432
O O8 0.500000 0.500000 0.587153
O O9 0.500000 0.415972 0.471277
O O10 0.500000 0.500000 0.354657
O O11 0.326266 0.619114 0.353553
O O12 0.500000 0.153965 0.882584
O O13 0.768447 0.223389 0.945375
O O14 0.500000 0.421862 0.910776
O O15 0.784785 0.500000 0.917512
O O16 0.778215 0.366495 0.976480
O O17 0.000000 0.205123 0.484734
#
# Coordination Sequence:
#
# PCOD8190262 Si02
#       7
#     8   8   4   4   8   8   8
#     4   9  18  32  52  82 109 141 181 216 265 322
#     4  11  21  35  54  79 108 145 185 220 263 317
#     4  11  24  38  52  78 112 143 179 222 271 328
#     4  11  22  34  56  82 102 137 183 226 279 324
#     4   9  18  34  53  76 107 137 177 229 265 312
#     4   8  14  27  50  78 106 137 170 213 269 319
#     4   8  15  29  49  73 102 135 177 220 254 307
#
# _framework density 18.489763
#
# number of rings (size 3 to 8) (size 9 to 14) (size 15 to 20)
#    0.000    2.667    2.500    2.000    1.167    1.333 
#    0.000    1.667    0.000    1.000    0.000    0.000 
#    0.000    0.000    0.000    0.000    0.000    0.000 
#
# Total GULP energy -297376.717456 kJ/mol
# GULP energy per Si atom -12390.696561 kJ/mol
# Density = 1.844768 g / cm^3
# Si number density = 18.489763 Si / 1000 Ang^3
#
#
#
# Elastic Constant Matrix: (Units=GPa)
#
#
# Indices 1 2 3 4 5 6 
#
# 1 81.5822 49.1463 18.3389 0.0000 0.0000 0.0000
# 2 49.1463 154.3245 49.7038 0.0000 0.0000 0.0000
# 3 18.3389 49.7038 71.6215 0.0000 0.0000 0.0000
# 4 0.0000 0.0000 0.0000 19.0283 0.0000 0.0000
# 5 0.0000 0.0000 0.0000 0.0000 16.5510 0.0000
# 6 0.0000 0.0000 0.0000 0.0000 0.0000 21.9100
#
#
#
# Elastic Compliance Matrix: (Units=1/GPa)
#
#
# Indices 1 2 3 4 5 6 
#
# 1 0.015193 -0.004618 -0.000686 0.000000 0.000000 0.000000
# 2 -0.004618 0.009748 -0.005583 0.000000 0.000000 0.000000
# 3 -0.000686 -0.005583 0.018012 0.000000 0.000000 0.000000
# 4 0.000000 0.000000 0.000000 0.052553 0.000000 0.000000
# 5 0.000000 0.000000 0.000000 0.000000 0.060419 0.000000
# 6 0.000000 0.000000 0.000000 0.000000 0.000000 0.045641
#
#
# Mechanical properties :
#
#
# Convention : Reuss Voigt Hill
#
# Bulk Modulus (GPa) = 47.21076 60.21182 53.71129
# Shear Modulus (GPa) = 21.70128 24.18714 22.94421
#
# Velocity S-wave (km/s) = 3.42963 3.62074 3.52648
# Velocity P-wave (km/s) = 6.42434 7.07922 6.75971
#
# Compressibility (1/GPa) = 0.02118161
#
# Stress axis : x y z
#
# Youngs Moduli (GPa) = 65.81773 102.57992 55.51766
#
# Poissons Ratio (x) = 0.47368 0.03807
# Poissons Ratio (y) = 0.30392 0.30995
# Poissons Ratio (z) = 0.04514 0.57269
#
# Static dielectric constant tensor:
#      x y z
#    x 3.220030 0.000000 0.000000 
#    y 0.000000 3.589750 0.000000 
#    z 0.000000 0.000000 3.305190 
# 
# 
# High freq. dielectric constant tensor:
#      x y z
#    x 1.707410 0.000000 0.000000 
#    y 0.000000 1.703130 0.000000 
#    z 0.000000 0.000000 1.697060 
# 
# From -- ./inp_files/23168.got.cif
#   From: 2010.03.12/outbox.cif.g09.slc.cpg/sg44_12_cif.got.tgz:23168.got - 2010.04.14 02:36:11.
