data_PCOD8190787
_publ_section_title
;
Structure prediction by ZEFSAII (Michael W. Deem and Ramdas Pophale) SiO2 
 PCOD8190787
Probable space group: I B A 2
;
_chemical_formula_sum "Si O2"
_cell_formula_units_Z 64
_cell_length_a 27.402788
_cell_length_b 10.168024
_cell_length_c 10.923144
_cell_angle_alpha 90.000000
_cell_angle_beta 90.000000
_cell_angle_gamma 90.000000
_cell_volume 3043.539710
_symmetry_space_group_name_H-M "I B A 2"
_symmetry_group_IT_number 45
_symmetry_cell_setting 'orthorhombic'
loop_
_space_group_symop_operation_xyz
x,y,z
-x,-y,z
-x,y,1/2+z
x,-y,1/2+z
1/2+x,1/2+y,1/2+z
1/2-x,1/2-y,1/2+z
1/2-x,1/2+y,z
1/2+x,1/2-y,z
loop_
_atom_site_type_symbol
_atom_site_label
_atom_site_fract_x
_atom_site_fract_y
_atom_site_fract_z
Si Si1 0.055870 0.834467 0.024320
Si Si2 0.605566 0.723657 0.253912
Si Si3 0.665478 0.089389 0.913200
Si Si4 0.144052 0.300533 0.393061
Si Si5 0.947261 0.863433 0.988325
Si Si6 0.723124 0.582033 0.913611
Si Si7 0.681605 0.521848 0.172330
Si Si8 0.868675 0.251814 0.631213
O O1 0.062481 0.756224 0.153544
O O2 0.097215 0.782838 0.933350
O O3 0.002215 0.811281 0.967478
O O4 0.058878 0.991383 0.044131
O O5 0.629041 0.857798 0.306436
O O6 0.582973 0.636023 0.362001
O O7 0.646644 0.648442 0.173875
O O8 0.721271 0.101337 0.872406
O O9 0.650235 0.942468 0.956335
O O10 0.664716 0.180866 0.030936
O O11 0.193989 0.219126 0.406910
O O12 0.134472 0.338501 0.252254
O O13 0.924087 0.759667 0.083123
O O14 0.705790 0.480488 0.807695
O O15 0.717663 0.528702 0.053692
O O16 0.649927 0.393255 0.157645
#
# Coordination Sequence:
#
# PCOD8190787 Si02
#       8
#     8   8   8   8   8   8   8   8
#     4  11  23  39  73 100 132 171 220 280 343 399
#     4  11  23  43  66  98 139 173 215 289 339 405
#     4  11  28  42  66  93 136 179 230 270 345 418
#     4  11  25  43  63  96 136 179 219 277 340 411
#     4  10  22  40  70 107 125 169 222 282 340 401
#     4  11  25  41  69  99 129 183 230 286 341 410
#     4  11  22  42  72  96 138 168 229 289 352 392
#     4  10  22  43  64  94 133 169 216 283 330 400
#
# _framework density 21.028148000000002
#
# number of rings (size 3 to 8) (size 9 to 14) (size 15 to 20)
#    0.000    1.250    2.500    3.000    8.750    2.000 
#    0.000    2.500    0.000    0.000    0.000    0.000 
#    0.000    0.000    0.000    0.000    0.000    0.000 
#
# Total GULP energy -396604.302443 kJ/mol
# GULP energy per Si atom -12393.884451 kJ/mol
# Density = 2.098029 g / cm^3
# Si number density = 21.028148 Si / 1000 Ang^3
#
#
#
# Elastic Constant Matrix: (Units=GPa)
#
#
# Indices 1 2 3 4 5 6 
#
# 1 127.0153 35.2381 29.0986 0.0000 0.0000 0.0000
# 2 35.2381 72.1763 9.5692 0.0000 0.0000 0.0000
# 3 29.0986 9.5692 111.1673 0.0000 0.0000 0.0000
# 4 0.0000 0.0000 0.0000 20.9857 0.0000 0.0000
# 5 0.0000 0.0000 0.0000 0.0000 23.6667 0.0000
# 6 0.0000 0.0000 0.0000 0.0000 0.0000 20.9877
#
#
#
# Elastic Compliance Matrix: (Units=1/GPa)
#
#
# Indices 1 2 3 4 5 6 
#
# 1 0.009580 -0.004395 -0.002129 0.000000 0.000000 0.000000
# 2 -0.004395 0.016031 -0.000230 0.000000 0.000000 0.000000
# 3 -0.002129 -0.000230 0.009573 0.000000 0.000000 0.000000
# 4 0.000000 0.000000 0.000000 0.047651 0.000000 0.000000
# 5 0.000000 0.000000 0.000000 0.000000 0.042253 0.000000
# 6 0.000000 0.000000 0.000000 0.000000 0.000000 0.047647
#
#
# Mechanical properties :
#
#
# Convention : Reuss Voigt Hill
#
# Bulk Modulus (GPa) = 46.13360 50.90788 48.52074
# Shear Modulus (GPa) = 25.84396 28.89157 27.36777
#
# Velocity S-wave (km/s) = 3.50954 3.71070 3.61152
# Velocity P-wave (km/s) = 6.19751 6.52848 6.36514
#
# Compressibility (1/GPa) = 0.02167617
#
# Stress axis : x y z
#
# Youngs Moduli (GPa) = 104.38204 62.37871 104.46511
#
# Poissons Ratio (x) = 0.27415 0.22244
# Poissons Ratio (y) = 0.45875 0.02398
# Poissons Ratio (z) = 0.22227 0.01432
#
# Static dielectric constant tensor:
#      x y z
#    x 3.846610 0.000000 0.000000 
#    y 0.000000 3.634510 0.000000 
#    z 0.000000 0.000000 4.119170 
# 
# 
# High freq. dielectric constant tensor:
#      x y z
#    x 1.822040 0.000000 0.000000 
#    y 0.000000 1.802820 0.000000 
#    z 0.000000 0.000000 1.838310 
# 
# From -- ./inp_files/4814.got.cif
#   From: 2010.03.12/outbox.cif.g09.slc.cpg/sg45_3_cif.got.tgz:4814.got - 2010.04.14 02:50:11.
