data_PCOD8190884
_publ_section_title
;
Structure prediction by ZEFSAII (Michael W. Deem and Ramdas Pophale) SiO2 
 PCOD8190884
Probable space group: I B A 2
;
_chemical_formula_sum "Si O2"
_cell_formula_units_Z 20
_cell_length_a 5.175188
_cell_length_b 12.838330
_cell_length_c 12.990355
_cell_angle_alpha 90.000000
_cell_angle_beta 90.000000
_cell_angle_gamma 90.000000
_cell_volume 863.089206
_symmetry_space_group_name_H-M "I B A 2"
_symmetry_group_IT_number 45
_symmetry_cell_setting 'orthorhombic'
loop_
_space_group_symop_operation_xyz
x,y,z
-x,-y,z
-x,y,1/2+z
x,-y,1/2+z
1/2+x,1/2+y,1/2+z
1/2-x,1/2-y,1/2+z
1/2-x,1/2+y,z
1/2+x,1/2-y,z
loop_
_atom_site_type_symbol
_atom_site_label
_atom_site_fract_x
_atom_site_fract_y
_atom_site_fract_z
Si Si1 0.238895 0.062002 0.224370
Si Si2 0.000000 0.000000 0.420802
Si Si3 0.272583 0.312566 0.538477
O O1 0.181611 0.073336 0.346910
O O2 0.244819 0.171631 0.162962
O O3 0.500000 0.000000 0.203349
O O4 0.000000 0.000000 0.172419
O O5 0.813214 0.074455 0.486538
O O6 0.500218 0.235261 0.503790
#
# Coordination Sequence:
#
# PCOD8190884 Si02
#       3
#     8   4   8
#     4  10  23  44  71  92 140 183 223 279 352 400
#     4  10  26  46  70 100 140 184 224 298 336 416
#     4  12  27  43  71 105 137 181 234 285 349 414
#
# _framework density 23.172578999999999
#
# number of rings (size 3 to 8) (size 9 to 14) (size 15 to 20)
#    1.200    0.000    2.000    2.400    5.600    3.200 
#    0.000    0.000    0.000    0.000    0.000    0.000 
#    0.000    0.000    0.000    0.000    0.000    0.000 
#
# Total GULP energy -123889.126638 kJ/mol
# GULP energy per Si atom -12388.912664 kJ/mol
# Density = 2.311984 g / cm^3
# Si number density = 23.172579 Si / 1000 Ang^3
#
#
#
# Elastic Constant Matrix: (Units=GPa)
#
#
# Indices 1 2 3 4 5 6 
#
# 1 155.2945 18.7850 14.6918 0.0000 0.0000 0.0000
# 2 18.7850 61.3229 35.5857 0.0000 0.0000 0.0000
# 3 14.6918 35.5857 96.9757 0.0000 0.0000 0.0000
# 4 0.0000 0.0000 0.0000 31.9559 0.0000 0.0000
# 5 0.0000 0.0000 0.0000 0.0000 369.2708 0.0000
# 6 0.0000 0.0000 0.0000 0.0000 0.0000 45.4001
#
#
#
# Elastic Compliance Matrix: (Units=1/GPa)
#
#
# Indices 1 2 3 4 5 6 
#
# 1 0.006696 -0.001858 -0.000333 0.000000 0.000000 0.000000
# 2 -0.001858 0.021235 -0.007511 0.000000 0.000000 0.000000
# 3 -0.000333 -0.007511 0.013118 0.000000 0.000000 0.000000
# 4 0.000000 0.000000 0.000000 0.031293 0.000000 0.000000
# 5 0.000000 0.000000 0.000000 0.000000 0.002708 0.000000
# 6 0.000000 0.000000 0.000000 0.000000 0.000000 0.022026
#
#
# Mechanical properties :
#
#
# Convention : Reuss Voigt Hill
#
# Bulk Modulus (GPa) = 46.19782 50.19089 48.19436
# Shear Modulus (GPa) = 40.42228 105.62742 73.02485
#
# Velocity S-wave (km/s) = 4.18113 6.75884 5.61978
# Velocity P-wave (km/s) = 6.57943 9.08932 7.93425
#
# Compressibility (1/GPa) = 0.02164604
#
# Stress axis : x y z
#
# Youngs Moduli (GPa) = 149.35188 47.09264 76.22926
#
# Poissons Ratio (x) = 0.08750 0.02535
# Poissons Ratio (y) = 0.27751 0.57253
# Poissons Ratio (z) = 0.04967 0.35370
#
# Static dielectric constant tensor:
#      x y z
#    x 4.020110 0.000000 0.000000 
#    y 0.000000 4.590840 0.000000 
#    z 0.000000 0.000000 4.178280 
# 
# 
# High freq. dielectric constant tensor:
#      x y z
#    x 1.925780 0.000000 0.000000 
#    y 0.000000 1.883740 0.000000 
#    z 0.000000 0.000000 1.918550 
# 
# From -- ./inp_files/2800.got.cif
#   From: 2010.03.12/outbox.cif.g09.slc.cpg/sg45_2_cif.got.tgz:2800.got - 2010.04.14 02:50:11.
