data_PCOD8190163
_publ_section_title
;
Structure prediction by ZEFSAII (Michael W. Deem and Ramdas Pophale) SiO2 
 PCOD8190163
Probable space group: I M M 2
;
_chemical_formula_sum "Si O2"
_cell_formula_units_Z 64
_cell_length_a 9.001558
_cell_length_b 24.805650
_cell_length_c 15.012824
_cell_angle_alpha 90.000000
_cell_angle_beta 90.000000
_cell_angle_gamma 90.000000
_cell_volume 3352.205923
_symmetry_space_group_name_H-M "I M M 2"
_symmetry_group_IT_number 44
_symmetry_cell_setting 'orthorhombic'
loop_
_space_group_symop_operation_xyz
x,y,z
-x,-y,z
-x,y,z
x,-y,z
1/2+x,1/2+y,1/2+z
1/2-x,1/2-y,1/2+z
1/2-x,1/2+y,1/2+z
1/2+x,1/2-y,1/2+z
loop_
_atom_site_type_symbol
_atom_site_label
_atom_site_fract_x
_atom_site_fract_y
_atom_site_fract_z
Si Si1 0.830866 0.777553 0.180850
Si Si2 0.824528 0.168344 0.657890
Si Si3 0.169843 0.438780 0.483616
Si Si4 0.674418 0.143262 0.484162
Si Si5 0.172968 0.561987 0.831343
Si Si6 0.832342 0.234550 0.386683
Si Si7 0.326362 0.853078 0.840294
Si Si8 0.174689 0.897028 0.153918
O O1 0.724298 0.730633 0.145435
O O2 0.815393 0.785601 0.286128
O O3 0.782371 0.834364 0.137976
O O4 0.000000 0.761673 0.156210
O O5 0.758380 0.133040 0.577177
O O6 0.764929 0.143278 0.749355
O O7 0.000000 0.164936 0.657008
O O8 0.185679 0.500000 0.450937
O O9 0.226863 0.401649 0.402964
O O10 0.267281 0.430978 0.571057
O O11 0.000000 0.424202 0.507320
O O12 0.500000 0.141077 0.501338
O O13 0.727149 0.097317 0.415277
O O14 0.717466 0.202226 0.447386
O O15 0.207742 0.500000 0.853830
O O16 0.257811 0.579553 0.743549
O O17 0.000000 0.571808 0.813256
O O18 0.791642 0.297652 0.392297
O O19 0.000000 0.224000 0.421197
O O20 0.500000 0.856031 0.815484
O O21 0.000000 0.903863 0.161774
#
# Coordination Sequence:
#
# PCOD8190163 Si02
#       8
#     8   8   8   8   8   8   8   8
#     4   9  19  36  55  81 118 154 187 227 278 340
#     4  11  23  37  58  85 116 151 190 238 290 346
#     4  10  22  40  61  85 114 152 198 240 282 338
#     4  11  22  36  57  84 116 153 192 237 285 338
#     4  10  22  40  60  83 114 154 198 239 281 337
#     4   9  17  33  55  81 113 146 184 232 281 337
#     4   9  20  40  61  82 113 151 190 239 292 338
#     4  11  22  36  57  87 120 154 190 233 286 340
#
# _framework density 19.091906000000002
#
# number of rings (size 3 to 8) (size 9 to 14) (size 15 to 20)
#    0.000    2.000    1.250    3.000    1.750    6.000 
#    0.000    0.625    0.000    3.750    0.000    0.000 
#    0.000    0.000    0.000    0.000    0.000    0.000 
#
# Total GULP energy -396906.849661 kJ/mol
# GULP energy per Si atom -12403.339052 kJ/mol
# Density = 1.904845 g / cm^3
# Si number density = 19.091906 Si / 1000 Ang^3
#
#
#
# Elastic Constant Matrix: (Units=GPa)
#
#
# Indices 1 2 3 4 5 6 
#
# 1 86.7611 49.0617 61.7416 0.0000 0.0000 0.0000
# 2 49.0617 110.7055 71.0248 0.0000 0.0000 0.0000
# 3 61.7416 71.0248 120.2974 -0.0004 0.0001 0.0001
# 4 0.0000 0.0000 -0.0004 29.1087 0.0000 0.0000
# 5 0.0000 0.0000 0.0001 0.0000 28.9978 0.0000
# 6 0.0000 0.0000 0.0001 0.0000 0.0000 24.9526
#
#
#
# Elastic Compliance Matrix: (Units=1/GPa)
#
#
# Indices 1 2 3 4 5 6 
#
# 1 0.018953 -0.003475 -0.007676 0.000000 0.000000 0.000000
# 2 -0.003475 0.015178 -0.007178 0.000000 0.000000 0.000000
# 3 -0.007676 -0.007178 0.016490 0.000000 0.000000 0.000000
# 4 0.000000 0.000000 0.000000 0.034354 0.000000 0.000000
# 5 0.000000 0.000000 0.000000 0.000000 0.034485 0.000000
# 6 0.000000 0.000000 0.000000 0.000000 0.000000 0.040076
#
#
# Mechanical properties :
#
#
# Convention : Reuss Voigt Hill
#
# Bulk Modulus (GPa) = 71.61207 75.71337 73.66272
# Shear Modulus (GPa) = 24.89433 25.67423 25.28428
#
# Velocity S-wave (km/s) = 3.61490 3.67109 3.64310
# Velocity P-wave (km/s) = 7.41714 7.59688 7.50755
#
# Compressibility (1/GPa) = 0.01396413
#
# Stress axis : x y z
#
# Youngs Moduli (GPa) = 52.76096 65.88493 60.64213
#
# Poissons Ratio (x) = 0.22895 0.46549
# Poissons Ratio (y) = 0.18334 0.43527
# Poissons Ratio (z) = 0.40499 0.47290
#
# Static dielectric constant tensor:
#      x y z
#    x 3.409910 0.000000 0.000000 
#    y 0.000000 3.560680 0.000000 
#    z 0.000000 0.000000 3.502240 
# 
# 
# High freq. dielectric constant tensor:
#      x y z
#    x 1.738390 0.000000 0.000000 
#    y 0.000000 1.737050 0.000000 
#    z 0.000000 0.000000 1.742800 
# 
# From -- ./inp_files/16895.got.cif
#   From: 2010.03.12/outbox.cif.g09.slc.cpg/sg44_9_cif.got.tgz:16895.got - 2010.04.14 02:36:11.
