data_PCOD8190187
_publ_section_title
;
Structure prediction by ZEFSAII (Michael W. Deem and Ramdas Pophale) SiO2 
 PCOD8190187
Probable space group: I M M 2
;
_chemical_formula_sum "Si O2"
_cell_formula_units_Z 64
_cell_length_a 18.816208
_cell_length_b 15.069015
_cell_length_c 11.566784
_cell_angle_alpha 90.000000
_cell_angle_beta 90.000000
_cell_angle_gamma 90.000000
_cell_volume 3279.665837
_symmetry_space_group_name_H-M "I M M 2"
_symmetry_group_IT_number 44
_symmetry_cell_setting 'orthorhombic'
loop_
_space_group_symop_operation_xyz
x,y,z
-x,-y,z
-x,y,z
x,-y,z
1/2+x,1/2+y,1/2+z
1/2-x,1/2-y,1/2+z
1/2-x,1/2+y,1/2+z
1/2+x,1/2-y,1/2+z
loop_
_atom_site_type_symbol
_atom_site_label
_atom_site_fract_x
_atom_site_fract_y
_atom_site_fract_z
Si Si1 0.878227 0.398938 0.963280
Si Si2 0.081455 0.677758 0.202930
Si Si3 0.919086 0.763161 0.818029
Si Si4 0.818720 0.099194 0.940503
Si Si5 0.784928 0.100547 0.432760
Si Si6 0.303192 0.674952 0.682383
Si Si7 0.338700 0.748854 0.090685
Si Si8 0.659173 0.899197 0.915972
O O1 0.895980 0.500000 0.928781
O O2 0.907899 0.337229 0.861252
O O3 0.794484 0.383997 0.978155
O O4 0.915477 0.375668 0.083564
O O5 0.125682 0.768169 0.197302
O O6 0.111510 0.615184 0.303603
O O7 0.000000 0.702546 0.229852
O O8 0.874018 0.829669 0.895807
O O9 0.898562 0.771598 0.684483
O O10 0.000000 0.792078 0.832343
O O11 0.741719 0.120637 0.884475
O O12 0.843256 0.000000 0.906751
O O13 0.813664 0.105374 0.078985
O O14 0.787837 0.119767 0.297036
O O15 0.836016 0.165849 0.503437
O O16 0.809975 0.000000 0.455690
O O17 0.236523 0.738337 0.654629
O O18 0.364092 0.835345 0.020263
O O19 0.650228 0.000000 0.959347
#
# Coordination Sequence:
#
# PCOD8190187 Si02
#       8
#     8   8   8   8   8   8   8   8
#     4  11  23  39  61  92 124 158 199 247 304 365
#     4  12  23  37  61  90 125 164 200 243 300 363
#     4  12  25  41  60  87 125 167 200 238 298 364
#     4  10  22  40  66  92 116 150 201 257 302 350
#     4  11  22  39  68  95 118 155 205 258 306 351
#     4  11  20  40  65  91 120 156 200 254 301 356
#     4  11  22  40  63  89 124 159 203 252 294 358
#     4  10  22  40  64  91 119 156 202 253 304 351
#
# _framework density 19.514184
#
# number of rings (size 3 to 8) (size 9 to 14) (size 15 to 20)
#    0.000    1.000    5.000    2.625    0.000    4.000 
#    0.000    0.000    0.000    1.875    0.000    0.000 
#    0.000    0.000    0.000    0.000    0.000    0.000 
#
# Total GULP energy -396970.751758 kJ/mol
# GULP energy per Si atom -12405.335992 kJ/mol
# Density = 1.946977 g / cm^3
# Si number density = 19.514184 Si / 1000 Ang^3
#
#
#
# Elastic Constant Matrix: (Units=GPa)
#
#
# Indices 1 2 3 4 5 6 
#
# 1 73.3097 34.4481 24.3994 0.0000 0.0000 0.0000
# 2 34.4481 92.4375 37.4429 0.0000 0.0000 0.0000
# 3 24.3994 37.4429 105.4729 0.0000 0.0000 0.0000
# 4 0.0000 0.0000 0.0000 18.7082 0.0000 0.0000
# 5 0.0000 0.0000 0.0000 0.0000 2.9366 0.0000
# 6 0.0000 0.0000 0.0000 0.0000 0.0000 15.2059
#
#
#
# Elastic Compliance Matrix: (Units=1/GPa)
#
#
# Indices 1 2 3 4 5 6 
#
# 1 0.016874 -0.005498 -0.001952 0.000000 0.000000 0.000000
# 2 -0.005498 0.014426 -0.003850 0.000000 0.000000 0.000000
# 3 -0.001952 -0.003850 0.011299 0.000000 0.000000 0.000000
# 4 0.000000 0.000000 0.000000 0.053453 0.000000 0.000000
# 5 0.000000 0.000000 0.000000 0.000000 0.340529 0.000000
# 6 0.000000 0.000000 0.000000 0.000000 0.000000 0.065764
#
#
# Mechanical properties :
#
#
# Convention : Reuss Voigt Hill
#
# Bulk Modulus (GPa) = 49.99694 51.53343 50.76519
# Shear Modulus (GPa) = 9.40541 19.03213 14.21877
#
# Velocity S-wave (km/s) = 2.19778 3.12636 2.70226
# Velocity P-wave (km/s) = 5.66717 6.28472 5.98392
#
# Compressibility (1/GPa) = 0.02000122
#
# Stress axis : x y z
#
# Youngs Moduli (GPa) = 59.26388 69.31848 88.50187
#
# Poissons Ratio (x) = 0.38109 0.17274
# Poissons Ratio (y) = 0.32581 0.34069
# Poissons Ratio (z) = 0.11567 0.26684
#
# Static dielectric constant tensor:
#      x y z
#    x 3.432240 0.000000 0.000000 
#    y 0.000000 3.593300 0.000000 
#    z 0.000000 0.000000 3.613670 
# 
# 
# High freq. dielectric constant tensor:
#      x y z
#    x 1.740910 0.000000 0.000000 
#    y 0.000000 1.765340 0.000000 
#    z 0.000000 0.000000 1.767360 
# 
# From -- ./inp_files/13412.got.cif
#   From: 2010.03.12/outbox.cif.g09.slc.cpg/sg44_7_cif.got.tgz:13412.got - 2010.04.14 02:36:11.
