data_PCOD8190235
_publ_section_title
;
Structure prediction by ZEFSAII (Michael W. Deem and Ramdas Pophale) SiO2 
 PCOD8190235
Probable space group: I M M 2
;
_chemical_formula_sum "Si O2"
_cell_formula_units_Z 48
_cell_length_a 27.532651
_cell_length_b 8.621483
_cell_length_c 9.672709
_cell_angle_alpha 90.000000
_cell_angle_beta 90.000000
_cell_angle_gamma 90.000000
_cell_volume 2296.033014
_symmetry_space_group_name_H-M "I M M 2"
_symmetry_group_IT_number 44
_symmetry_cell_setting 'orthorhombic'
loop_
_space_group_symop_operation_xyz
x,y,z
-x,-y,z
-x,y,z
x,-y,z
1/2+x,1/2+y,1/2+z
1/2-x,1/2-y,1/2+z
1/2-x,1/2+y,1/2+z
1/2+x,1/2-y,1/2+z
loop_
_atom_site_type_symbol
_atom_site_label
_atom_site_fract_x
_atom_site_fract_y
_atom_site_fract_z
Si Si1 0.098670 0.681015 0.830410
Si Si2 0.203697 0.319131 0.720850
Si Si3 0.944827 0.823449 0.580298
Si Si4 0.110069 0.321156 0.343673
Si Si5 0.791439 0.180992 0.420608
Si Si6 0.944127 0.180986 0.094697
O O1 0.090373 0.500000 0.808452
O O2 0.152539 0.732340 0.785935
O O3 0.059770 0.776992 0.740538
O O4 0.089089 0.723755 0.988812
O O5 0.204135 0.500000 0.683724
O O6 0.214829 0.227721 0.580246
O O7 0.242862 0.276960 0.837562
O O8 0.909962 0.707172 0.497708
O O9 0.000000 0.802710 0.531488
O O10 0.927683 0.000000 0.558086
O O11 0.104868 0.500000 0.301823
O O12 0.166209 0.273995 0.342336
O O13 0.077605 0.214843 0.244903
O O14 0.803549 0.000000 0.413075
O O15 0.000000 0.236821 0.089096
O O16 0.940213 0.000000 0.062587
#
# Coordination Sequence:
#
# PCOD8190235 Si02
#       6
#     8   8   8   8   8   8
#     4  11  23  41  65  95 131 167 209 263 317 378
#     4  10  24  44  65  97 131 165 212 263 316 381
#     4  11  23  40  64  94 127 165 210 260 318 384
#     4  12  25  42  65  94 129 167 215 268 320 380
#     4  11  24  43  68  97 130 169 213 260 321 386
#     4  11  25  44  65  93 130 172 218 266 320 384
#
# _framework density 20.905622999999999
#
# number of rings (size 3 to 8) (size 9 to 14) (size 15 to 20)
#    0.000    1.000    1.667    4.500    2.333    8.667 
#    0.000    0.000    0.000    0.000    0.000    0.000 
#    0.000    0.000    0.000    0.000    0.000    0.000 
#
# Total GULP energy -297777.575868 kJ/mol
# GULP energy per Si atom -12407.398994 kJ/mol
# Density = 2.085804 g / cm^3
# Si number density = 20.905623 Si / 1000 Ang^3
#
#
#
# Elastic Constant Matrix: (Units=GPa)
#
#
# Indices 1 2 3 4 5 6 
#
# 1 114.0568 49.0912 47.5098 0.0000 0.0000 0.0000
# 2 49.0912 81.7217 27.3058 0.0000 0.0000 0.0000
# 3 47.5098 27.3058 98.5509 0.0000 0.0000 0.0000
# 4 0.0000 0.0000 0.0000 41.2742 0.0000 0.0000
# 5 0.0000 0.0000 0.0000 0.0000 43.8304 0.0000
# 6 0.0000 0.0000 0.0000 0.0000 0.0000 29.0894
#
#
#
# Elastic Compliance Matrix: (Units=1/GPa)
#
#
# Indices 1 2 3 4 5 6 
#
# 1 0.013560 -0.006570 -0.004717 0.000000 0.000000 0.000000
# 2 -0.006570 0.016668 -0.001451 0.000000 0.000000 0.000000
# 3 -0.004717 -0.001451 0.012823 0.000000 0.000000 0.000000
# 4 0.000000 0.000000 0.000000 0.024228 0.000000 0.000000
# 5 0.000000 0.000000 0.000000 0.000000 0.022815 0.000000
# 6 0.000000 0.000000 0.000000 0.000000 0.000000 0.034377
#
#
# Mechanical properties :
#
#
# Convention : Reuss Voigt Hill
#
# Bulk Modulus (GPa) = 56.89618 60.23809 58.56713
# Shear Modulus (GPa) = 32.09146 34.20030 33.14588
#
# Velocity S-wave (km/s) = 3.92224 4.04906 3.98615
# Velocity P-wave (km/s) = 6.91280 7.12297 7.01867
#
# Compressibility (1/GPa) = 0.01757587
#
# Stress axis : x y z
#
# Youngs Moduli (GPa) = 73.74680 59.99537 77.98497
#
# Poissons Ratio (x) = 0.39414 0.36784
# Poissons Ratio (y) = 0.48449 0.11317
# Poissons Ratio (z) = 0.34785 0.08706
#
# Static dielectric constant tensor:
#      x y z
#    x 3.838420 0.000000 0.000000 
#    y 0.000000 3.692700 0.000000 
#    z 0.000000 0.000000 3.679470 
# 
# 
# High freq. dielectric constant tensor:
#      x y z
#    x 1.828630 0.000000 0.000000 
#    y 0.000000 1.823020 0.000000 
#    z 0.000000 0.000000 1.827020 
# 
# From -- ./inp_files/4885.got.cif
#   From: 2010.03.12/outbox.cif.g09.slc.cpg/sg44_3_cif.got.tgz:4885.got - 2010.04.14 02:36:11.
