data_PCOD8190137
_publ_section_title
;
Structure prediction by ZEFSAII (Michael W. Deem and Ramdas Pophale) SiO2 
 PCOD8190137
Probable space group: I M M 2
;
_chemical_formula_sum "Si O2"
_cell_formula_units_Z 64
_cell_length_a 8.712893
_cell_length_b 29.613019
_cell_length_c 12.680766
_cell_angle_alpha 90.000000
_cell_angle_beta 90.000000
_cell_angle_gamma 90.000000
_cell_volume 3271.828676
_symmetry_space_group_name_H-M "I M M 2"
_symmetry_group_IT_number 44
_symmetry_cell_setting 'orthorhombic'
loop_
_space_group_symop_operation_xyz
x,y,z
-x,-y,z
-x,y,z
x,-y,z
1/2+x,1/2+y,1/2+z
1/2-x,1/2-y,1/2+z
1/2-x,1/2+y,1/2+z
1/2+x,1/2-y,1/2+z
loop_
_atom_site_type_symbol
_atom_site_label
_atom_site_fract_x
_atom_site_fract_y
_atom_site_fract_z
Si Si1 0.177697 0.286445 0.846530
Si Si2 0.675971 0.215660 0.974245
Si Si3 0.180168 0.949307 0.074890
Si Si4 0.818468 0.622707 0.964968
Si Si5 0.178508 0.850955 0.678587
Si Si6 0.177492 0.874825 0.910869
Si Si7 0.677811 0.753593 0.669184
Si Si8 0.318807 0.948571 0.293568
O O1 0.289700 0.243270 0.867814
O O2 0.230698 0.331419 0.905670
O O3 0.217813 0.286682 0.722174
O O4 0.000000 0.276098 0.866975
O O5 0.500000 0.220141 0.009629
O O6 0.717669 0.163721 0.961099
O O7 0.793597 0.243487 0.047100
O O8 0.253194 0.929882 0.182873
O O9 0.000000 0.948836 0.092232
O O10 0.241397 0.000000 0.054243
O O11 0.226402 0.920273 0.972200
O O12 0.759931 0.581495 0.891840
O O13 0.000000 0.620883 0.982034
O O14 0.738071 0.620023 0.078819
O O15 0.206420 0.880241 0.785293
O O16 0.269776 0.804678 0.691332
O O17 0.000000 0.839916 0.662558
O O18 0.000000 0.862724 0.932118
O O19 0.500000 0.748707 0.696756
O O20 0.500000 0.944678 0.285923
O O21 0.264198 0.000000 0.313350
#
# Coordination Sequence:
#
# PCOD8190137 Si02
#       8
#     8   8   8   8   8   8   8   8
#     4  11  22  37  55  80 115 151 194 241 284 339
#     4  12  24  37  56  82 113 153 197 239 285 340
#     4   9  19  38  63  89 116 147 185 233 291 349
#     4  10  22  38  58  83 115 153 192 238 291 344
#     4  11  22  37  58  81 114 155 197 241 284 337
#     4  10  22  39  58  84 117 153 192 240 292 342
#     4  12  24  38  55  78 113 155 196 241 288 340
#     4   9  19  38  62  88 117 148 184 233 293 348
#
# _framework density 19.560925999999998
#
# number of rings (size 3 to 8) (size 9 to 14) (size 15 to 20)
#    0.000    1.500    2.500    3.000    1.750    2.000 
#    0.000    0.625    0.000    0.750    0.000    0.000 
#    0.000    0.000    0.000    0.000    0.000    0.000 
#
# Total GULP energy -396710.621084 kJ/mol
# GULP energy per Si atom -12397.206909 kJ/mol
# Density = 1.951640 g / cm^3
# Si number density = 19.560926 Si / 1000 Ang^3
#
#
#
# Elastic Constant Matrix: (Units=GPa)
#
#
# Indices 1 2 3 4 5 6 
#
# 1 73.3422 38.5707 43.2295 -0.0001 -0.0002 0.0000
# 2 38.5707 101.5870 67.5477 0.0002 0.0001 0.0000
# 3 43.2295 67.5477 127.7336 0.0008 0.0005 -0.0005
# 4 -0.0001 0.0002 0.0008 39.5240 0.0001 -0.0002
# 5 -0.0002 0.0001 0.0005 0.0001 34.1864 0.0002
# 6 0.0000 0.0000 -0.0005 -0.0002 0.0002 20.3864
#
#
#
# Elastic Compliance Matrix: (Units=1/GPa)
#
#
# Indices 1 2 3 4 5 6 
#
# 1 0.018193 -0.004339 -0.003863 0.000000 0.000000 0.000000
# 2 -0.004339 0.016217 -0.007107 0.000000 0.000000 0.000000
# 3 -0.003863 -0.007107 0.012894 0.000000 0.000000 0.000000
# 4 0.000000 0.000000 0.000000 0.025301 0.000000 0.000000
# 5 0.000000 0.000000 0.000000 0.000000 0.029251 0.000000
# 6 0.000000 0.000000 0.000000 0.000000 0.000000 0.049052
#
#
# Mechanical properties :
#
#
# Convention : Reuss Voigt Hill
#
# Bulk Modulus (GPa) = 59.92837 66.81764 63.37300
# Shear Modulus (GPa) = 26.72500 29.04037 27.88268
#
# Velocity S-wave (km/s) = 3.70028 3.85725 3.77958
# Velocity P-wave (km/s) = 6.99710 7.35328 7.17740
#
# Compressibility (1/GPa) = 0.01668659
#
# Stress axis : x y z
#
# Youngs Moduli (GPa) = 54.96472 61.66282 77.55246
#
# Poissons Ratio (x) = 0.26758 0.29955
# Poissons Ratio (y) = 0.23852 0.55119
# Poissons Ratio (z) = 0.21230 0.43826
#
# Static dielectric constant tensor:
#      x y z
#    x 3.406290 0.000000 0.000000 
#    y 0.000000 3.522570 0.000000 
#    z 0.000000 0.000000 3.811450 
# 
# 
# High freq. dielectric constant tensor:
#      x y z
#    x 1.759100 0.000000 0.000000 
#    y 0.000000 1.740640 0.000000 
#    z 0.000000 0.000000 1.781220 
# 
# From -- ./inp_files/11430.got.cif
#   From: 2010.03.12/outbox.cif.g09.slc.cpg/sg44_6_cif.got.tgz:11430.got - 2010.04.14 02:36:11.
