data_PCOD8190711
_publ_section_title
;
Structure prediction by ZEFSAII (Michael W. Deem and Ramdas Pophale) SiO2 
 PCOD8190711
Probable space group: I B A 2
;
_chemical_formula_sum "Si O2"
_cell_formula_units_Z 64
_cell_length_a 9.073671
_cell_length_b 18.294470
_cell_length_c 18.173372
_cell_angle_alpha 90.000000
_cell_angle_beta 90.000000
_cell_angle_gamma 90.000000
_cell_volume 3016.743440
_symmetry_space_group_name_H-M "I B A 2"
_symmetry_group_IT_number 45
_symmetry_cell_setting 'orthorhombic'
loop_
_space_group_symop_operation_xyz
x,y,z
-x,-y,z
-x,y,1/2+z
x,-y,1/2+z
1/2+x,1/2+y,1/2+z
1/2-x,1/2-y,1/2+z
1/2-x,1/2+y,z
1/2+x,1/2-y,z
loop_
_atom_site_type_symbol
_atom_site_label
_atom_site_fract_x
_atom_site_fract_y
_atom_site_fract_z
Si Si1 0.606092 0.937871 0.077030
Si Si2 0.910147 0.668779 0.167782
Si Si3 0.122639 0.947584 0.676113
Si Si4 0.007335 0.650623 0.330488
Si Si5 0.073664 0.184538 0.681468
Si Si6 0.775305 0.580493 0.421907
Si Si7 0.804783 0.067327 0.839391
Si Si8 0.047142 0.817980 0.352179
O O1 0.487466 0.882867 0.109678
O O2 0.717863 0.962259 0.141165
O O3 0.500000 0.000000 0.046066
O O4 0.707635 0.912849 0.009462
O O5 0.922125 0.646198 0.253022
O O6 0.736511 0.674035 0.146191
O O7 0.006472 0.740253 0.155851
O O8 0.135972 0.964958 0.762816
O O9 0.057214 0.868873 0.656371
O O10 0.000000 0.000000 0.641581
O O11 0.933544 0.593169 0.385577
O O12 0.010300 0.732363 0.366279
O O13 0.167023 0.617391 0.318724
O O14 0.096222 0.176729 0.768093
O O15 0.713166 0.501169 0.395360
O O16 0.680935 0.651971 0.400587
O O17 0.915044 0.127229 0.873560
#
# Coordination Sequence:
#
# PCOD8190711 Si02
#       8
#     8   8   8   8   8   8   8   8
#     4  12  27  44  64  98 140 183 229 286 356 417
#     4  11  22  41  69  98 136 176 223 290 337 407
#     4  11  23  40  65 100 132 176 234 282 339 414
#     4  11  22  39  70  99 130 176 228 281 341 406
#     4  10  21  40  70 103 131 176 232 280 339 409
#     4  12  25  45  64  98 139 179 223 286 349 417
#     4  11  22  39  68 100 129 178 229 279 338 404
#     4  10  22  40  68 100 135 170 228 285 334 404
#
# _framework density 21.214928
#
# number of rings (size 3 to 8) (size 9 to 14) (size 15 to 20)
#    0.000    1.000    2.500    5.250    8.750    1.000 
#    4.500    1.250    0.000    0.000    0.000    0.000 
#    0.000    0.000    0.000    0.000    0.000    0.000 
#
# Total GULP energy -396582.489924 kJ/mol
# GULP energy per Si atom -12393.202810 kJ/mol
# Density = 2.116664 g / cm^3
# Si number density = 21.214928 Si / 1000 Ang^3
#
#
#
# Elastic Constant Matrix: (Units=GPa)
#
#
# Indices 1 2 3 4 5 6 
#
# 1 111.8444 25.9618 16.1927 0.0000 0.0000 0.0000
# 2 25.9618 103.8892 36.6542 0.0000 0.0000 0.0000
# 3 16.1927 36.6542 60.8998 0.0000 0.0000 0.0000
# 4 0.0000 0.0000 0.0000 17.8624 0.0000 0.0000
# 5 0.0000 0.0000 0.0000 0.0000 37.8571 0.0000
# 6 0.0000 0.0000 0.0000 0.0000 0.0000 32.5416
#
#
#
# Elastic Compliance Matrix: (Units=1/GPa)
#
#
# Indices 1 2 3 4 5 6 
#
# 1 0.009585 -0.001900 -0.001405 0.000000 0.000000 0.000000
# 2 -0.001900 0.012597 -0.007077 0.000000 0.000000 0.000000
# 3 -0.001405 -0.007077 0.021054 0.000000 0.000000 0.000000
# 4 0.000000 0.000000 0.000000 0.055984 0.000000 0.000000
# 5 0.000000 0.000000 0.000000 0.000000 0.026415 0.000000
# 6 0.000000 0.000000 0.000000 0.000000 0.000000 0.030730
#
#
# Mechanical properties :
#
#
# Convention : Reuss Voigt Hill
#
# Bulk Modulus (GPa) = 44.49885 48.25007 46.37446
# Shear Modulus (GPa) = 27.08276 30.84051 28.96164
#
# Velocity S-wave (km/s) = 3.57682 3.81690 3.69881
# Velocity P-wave (km/s) = 6.17081 6.49752 6.33627
#
# Compressibility (1/GPa) = 0.02247249
#
# Stress axis : x y z
#
# Youngs Moduli (GPa) = 104.32542 79.38274 47.49800
#
# Poissons Ratio (x) = 0.15079 0.06675
# Poissons Ratio (y) = 0.19817 0.33614
# Poissons Ratio (z) = 0.14662 0.56178
#
# Static dielectric constant tensor:
#      x y z
#    x 4.051280 0.000000 0.000000 
#    y 0.000000 4.018450 0.000000 
#    z 0.000000 0.000000 3.456070 
# 
# 
# High freq. dielectric constant tensor:
#      x y z
#    x 1.856770 0.000000 0.000000 
#    y 0.000000 1.843780 0.000000 
#    z 0.000000 0.000000 1.793510 
# 
# From -- ./inp_files/8969.got.cif
#   From: 2010.03.12/outbox.cif.g09.slc.cpg/sg45_5_cif.got.tgz:8969.got - 2010.04.14 02:50:11.
