data_PCOD8190003
_publ_section_title
;
Structure prediction by ZEFSAII (Michael W. Deem and Ramdas Pophale) SiO2 
 PCOD8190003
Probable space group: I M M 2
;
_chemical_formula_sum "Si O2"
_cell_formula_units_Z 48
_cell_length_a 8.629859
_cell_length_b 22.945432
_cell_length_c 11.674452
_cell_angle_alpha 90.000000
_cell_angle_beta 90.000000
_cell_angle_gamma 90.000000
_cell_volume 2311.726453
_symmetry_space_group_name_H-M "I M M 2"
_symmetry_group_IT_number 44
_symmetry_cell_setting 'orthorhombic'
loop_
_space_group_symop_operation_xyz
x,y,z
-x,-y,z
-x,y,z
x,-y,z
1/2+x,1/2+y,1/2+z
1/2-x,1/2-y,1/2+z
1/2-x,1/2+y,1/2+z
1/2+x,1/2-y,1/2+z
loop_
_atom_site_type_symbol
_atom_site_label
_atom_site_fract_x
_atom_site_fract_y
_atom_site_fract_z
Si Si1 0.680329 0.148020 0.898490
Si Si2 0.326990 0.564860 0.982539
Si Si3 0.825451 0.837410 0.653314
Si Si4 0.321944 0.133177 0.292404
Si Si5 0.181908 0.067420 0.081656
Si Si6 0.819230 0.264791 0.959381
O O1 0.500000 0.141431 0.874234
O O2 0.771425 0.156111 0.781674
O O3 0.716527 0.206865 0.968150
O O4 0.736756 0.090869 0.966703
O O5 0.500000 0.570449 0.927665
O O6 0.283992 0.500000 0.015926
O O7 0.319639 0.598340 0.101532
O O8 0.200579 0.586161 0.892131
O O9 0.712949 0.796907 0.578872
O O10 0.000000 0.811703 0.650612
O O11 0.500000 0.134967 0.254243
O O12 0.223342 0.112192 0.183847
O O13 0.270741 0.195658 0.347910
O O14 0.000000 0.069675 0.062320
O O15 0.234571 0.000000 0.105836
O O16 0.000000 0.249294 0.952201
#
# Coordination Sequence:
#
# PCOD8190003 Si02
#       6
#     8   8   8   8   8   8
#     4  12  26  42  63  90 123 164 207 258 317 378
#     4   9  18  34  58  87 119 158 201 245 298 359
#     4  10  21  39  61  88 122 158 203 253 306 370
#     4  10  21  37  61  93 126 160 203 256 310 366
#     4  11  25  44  65  90 125 170 216 261 315 380
#     4  10  22  41  64  91 124 161 206 258 316 377
#
# _framework density 20.763704000000001
#
# number of rings (size 3 to 8) (size 9 to 14) (size 15 to 20)
#    0.000    1.667    0.000    4.000    2.333    7.000 
#    0.000    1.667    0.000    0.000    0.000    0.000 
#    0.000    0.000    0.000    0.000    0.000    0.000 
#
# Total GULP energy -297565.832961 kJ/mol
# GULP energy per Si atom -12398.576373 kJ/mol
# Density = 2.071645 g / cm^3
# Si number density = 20.763704 Si / 1000 Ang^3
#
#
#
# Elastic Constant Matrix: (Units=GPa)
#
#
# Indices 1 2 3 4 5 6 
#
# 1 67.6498 22.8671 8.0990 -0.0001 0.0000 0.0000
# 2 22.8671 84.7276 12.5169 0.0001 0.0000 0.0000
# 3 8.0990 12.5169 84.2254 0.0005 -0.0001 0.0000
# 4 -0.0001 0.0001 0.0005 21.6092 0.0000 0.0000
# 5 0.0000 0.0000 -0.0001 0.0000 35.3175 0.0000
# 6 0.0000 0.0000 0.0000 0.0000 0.0000 29.9394
#
#
#
# Elastic Compliance Matrix: (Units=1/GPa)
#
#
# Indices 1 2 3 4 5 6 
#
# 1 0.016338 -0.004271 -0.000936 0.000000 0.000000 0.000000
# 2 -0.004271 0.013184 -0.001549 0.000000 0.000000 0.000000
# 3 -0.000936 -0.001549 0.012193 0.000000 0.000000 0.000000
# 4 0.000000 0.000000 0.000000 0.046277 0.000000 0.000000
# 5 0.000000 0.000000 0.000000 0.000000 0.028315 0.000000
# 6 0.000000 0.000000 0.000000 0.000000 0.000000 0.033401
#
#
# Mechanical properties :
#
#
# Convention : Reuss Voigt Hill
#
# Bulk Modulus (GPa) = 35.45726 35.95209 35.70468
# Shear Modulus (GPa) = 28.96538 30.24787 29.60662
#
# Velocity S-wave (km/s) = 3.73902 3.82090 3.78018
# Velocity P-wave (km/s) = 5.97947 6.06780 6.02379
#
# Compressibility (1/GPa) = 0.02820297
#
# Stress axis : x y z
#
# Youngs Moduli (GPa) = 61.20762 75.84935 82.01372
#
# Poissons Ratio (x) = 0.32396 0.07679
# Poissons Ratio (y) = 0.26142 0.12701
# Poissons Ratio (z) = 0.05731 0.11746
#
# Static dielectric constant tensor:
#      x y z
#    x 3.808560 0.000000 0.000000 
#    y 0.000000 4.024820 0.000000 
#    z 0.000000 0.000000 3.662550 
# 
# 
# High freq. dielectric constant tensor:
#      x y z
#    x 1.815250 0.000000 0.000000 
#    y 0.000000 1.817060 0.000000 
#    z 0.000000 0.000000 1.811150 
# 
# From -- ./inp_files/11163.got.cif
#   From: 2010.03.12/outbox.cif.g09.slc.cpg/sg44_6_cif.got.tgz:11163.got - 2010.04.14 02:36:11.
