data_PCOD8190779
_publ_section_title
;
Structure prediction by ZEFSAII (Michael W. Deem and Ramdas Pophale) SiO2 
 PCOD8190779
Probable space group: I B A 2
;
_chemical_formula_sum "Si O2"
_cell_formula_units_Z 52
_cell_length_a 18.495940
_cell_length_b 14.118100
_cell_length_c 9.087546
_cell_angle_alpha 90.000000
_cell_angle_beta 90.000000
_cell_angle_gamma 90.000000
_cell_volume 2373.008445
_symmetry_space_group_name_H-M "I B A 2"
_symmetry_group_IT_number 45
_symmetry_cell_setting 'orthorhombic'
loop_
_space_group_symop_operation_xyz
x,y,z
-x,-y,z
-x,y,1/2+z
x,-y,1/2+z
1/2+x,1/2+y,1/2+z
1/2-x,1/2-y,1/2+z
1/2-x,1/2+y,z
1/2+x,1/2-y,z
loop_
_atom_site_type_symbol
_atom_site_label
_atom_site_fract_x
_atom_site_fract_y
_atom_site_fract_z
Si Si1 0.444359 0.246451 0.560320
Si Si2 0.871352 0.624636 0.304042
Si Si3 0.717905 0.431899 0.704608
Si Si4 0.670664 0.390003 0.019042
Si Si5 0.000000 0.500000 0.788032
Si Si6 0.803896 0.261693 0.058600
Si Si7 0.930701 0.683426 0.730636
O O1 0.399796 0.171577 0.656168
O O2 0.408473 0.350774 0.560721
O O3 0.448842 0.202980 0.398869
O O4 0.524884 0.257232 0.627360
O O5 0.800574 0.563372 0.261999
O O6 0.851000 0.709328 0.416093
O O7 0.934653 0.556544 0.374288
O O8 0.695667 0.527775 0.626296
O O9 0.704251 0.350319 0.583237
O O10 0.667935 0.419583 0.848260
O O11 0.724281 0.302431 0.044563
O O12 0.957267 0.577199 0.689701
O O13 0.845432 0.304913 0.200733
#
# Coordination Sequence:
#
# PCOD8190779 Si02
#       7
#     8   8   8   8   4   8   8
#     4  11  23  43  65  95 135 185 217 284 352 411
#     4  10  23  40  67 102 144 181 222 290 353 433
#     4  11  24  42  70 104 133 187 235 290 347 419
#     4  11  25  43  70  99 136 178 237 285 346 416
#     4  10  22  40  64 106 136 178 230 274 368 418
#     4  11  23  44  68 102 139 180 226 287 354 419
#     4  11  23  40  69  96 140 178 227 285 349 420
#
# _framework density 21.913112000000002
#
# number of rings (size 3 to 8) (size 9 to 14) (size 15 to 20)
#    0.000    1.231    3.077    2.769    2.154    9.231 
#    0.000    0.769    0.000    0.000    0.000    0.000 
#    0.000    0.000    0.000    0.000    0.000    0.000 
#
# Total GULP energy -322249.070090 kJ/mol
# GULP energy per Si atom -12394.195003 kJ/mol
# Density = 2.186324 g / cm^3
# Si number density = 21.913112 Si / 1000 Ang^3
#
#
#
# Elastic Constant Matrix: (Units=GPa)
#
#
# Indices 1 2 3 4 5 6 
#
# 1 65.6647 21.3876 20.2856 0.0000 0.0000 0.0000
# 2 21.3876 82.8213 28.8384 0.0000 0.0000 0.0000
# 3 20.2856 28.8384 126.8283 0.0000 0.0000 0.0000
# 4 0.0000 0.0000 0.0000 32.0212 0.0000 0.0000
# 5 0.0000 0.0000 0.0000 0.0000 36.1559 0.0000
# 6 0.0000 0.0000 0.0000 0.0000 0.0000 33.6067
#
#
#
# Elastic Compliance Matrix: (Units=1/GPa)
#
#
# Indices 1 2 3 4 5 6 
#
# 1 0.017027 -0.003745 -0.001872 0.000000 0.000000 0.000000
# 2 -0.003745 0.013936 -0.002570 0.000000 0.000000 0.000000
# 3 -0.001872 -0.002570 0.008768 0.000000 0.000000 0.000000
# 4 0.000000 0.000000 0.000000 0.031229 0.000000 0.000000
# 5 0.000000 0.000000 0.000000 0.000000 0.027658 0.000000
# 6 0.000000 0.000000 0.000000 0.000000 0.000000 0.029756
#
#
# Mechanical properties :
#
#
# Convention : Reuss Voigt Hill
#
# Bulk Modulus (GPa) = 42.81212 46.25971 44.53592
# Shear Modulus (GPa) = 32.77948 34.01027 33.39488
#
# Velocity S-wave (km/s) = 3.87186 3.94388 3.90804
# Velocity P-wave (km/s) = 6.29031 6.47266 6.38214
#
# Compressibility (1/GPa) = 0.02335787
#
# Stress axis : x y z
#
# Youngs Moduli (GPa) = 58.73030 71.75582 114.04616
#
# Poissons Ratio (x) = 0.26874 0.21347
# Poissons Ratio (y) = 0.21996 0.29307
# Poissons Ratio (z) = 0.10993 0.18440
#
# Static dielectric constant tensor:
#      x y z
#    x 4.405950 0.000000 0.000000 
#    y 0.000000 3.929180 0.000000 
#    z 0.000000 0.000000 3.922090 
# 
# 
# High freq. dielectric constant tensor:
#      x y z
#    x 1.870270 0.000000 0.000000 
#    y 0.000000 1.844960 0.000000 
#    z 0.000000 0.000000 1.861850 
# 
# From -- ./inp_files/2317.got.cif
#   From: 2010.03.12/outbox.cif.g09.slc.cpg/sg45_2_cif.got.tgz:2317.got - 2010.04.14 02:50:11.
