data_PCOD8190698
_publ_section_title
;
Structure prediction by ZEFSAII (Michael W. Deem and Ramdas Pophale) SiO2 
 PCOD8190698
Probable space group: I B A 2
;
_chemical_formula_sum "Si O2"
_cell_formula_units_Z 40
_cell_length_a 5.706052
_cell_length_b 23.541576
_cell_length_c 13.154079
_cell_angle_alpha 90.000000
_cell_angle_beta 90.000000
_cell_angle_gamma 90.000000
_cell_volume 1766.980287
_symmetry_space_group_name_H-M "I B A 2"
_symmetry_group_IT_number 45
_symmetry_cell_setting 'orthorhombic'
loop_
_space_group_symop_operation_xyz
x,y,z
-x,-y,z
-x,y,1/2+z
x,-y,1/2+z
1/2+x,1/2+y,1/2+z
1/2-x,1/2-y,1/2+z
1/2-x,1/2+y,z
1/2+x,1/2-y,z
loop_
_atom_site_type_symbol
_atom_site_label
_atom_site_fract_x
_atom_site_fract_y
_atom_site_fract_z
Si Si1 0.424855 0.127042 0.596000
Si Si2 0.774913 0.358620 0.276024
Si Si3 0.724223 0.717741 0.961185
Si Si4 0.889996 0.059650 0.230359
Si Si5 0.574527 0.937764 0.913381
O O1 0.555166 0.162365 0.684949
O O2 0.230525 0.166754 0.542562
O O3 0.312336 0.071287 0.648172
O O4 0.607736 0.102819 0.511556
O O5 0.716561 0.304586 0.345475
O O6 0.552003 0.385122 0.220347
O O7 0.877735 0.410397 0.341621
O O8 0.477447 0.750379 0.977983
O O9 0.810743 0.057727 0.348165
O O10 0.000000 0.000000 0.197873
O O11 0.500000 0.000000 0.949070
#
# Coordination Sequence:
#
# PCOD8190698 Si02
#       5
#     8   8   8   8   8
#     4  10  26  42  69 104 140 178 246 295 349 440
#     4  10  24  44  68 100 140 180 237 293 350 434
#     4  11  28  50  74 102 140 190 243 307 369 412
#     4  11  23  42  69 100 146 189 225 285 364 435
#     4  10  21  40  61  97 143 187 222 281 352 426
#
# _framework density 22.637488999999999
#
# number of rings (size 3 to 8) (size 9 to 14) (size 15 to 20)
#    0.000    1.600    2.000    0.000   14.000    3.200 
#    0.000    0.000    0.000    0.000    0.000    0.000 
#    0.000    0.000    0.000    0.000    0.000    0.000 
#
# Total GULP energy -247857.264208 kJ/mol
# GULP energy per Si atom -12392.863210 kJ/mol
# Density = 2.258597 g / cm^3
# Si number density = 22.637489 Si / 1000 Ang^3
#
#
#
# Elastic Constant Matrix: (Units=GPa)
#
#
# Indices 1 2 3 4 5 6 
#
# 1 86.0995 22.9406 21.2048 0.0000 0.0000 0.0000
# 2 22.9406 76.1320 32.1279 -0.0001 0.0000 0.0000
# 3 21.2048 32.1279 123.9718 -0.0004 0.0000 0.0000
# 4 0.0000 -0.0001 -0.0004 14.5494 0.0000 0.0000
# 5 0.0000 0.0000 0.0000 0.0000 20.1048 0.0000
# 6 0.0000 0.0000 0.0000 0.0000 0.0000 39.6186
#
#
#
# Elastic Compliance Matrix: (Units=1/GPa)
#
#
# Indices 1 2 3 4 5 6 
#
# 1 0.012823 -0.003299 -0.001338 0.000000 0.000000 0.000000
# 2 -0.003299 0.015597 -0.003478 0.000000 0.000000 0.000000
# 3 -0.001338 -0.003478 0.009197 0.000000 0.000000 0.000000
# 4 0.000000 0.000000 0.000000 0.068731 0.000000 0.000000
# 5 0.000000 0.000000 0.000000 0.000000 0.049739 0.000000
# 6 0.000000 0.000000 0.000000 0.000000 0.000000 0.025241
#
#
# Mechanical properties :
#
#
# Convention : Reuss Voigt Hill
#
# Bulk Modulus (GPa) = 46.75938 48.74997 47.75468
# Shear Modulus (GPa) = 24.42755 28.84990 26.63872
#
# Velocity S-wave (km/s) = 3.28849 3.57379 3.43410
# Velocity P-wave (km/s) = 5.92617 6.21378 6.07168
#
# Compressibility (1/GPa) = 0.02138608
#
# Stress axis : x y z
#
# Youngs Moduli (GPa) = 77.98415 64.11572 108.73672
#
# Poissons Ratio (x) = 0.21153 0.14553
# Poissons Ratio (y) = 0.25728 0.37815
# Poissons Ratio (z) = 0.10437 0.22297
#
# Static dielectric constant tensor:
#      x y z
#    x 3.974010 0.000000 0.000000 
#    y 0.000000 3.852580 0.000000 
#    z 0.000000 0.000000 4.218010 
# 
# 
# High freq. dielectric constant tensor:
#      x y z
#    x 1.881590 0.000000 0.000000 
#    y 0.000000 1.882040 0.000000 
#    z 0.000000 0.000000 1.906720 
# 
# From -- ./inp_files/2919.got.cif
#   From: 2010.03.12/outbox.cif.g09.slc.cpg/sg45_2_cif.got.tgz:2919.got - 2010.04.14 02:50:11.
