data_PCOD8190018
_publ_section_title
;
Structure prediction by ZEFSAII (Michael W. Deem and Ramdas Pophale) SiO2 
 PCOD8190018
Probable space group: I M M 2
;
_chemical_formula_sum "Si O2"
_cell_formula_units_Z 64
_cell_length_a 14.838013
_cell_length_b 8.726216
_cell_length_c 24.454368
_cell_angle_alpha 90.000000
_cell_angle_beta 90.000000
_cell_angle_gamma 90.000000
_cell_volume 3166.344390
_symmetry_space_group_name_H-M "I M M 2"
_symmetry_group_IT_number 44
_symmetry_cell_setting 'orthorhombic'
loop_
_space_group_symop_operation_xyz
x,y,z
-x,-y,z
-x,y,z
x,-y,z
1/2+x,1/2+y,1/2+z
1/2-x,1/2-y,1/2+z
1/2-x,1/2+y,1/2+z
1/2+x,1/2-y,1/2+z
loop_
_atom_site_type_symbol
_atom_site_label
_atom_site_fract_x
_atom_site_fract_y
_atom_site_fract_z
Si Si1 0.606390 0.322301 0.721200
Si Si2 0.227812 0.681100 0.129258
Si Si3 0.244489 0.818573 0.013408
Si Si4 0.900216 0.817075 0.692837
Si Si5 0.396394 0.319344 0.945494
Si Si6 0.893181 0.673601 0.332999
Si Si7 0.399214 0.316594 0.426347
Si Si8 0.106251 0.833590 0.809778
O O1 0.500000 0.293573 0.716652
O O2 0.630896 0.500000 0.716057
O O3 0.652002 0.229584 0.672230
O O4 0.644045 0.261332 0.779494
O O5 0.223505 0.500000 0.120831
O O6 0.211284 0.765345 0.072471
O O7 0.326748 0.736030 0.149098
O O8 0.253343 0.000000 0.011974
O O9 0.340111 0.745695 0.996590
O O10 0.168682 0.755728 0.972021
O O11 0.871414 0.746757 0.752578
O O12 0.000000 0.758318 0.675157
O O13 0.901991 0.000000 0.698564
O O14 0.500000 0.269960 0.954722
O O15 0.386630 0.500000 0.943030
O O16 0.357598 0.251115 0.888680
O O17 0.857999 0.500000 0.331272
O O18 0.000000 0.682904 0.332548
O O19 0.500000 0.257765 0.440625
O O20 0.399041 0.500000 0.423462
O O21 0.365965 0.250173 0.366758
O O22 0.000000 0.857871 0.812375
O O23 0.154299 0.000000 0.808416
#
# Coordination Sequence:
#
# PCOD8190018 Si02
#       8
#     8   8   8   8   8   8   8   8
#     4  10  21  38  59  82 112 150 188 230 283 339
#     4  11  23  37  54  78 109 146 191 237 277 326
#     4  11  23  37  54  78 109 146 191 237 277 326
#     4   8  15  29  50  76 105 135 167 210 268 331
#     4  10  21  38  59  82 112 150 188 230 283 339
#     4   9  17  32  57  88 117 143 178 226 279 339
#     4   8  15  29  50  76 105 135 167 210 268 331
#     4   7  10  21  44  73 101 125 154 197 251 314
#
# _framework density 20.212584
#
# number of rings (size 3 to 8) (size 9 to 14) (size 15 to 20)
#    0.000    2.750    0.000    3.375    0.000    5.000 
#    0.000    5.000    0.000    2.250    0.000    0.000 
#    0.000   14.000    0.000    0.000    0.000    0.000 
#
# Total GULP energy -396586.151626 kJ/mol
# GULP energy per Si atom -12393.317238 kJ/mol
# Density = 2.016658 g / cm^3
# Si number density = 20.212584 Si / 1000 Ang^3
#
#
#
# Elastic Constant Matrix: (Units=GPa)
#
#
# Indices 1 2 3 4 5 6 
#
# 1 42.2911 18.2342 6.3761 0.0000 0.0000 0.0000
# 2 18.2342 50.8508 15.6325 0.0000 0.0000 0.0000
# 3 6.3761 15.6325 87.7256 0.0000 0.0000 0.0000
# 4 0.0000 0.0000 0.0000 32.8061 0.0000 0.0000
# 5 0.0000 0.0000 0.0000 0.0000 34.6427 0.0000
# 6 0.0000 0.0000 0.0000 0.0000 0.0000 18.9314
#
#
#
# Elastic Compliance Matrix: (Units=1/GPa)
#
#
# Indices 1 2 3 4 5 6 
#
# 1 0.027976 -0.009952 -0.000260 0.000000 0.000000 0.000000
# 2 -0.009952 0.024345 -0.003615 0.000000 0.000000 0.000000
# 3 -0.000260 -0.003615 0.012062 0.000000 0.000000 0.000000
# 4 0.000000 0.000000 0.000000 0.030482 0.000000 0.000000
# 5 0.000000 0.000000 0.000000 0.000000 0.028866 0.000000
# 6 0.000000 0.000000 0.000000 0.000000 0.000000 0.052822
#
#
# Mechanical properties :
#
#
# Convention : Reuss Voigt Hill
#
# Bulk Modulus (GPa) = 27.22581 29.03925 28.13253
# Shear Modulus (GPa) = 23.10004 26.65103 24.87554
#
# Velocity S-wave (km/s) = 3.38428 3.63511 3.51193
# Velocity P-wave (km/s) = 5.36378 5.65834 5.51302
#
# Compressibility (1/GPa) = 0.03672986
#
# Stress axis : x y z
#
# Youngs Moduli (GPa) = 35.74547 41.07594 82.90328
#
# Poissons Ratio (x) = 0.40877 0.02155
# Poissons Ratio (y) = 0.35573 0.29969
# Poissons Ratio (z) = 0.00929 0.14849
#
# Static dielectric constant tensor:
#      x y z
#    x 3.648620 0.000000 0.000000 
#    y 0.000000 3.285180 0.000000 
#    z 0.000000 0.000000 3.943410 
# 
# 
# High freq. dielectric constant tensor:
#      x y z
#    x 1.784460 0.000000 0.000000 
#    y 0.000000 1.750360 0.000000 
#    z 0.000000 0.000000 1.799070 
# 
# From -- ./inp_files/25783.got.cif
#   From: 2010.03.12/outbox.cif.g09.slc.cpg/sg44_13_cif.got.tgz:25783.got - 2010.04.14 02:36:11.
