data_PCOD8190255
_publ_section_title
;
Structure prediction by ZEFSAII (Michael W. Deem and Ramdas Pophale) SiO2 
 PCOD8190255
Probable space group: I M M 2
;
_chemical_formula_sum "Si O2"
_cell_formula_units_Z 40
_cell_length_a 8.919931
_cell_length_b 12.616351
_cell_length_c 20.769933
_cell_angle_alpha 90.000000
_cell_angle_beta 90.000000
_cell_angle_gamma 90.000000
_cell_volume 2337.385543
_symmetry_space_group_name_H-M "I M M 2"
_symmetry_group_IT_number 44
_symmetry_cell_setting 'orthorhombic'
loop_
_space_group_symop_operation_xyz
x,y,z
-x,-y,z
-x,y,z
x,-y,z
1/2+x,1/2+y,1/2+z
1/2-x,1/2-y,1/2+z
1/2-x,1/2+y,1/2+z
1/2+x,1/2-y,1/2+z
loop_
_atom_site_type_symbol
_atom_site_label
_atom_site_fract_x
_atom_site_fract_y
_atom_site_fract_z
Si Si1 0.674311 0.618166 0.819060
Si Si2 0.823216 0.174564 0.785351
Si Si3 0.328098 0.334119 0.965220
Si Si4 0.675445 0.000000 0.552182
Si Si5 0.677840 0.000000 0.699600
Si Si6 0.828207 0.383538 0.415590
O O1 0.500000 0.644412 0.809049
O O2 0.713552 0.500000 0.794262
O O3 0.770513 0.703179 0.778899
O O4 0.715420 0.624910 0.894394
O O5 0.744706 0.106045 0.730423
O O6 0.778915 0.127758 0.854502
O O7 0.000000 0.167375 0.776409
O O8 0.500000 0.360018 0.980351
O O9 0.293729 0.207406 0.968399
O O10 0.231688 0.393090 0.018418
O O11 0.728517 0.000000 0.625593
O O12 0.500000 0.000000 0.546900
O O13 0.500000 0.000000 0.708683
O O14 0.803912 0.500000 0.446740
O O15 0.000000 0.369131 0.391405
#
# Coordination Sequence:
#
# PCOD8190255 Si02
#       6
#     8   8   8   4   4   8
#     4   9  17  32  53  75 103 140 170 196 244 312
#     4  11  21  31  48  78 105 128 167 216 265 298
#     4   9  17  31  50  74 101 132 170 204 246 304
#     4  11  23  35  51  73  99 135 176 217 256 291
#     4  11  23  39  53  67  97 141 182 213 252 315
#     4   9  17  31  52  74 102 138 166 198 248 312
#
# _framework density 17.113137999999999
#
# number of rings (size 3 to 8) (size 9 to 14) (size 15 to 20)
#    0.000    2.200    2.000    3.600    0.000    5.200 
#    0.000    0.000    0.000    1.200    0.000    5.600 
#    0.000    0.000    0.000    0.000    0.000    0.000 
#
# Total GULP energy -247953.588567 kJ/mol
# GULP energy per Si atom -12397.679428 kJ/mol
# Density = 1.707419 g / cm^3
# Si number density = 17.113138 Si / 1000 Ang^3
#
#
#
# Elastic Constant Matrix: (Units=GPa)
#
#
# Indices 1 2 3 4 5 6 
#
# 1 74.1564 45.2961 45.3981 0.0000 0.0000 0.0000
# 2 45.2961 167.7453 56.9268 0.0000 0.0000 0.0000
# 3 45.3981 56.9268 85.7496 0.0000 0.0000 0.0000
# 4 0.0000 0.0000 0.0000 16.0369 0.0000 0.0000
# 5 0.0000 0.0000 0.0000 0.0000 21.5182 0.0000
# 6 0.0000 0.0000 0.0000 0.0000 0.0000 23.4316
#
#
#
# Elastic Compliance Matrix: (Units=1/GPa)
#
#
# Indices 1 2 3 4 5 6 
#
# 1 0.020681 -0.002412 -0.009348 0.000000 0.000000 0.000000
# 2 -0.002412 0.007976 -0.004018 0.000000 0.000000 0.000000
# 3 -0.009348 -0.004018 0.019278 0.000000 0.000000 0.000000
# 4 0.000000 0.000000 0.000000 0.062356 0.000000 0.000000
# 5 0.000000 0.000000 0.000000 0.000000 0.046472 0.000000
# 6 0.000000 0.000000 0.000000 0.000000 0.000000 0.042677
#
#
# Mechanical properties :
#
#
# Convention : Reuss Voigt Hill
#
# Bulk Modulus (GPa) = 61.05174 69.21040 65.13107
# Shear Modulus (GPa) = 21.14540 24.19935 22.67238
#
# Velocity S-wave (km/s) = 3.51896 3.76451 3.64380
# Velocity P-wave (km/s) = 7.22935 7.70882 7.47294
#
# Compressibility (1/GPa) = 0.01637955
#
# Stress axis : x y z
#
# Youngs Moduli (GPa) = 48.35349 125.36927 51.87155
#
# Poissons Ratio (x) = 0.30242 0.48488
# Poissons Ratio (y) = 0.11664 0.20843
# Poissons Ratio (z) = 0.45199 0.50377
#
# Static dielectric constant tensor:
#      x y z
#    x 3.128640 0.000000 0.000000 
#    y 0.000000 3.635790 0.000000 
#    z 0.000000 0.000000 2.838700 
# 
# 
# High freq. dielectric constant tensor:
#      x y z
#    x 1.659260 0.000000 0.000000 
#    y 0.000000 1.683840 0.000000 
#    z 0.000000 0.000000 1.606580 
# 
# From -- ./inp_files/22787.got.cif
#   From: 2010.03.12/outbox.cif.g09.slc.cpg/sg44_12_cif.got.tgz:22787.got - 2010.04.14 02:36:11.
