data_PCOD8190604
_publ_section_title
;
Structure prediction by ZEFSAII (Michael W. Deem and Ramdas Pophale) SiO2 
 PCOD8190604
Probable space group: I B A 2
;
_chemical_formula_sum "Si O2"
_cell_formula_units_Z 60
_cell_length_a 15.058361
_cell_length_b 15.058361
_cell_length_c 13.831865
_cell_angle_alpha 90.000000
_cell_angle_beta 90.000000
_cell_angle_gamma 90.000000
_cell_volume 3136.433981
_symmetry_space_group_name_H-M "I B A 2"
_symmetry_group_IT_number 45
_symmetry_cell_setting 'orthorhombic'
loop_
_space_group_symop_operation_xyz
x,y,z
-x,-y,z
-x,y,1/2+z
x,-y,1/2+z
1/2+x,1/2+y,1/2+z
1/2-x,1/2-y,1/2+z
1/2-x,1/2+y,z
1/2+x,1/2-y,z
loop_
_atom_site_type_symbol
_atom_site_label
_atom_site_fract_x
_atom_site_fract_y
_atom_site_fract_z
Si Si1 0.869381 0.625846 0.290800
Si Si2 0.789756 0.789756 0.695389
Si Si3 0.500000 0.000000 0.695389
Si Si4 0.346700 0.297909 0.408880
Si Si5 0.202090 0.153300 0.481898
Si Si6 0.125847 0.369381 0.599978
Si Si7 0.753151 0.544674 0.459046
Si Si8 0.044674 0.253151 0.431732
O O1 0.814103 0.686928 0.215041
O O2 0.916111 0.537586 0.252469
O O3 0.802420 0.587204 0.368358
O O4 0.945525 0.688015 0.335617
O O5 0.846037 0.812733 0.792279
O O6 0.812733 0.846037 0.598499
O O7 0.813072 0.685897 0.675737
O O8 0.462414 0.916111 0.638308
O O9 0.271368 0.228632 0.445389
O O10 0.333888 0.392338 0.464144
O O11 0.441793 0.265616 0.445645
O O12 0.107662 0.166113 0.426634
O O13 0.234383 0.058207 0.445132
O O14 0.188016 0.445525 0.555160
O O15 0.087204 0.302420 0.522420
#
# Coordination Sequence:
#
# PCOD8190604 Si02
#       8
#     8   8   4   8   8   8   8   8
#     4  10  22  37  56  94 122 162 208 254 318 382
#     4  10  20  42  62  87 129 164 202 246 322 384
#     4  12  24  30  56 100 124 154 216 280 302 368
#     4  11  22  42  64  89 124 168 203 261 310 375
#     4  11  22  42  64  89 124 168 203 261 310 375
#     4  10  22  37  56  94 122 162 208 254 318 382
#     4  10  22  40  61  85 123 166 208 249 320 375
#     4  10  22  40  61  85 123 166 208 249 320 375
#
# _framework density 19.130006000000002
#
# number of rings (size 3 to 8) (size 9 to 14) (size 15 to 20)
#    0.000    1.600    5.333    1.600    7.467    1.600 
#    0.000    0.000    0.000    6.400    0.000    0.000 
#    0.000    0.000    0.000    0.000    0.000    0.000 
#
# Total GULP energy -371680.739207 kJ/mol
# GULP energy per Si atom -12389.357974 kJ/mol
# Density = 1.908646 g / cm^3
# Si number density = 19.130006 Si / 1000 Ang^3
#
#
#
# Elastic Constant Matrix: (Units=GPa)
#
#
# Indices 1 2 3 4 5 6 
#
# 1 102.5233 31.5943 15.3701 0.0000 0.0000 0.0000
# 2 31.5943 102.5238 15.3702 0.0000 0.0000 0.0000
# 3 15.3701 15.3702 62.5319 0.0000 0.0000 0.0000
# 4 0.0000 0.0000 0.0000 13.2618 0.0000 0.0000
# 5 0.0000 0.0000 0.0000 0.0000 13.2618 0.0000
# 6 0.0000 0.0000 0.0000 0.0000 0.0000 38.7024
#
#
#
# Elastic Compliance Matrix: (Units=1/GPa)
#
#
# Indices 1 2 3 4 5 6 
#
# 1 0.011000 -0.003099 -0.001942 0.000000 0.000000 0.000000
# 2 -0.003099 0.011000 -0.001942 0.000000 0.000000 0.000000
# 3 -0.001942 -0.001942 0.016947 0.000000 0.000000 0.000000
# 4 0.000000 0.000000 0.000000 0.075405 0.000000 0.000000
# 5 0.000000 0.000000 0.000000 0.000000 0.075404 0.000000
# 6 0.000000 0.000000 0.000000 0.000000 0.000000 0.025838
#
#
# Mechanical properties :
#
#
# Convention : Reuss Voigt Hill
#
# Bulk Modulus (GPa) = 40.03096 43.58315 41.80705
# Shear Modulus (GPa) = 21.01844 26.72816 23.87330
#
# Velocity S-wave (km/s) = 3.31828 3.74195 3.53647
# Velocity P-wave (km/s) = 5.97097 6.44218 6.21105
#
# Compressibility (1/GPa) = 0.02498066
#
# Stress axis : x y z
#
# Youngs Moduli (GPa) = 90.90961 90.91002 59.00902
#
# Poissons Ratio (x) = 0.28170 0.11460
# Poissons Ratio (y) = 0.28170 0.11460
# Poissons Ratio (z) = 0.17655 0.17656
#
# Static dielectric constant tensor:
#      x y z
#    x 3.560110 0.000000 0.000000 
#    y 0.000000 3.560120 0.000000 
#    z 0.000000 0.000000 3.642190 
# 
# 
# High freq. dielectric constant tensor:
#      x y z
#    x 1.740550 0.000000 0.000000 
#    y 0.000000 1.740550 0.000000 
#    z 0.000000 0.000000 1.745140 
# 
# From -- ./inp_files/6607.got.cif
#   From: 2010.03.12/outbox.cif.g09.slc.cpg/sg45_4_cif.got.tgz:6607.got - 2010.04.14 02:50:11.
