data_PCOD8190303
_publ_section_title
;
Structure prediction by ZEFSAII (Michael W. Deem and Ramdas Pophale) SiO2 
 PCOD8190303
Probable space group: I M M 2
;
_chemical_formula_sum "Si O2"
_cell_formula_units_Z 64
_cell_length_a 9.218274
_cell_length_b 14.170555
_cell_length_c 24.119397
_cell_angle_alpha 90.000000
_cell_angle_beta 90.000000
_cell_angle_gamma 90.000000
_cell_volume 3150.670008
_symmetry_space_group_name_H-M "I M M 2"
_symmetry_group_IT_number 44
_symmetry_cell_setting 'orthorhombic'
loop_
_space_group_symop_operation_xyz
x,y,z
-x,-y,z
-x,y,z
x,-y,z
1/2+x,1/2+y,1/2+z
1/2-x,1/2-y,1/2+z
1/2-x,1/2+y,1/2+z
1/2+x,1/2-y,1/2+z
loop_
_atom_site_type_symbol
_atom_site_label
_atom_site_fract_x
_atom_site_fract_y
_atom_site_fract_z
Si Si1 0.329150 0.267207 0.618310
Si Si2 0.831876 0.282555 0.728885
Si Si3 0.666686 0.393473 0.299076
Si Si4 0.668114 0.390314 0.513272
Si Si5 0.336015 0.387236 0.821792
Si Si6 0.667387 0.611516 0.060980
Si Si7 0.670968 0.602682 0.941261
Si Si8 0.336886 0.887644 0.906328
O O1 0.500000 0.261500 0.626823
O O2 0.258266 0.306820 0.674203
O O3 0.283809 0.337350 0.568986
O O4 0.266599 0.163295 0.606060
O O5 0.806596 0.173432 0.746253
O O6 0.778160 0.350384 0.777646
O O7 0.000000 0.303751 0.717879
O O8 0.500000 0.390765 0.318198
O O9 0.712775 0.500000 0.282387
O O10 0.760067 0.353175 0.350151
O O11 0.500000 0.373774 0.500178
O O12 0.703372 0.500000 0.522669
O O13 0.756288 0.348607 0.460898
O O14 0.500000 0.355669 0.806098
O O15 0.328224 0.500000 0.824780
O O16 0.292201 0.344243 0.883175
O O17 0.500000 0.636331 0.073332
O O18 0.693452 0.500000 0.065613
O O19 0.717143 0.650675 0.999702
O O20 0.500000 0.587603 0.944428
O O21 0.746338 0.500000 0.939596
O O22 0.500000 0.847451 0.906973
O O23 0.333278 0.000000 0.907444
#
# Coordination Sequence:
#
# PCOD8190303 Si02
#       8
#     8   8   8   8   8   8   8   8
#     4  11  24  39  55  78 107 142 189 236 275 320
#     4  11  24  39  55  78 107 142 189 236 275 320
#     4   9  19  37  58  78 106 145 182 218 267 326
#     4   9  19  37  58  78 106 145 182 218 267 326
#     4   9  18  35  59  84 112 146 180 217 267 326
#     4   9  18  35  59  84 112 146 180 217 267 326
#     4   7  12  27  53  82 107 135 174 213 255 318
#     4   9  17  30  53  86 115 137 170 218 269 321
#
# _framework density 20.313140000000001
#
# number of rings (size 3 to 8) (size 9 to 14) (size 15 to 20)
#    0.000    2.750    0.000    2.625    0.000    6.000 
#    0.000    5.625    0.000    2.250    0.000    0.000 
#    0.000    0.000    0.000    0.000    0.000    0.000 
#
# Total GULP energy -396653.100121 kJ/mol
# GULP energy per Si atom -12395.409379 kJ/mol
# Density = 2.026691 g / cm^3
# Si number density = 20.313140 Si / 1000 Ang^3
#
#
#
# Elastic Constant Matrix: (Units=GPa)
#
#
# Indices 1 2 3 4 5 6 
#
# 1 81.7411 10.5482 40.0533 0.0000 0.0000 0.0000
# 2 10.5482 19.1366 -2.2814 0.0000 0.0000 0.0000
# 3 40.0533 -2.2814 95.0960 0.0000 0.0000 0.0000
# 4 0.0000 0.0000 0.0000 26.5058 0.0000 0.0000
# 5 0.0000 0.0000 0.0000 0.0000 36.9473 0.0000
# 6 0.0000 0.0000 0.0000 0.0000 0.0000 24.7341
#
#
#
# Elastic Compliance Matrix: (Units=1/GPa)
#
#
# Indices 1 2 3 4 5 6 
#
# 1 0.017262 -0.010412 -0.007520 0.000000 0.000000 0.000000
# 2 -0.010412 0.058685 0.005793 0.000000 0.000000 0.000000
# 3 -0.007520 0.005793 0.013822 0.000000 0.000000 0.000000
# 4 0.000000 0.000000 0.000000 0.037728 0.000000 0.000000
# 5 0.000000 0.000000 0.000000 0.000000 0.027066 0.000000
# 6 0.000000 0.000000 0.000000 0.000000 0.000000 0.040430
#
#
# Mechanical properties :
#
#
# Convention : Reuss Voigt Hill
#
# Bulk Modulus (GPa) = 15.26904 32.51267 23.89085
# Shear Modulus (GPa) = 20.73813 27.48102 24.10958
#
# Velocity S-wave (km/s) = 3.19865 3.68213 3.44887
# Velocity P-wave (km/s) = 4.60163 5.84105 5.25799
#
# Compressibility (1/GPa) = 0.06549202
#
# Stress axis : x y z
#
# Youngs Moduli (GPa) = 57.92948 17.04001 72.34729
#
# Poissons Ratio (x) = 0.17741 0.54409
# Poissons Ratio (y) = 0.60314 -0.41912
# Poissons Ratio (z) = 0.43566 -0.09872
#
# Static dielectric constant tensor:
#      x y z
#    x 3.527030 0.000000 0.000000 
#    y 0.000000 3.525520 0.000000 
#    z 0.000000 0.000000 3.820980 
# 
# 
# High freq. dielectric constant tensor:
#      x y z
#    x 1.774890 0.000000 0.000000 
#    y 0.000000 1.785870 0.000000 
#    z 0.000000 0.000000 1.798600 
# 
# From -- ./inp_files/25186.got.cif
#   From: 2010.03.12/outbox.cif.g09.slc.cpg/sg44_13_cif.got.tgz:25186.got - 2010.04.14 02:36:11.
