data_PCOD8190188
_publ_section_title
;
Structure prediction by ZEFSAII (Michael W. Deem and Ramdas Pophale) SiO2 
 PCOD8190188
Probable space group: I M M 2
;
_chemical_formula_sum "Si O2"
_cell_formula_units_Z 48
_cell_length_a 16.979661
_cell_length_b 14.265590
_cell_length_c 9.193714
_cell_angle_alpha 90.000000
_cell_angle_beta 90.000000
_cell_angle_gamma 90.000000
_cell_volume 2226.946290
_symmetry_space_group_name_H-M "I M M 2"
_symmetry_group_IT_number 44
_symmetry_cell_setting 'orthorhombic'
loop_
_space_group_symop_operation_xyz
x,y,z
-x,-y,z
-x,y,z
x,-y,z
1/2+x,1/2+y,1/2+z
1/2-x,1/2-y,1/2+z
1/2-x,1/2+y,1/2+z
1/2+x,1/2-y,1/2+z
loop_
_atom_site_type_symbol
_atom_site_label
_atom_site_fract_x
_atom_site_fract_y
_atom_site_fract_z
Si Si1 0.170155 0.313062 0.180820
Si Si2 0.324636 0.500000 0.787857
Si Si3 0.091936 0.802144 0.954021
Si Si4 0.090961 0.000000 0.011960
Si Si5 0.338076 0.000000 0.118162
Si Si6 0.692407 0.308349 0.950900
Si Si7 0.407125 0.801485 0.174246
Si Si8 0.404077 0.000000 0.799474
O O1 0.210569 0.265870 0.321777
O O2 0.122988 0.408677 0.210975
O O3 0.107082 0.241395 0.112653
O O4 0.234595 0.325930 0.056035
O O5 0.401359 0.500000 0.686821
O O6 0.252071 0.500000 0.671965
O O7 0.329609 0.590536 0.889506
O O8 0.127337 0.741407 0.823124
O O9 0.000000 0.811640 0.931535
O O10 0.130881 0.906220 0.945436
O O11 0.000000 0.000000 0.972501
O O12 0.377845 0.907445 0.180539
O O13 0.352478 0.000000 0.945765
O O14 0.621268 0.260656 0.039013
O O15 0.500000 0.802641 0.165215
O O16 0.500000 0.000000 0.824310
#
# Coordination Sequence:
#
# PCOD8190188 Si02
#       8
#     8   4   8   4   4   8   8   4
#     4  12  24  43  68 100 141 179 235 286 345 419
#     4  12  25  43  66 101 139 183 233 285 347 419
#     4  10  22  41  67  96 133 177 225 284 347 411
#     4  10  22  40  65  98 134 180 230 278 343 413
#     4  12  24  44  70 101 138 179 232 286 362 421
#     4  12  26  42  68  99 140 185 232 287 348 411
#     4  11  25  45  71 102 139 183 234 294 354 419
#     4  12  27  45  73 106 141 186 233 291 352 419
#
# _framework density 21.554179000000001
#
# number of rings (size 3 to 8) (size 9 to 14) (size 15 to 20)
#    0.000    0.667    3.333    4.750    0.000    4.000 
#    0.000    1.667    0.000    0.000    0.000    0.000 
#    0.000    0.000    0.000    0.000    0.000    0.000 
#
# Total GULP energy -297491.655434 kJ/mol
# GULP energy per Si atom -12395.485643 kJ/mol
# Density = 2.150512 g / cm^3
# Si number density = 21.554179 Si / 1000 Ang^3
#
#
#
# Elastic Constant Matrix: (Units=GPa)
#
#
# Indices 1 2 3 4 5 6 
#
# 1 38.8862 32.8869 12.0809 0.0000 0.0000 0.0000
# 2 32.8869 204.5077 60.2346 0.0000 0.0000 0.0000
# 3 12.0809 60.2346 102.9688 0.0000 0.0000 0.0000
# 4 0.0000 0.0000 0.0000 42.7130 0.0000 0.0000
# 5 0.0000 0.0000 0.0000 0.0000 37.9457 0.0000
# 6 0.0000 0.0000 0.0000 0.0000 0.0000 15.3304
#
#
#
# Elastic Compliance Matrix: (Units=1/GPa)
#
#
# Indices 1 2 3 4 5 6 
#
# 1 0.029824 -0.004549 -0.000838 0.000000 0.000000 0.000000
# 2 -0.004549 0.006602 -0.003328 0.000000 0.000000 0.000000
# 3 -0.000838 -0.003328 0.011757 0.000000 0.000000 0.000000
# 4 0.000000 0.000000 0.000000 0.023412 0.000000 0.000000
# 5 0.000000 0.000000 0.000000 0.000000 0.026353 0.000000
# 6 0.000000 0.000000 0.000000 0.000000 0.000000 0.065230
#
#
# Mechanical properties :
#
#
# Convention : Reuss Voigt Hill
#
# Bulk Modulus (GPa) = 32.51841 61.86307 47.19074
# Shear Modulus (GPa) = 26.19747 35.27519 30.73633
#
# Velocity S-wave (km/s) = 3.49008 4.04986 3.78034
# Velocity P-wave (km/s) = 5.60004 7.11561 6.40283
#
# Compressibility (1/GPa) = 0.03075181
#
# Stress axis : x y z
#
# Youngs Moduli (GPa) = 33.53041 151.47921 85.05692
#
# Poissons Ratio (x) = 0.68910 0.07127
# Poissons Ratio (y) = 0.15253 0.28307
# Poissons Ratio (z) = 0.02810 0.50413
#
# Static dielectric constant tensor:
#      x y z
#    x 3.828690 0.000000 0.000000 
#    y 0.000000 4.473610 0.000000 
#    z 0.000000 0.000000 4.338920 
# 
# 
# High freq. dielectric constant tensor:
#      x y z
#    x 1.844530 0.000000 0.000000 
#    y 0.000000 1.870050 0.000000 
#    z 0.000000 0.000000 1.854680 
# 
# From -- ./inp_files/8166.got.cif
#   From: 2010.03.12/outbox.cif.g09.slc.cpg/sg44_5_cif.got.tgz:8166.got - 2010.04.14 02:36:11.
