data_PCOD8190516
_publ_section_title
;
Structure prediction by ZEFSAII (Michael W. Deem and Ramdas Pophale) SiO2 
 PCOD8190516
Probable space group: I B A 2
;
_chemical_formula_sum "Si O2"
_cell_formula_units_Z 48
_cell_length_a 8.682571
_cell_length_b 29.899167
_cell_length_c 8.423534
_cell_angle_alpha 90.000000
_cell_angle_beta 90.000000
_cell_angle_gamma 90.000000
_cell_volume 2186.763244
_symmetry_space_group_name_H-M "I B A 2"
_symmetry_group_IT_number 45
_symmetry_cell_setting 'orthorhombic'
loop_
_space_group_symop_operation_xyz
x,y,z
-x,-y,z
-x,y,1/2+z
x,-y,1/2+z
1/2+x,1/2+y,1/2+z
1/2-x,1/2-y,1/2+z
1/2-x,1/2+y,z
1/2+x,1/2-y,z
loop_
_atom_site_type_symbol
_atom_site_label
_atom_site_fract_x
_atom_site_fract_y
_atom_site_fract_z
Si Si1 0.082812 0.117487 0.893870
Si Si2 0.123685 0.204255 0.717308
Si Si3 0.654209 0.479421 0.907155
Si Si4 0.269848 0.377144 0.740080
Si Si5 0.353433 0.969303 0.691640
Si Si6 0.706520 0.287021 0.348708
O O1 0.166244 0.155492 0.788233
O O2 0.129667 0.068981 0.828984
O O3 0.896685 0.119506 0.881851
O O4 0.132872 0.122354 0.076952
O O5 0.208128 0.240725 0.825195
O O6 0.167677 0.207473 0.533773
O O7 0.943435 0.213062 0.737646
O O8 0.500000 0.500000 0.990579
O O9 0.696321 0.514021 0.771032
O O10 0.811148 0.475470 0.008956
O O11 0.138192 0.416306 0.740162
O O12 0.190514 0.329037 0.779999
O O13 0.500000 0.000000 0.735586
#
# Coordination Sequence:
#
# PCOD8190516 Si02
#       6
#     8   8   8   8   8   8
#     4  10  20  35  61  93 118 161 218 276 304 382
#     4  11  22  40  65  96 133 165 218 264 328 383
#     4  11  22  39  65  90 121 167 224 266 320 393
#     4  10  20  37  61  90 125 165 216 265 326 385
#     4  11  24  40  60  91 131 167 208 275 334 391
#     4  11  22  40  66  95 130 173 210 269 322 393
#
# _framework density 21.95025
#
# number of rings (size 3 to 8) (size 9 to 14) (size 15 to 20)
#    0.000    1.333    1.667    7.000    2.333    1.333 
#    3.000    0.000    3.667    0.000    0.000    0.000 
#    0.000    0.000    0.000    0.000    0.000    0.000 
#
# Total GULP energy -297319.717870 kJ/mol
# GULP energy per Si atom -12388.321578 kJ/mol
# Density = 2.190029 g / cm^3
# Si number density = 21.950250 Si / 1000 Ang^3
#
#
#
# Elastic Constant Matrix: (Units=GPa)
#
#
# Indices 1 2 3 4 5 6 
#
# 1 65.5445 55.0980 23.9205 0.0013 0.0000 0.0000
# 2 55.0980 185.6574 57.7840 0.0018 0.0003 -0.0003
# 3 23.9205 57.7840 71.9384 0.0084 -0.0004 -0.0011
# 4 0.0013 0.0018 0.0084 34.1753 -0.0009 -0.0009
# 5 0.0000 0.0003 -0.0004 -0.0009 24.5889 0.0015
# 6 0.0000 -0.0003 -0.0011 -0.0009 0.0015 41.8958
#
#
#
# Elastic Compliance Matrix: (Units=1/GPa)
#
#
# Indices 1 2 3 4 5 6 
#
# 1 0.020686 -0.005331 -0.002596 0.000000 0.000000 0.000000
# 2 -0.005331 0.008556 -0.005100 0.000001 0.000000 0.000000
# 3 -0.002596 -0.005100 0.018860 -0.000004 0.000000 0.000000
# 4 0.000000 0.000001 -0.000004 0.029261 0.000001 0.000001
# 5 0.000000 0.000000 0.000000 0.000001 0.040669 -0.000001
# 6 0.000000 0.000000 0.000000 0.000001 -0.000001 0.023869
#
#
# Mechanical properties :
#
#
# Convention : Reuss Voigt Hill
#
# Bulk Modulus (GPa) = 45.35567 66.30504 55.83035
# Shear Modulus (GPa) = 28.52213 32.55451 30.53832
#
# Velocity S-wave (km/s) = 3.60863 3.85529 3.73400
# Velocity P-wave (km/s) = 6.17015 7.07744 6.63931
#
# Compressibility (1/GPa) = 0.02204796
#
# Stress axis : x y z
#
# Youngs Moduli (GPa) = 48.34293 116.88381 53.02146
#
# Poissons Ratio (x) = 0.62309 0.13766
# Poissons Ratio (y) = 0.25771 0.27039
# Poissons Ratio (z) = 0.12551 0.59606
#
# Static dielectric constant tensor:
#      x y z
#    x 3.508000 0.000000 0.000000 
#    y 0.000000 4.668450 -0.000010 
#    z 0.000000 -0.000010 3.814690 
# 
# 
# High freq. dielectric constant tensor:
#      x y z
#    x 1.821310 0.000000 0.000000 
#    y 0.000000 1.892510 0.000000 
#    z 0.000000 0.000000 1.867700 
# 
# From -- ./inp_files/1055.got.cif
#   From: 2010.03.12/outbox.cif.g09.slc.cpg/sg45_1_cif.got.tgz:1055.got - 2010.04.14 02:50:11.
