data_PCOD8190703
_publ_section_title
;
Structure prediction by ZEFSAII (Michael W. Deem and Ramdas Pophale) SiO2 
 PCOD8190703
Probable space group: I B A 2
;
_chemical_formula_sum "Si O2"
_cell_formula_units_Z 52
_cell_length_a 8.442700
_cell_length_b 25.513700
_cell_length_c 10.580461
_cell_angle_alpha 90.000000
_cell_angle_beta 90.000000
_cell_angle_gamma 90.000000
_cell_volume 2279.079070
_symmetry_space_group_name_H-M "I B A 2"
_symmetry_group_IT_number 45
_symmetry_cell_setting 'orthorhombic'
loop_
_space_group_symop_operation_xyz
x,y,z
-x,-y,z
-x,y,1/2+z
x,-y,1/2+z
1/2+x,1/2+y,1/2+z
1/2-x,1/2-y,1/2+z
1/2-x,1/2+y,z
1/2+x,1/2-y,z
loop_
_atom_site_type_symbol
_atom_site_label
_atom_site_fract_x
_atom_site_fract_y
_atom_site_fract_z
Si Si1 0.510454 0.376866 0.673740
Si Si2 0.027312 0.323219 0.156494
Si Si3 0.280357 0.244906 0.048344
Si Si4 0.807815 0.412961 0.076300
Si Si5 0.808141 0.408034 0.797147
Si Si6 0.489358 0.684869 0.930177
Si Si7 0.500000 0.000000 0.688949
O O1 0.336024 0.402692 0.674697
O O2 0.656660 0.415374 0.704525
O O3 0.510461 0.333231 0.785411
O O4 0.555887 0.355094 0.535681
O O5 0.175009 0.293721 0.092635
O O6 0.097298 0.352226 0.280528
O O7 0.882396 0.280644 0.166732
O O8 0.955360 0.372451 0.078694
O O9 0.400367 0.263711 0.938393
O O10 0.185455 0.198305 0.981666
O O11 0.870570 0.471518 0.101447
O O12 0.734196 0.409583 0.936642
O O13 0.923909 0.456718 0.779860
#
# Coordination Sequence:
#
# PCOD8190703 Si02
#       7
#     8   8   8   8   8   8   4
#     4  12  23  45  69  98 140 181 231 287 351 403
#     4  10  21  40  64  94 143 180 231 284 340 401
#     4  10  21  42  62 101 138 191 239 281 335 407
#     4  11  24  48  70 105 136 180 228 293 354 427
#     4  11  23  46  72 102 137 179 229 294 352 424
#     4  11  24  42  64 100 139 190 237 288 333 405
#     4  10  26  48  74 104 130 170 230 292 368 424
#
# _framework density 22.816234999999999
#
# number of rings (size 3 to 8) (size 9 to 14) (size 15 to 20)
#    0.000    1.231    4.615    0.462    0.000    4.308 
#   13.846    1.538    0.000    0.000    0.000    0.000 
#    0.000    0.000    0.000    0.000    0.000    0.000 
#
# Total GULP energy -322117.654110 kJ/mol
# GULP energy per Si atom -12389.140543 kJ/mol
# Density = 2.276430 g / cm^3
# Si number density = 22.816235 Si / 1000 Ang^3
#
#
#
# Elastic Constant Matrix: (Units=GPa)
#
#
# Indices 1 2 3 4 5 6 
#
# 1 142.9207 51.0262 26.7782 -0.0005 0.0002 0.0003
# 2 51.0262 100.2435 20.4224 -0.0001 -0.0001 -0.0003
# 3 26.7782 20.4224 80.8104 -0.0041 0.0003 0.0010
# 4 -0.0005 -0.0001 -0.0041 18.1346 0.0000 -0.0003
# 5 0.0002 -0.0001 0.0003 0.0000 31.3074 -0.0004
# 6 0.0003 -0.0003 0.0010 -0.0003 -0.0004 37.6651
#
#
#
# Elastic Compliance Matrix: (Units=1/GPa)
#
#
# Indices 1 2 3 4 5 6 
#
# 1 0.008815 -0.004103 -0.001884 0.000000 0.000000 0.000000
# 2 -0.004103 0.012427 -0.001781 0.000000 0.000000 0.000000
# 3 -0.001884 -0.001781 0.013449 0.000003 0.000000 0.000000
# 4 0.000000 0.000000 0.000003 0.055143 0.000000 0.000000
# 5 0.000000 0.000000 0.000000 0.000000 0.031941 0.000000
# 6 0.000000 0.000000 0.000000 0.000000 0.000000 0.026550
#
#
# Mechanical properties :
#
#
# Convention : Reuss Voigt Hill
#
# Bulk Modulus (GPa) = 52.20620 57.82535 55.01578
# Shear Modulus (GPa) = 29.36923 32.47128 30.92025
#
# Velocity S-wave (km/s) = 3.59166 3.77658 3.68528
# Velocity P-wave (km/s) = 6.33489 6.66451 6.50179
#
# Compressibility (1/GPa) = 0.01915481
#
# Stress axis : x y z
#
# Youngs Moduli (GPa) = 113.44568 80.46936 74.35479
#
# Poissons Ratio (x) = 0.33017 0.14009
# Poissons Ratio (y) = 0.46548 0.13242
# Poissons Ratio (z) = 0.21374 0.14331
#
# Static dielectric constant tensor:
#      x y z
#    x 4.514990 0.000000 0.000000 
#    y 0.000000 4.104510 0.000000 
#    z 0.000000 0.000000 3.812870 
# 
# 
# High freq. dielectric constant tensor:
#      x y z
#    x 1.923920 0.000000 0.000000 
#    y 0.000000 1.893560 0.000000 
#    z 0.000000 0.000000 1.874870 
# 
# From -- ./inp_files/3317.got.cif
#   From: 2010.03.12/outbox.cif.g09.slc.cpg/sg45_2_cif.got.tgz:3317.got - 2010.04.14 02:50:11.
