data_PCOD8190176
_publ_section_title
;
Structure prediction by ZEFSAII (Michael W. Deem and Ramdas Pophale) SiO2 
 PCOD8190176
Probable space group: I M M 2
;
_chemical_formula_sum "Si O2"
_cell_formula_units_Z 64
_cell_length_a 24.635541
_cell_length_b 8.617780
_cell_length_c 15.172970
_cell_angle_alpha 90.000000
_cell_angle_beta 90.000000
_cell_angle_gamma 90.000000
_cell_volume 3221.277254
_symmetry_space_group_name_H-M "I M M 2"
_symmetry_group_IT_number 44
_symmetry_cell_setting 'orthorhombic'
loop_
_space_group_symop_operation_xyz
x,y,z
-x,-y,z
-x,y,z
x,-y,z
1/2+x,1/2+y,1/2+z
1/2-x,1/2-y,1/2+z
1/2-x,1/2+y,1/2+z
1/2+x,1/2-y,1/2+z
loop_
_atom_site_type_symbol
_atom_site_label
_atom_site_fract_x
_atom_site_fract_y
_atom_site_fract_z
Si Si1 0.438115 0.683358 0.078130
Si Si2 0.937339 0.322488 0.222415
Si Si3 0.258133 0.318487 0.119869
Si Si4 0.355855 0.682731 0.585664
Si Si5 0.169231 0.321442 0.904879
Si Si6 0.610805 0.683513 0.892163
Si Si7 0.219171 0.682187 0.436807
Si Si8 0.355508 0.178038 0.212895
O O1 0.500000 0.740434 0.084437
O O2 0.433668 0.500000 0.085319
O O3 0.406119 0.755489 0.159761
O O4 0.413874 0.740045 0.985128
O O5 0.917927 0.500000 0.229768
O O6 0.904874 0.236903 0.145929
O O7 0.929096 0.237794 0.315395
O O8 0.000000 0.311032 0.196512
O O9 0.246830 0.500000 0.125850
O O10 0.201049 0.230821 0.130062
O O11 0.299517 0.268615 0.195709
O O12 0.286788 0.275245 0.028087
O O13 0.357173 0.500000 0.574879
O O14 0.363287 0.757680 0.489057
O O15 0.184602 0.500000 0.922693
O O16 0.224711 0.226221 0.889905
O O17 0.132479 0.303528 0.817400
O O18 0.617700 0.500000 0.888246
O O19 0.668984 0.764953 0.876149
O O20 0.217399 0.500000 0.455302
O O21 0.347012 0.000000 0.186163
#
# Coordination Sequence:
#
# PCOD8190176 Si02
#       8
#     8   8   8   8   8   8   8   8
#     4  10  22  40  62  88 122 164 206 249 301 361
#     4  11  25  44  65  90 121 160 207 257 309 367
#     4  11  21  36  59  87 123 162 200 245 301 362
#     4  11  23  41  65  91 121 157 203 256 311 368
#     4  10  22  40  61  87 124 163 204 253 309 366
#     4  11  22  38  61  90 124 164 204 248 305 364
#     4  11  21  35  57  88 124 160 203 246 299 363
#     4  11  23  38  60  90 123 161 206 253 303 362
#
# _framework density 19.867895000000001
#
# number of rings (size 3 to 8) (size 9 to 14) (size 15 to 20)
#    0.000    1.250    1.250    6.750    1.750    4.250 
#    0.000    0.625    0.000    0.750    0.000    0.000 
#    0.000    0.000    0.000    0.000    0.000    0.000 
#
# Total GULP energy -396944.483914 kJ/mol
# GULP energy per Si atom -12404.515122 kJ/mol
# Density = 1.982267 g / cm^3
# Si number density = 19.867895 Si / 1000 Ang^3
#
#
#
# Elastic Constant Matrix: (Units=GPa)
#
#
# Indices 1 2 3 4 5 6 
#
# 1 -85.9203 -28.9692 -63.0460 0.0000 0.0000 0.0000
# 2 -28.9692 60.7682 -7.1318 0.0000 0.0000 0.0000
# 3 -63.0460 -7.1318 33.9312 0.0000 0.0000 0.0000
# 4 0.0000 0.0000 0.0000 32.2610 0.0000 0.0000
# 5 0.0000 0.0000 0.0000 0.0000 17.8192 0.0000
# 6 0.0000 0.0000 0.0000 0.0000 0.0000 30.0043
#
#
#
# Elastic Compliance Matrix: (Units=1/GPa)
#
#
# Indices 1 2 3 4 5 6 
#
# 1 -0.004289 -0.003055 -0.008612 0.000000 0.000000 0.000000
# 2 -0.003055 0.014696 -0.002588 0.000000 0.000000 0.000000
# 3 -0.008612 -0.002588 0.012926 0.000000 0.000000 0.000000
# 4 0.000000 0.000000 0.000000 0.030997 0.000000 0.000000
# 5 0.000000 0.000000 0.000000 0.000000 0.056119 0.000000
# 6 0.000000 0.000000 0.000000 0.000000 0.000000 0.033329
#
#
# Mechanical properties :
#
#
# Convention : Reuss Voigt Hill
#
# Bulk Modulus (GPa) = -193.06707 -21.05721 -107.06214
# Shear Modulus (GPa) = 29.31481 23.21199 26.26340
#
# Velocity S-wave (km/s) = 3.84537 3.42177 3.63974
# Velocity P-wave (km/s) = 8.81309 2.23377 6.02830
#
# Compressibility (1/GPa) = -0.00517955
#
# Stress axis : x y z
#
# Youngs Moduli (GPa) = -233.13892 68.04763 77.36414
#
# Poissons Ratio (x) = 0.20792 0.66626
# Poissons Ratio (y) = -0.71235 0.20025
# Poissons Ratio (z) = -2.00778 0.17614
#
# Static dielectric constant tensor:
#      x y z
#    x 3.536420 0.000000 0.000000 
#    y 0.000000 3.728490 0.000000 
#    z 0.000000 0.000000 3.650520 
# 
# 
# High freq. dielectric constant tensor:
#      x y z
#    x 1.764180 0.000000 0.000000 
#    y 0.000000 1.789970 0.000000 
#    z 0.000000 0.000000 1.775890 
# 
# From -- ./inp_files/19503.got.cif
#   From: 2010.03.12/outbox.cif.g09.slc.cpg/sg44_10_cif.got.tgz:19503.got - 2010.04.14 02:36:11.
