data_PCOD8190373
_publ_section_title
;
Structure prediction by ZEFSAII (Michael W. Deem and Ramdas Pophale) SiO2 
 PCOD8190373
Probable space group: I B A 2
;
_chemical_formula_sum "Si O2"
_cell_formula_units_Z 48
_cell_length_a 16.143753
_cell_length_b 25.963953
_cell_length_c 5.061109
_cell_angle_alpha 90.000000
_cell_angle_beta 90.000000
_cell_angle_gamma 90.000000
_cell_volume 2121.392403
_symmetry_space_group_name_H-M "I B A 2"
_symmetry_group_IT_number 45
_symmetry_cell_setting 'orthorhombic'
loop_
_space_group_symop_operation_xyz
x,y,z
-x,-y,z
-x,y,1/2+z
x,-y,1/2+z
1/2+x,1/2+y,1/2+z
1/2-x,1/2-y,1/2+z
1/2-x,1/2+y,z
1/2+x,1/2-y,z
loop_
_atom_site_type_symbol
_atom_site_label
_atom_site_fract_x
_atom_site_fract_y
_atom_site_fract_z
Si Si1 0.551849 0.180012 0.450720
Si Si2 0.726295 0.220523 0.273921
Si Si3 0.551764 0.940413 0.958782
Si Si4 0.269580 0.608580 0.666940
Si Si5 0.279525 0.947361 0.678030
Si Si6 0.124384 0.979125 0.152177
O O1 0.519624 0.194782 0.741017
O O2 0.633860 0.210921 0.377271
O O3 0.574063 0.119829 0.451912
O O4 0.777908 0.240648 0.526001
O O5 0.771788 0.170003 0.154833
O O6 0.521099 0.955427 0.666036
O O7 0.634591 0.970150 0.057925
O O8 0.204790 0.585215 0.450787
O O9 0.359049 0.581363 0.593589
O O10 0.254060 0.593822 0.968821
O O11 0.214590 0.993727 0.735890
O O12 0.074743 0.990460 0.422947
#
# Coordination Sequence:
#
# PCOD8190373 Si02
#       6
#     8   8   8   8   8   8
#     4  10  21  36  54  73  99 139 179 217 269 326
#     4  12  24  36  54  80 105 132 179 232 277 315
#     4  10  19  28  46  69  91 126 170 218 256 292
#     4  10  19  32  49  66  96 125 163 213 260 308
#     4  10  17  30  49  65  90 122 168 202 251 306
#     4   8  16  28  46  65  83 124 164 198 245 319
#
# _framework density 22.626647999999999
#
# number of rings (size 3 to 8) (size 9 to 14) (size 15 to 20)
#    0.000    2.000    1.667    3.000    4.667    0.000 
#    0.000    0.000    0.000   29.000    0.000    0.000 
#    0.000    0.000    0.000    0.000    0.000  525.000 
#
# Total GULP energy -297340.486219 kJ/mol
# GULP energy per Si atom -12389.186926 kJ/mol
# Density = 2.257515 g / cm^3
# Si number density = 22.626648 Si / 1000 Ang^3
#
#
#
# Elastic Constant Matrix: (Units=GPa)
#
#
# Indices 1 2 3 4 5 6 
#
# 1 37.1704 22.9051 -2.9086 -0.0043 0.0024 -0.0003
# 2 22.9051 92.9952 21.3580 0.0036 0.0011 0.0002
# 3 -2.9086 21.3580 122.0835 -0.0309 -0.0116 -0.0004
# 4 -0.0043 0.0036 -0.0309 -32.6734 0.0009 0.0000
# 5 0.0024 0.0011 -0.0116 0.0009 10.2631 0.0002
# 6 -0.0003 0.0002 -0.0004 0.0000 0.0002 19.7073
#
#
#
# Elastic Compliance Matrix: (Units=1/GPa)
#
#
# Indices 1 2 3 4 5 6 
#
# 1 0.032301 -0.008473 0.002252 -0.000007 -0.000004 0.000001
# 2 -0.008473 0.013426 -0.002551 0.000005 -0.000002 0.000000
# 3 0.002252 -0.002551 0.008691 -0.000009 0.000010 0.000000
# 4 -0.000007 0.000005 -0.000009 -0.030606 0.000003 0.000000
# 5 -0.000004 -0.000002 0.000010 0.000003 0.097437 -0.000001
# 6 0.000001 0.000000 0.000000 0.000000 -0.000001 0.050743
#
#
# Mechanical properties :
#
#
# Convention : Reuss Voigt Hill
#
# Bulk Modulus (GPa) = 27.11940 37.21756 32.16848
# Shear Modulus (GPa) = 24.77383 13.51902 19.14642
#
# Velocity S-wave (km/s) = 3.31251 2.44700 2.91209
# Velocity P-wave (km/s) = 5.16158 4.94651 5.05519
#
# Compressibility (1/GPa) = 0.03687397
#
# Stress axis : x y z
#
# Youngs Moduli (GPa) = 30.95927 74.48251 115.06159
#
# Poissons Ratio (x) = 0.63108 -0.25910
# Poissons Ratio (y) = 0.26232 0.29349
# Poissons Ratio (z) = -0.06972 0.18998
#
# Static dielectric constant tensor:
#      x y z
#    x 3.536590 0.000010 -0.000010 
#    y 0.000010 4.170960 0.000010 
#    z -0.000010 0.000010 4.725900 
# 
# 
# High freq. dielectric constant tensor:
#      x y z
#    x 1.845930 0.000000 0.000000 
#    y 0.000000 1.868240 0.000000 
#    z 0.000000 0.000000 1.937550 
# 
# From -- ./inp_files/308.got.cif
#   From: 2010.03.12/outbox.cif.g09.slc.cpg/sg45_1_cif.got.tgz:308.got - 2010.04.14 02:50:11.
