data_PCOD8190376
_publ_section_title
;
Structure prediction by ZEFSAII (Michael W. Deem and Ramdas Pophale) SiO2 
 PCOD8190376
Probable space group: I B A 2
;
_chemical_formula_sum "Si O2"
_cell_formula_units_Z 64
_cell_length_a 8.629099
_cell_length_b 22.822735
_cell_length_c 16.678141
_cell_angle_alpha 90.000000
_cell_angle_beta 90.000000
_cell_angle_gamma 90.000000
_cell_volume 3284.587081
_symmetry_space_group_name_H-M "I B A 2"
_symmetry_group_IT_number 45
_symmetry_cell_setting 'orthorhombic'
loop_
_space_group_symop_operation_xyz
x,y,z
-x,-y,z
-x,y,1/2+z
x,-y,1/2+z
1/2+x,1/2+y,1/2+z
1/2-x,1/2-y,1/2+z
1/2-x,1/2+y,z
1/2+x,1/2-y,z
loop_
_atom_site_type_symbol
_atom_site_label
_atom_site_fract_x
_atom_site_fract_y
_atom_site_fract_z
Si Si1 0.710754 0.173384 0.401630
Si Si2 0.675349 0.131594 0.230967
Si Si3 0.663140 0.482634 0.717859
Si Si4 0.146503 0.056553 0.535019
Si Si5 0.467247 0.743603 0.984333
Si Si6 0.404766 0.942028 0.657310
Si Si7 0.726736 0.322277 0.569716
Si Si8 0.291314 0.565955 0.003363
O O1 0.660996 0.172358 0.308648
O O2 0.574566 0.208727 0.443479
O O3 0.872712 0.207361 0.416897
O O4 0.723916 0.106809 0.433486
O O5 0.774899 0.075672 0.260267
O O6 0.511545 0.109478 0.193859
O O7 0.767917 0.170090 0.165623
O O8 0.500000 0.500000 0.758145
O O9 0.643488 0.470439 0.623643
O O10 0.784095 0.536668 0.726532
O O11 0.257397 0.113325 0.530169
O O12 0.973964 0.077885 0.514356
O O13 0.218232 0.003918 0.480410
O O14 0.558724 0.699455 0.042014
O O15 0.354126 0.776688 0.043939
O O16 0.309336 0.916889 0.581859
O O17 0.500000 0.000000 0.629751
#
# Coordination Sequence:
#
# PCOD8190376 Si02
#       8
#     8   8   8   8   8   8   8   8
#     4  11  23  41  56  87 119 154 189 253 314 349
#     4  10  22  35  55  85 123 146 195 251 299 354
#     4   9  15  32  54  82 119 157 192 228 285 344
#     4   9  16  31  60  91 113 145 195 241 279 352
#     4  10  23  41  64  76 113 158 206 248 288 357
#     4   9  17  32  55  85 118 161 193 233 280 357
#     4  10  20  40  62  88 106 154 210 242 285 351
#     4  10  17  32  61  86 117 150 190 238 290 350
#
# _framework density 19.484945
#
# number of rings (size 3 to 8) (size 9 to 14) (size 15 to 20)
#    0.000    2.250    3.750    1.500    0.000    1.000 
#    2.250    8.125    0.000    0.000    0.000    0.000 
#    0.000    0.000    0.000    0.000    0.000    0.000 
#
# Total GULP energy -396537.943800 kJ/mol
# GULP energy per Si atom -12391.810744 kJ/mol
# Density = 1.944060 g / cm^3
# Si number density = 19.484945 Si / 1000 Ang^3
#
#
#
# Elastic Constant Matrix: (Units=GPa)
#
#
# Indices 1 2 3 4 5 6 
#
# 1 95.1704 33.5789 30.0989 0.0000 0.0000 0.0000
# 2 33.5789 108.6552 43.8221 0.0000 0.0000 0.0000
# 3 30.0989 43.8221 81.3218 0.0000 0.0000 -0.0001
# 4 0.0000 0.0000 0.0000 22.8758 0.0000 0.0000
# 5 0.0000 0.0000 0.0000 0.0000 14.3623 0.0000
# 6 0.0000 0.0000 -0.0001 0.0000 0.0000 19.0727
#
#
#
# Elastic Compliance Matrix: (Units=1/GPa)
#
#
# Indices 1 2 3 4 5 6 
#
# 1 0.012424 -0.002536 -0.003232 0.000000 0.000000 0.000000
# 2 -0.002536 0.012277 -0.005677 0.000000 0.000000 0.000000
# 3 -0.003232 -0.005677 0.016552 0.000000 0.000000 0.000000
# 4 0.000000 0.000000 0.000000 0.043714 0.000000 0.000000
# 5 0.000000 0.000000 0.000000 0.000000 0.069627 0.000000
# 6 0.000000 0.000000 0.000000 0.000000 0.000000 0.052431
#
#
# Mechanical properties :
#
#
# Convention : Reuss Voigt Hill
#
# Bulk Modulus (GPa) = 54.45614 55.57191 55.01402
# Shear Modulus (GPa) = 21.18316 23.10532 22.14424
#
# Velocity S-wave (km/s) = 3.30078 3.44729 3.37483
# Velocity P-wave (km/s) = 6.52191 6.66539 6.59404
#
# Compressibility (1/GPa) = 0.01836340
#
# Stress axis : x y z
#
# Youngs Moduli (GPa) = 80.48653 81.45445 60.41509
#
# Poissons Ratio (x) = 0.20659 0.19525
# Poissons Ratio (y) = 0.20413 0.34297
# Poissons Ratio (z) = 0.26012 0.46241
#
# Static dielectric constant tensor:
#      x y z
#    x 3.885340 0.000000 0.000000 
#    y 0.000000 3.752510 0.000000 
#    z 0.000000 0.000000 3.102780 
# 
# 
# High freq. dielectric constant tensor:
#      x y z
#    x 1.768120 0.000000 0.000000 
#    y 0.000000 1.764070 0.000000 
#    z 0.000000 0.000000 1.714620 
# 
# From -- ./inp_files/5871.got.cif
#   From: 2010.03.12/outbox.cif.g09.slc.cpg/sg45_3_cif.got.tgz:5871.got - 2010.04.14 02:50:11.
