data_PCOD8190639
_publ_section_title
;
Structure prediction by ZEFSAII (Michael W. Deem and Ramdas Pophale) SiO2 
 PCOD8190639
Probable space group: I B A 2
;
_chemical_formula_sum "Si O2"
_cell_formula_units_Z 64
_cell_length_a 5.211955
_cell_length_b 14.901067
_cell_length_c 37.891837
_cell_angle_alpha 90.000000
_cell_angle_beta 90.000000
_cell_angle_gamma 90.000000
_cell_volume 2942.819907
_symmetry_space_group_name_H-M "I B A 2"
_symmetry_group_IT_number 45
_symmetry_cell_setting 'orthorhombic'
loop_
_space_group_symop_operation_xyz
x,y,z
-x,-y,z
-x,y,1/2+z
x,-y,1/2+z
1/2+x,1/2+y,1/2+z
1/2-x,1/2-y,1/2+z
1/2-x,1/2+y,z
1/2+x,1/2-y,z
loop_
_atom_site_type_symbol
_atom_site_label
_atom_site_fract_x
_atom_site_fract_y
_atom_site_fract_z
Si Si1 0.088612 0.805710 0.480200
Si Si2 0.434538 0.692170 0.059347
Si Si3 0.500663 0.604551 0.909816
Si Si4 0.032854 0.691472 0.802112
Si Si5 0.791297 0.399239 0.655905
Si Si6 0.208995 0.899246 0.626531
Si Si7 0.436799 0.808769 0.223296
Si Si8 0.495707 0.103878 0.873523
O O1 0.381129 0.773569 0.474988
O O2 0.071002 0.846682 0.519593
O O3 0.015871 0.881199 0.451824
O O4 0.716879 0.732528 0.065987
O O5 0.376462 0.608516 0.085621
O O6 0.500000 0.500000 0.901668
O O7 0.253028 0.649828 0.891375
O O8 0.752548 0.648650 0.891581
O O9 0.269820 0.756603 0.807939
O O10 0.062625 0.650074 0.762827
O O11 0.025477 0.613776 0.831295
O O12 0.517389 0.350849 0.649425
O O13 0.750166 0.499974 0.641197
O O14 0.879485 0.391800 0.696762
O O15 0.017550 0.350611 0.633133
O O16 0.715588 0.765304 0.217078
O O17 0.500000 0.000000 0.882978
#
# Coordination Sequence:
#
# PCOD8190639 Si02
#       8
#     8   8   8   8   8   8   8   8
#     4  10  21  37  58  85 116 147 192 236 283 340
#     4  10  21  37  58  83 114 149 186 234 287 339
#     4  10  21  37  57  83 118 152 192 233 280 337
#     4  10  21  37  58  85 116 147 192 236 283 340
#     4  10  21  37  56  81 114 143 187 239 275 340
#     4  10  21  37  56  81 114 143 187 239 275 340
#     4  10  21  37  58  83 114 149 186 234 287 339
#     4  10  21  37  57  83 118 152 192 233 280 337
#
# _framework density 21.747847
#
# number of rings (size 3 to 8) (size 9 to 14) (size 15 to 20)
#    0.000    2.000    0.000    3.000    0.000    6.000 
#    4.500    0.000   11.000    0.000    0.000    0.000 
#    0.000    0.000    0.000    0.000    0.000    0.000 
#
# Total GULP energy -396463.488449 kJ/mol
# GULP energy per Si atom -12389.484014 kJ/mol
# Density = 2.169835 g / cm^3
# Si number density = 21.747847 Si / 1000 Ang^3
#
#
#
# Elastic Constant Matrix: (Units=GPa)
#
#
# Indices 1 2 3 4 5 6 
#
# 1 197.5660 13.4283 55.2038 0.0000 0.0000 0.0000
# 2 13.4283 29.9285 36.4987 0.0000 0.0000 0.0000
# 3 55.2038 36.4987 183.6133 0.0000 0.0000 0.0000
# 4 0.0000 0.0000 0.0000 39.5203 0.0000 0.0000
# 5 0.0000 0.0000 0.0000 0.0000 39.2282 0.0000
# 6 0.0000 0.0000 0.0000 0.0000 0.0000 10.3210
#
#
#
# Elastic Compliance Matrix: (Units=1/GPa)
#
#
# Indices 1 2 3 4 5 6 
#
# 1 0.005534 -0.000599 -0.001545 0.000000 0.000000 0.000000
# 2 -0.000599 0.044170 -0.008600 0.000000 0.000000 0.000000
# 3 -0.001545 -0.008600 0.007620 0.000000 0.000000 0.000000
# 4 0.000000 0.000000 0.000000 0.025303 0.000000 0.000000
# 5 0.000000 0.000000 0.000000 0.000000 0.025492 0.000000
# 6 0.000000 0.000000 0.000000 0.000000 0.000000 0.096889
#
#
# Mechanical properties :
#
#
# Convention : Reuss Voigt Hill
#
# Bulk Modulus (GPa) = 27.90475 69.04103 48.47289
# Shear Modulus (GPa) = 20.96951 38.21237 29.59094
#
# Velocity S-wave (km/s) = 3.10854 4.19628 3.69268
# Velocity P-wave (km/s) = 5.07375 7.43596 6.36539
#
# Compressibility (1/GPa) = 0.03583619
#
# Stress axis : x y z
#
# Youngs Moduli (GPa) = 180.70305 22.64000 131.23132
#
# Poissons Ratio (x) = 0.01357 0.20271
# Poissons Ratio (y) = 0.10827 1.12858
# Poissons Ratio (z) = 0.27913 0.19470
#
# Static dielectric constant tensor:
#      x y z
#    x 11.002780 0.000000 0.000000 
#    y 0.000000 0.990750 0.000000 
#    z 0.000000 0.000000 4.160270 
# 
# 
# High freq. dielectric constant tensor:
#      x y z
#    x 1.895990 0.000000 0.000000 
#    y 0.000000 1.798480 0.000000 
#    z 0.000000 0.000000 1.866010 
# 
# From -- ./inp_files/10148.got.cif
#   From: 2010.03.12/outbox.cif.g09.slc.cpg/sg45_6_cif.got.tgz:10148.got - 2010.04.14 02:50:11.
