data_PCOD8190239
_publ_section_title
;
Structure prediction by ZEFSAII (Michael W. Deem and Ramdas Pophale) SiO2 
 PCOD8190239
Probable space group: I M M 2
;
_chemical_formula_sum "Si O2"
_cell_formula_units_Z 48
_cell_length_a 11.184886
_cell_length_b 11.304436
_cell_length_c 19.431969
_cell_angle_alpha 90.000000
_cell_angle_beta 90.000000
_cell_angle_gamma 90.000000
_cell_volume 2456.955385
_symmetry_space_group_name_H-M "I M M 2"
_symmetry_group_IT_number 44
_symmetry_cell_setting 'orthorhombic'
loop_
_space_group_symop_operation_xyz
x,y,z
-x,-y,z
-x,y,z
x,-y,z
1/2+x,1/2+y,1/2+z
1/2-x,1/2-y,1/2+z
1/2-x,1/2+y,1/2+z
1/2+x,1/2-y,1/2+z
loop_
_atom_site_type_symbol
_atom_site_label
_atom_site_fract_x
_atom_site_fract_y
_atom_site_fract_z
Si Si1 0.640253 0.137752 0.338950
Si Si2 0.246251 0.761085 0.712106
Si Si3 0.360985 0.500000 0.033153
Si Si4 0.500000 0.868416 0.541242
Si Si5 0.264837 0.219361 0.476430
Si Si6 0.000000 0.365258 0.201980
Si Si7 0.639538 0.500000 0.185673
Si Si8 0.139802 0.637022 0.580803
O O1 0.500000 0.167951 0.336183
O O2 0.700549 0.163973 0.265906
O O3 0.704793 0.221865 0.395354
O O4 0.659843 0.000000 0.357111
O O5 0.386507 0.785873 0.723226
O O6 0.180600 0.884756 0.726899
O O7 0.212364 0.714538 0.636196
O O8 0.500000 0.500000 0.044683
O O9 0.299764 0.500000 0.109232
O O10 0.324961 0.387004 0.990089
O O11 0.613477 0.795255 0.517854
O O12 0.500000 0.883150 0.621513
O O13 0.500000 0.000000 0.506521
O O14 0.196915 0.336070 0.505294
O O15 0.000000 0.500000 0.234151
O O16 0.500000 0.500000 0.179640
O O17 0.156517 0.500000 0.597747
O O18 0.000000 0.672728 0.582482
#
# Coordination Sequence:
#
# PCOD8190239 Si02
#       8
#     8   8   4   4   8   4   4   8
#     4  11  24  43  66  92 125 165 206 258 319 375
#     4  12  23  41  64  94 126 166 212 256 311 375
#     4  11  20  33  61  99 127 149 200 267 311 357
#     4  11  18  34  66  98 124 151 196 259 315 371
#     4  12  21  39  65  96 123 160 207 255 315 374
#     4  11  22  40  64  94 128 167 204 257 317 371
#     4  11  20  35  65  99 125 157 210 265 303 351
#     4  11  24  43  66  92 127 169 210 257 312 371
#
# _framework density 19.536375
#
# number of rings (size 3 to 8) (size 9 to 14) (size 15 to 20)
#    0.000    0.667    6.667    2.500    0.000    1.333 
#    4.500    2.917    0.000    0.000    0.000    0.000 
#    0.000    0.000    0.000    0.000    0.000    0.000 
#
# Total GULP energy -297591.110116 kJ/mol
# GULP energy per Si atom -12399.629588 kJ/mol
# Density = 1.949191 g / cm^3
# Si number density = 19.536375 Si / 1000 Ang^3
#
#
#
# Elastic Constant Matrix: (Units=GPa)
#
#
# Indices 1 2 3 4 5 6 
#
# 1 125.1881 42.5845 33.8557 0.0000 0.0000 0.0000
# 2 42.5845 77.9613 18.7729 0.0000 0.0000 0.0000
# 3 33.8557 18.7729 83.1108 0.0000 0.0000 0.0000
# 4 0.0000 0.0000 0.0000 30.7733 0.0000 0.0000
# 5 0.0000 0.0000 0.0000 0.0000 32.5588 0.0000
# 6 0.0000 0.0000 0.0000 0.0000 0.0000 33.6067
#
#
#
# Elastic Compliance Matrix: (Units=1/GPa)
#
#
# Indices 1 2 3 4 5 6 
#
# 1 0.010544 -0.004997 -0.003166 0.000000 0.000000 0.000000
# 2 -0.004997 0.015933 -0.001563 0.000000 0.000000 0.000000
# 3 -0.003166 -0.001563 0.013675 0.000000 0.000000 0.000000
# 4 0.000000 0.000000 0.000000 0.032496 0.000000 0.000000
# 5 0.000000 0.000000 0.000000 0.000000 0.030714 0.000000
# 6 0.000000 0.000000 0.000000 0.000000 0.000000 0.029756
#
#
# Mechanical properties :
#
#
# Convention : Reuss Voigt Hill
#
# Bulk Modulus (GPa) = 48.31278 52.96515 50.63896
# Shear Modulus (GPa) = 31.35376 32.12423 31.73900
#
# Velocity S-wave (km/s) = 4.01046 4.05943 4.03502
# Velocity P-wave (km/s) = 6.79914 7.01013 6.90544
#
# Compressibility (1/GPa) = 0.02069846
#
# Stress axis : x y z
#
# Youngs Moduli (GPa) = 94.83956 62.76353 73.12537
#
# Poissons Ratio (x) = 0.31363 0.23155
# Poissons Ratio (y) = 0.47391 0.11432
# Poissons Ratio (z) = 0.30031 0.09812
#
# Static dielectric constant tensor:
#      x y z
#    x 3.750210 0.000000 0.000000 
#    y 0.000000 3.468370 0.000000 
#    z 0.000000 0.000000 3.461400 
# 
# 
# High freq. dielectric constant tensor:
#      x y z
#    x 1.775090 0.000000 0.000000 
#    y 0.000000 1.750880 0.000000 
#    z 0.000000 0.000000 1.743910 
# 
# From -- ./inp_files/23761.got.cif
#   From: 2010.03.12/outbox.cif.g09.slc.cpg/sg44_12_cif.got.tgz:23761.got - 2010.04.14 02:36:11.
