data_PCOD8190276
_publ_section_title
;
Structure prediction by ZEFSAII (Michael W. Deem and Ramdas Pophale) SiO2 
 PCOD8190276
Probable space group: I M M 2
;
_chemical_formula_sum "Si O2"
_cell_formula_units_Z 64
_cell_length_a 9.079679
_cell_length_b 32.489319
_cell_length_c 11.790122
_cell_angle_alpha 90.000000
_cell_angle_beta 90.000000
_cell_angle_gamma 90.000000
_cell_volume 3477.998595
_symmetry_space_group_name_H-M "I M M 2"
_symmetry_group_IT_number 44
_symmetry_cell_setting 'orthorhombic'
loop_
_space_group_symop_operation_xyz
x,y,z
-x,-y,z
-x,y,z
x,-y,z
1/2+x,1/2+y,1/2+z
1/2-x,1/2-y,1/2+z
1/2-x,1/2+y,1/2+z
1/2+x,1/2-y,1/2+z
loop_
_atom_site_type_symbol
_atom_site_label
_atom_site_fract_x
_atom_site_fract_y
_atom_site_fract_z
Si Si1 0.840284 0.047851 0.907740
Si Si2 0.824721 0.953763 0.659995
Si Si3 0.327826 0.826188 0.938163
Si Si4 0.824931 0.126591 0.528020
Si Si5 0.826902 0.402768 0.571729
Si Si6 0.169834 0.724044 0.652599
Si Si7 0.324750 0.192083 0.690602
Si Si8 0.828627 0.358102 0.793370
O O1 0.767698 0.060324 0.785619
O O2 0.000000 0.069360 0.922789
O O3 0.864070 0.000000 0.901287
O O4 0.741859 0.056169 0.019260
O O5 0.772493 0.918832 0.570564
O O6 0.000000 0.955505 0.664669
O O7 0.765648 0.000000 0.626711
O O8 0.500000 0.833056 0.926154
O O9 0.260689 0.818816 0.814586
O O10 0.258332 0.867209 0.991576
O O11 0.297487 0.788513 0.022884
O O12 0.751800 0.162364 0.601328
O O13 0.774199 0.133285 0.399732
O O14 0.000000 0.130996 0.535348
O O15 0.786364 0.393600 0.702190
O O16 0.000000 0.404949 0.560604
O O17 0.281523 0.760767 0.673439
O O18 0.203550 0.686530 0.738702
O O19 0.000000 0.737933 0.666677
O O20 0.500000 0.187693 0.679788
O O21 0.000000 0.361157 0.828109
#
# Coordination Sequence:
#
# PCOD8190276 Si02
#       8
#     8   8   8   8   8   8   8   8
#     4   9  17  30  51  79 109 136 166 214 269 316
#     4   8  16  33  55  79 108 141 178 223 273 319
#     4   8  17  34  53  72  97 130 166 209 259 309
#     4  11  22  35  55  81 107 142 185 225 268 322
#     4   9  17  33  55  74  98 136 173 209 260 316
#     4   9  19  37  56  74 100 136 176 218 265 316
#     4  11  22  34  52  79 108 136 170 217 269 317
#     4   9  20  38  56  74 105 144 179 221 271 316
#
# _framework density 18.401388000000001
#
# number of rings (size 3 to 8) (size 9 to 14) (size 15 to 20)
#    0.000    2.750    0.000    3.750    1.750    1.250 
#    0.000    4.375    0.000    5.250    0.000    0.000 
#    0.000    0.000    0.000    0.000    0.000    0.000 
#
# Total GULP energy -396533.408726 kJ/mol
# GULP energy per Si atom -12391.669023 kJ/mol
# Density = 1.835951 g / cm^3
# Si number density = 18.401388 Si / 1000 Ang^3
#
#
#
# Elastic Constant Matrix: (Units=GPa)
#
#
# Indices 1 2 3 4 5 6 
#
# 1 52.4648 31.6115 50.9609 -0.0008 0.0000 0.0000
# 2 31.6115 66.8421 50.5633 -0.0009 -0.0003 -0.0001
# 3 50.9609 50.5633 142.2502 -0.0012 0.0003 -0.0001
# 4 -0.0008 -0.0009 -0.0012 22.1135 0.0000 -0.0001
# 5 0.0000 -0.0003 0.0003 0.0000 24.1645 -0.0002
# 6 0.0000 -0.0001 -0.0001 -0.0001 -0.0002 24.6278
#
#
#
# Elastic Compliance Matrix: (Units=1/GPa)
#
#
# Indices 1 2 3 4 5 6 
#
# 1 0.032808 -0.009061 -0.008533 0.000000 0.000000 0.000000
# 2 -0.009061 0.022965 -0.004917 0.000000 0.000000 0.000000
# 3 -0.008533 -0.004917 0.011834 0.000000 0.000000 0.000000
# 4 0.000000 0.000000 0.000000 0.045221 0.000000 0.000000
# 5 0.000000 0.000000 0.000000 0.000000 0.041383 0.000000
# 6 0.000000 0.000000 0.000000 0.000000 0.000000 0.040605
#
#
# Mechanical properties :
#
#
# Convention : Reuss Voigt Hill
#
# Bulk Modulus (GPa) = 44.27472 58.64761 51.46116
# Shear Modulus (GPa) = 20.21285 22.74257 21.47771
#
# Velocity S-wave (km/s) = 3.31787 3.51937 3.42011
# Velocity P-wave (km/s) = 6.22820 6.96097 6.60476
#
# Compressibility (1/GPa) = 0.02258625
#
# Stress axis : x y z
#
# Youngs Moduli (GPa) = 30.48024 43.54364 84.49954
#
# Poissons Ratio (x) = 0.39457 0.72100
# Poissons Ratio (y) = 0.27619 0.41548
# Poissons Ratio (z) = 0.26007 0.21410
#
# Static dielectric constant tensor:
#      x y z
#    x 3.124610 0.000000 0.000000 
#    y 0.000000 3.482730 0.000000 
#    z 0.000000 0.000000 3.619340 
# 
# 
# High freq. dielectric constant tensor:
#      x y z
#    x 1.689790 0.000000 0.000000 
#    y 0.000000 1.710670 0.000000 
#    z 0.000000 0.000000 1.719420 
# 
# From -- ./inp_files/11414.got.cif
#   From: 2010.03.12/outbox.cif.g09.slc.cpg/sg44_6_cif.got.tgz:11414.got - 2010.04.14 02:36:11.
