data_PCOD8190390
_publ_section_title
;
Structure prediction by ZEFSAII (Michael W. Deem and Ramdas Pophale) SiO2 
 PCOD8190390
Probable space group: I B A 2
;
_chemical_formula_sum "Si O2"
_cell_formula_units_Z 52
_cell_length_a 11.587966
_cell_length_b 16.382980
_cell_length_c 13.521475
_cell_angle_alpha 90.000000
_cell_angle_beta 90.000000
_cell_angle_gamma 90.000000
_cell_volume 2566.990036
_symmetry_space_group_name_H-M "I B A 2"
_symmetry_group_IT_number 45
_symmetry_cell_setting 'orthorhombic'
loop_
_space_group_symop_operation_xyz
x,y,z
-x,-y,z
-x,y,1/2+z
x,-y,1/2+z
1/2+x,1/2+y,1/2+z
1/2-x,1/2-y,1/2+z
1/2-x,1/2+y,z
1/2+x,1/2-y,z
loop_
_atom_site_type_symbol
_atom_site_label
_atom_site_fract_x
_atom_site_fract_y
_atom_site_fract_z
Si Si1 0.169204 0.807573 0.900240
Si Si2 0.150362 0.693240 0.240626
Si Si3 0.500000 0.500000 0.620078
Si Si4 0.937049 0.114766 0.454462
Si Si5 0.896752 0.327247 0.749741
Si Si6 0.337679 0.609917 0.755671
Si Si7 0.704589 0.265455 0.072025
O O1 0.269229 0.842276 0.828283
O O2 0.124231 0.723494 0.850766
O O3 0.065457 0.871434 0.912172
O O4 0.214822 0.797343 0.012177
O O5 0.132528 0.792640 0.247213
O O6 0.210697 0.674240 0.134638
O O7 0.029663 0.644378 0.248758
O O8 0.574575 0.557349 0.549164
O O9 0.410721 0.555296 0.680622
O O10 0.866900 0.075824 0.364044
O O11 0.874798 0.197396 0.486696
O O12 0.801601 0.400147 0.742314
O O13 0.881115 0.273762 0.651331
#
# Coordination Sequence:
#
# PCOD8190390 Si02
#       7
#     8   8   4   8   8   8   8
#     4  10  18  32  57  85 120 142 185 251 310 351
#     4  10  20  34  59  91 117 148 181 258 322 359
#     4  12  26  36  56  82 118 166 204 238 278 358
#     4  12  21  37  57  87 117 155 199 241 295 362
#     4  10  18  34  56  85 121 147 187 250 317 366
#     4  10  21  38  55  85 120 154 195 248 299 353
#     4  10  18  31  54  88 115 148 186 242 312 356
#
# _framework density 20.257186000000001
#
# number of rings (size 3 to 8) (size 9 to 14) (size 15 to 20)
#    0.000    1.846    4.615    4.154    2.154    0.000 
#    0.000    0.000    0.000    0.923    0.000    0.000 
#    0.000    0.000    0.000    0.000    0.000    0.000 
#
# Total GULP energy -322114.653267 kJ/mol
# GULP energy per Si atom -12389.025126 kJ/mol
# Density = 2.021108 g / cm^3
# Si number density = 20.257186 Si / 1000 Ang^3
#
#
#
# Elastic Constant Matrix: (Units=GPa)
#
#
# Indices 1 2 3 4 5 6 
#
# 1 175.4060 27.7594 54.7664 0.0001 0.0000 0.0000
# 2 27.7594 38.4839 20.8108 0.0003 0.0000 0.0000
# 3 54.7664 20.8108 130.5986 0.0006 0.0000 0.0001
# 4 0.0001 0.0003 0.0006 0.9224 0.0001 0.0001
# 5 0.0000 0.0000 0.0000 0.0001 34.3717 0.0000
# 6 0.0000 0.0000 0.0001 0.0001 0.0000 13.0623
#
#
#
# Elastic Compliance Matrix: (Units=1/GPa)
#
#
# Indices 1 2 3 4 5 6 
#
# 1 0.007035 -0.003807 -0.002344 0.000002 0.000000 0.000000
# 2 -0.003807 0.030496 -0.003263 -0.000007 0.000000 0.000000
# 3 -0.002344 -0.003263 0.009160 -0.000005 0.000000 0.000000
# 4 0.000002 -0.000007 -0.000005 1.084107 -0.000002 -0.000004
# 5 0.000000 0.000000 0.000000 -0.000002 0.029094 0.000000
# 6 0.000000 0.000000 0.000000 -0.000004 0.000000 0.076556
#
#
# Mechanical properties :
#
#
# Convention : Reuss Voigt Hill
#
# Bulk Modulus (GPa) = 35.88967 61.24019 48.56493
# Shear Modulus (GPa) = 3.95393 25.74808 14.85100
#
# Velocity S-wave (km/s) = 1.39861 3.56906 2.71056
# Velocity P-wave (km/s) = 4.51261 6.87613 5.81570
#
# Compressibility (1/GPa) = 0.02786317
#
# Stress axis : x y z
#
# Youngs Moduli (GPa) = 142.13962 32.79149 109.17335
#
# Poissons Ratio (x) = 0.12485 0.25585
# Poissons Ratio (y) = 0.54119 0.35621
# Poissons Ratio (z) = 0.33311 0.10699
#
# Static dielectric constant tensor:
#      x y z
#    x 4.022210 0.000000 0.000000 
#    y 0.000000 3.180320 0.000000 
#    z 0.000000 0.000000 3.925200 
# 
# 
# High freq. dielectric constant tensor:
#      x y z
#    x 1.804890 0.000000 0.000000 
#    y 0.000000 1.713960 0.000000 
#    z 0.000000 0.000000 1.819190 
# 
# From -- ./inp_files/6229.got.cif
#   From: 2010.03.12/outbox.cif.g09.slc.cpg/sg45_4_cif.got.tgz:6229.got - 2010.04.14 02:50:11.
