data_PCOD8190669
_publ_section_title
;
Structure prediction by ZEFSAII (Michael W. Deem and Ramdas Pophale) SiO2 
 PCOD8190669
Probable space group: I B A 2
;
_chemical_formula_sum "Si O2"
_cell_formula_units_Z 60
_cell_length_a 17.782167
_cell_length_b 12.882149
_cell_length_c 12.601979
_cell_angle_alpha 90.000000
_cell_angle_beta 90.000000
_cell_angle_gamma 90.000000
_cell_volume 2886.767147
_symmetry_space_group_name_H-M "I B A 2"
_symmetry_group_IT_number 45
_symmetry_cell_setting 'orthorhombic'
loop_
_space_group_symop_operation_xyz
x,y,z
-x,-y,z
-x,y,1/2+z
x,-y,1/2+z
1/2+x,1/2+y,1/2+z
1/2-x,1/2-y,1/2+z
1/2-x,1/2+y,z
1/2+x,1/2-y,z
loop_
_atom_site_type_symbol
_atom_site_label
_atom_site_fract_x
_atom_site_fract_y
_atom_site_fract_z
Si Si1 0.136691 0.526268 0.430140
Si Si2 0.903045 0.636409 0.720440
Si Si3 0.946935 0.146654 0.324307
Si Si4 0.603268 0.571714 0.763355
Si Si5 0.201851 0.895133 0.949738
Si Si6 0.304314 0.173516 0.026426
Si Si7 0.639732 0.395858 0.030020
Si Si8 0.500000 0.000000 0.077528
O O1 0.114905 0.550613 0.309442
O O2 0.208299 0.595647 0.464651
O O3 0.158862 0.405156 0.440944
O O4 0.066014 0.550078 0.506050
O O5 0.924748 0.745505 0.771196
O O6 0.829921 0.647435 0.645960
O O7 0.971715 0.594885 0.649665
O O8 0.920374 0.147146 0.446250
O O9 0.036247 0.129609 0.325647
O O10 0.907921 0.052724 0.259986
O O11 0.680839 0.596526 0.824940
O O12 0.604890 0.617883 0.645923
O O13 0.170294 0.788314 0.995970
O O14 0.157793 0.983427 0.013424
O O15 0.214849 0.170750 0.018716
#
# Coordination Sequence:
#
# PCOD8190669 Si02
#       8
#     8   8   8   8   8   8   8   4
#     4  10  22  41  61  89 124 153 202 257 297 359
#     4  11  22  40  62  87 120 161 201 247 306 364
#     4  10  23  37  59  89 120 156 199 249 298 359
#     4  10  22  39  59  88 122 159 197 245 303 359
#     4  10  21  39  63  89 119 156 200 248 299 362
#     4  10  22  39  63  88 117 159 200 247 306 361
#     4  10  21  39  59  87 122 154 198 248 296 356
#     4  10  24  40  60  88 120 162 200 246 302 358
#
# _framework density 20.784497000000002
#
# number of rings (size 3 to 8) (size 9 to 14) (size 15 to 20)
#    0.000    1.867    0.000    2.800    0.000   10.667 
#    0.000   10.667    0.000    0.000    0.000    0.000 
#    0.000    0.000    0.000    0.000    0.000    0.000 
#
# Total GULP energy -372088.347734 kJ/mol
# GULP energy per Si atom -12402.944924 kJ/mol
# Density = 2.073719 g / cm^3
# Si number density = 20.784497 Si / 1000 Ang^3
#
#
#
# Elastic Constant Matrix: (Units=GPa)
#
#
# Indices 1 2 3 4 5 6 
#
# 1 124.9496 43.6069 70.5253 0.0000 0.0000 0.0000
# 2 43.6069 114.4534 54.6763 0.0000 0.0000 0.0000
# 3 70.5253 54.6763 145.9936 0.0000 0.0000 0.0000
# 4 0.0000 0.0000 0.0000 27.9487 0.0000 0.0000
# 5 0.0000 0.0000 0.0000 0.0000 31.8621 0.0000
# 6 0.0000 0.0000 0.0000 0.0000 0.0000 15.3508
#
#
#
# Elastic Compliance Matrix: (Units=1/GPa)
#
#
# Indices 1 2 3 4 5 6 
#
# 1 0.011398 -0.002085 -0.004725 0.000000 0.000000 0.000000
# 2 -0.002085 0.011023 -0.003121 0.000000 0.000000 0.000000
# 3 -0.004725 -0.003121 0.010301 0.000000 0.000000 0.000000
# 4 0.000000 0.000000 0.000000 0.035780 0.000000 0.000000
# 5 0.000000 0.000000 0.000000 0.000000 0.031385 0.000000
# 6 0.000000 0.000000 0.000000 0.000000 0.000000 0.065143
#
#
# Mechanical properties :
#
#
# Convention : Reuss Voigt Hill
#
# Bulk Modulus (GPa) = 77.76558 80.33484 79.05021
# Shear Modulus (GPa) = 26.43013 29.47153 27.95083
#
# Velocity S-wave (km/s) = 3.56986 3.76966 3.67112
# Velocity P-wave (km/s) = 7.38162 7.59489 7.48901
#
# Compressibility (1/GPa) = 0.01285916
#
# Stress axis : x y z
#
# Youngs Moduli (GPa) = 87.73488 90.72338 97.07928
#
# Poissons Ratio (x) = 0.18920 0.45870
# Poissons Ratio (y) = 0.18296 0.30295
# Poissons Ratio (z) = 0.41455 0.28312
#
# Static dielectric constant tensor:
#      x y z
#    x 3.803540 0.000000 0.000000 
#    y 0.000000 3.672710 0.000000 
#    z 0.000000 0.000000 3.738110 
# 
# 
# High freq. dielectric constant tensor:
#      x y z
#    x 1.819220 0.000000 0.000000 
#    y 0.000000 1.812290 0.000000 
#    z 0.000000 0.000000 1.813490 
# 
# From -- ./inp_files/4677.got.cif
#   From: 2010.03.12/outbox.cif.g09.slc.cpg/sg45_3_cif.got.tgz:4677.got - 2010.04.14 02:50:11.
