data_PCOD8190396
_publ_section_title
;
Structure prediction by ZEFSAII (Michael W. Deem and Ramdas Pophale) SiO2 
 PCOD8190396
Probable space group: I B A 2
;
_chemical_formula_sum "Si O2"
_cell_formula_units_Z 52
_cell_length_a 11.409204
_cell_length_b 15.330169
_cell_length_c 13.480220
_cell_angle_alpha 90.000000
_cell_angle_beta 90.000000
_cell_angle_gamma 90.000000
_cell_volume 2357.758223
_symmetry_space_group_name_H-M "I B A 2"
_symmetry_group_IT_number 45
_symmetry_cell_setting 'orthorhombic'
loop_
_space_group_symop_operation_xyz
x,y,z
-x,-y,z
-x,y,1/2+z
x,-y,1/2+z
1/2+x,1/2+y,1/2+z
1/2-x,1/2-y,1/2+z
1/2-x,1/2+y,z
1/2+x,1/2-y,z
loop_
_atom_site_type_symbol
_atom_site_label
_atom_site_fract_x
_atom_site_fract_y
_atom_site_fract_z
Si Si1 0.996620 0.169479 0.910000
Si Si2 0.723851 0.665038 0.797424
Si Si3 0.021593 0.367922 0.840848
Si Si4 0.000000 0.500000 0.505212
Si Si5 0.563764 0.295298 0.125255
Si Si6 0.866097 0.604879 0.153276
Si Si7 0.653813 0.336592 0.749177
O O1 0.009494 0.266701 0.864925
O O2 0.085080 0.114118 0.838879
O O3 0.861453 0.142987 0.891077
O O4 0.038765 0.155806 0.021725
O O5 0.841860 0.608999 0.814404
O O6 0.654400 0.647803 0.692839
O O7 0.753505 0.768037 0.795729
O O8 0.969603 0.418169 0.935926
O O9 0.949792 0.401760 0.747651
O O10 0.108558 0.527423 0.575693
O O11 0.614116 0.199329 0.101089
O O12 0.438347 0.285644 0.178997
O O13 0.730213 0.594140 0.186393
#
# Coordination Sequence:
#
# PCOD8190396 Si02
#       7
#     8   8   8   4   8   8   8
#     4  10  18  32  58  91 115 147 196 250 319 362
#     4   9  18  33  54  85 121 148 182 261 312 349
#     4  11  21  39  54  82 128 153 199 243 300 367
#     4  12  26  36  56  82 114 176 202 226 288 380
#     4  10  18  32  58  91 115 147 196 250 319 362
#     4  11  21  39  54  82 128 153 199 243 300 367
#     4   9  18  33  54  85 121 148 182 261 312 349
#
# _framework density 22.054849000000001
#
# number of rings (size 3 to 8) (size 9 to 14) (size 15 to 20)
#    0.000    1.846    7.692    0.462    2.154    1.231 
#    2.769    0.000    0.000    0.000    0.000   25.846 
#    0.000    0.000    0.000    0.000    0.000    0.000 
#
# Total GULP energy -322162.665485 kJ/mol
# GULP energy per Si atom -12390.871749 kJ/mol
# Density = 2.200465 g / cm^3
# Si number density = 22.054849 Si / 1000 Ang^3
#
#
#
# Elastic Constant Matrix: (Units=GPa)
#
#
# Indices 1 2 3 4 5 6 
#
# 1 122.5761 16.4933 34.2620 0.0000 0.0000 0.0000
# 2 16.4933 29.1956 17.4680 0.0000 0.0000 0.0000
# 3 34.2620 17.4680 117.4140 0.0000 0.0000 0.0000
# 4 0.0000 0.0000 0.0000 26.8133 0.0000 0.0000
# 5 0.0000 0.0000 0.0000 0.0000 22.3063 0.0000
# 6 0.0000 0.0000 0.0000 0.0000 0.0000 18.6513
#
#
#
# Elastic Compliance Matrix: (Units=1/GPa)
#
#
# Indices 1 2 3 4 5 6 
#
# 1 0.009285 -0.003979 -0.002118 0.000000 0.000000 0.000000
# 2 -0.003979 0.039303 -0.004686 0.000000 0.000000 0.000000
# 3 -0.002118 -0.004686 0.009832 0.000000 0.000000 0.000000
# 4 0.000000 0.000000 0.000000 0.037295 0.000000 0.000000
# 5 0.000000 0.000000 0.000000 0.000000 0.044830 0.000000
# 6 0.000000 0.000000 0.000000 0.000000 0.000000 0.053615
#
#
# Mechanical properties :
#
#
# Convention : Reuss Voigt Hill
#
# Bulk Modulus (GPa) = 27.13287 45.07026 36.10157
# Shear Modulus (GPa) = 21.92870 26.95167 24.44018
#
# Velocity S-wave (km/s) = 3.15664 3.49955 3.33251
# Velocity P-wave (km/s) = 5.06113 6.06704 5.58677
#
# Compressibility (1/GPa) = 0.03685566
#
# Stress axis : x y z
#
# Youngs Moduli (GPa) = 107.69542 25.44323 101.70865
#
# Poissons Ratio (x) = 0.10123 0.21538
# Poissons Ratio (y) = 0.42847 0.47664
# Poissons Ratio (z) = 0.22806 0.11923
#
# Static dielectric constant tensor:
#      x y z
#    x 4.378450 0.000000 0.000000 
#    y 0.000000 3.373130 0.000000 
#    z 0.000000 0.000000 4.206130 
# 
# 
# High freq. dielectric constant tensor:
#      x y z
#    x 1.877480 0.000000 0.000000 
#    y 0.000000 1.799120 0.000000 
#    z 0.000000 0.000000 1.876390 
# 
# From -- ./inp_files/6222.got.cif
#   From: 2010.03.12/outbox.cif.g09.slc.cpg/sg45_4_cif.got.tgz:6222.got - 2010.04.14 02:50:11.
