data_PCOD8190755
_publ_section_title
;
Structure prediction by ZEFSAII (Michael W. Deem and Ramdas Pophale) SiO2 
 PCOD8190755
Probable space group: I B A 2
;
_chemical_formula_sum "Si O2"
_cell_formula_units_Z 44
_cell_length_a 18.368984
_cell_length_b 13.533942
_cell_length_c 8.922271
_cell_angle_alpha 90.000000
_cell_angle_beta 90.000000
_cell_angle_gamma 90.000000
_cell_volume 2218.119077
_symmetry_space_group_name_H-M "I B A 2"
_symmetry_group_IT_number 45
_symmetry_cell_setting 'orthorhombic'
loop_
_space_group_symop_operation_xyz
x,y,z
-x,-y,z
-x,y,1/2+z
x,-y,1/2+z
1/2+x,1/2+y,1/2+z
1/2-x,1/2-y,1/2+z
1/2-x,1/2+y,z
1/2+x,1/2-y,z
loop_
_atom_site_type_symbol
_atom_site_label
_atom_site_fract_x
_atom_site_fract_y
_atom_site_fract_z
Si Si1 0.217006 0.377655 0.701020
Si Si2 0.269104 0.920067 0.039811
Si Si3 0.630205 0.716843 0.044769
Si Si4 0.000000 0.000000 0.840021
Si Si5 0.647777 0.237346 0.208540
Si Si6 0.469897 0.637684 0.090171
O O1 0.230354 0.466344 0.585743
O O2 0.149510 0.307558 0.654847
O O3 0.289748 0.316056 0.683450
O O4 0.202785 0.413470 0.869563
O O5 0.189610 0.870585 0.053519
O O6 0.325842 0.868861 0.153023
O O7 0.554236 0.668623 0.092982
O O8 0.623590 0.765538 0.880776
O O9 0.049601 0.930060 0.735520
O O10 0.950789 0.928453 0.944411
O O11 0.580590 0.266676 0.099959
#
# Coordination Sequence:
#
# PCOD8190755 Si02
#       6
#     8   8   8   4   8   8
#     4  10  22  38  60  84 115 153 193 235 285 338
#     4  10  22  38  60  84 115 153 193 235 285 338
#     4  10  22  39  58  86 118 152 190 237 283 340
#     4  10  24  34  56  90 118 154 184 228 300 334
#     4  10  22  39  58  86 118 152 190 237 283 340
#     4  11  22  38  57  88 118 150 191 236 283 346
#
# _framework density 19.836628000000001
#
# number of rings (size 3 to 8) (size 9 to 14) (size 15 to 20)
#    0.000    1.818    1.818    1.091    7.636    1.455 
#    0.000    0.909    0.000    4.364    0.000    0.000 
#    0.000    0.000    0.000    0.000    0.000    0.000 
#
# Total GULP energy -272777.582349 kJ/mol
# GULP energy per Si atom -12398.981016 kJ/mol
# Density = 1.979148 g / cm^3
# Si number density = 19.836628 Si / 1000 Ang^3
#
#
#
# Elastic Constant Matrix: (Units=GPa)
#
#
# Indices 1 2 3 4 5 6 
#
# 1 73.9629 13.4873 24.6340 0.0000 0.0000 0.0000
# 2 13.4873 77.2213 37.5211 0.0000 0.0000 0.0000
# 3 24.6340 37.5211 113.7585 0.0000 0.0000 0.0000
# 4 0.0000 0.0000 0.0000 35.6837 0.0000 0.0000
# 5 0.0000 0.0000 0.0000 0.0000 20.5850 0.0000
# 6 0.0000 0.0000 0.0000 0.0000 0.0000 11.9095
#
#
#
# Elastic Compliance Matrix: (Units=1/GPa)
#
#
# Indices 1 2 3 4 5 6 
#
# 1 0.014666 -0.001213 -0.002776 0.000000 0.000000 0.000000
# 2 -0.001213 0.015522 -0.004857 0.000000 0.000000 0.000000
# 3 -0.002776 -0.004857 0.010994 0.000000 0.000000 0.000000
# 4 0.000000 0.000000 0.000000 0.028024 0.000000 0.000000
# 5 0.000000 0.000000 0.000000 0.000000 0.048579 0.000000
# 6 0.000000 0.000000 0.000000 0.000000 0.000000 0.083967
#
#
# Mechanical properties :
#
#
# Convention : Reuss Voigt Hill
#
# Bulk Modulus (GPa) = 42.57105 46.24748 44.40926
# Shear Modulus (GPa) = 22.00006 26.25564 24.12785
#
# Velocity S-wave (km/s) = 3.33387 3.64207 3.49137
# Velocity P-wave (km/s) = 6.02719 6.40711 6.22005
#
# Compressibility (1/GPa) = 0.02349014
#
# Stress axis : x y z
#
# Youngs Moduli (GPa) = 68.18507 64.42664 90.96205
#
# Poissons Ratio (x) = 0.07813 0.25250
# Poissons Ratio (y) = 0.08269 0.44179
# Poissons Ratio (z) = 0.18927 0.31291
#
# Static dielectric constant tensor:
#      x y z
#    x 3.365460 0.000000 0.000000 
#    y 0.000000 3.641190 0.000000 
#    z 0.000000 0.000000 3.954660 
# 
# 
# High freq. dielectric constant tensor:
#      x y z
#    x 1.746900 0.000000 0.000000 
#    y 0.000000 1.772400 0.000000 
#    z 0.000000 0.000000 1.792380 
# 
# From -- ./inp_files/1666.got.cif
#   From: 2010.03.12/outbox.cif.g09.slc.cpg/sg45_1_cif.got.tgz:1666.got - 2010.04.14 02:50:11.
