data_PCOD8190508
_publ_section_title
;
Structure prediction by ZEFSAII (Michael W. Deem and Ramdas Pophale) SiO2 
 PCOD8190508
Probable space group: I B A 2
;
_chemical_formula_sum "Si O2"
_cell_formula_units_Z 64
_cell_length_a 20.109969
_cell_length_b 19.697312
_cell_length_c 8.669015
_cell_angle_alpha 90.000000
_cell_angle_beta 90.000000
_cell_angle_gamma 90.000000
_cell_volume 3433.903763
_symmetry_space_group_name_H-M "I B A 2"
_symmetry_group_IT_number 45
_symmetry_cell_setting 'orthorhombic'
loop_
_space_group_symop_operation_xyz
x,y,z
-x,-y,z
-x,y,1/2+z
x,-y,1/2+z
1/2+x,1/2+y,1/2+z
1/2-x,1/2-y,1/2+z
1/2-x,1/2+y,z
1/2+x,1/2-y,z
loop_
_atom_site_type_symbol
_atom_site_label
_atom_site_fract_x
_atom_site_fract_y
_atom_site_fract_z
Si Si1 0.823802 0.670453 0.675260
Si Si2 0.929847 0.927932 0.671861
Si Si3 0.929847 0.072068 0.535751
Si Si4 0.429288 0.927994 0.172384
Si Si5 0.814683 0.826403 0.033265
Si Si6 0.070712 0.427994 0.535227
Si Si7 0.823802 0.670453 0.032352
Si Si8 0.314683 0.673597 0.674347
O O1 0.748877 0.649898 0.630963
O O2 0.875144 0.628549 0.573400
O O3 0.836114 0.653968 0.853806
O O4 0.835095 0.749410 0.636526
O O5 0.875671 0.872887 0.622134
O O6 0.000000 0.903757 0.603806
O O7 0.907725 1.000000 0.603806
O O8 0.936653 0.934573 0.853806
O O9 0.875671 0.127113 0.585478
O O10 0.436732 0.935697 0.353806
O O11 0.500000 0.905190 0.103806
O O12 0.375144 0.871452 0.134211
O O13 0.406093 0.000000 0.103806
O O14 0.835095 0.749410 0.071086
O O15 0.797194 0.835039 0.853806
O O16 0.748876 0.649898 0.076649
#
# Coordination Sequence:
#
# PCOD8190508 Si02
#       8
#     8   8   8   8   8   8   8   8
#     4  10  20  36  57  81 109 142 180 222 269 319
#     4  10  20  35  54  77 106 138 176 219 264 314
#     4  10  20  35  54  77 106 138 176 219 264 314
#     4  11  22  38  58  81 110 142 179 222 269 322
#     4   9  20  37  55  78 109 144 182 223 266 317
#     4  11  22  38  58  81 110 142 179 222 269 322
#     4  10  20  36  57  81 109 142 180 222 269 319
#     4   9  20  37  55  78 109 144 182 223 266 317
#
# _framework density 18.637681000000001
#
# number of rings (size 3 to 8) (size 9 to 14) (size 15 to 20)
#    0.000    2.000    0.000    5.250    0.000    5.000 
#    0.000    5.000    0.000    0.000    0.000    0.000 
#    0.000    0.000    0.000    0.000    0.000    0.000 
#
# Total GULP energy -396947.686256 kJ/mol
# GULP energy per Si atom -12404.615196 kJ/mol
# Density = 1.859526 g / cm^3
# Si number density = 18.637681 Si / 1000 Ang^3
#
#
#
# Elastic Constant Matrix: (Units=GPa)
#
#
# Indices 1 2 3 4 5 6 
#
# 1 134.2354 92.8548 57.2811 0.0000 0.0000 0.0000
# 2 92.8548 102.7286 47.0093 0.0000 0.0000 0.0000
# 3 57.2811 47.0093 113.4612 0.0000 0.0000 0.0000
# 4 0.0000 0.0000 0.0000 29.4389 0.0000 0.0000
# 5 0.0000 0.0000 0.0000 0.0000 36.1851 0.0000
# 6 0.0000 0.0000 0.0000 0.0000 0.0000 64.4163
#
#
#
# Elastic Compliance Matrix: (Units=1/GPa)
#
#
# Indices 1 2 3 4 5 6 
#
# 1 0.020865 -0.017324 -0.003356 0.000000 0.000000 0.000000
# 2 -0.017324 0.026396 -0.002190 0.000000 0.000000 0.000000
# 3 -0.003356 -0.002190 0.011415 0.000000 0.000000 0.000000
# 4 0.000000 0.000000 0.000000 0.033969 0.000000 0.000000
# 5 0.000000 0.000000 0.000000 0.000000 0.027636 0.000000
# 6 0.000000 0.000000 0.000000 0.000000 0.000000 0.015524
#
#
# Mechanical properties :
#
#
# Convention : Reuss Voigt Hill
#
# Bulk Modulus (GPa) = 77.30659 82.74620 80.02640
# Shear Modulus (GPa) = 26.90236 36.22672 31.56454
#
# Velocity S-wave (km/s) = 3.80338 4.41356 4.11979
# Velocity P-wave (km/s) = 7.80105 8.39443 8.10317
#
# Compressibility (1/GPa) = 0.01293551
#
# Stress axis : x y z
#
# Youngs Moduli (GPa) = 47.92632 37.88517 87.60100
#
# Poissons Ratio (x) = 0.65632 0.29401
# Poissons Ratio (y) = 0.83028 0.19186
# Poissons Ratio (z) = 0.16085 0.08297
#
# Static dielectric constant tensor:
#      x y z
#    x 3.464640 0.000000 0.000000 
#    y 0.000000 3.428480 0.000000 
#    z 0.000000 0.000000 3.498600 
# 
# 
# High freq. dielectric constant tensor:
#      x y z
#    x 1.727870 0.000000 0.000000 
#    y 0.000000 1.723110 0.000000 
#    z 0.000000 0.000000 1.736940 
# 
# From -- ./inp_files/2215.got.cif
#   From: 2010.03.12/outbox.cif.g09.slc.cpg/sg45_2_cif.got.tgz:2215.got - 2010.04.14 02:50:11.
