data_PCOD8190464
_publ_section_title
;
Structure prediction by ZEFSAII (Michael W. Deem and Ramdas Pophale) SiO2 
 PCOD8190464
Probable space group: I B A 2
;
_chemical_formula_sum "Si O2"
_cell_formula_units_Z 48
_cell_length_a 4.911124
_cell_length_b 13.525073
_cell_length_c 32.403007
_cell_angle_alpha 90.000000
_cell_angle_beta 90.000000
_cell_angle_gamma 90.000000
_cell_volume 2152.314999
_symmetry_space_group_name_H-M "I B A 2"
_symmetry_group_IT_number 45
_symmetry_cell_setting 'orthorhombic'
loop_
_space_group_symop_operation_xyz
x,y,z
-x,-y,z
-x,y,1/2+z
x,-y,1/2+z
1/2+x,1/2+y,1/2+z
1/2-x,1/2-y,1/2+z
1/2-x,1/2+y,z
1/2+x,1/2-y,z
loop_
_atom_site_type_symbol
_atom_site_label
_atom_site_fract_x
_atom_site_fract_y
_atom_site_fract_z
Si Si1 0.601105 0.686624 0.910090
Si Si2 0.404031 0.182966 0.170026
Si Si3 0.997726 0.180493 0.498644
Si Si4 0.984304 0.182904 0.821064
Si Si5 0.759732 0.936633 0.246602
Si Si6 0.000000 0.500000 0.113118
Si Si7 0.000000 0.000000 0.557343
O O1 0.421740 0.788244 0.910476
O O2 0.542282 0.631562 0.866572
O O3 0.504695 0.631826 0.952205
O O4 0.197491 0.271394 0.160973
O O5 0.349705 0.149784 0.217019
O O6 0.379389 0.088083 0.140880
O O7 0.289239 0.230145 0.505777
O O8 0.921109 0.093708 0.529764
O O9 0.792415 0.279408 0.815803
O O10 0.910764 0.103070 0.786996
O O11 0.500000 0.000000 0.260185
O O12 0.000000 0.000000 0.223675
O O13 0.753010 0.535526 0.084733
#
# Coordination Sequence:
#
# PCOD8190464 Si02
#       7
#     8   8   8   8   8   4   4
#     4   8  16  32  58  85 120 164 208 259 306 365
#     4  12  26  46  72  96 128 178 216 264 339 396
#     4  10  21  40  65  93 129 170 212 260 318 387
#     4  10  19  36  60  89 123 168 220 260 313 381
#     4  12  24  40  63  93 136 168 216 277 322 383
#     4  12  28  46  66 100 134 158 218 284 318 402
#     4  12  26  42  68  98 130 168 210 270 336 388
#
# _framework density 22.301570000000002
#
# number of rings (size 3 to 8) (size 9 to 14) (size 15 to 20)
#    0.000    1.333    0.833    5.000    1.167    4.000 
#    1.500    0.000    1.833    0.000    0.000    0.000 
#    0.000    0.000    0.000    0.000    0.000    0.000 
#
# Total GULP energy -297477.227526 kJ/mol
# GULP energy per Si atom -12394.884480 kJ/mol
# Density = 2.225081 g / cm^3
# Si number density = 22.301570 Si / 1000 Ang^3
#
#
#
# Elastic Constant Matrix: (Units=GPa)
#
#
# Indices 1 2 3 4 5 6 
#
# 1 85.2937 6.0886 14.2799 0.0000 0.0000 0.0000
# 2 6.0886 75.1822 40.1568 0.0000 0.0000 0.0000
# 3 14.2799 40.1568 122.1851 0.0000 0.0000 0.0000
# 4 0.0000 0.0000 0.0000 15.9965 0.0000 0.0000
# 5 0.0000 0.0000 0.0000 0.0000 29.2469 0.0000
# 6 0.0000 0.0000 0.0000 0.0000 0.0000 35.1817
#
#
#
# Elastic Compliance Matrix: (Units=1/GPa)
#
#
# Indices 1 2 3 4 5 6 
#
# 1 0.011963 -0.000269 -0.001310 0.000000 0.000000 0.000000
# 2 -0.000269 0.016139 -0.005273 0.000000 0.000000 0.000000
# 3 -0.001310 -0.005273 0.010070 0.000000 0.000000 0.000000
# 4 0.000000 0.000000 0.000000 0.062513 0.000000 0.000000
# 5 0.000000 0.000000 0.000000 0.000000 0.034192 0.000000
# 6 0.000000 0.000000 0.000000 0.000000 0.000000 0.028424
#
#
# Mechanical properties :
#
#
# Convention : Reuss Voigt Hill
#
# Bulk Modulus (GPa) = 40.86834 44.85684 42.86259
# Shear Modulus (GPa) = 27.00359 30.89408 28.94883
#
# Velocity S-wave (km/s) = 3.48348 3.72598 3.60677
# Velocity P-wave (km/s) = 5.87747 6.21836 6.05032
#
# Compressibility (1/GPa) = 0.02446882
#
# Stress axis : x y z
#
# Youngs Moduli (GPa) = 83.59341 61.96115 99.30220
#
# Poissons Ratio (x) = 0.01669 0.13004
# Poissons Ratio (y) = 0.02251 0.52359
# Poissons Ratio (z) = 0.10947 0.32671
#
# Static dielectric constant tensor:
#      x y z
#    x 4.251070 0.000000 0.000000 
#    y 0.000000 3.592440 0.000000 
#    z 0.000000 0.000000 4.308770 
# 
# 
# High freq. dielectric constant tensor:
#      x y z
#    x 1.899680 0.000000 0.000000 
#    y 0.000000 1.838740 0.000000 
#    z 0.000000 0.000000 1.893050 
# 
# From -- ./inp_files/9898.got.cif
#   From: 2010.03.12/outbox.cif.g09.slc.cpg/sg45_5_cif.got.tgz:9898.got - 2010.04.14 02:50:11.
