data_PCOD8190814
_publ_section_title
;
Structure prediction by ZEFSAII (Michael W. Deem and Ramdas Pophale) SiO2 
 PCOD8190814
Probable space group: I B A 2
;
_chemical_formula_sum "Si O2"
_cell_formula_units_Z 40
_cell_length_a 13.800160
_cell_length_b 12.279314
_cell_length_c 9.942949
_cell_angle_alpha 90.000000
_cell_angle_beta 90.000000
_cell_angle_gamma 90.000000
_cell_volume 1684.897316
_symmetry_space_group_name_H-M "I B A 2"
_symmetry_group_IT_number 45
_symmetry_cell_setting 'orthorhombic'
loop_
_space_group_symop_operation_xyz
x,y,z
-x,-y,z
-x,y,1/2+z
x,-y,1/2+z
1/2+x,1/2+y,1/2+z
1/2-x,1/2-y,1/2+z
1/2-x,1/2+y,z
1/2+x,1/2-y,z
loop_
_atom_site_type_symbol
_atom_site_label
_atom_site_fract_x
_atom_site_fract_y
_atom_site_fract_z
Si Si1 0.991200 0.748056 0.501260
Si Si2 0.301830 0.660807 0.942358
Si Si3 0.758438 0.324632 0.226766
Si Si4 0.037036 0.615403 0.262823
Si Si5 0.599651 0.445886 0.367326
O O1 0.974824 0.709492 0.652004
O O2 0.925506 0.855352 0.479503
O O3 0.102754 0.773741 0.478820
O O4 0.972860 0.651438 0.392058
O O5 0.255735 0.707655 0.803632
O O6 0.326819 0.533451 0.930279
O O7 0.226602 0.684758 0.064990
O O8 0.847522 0.393854 0.289340
O O9 0.656324 0.387469 0.245799
O O10 0.000000 0.500000 0.209566
O O11 0.500000 0.500000 0.310995
#
# Coordination Sequence:
#
# PCOD8190814 Si02
#       5
#     8   8   8   8   8
#     4  10  22  42  66  92 129 173 222 273 330 399
#     4  10  24  42  65  97 130 174 222 276 335 391
#     4  11  24  41  66  96 131 172 222 274 332 401
#     4  11  24  41  64  95 132 176 218 269 333 397
#     4  10  23  42  67  98 134 173 220 278 336 390
#
# _framework density 23.740317999999998
#
# number of rings (size 3 to 8) (size 9 to 14) (size 15 to 20)
#    0.000    1.600    0.000    3.000    0.000   16.800 
#    0.000    0.000    0.000    0.000    0.000    0.000 
#    0.000    0.000    0.000    0.000    0.000    0.000 
#
# Total GULP energy -247982.955438 kJ/mol
# GULP energy per Si atom -12399.147772 kJ/mol
# Density = 2.368628 g / cm^3
# Si number density = 23.740318 Si / 1000 Ang^3
#
#
#
# Elastic Constant Matrix: (Units=GPa)
#
#
# Indices 1 2 3 4 5 6 
#
# 1 56.9850 37.6782 14.6586 0.0000 0.0000 0.0000
# 2 37.6782 130.2826 32.9361 0.0000 0.0000 0.0000
# 3 14.6586 32.9361 110.9530 0.0000 0.0000 0.0000
# 4 0.0000 0.0000 0.0000 26.1466 0.0000 0.0000
# 5 0.0000 0.0000 0.0000 0.0000 36.0561 0.0000
# 6 0.0000 0.0000 0.0000 0.0000 0.0000 33.8924
#
#
#
# Elastic Compliance Matrix: (Units=1/GPa)
#
#
# Indices 1 2 3 4 5 6 
#
# 1 0.021819 -0.006034 -0.001091 0.000000 0.000000 0.000000
# 2 -0.006034 0.009967 -0.002162 0.000000 0.000000 0.000000
# 3 -0.001091 -0.002162 0.009799 0.000000 0.000000 0.000000
# 4 0.000000 0.000000 0.000000 0.038246 0.000000 0.000000
# 5 0.000000 0.000000 0.000000 0.000000 0.027735 0.000000
# 6 0.000000 0.000000 0.000000 0.000000 0.000000 0.029505
#
#
# Mechanical properties :
#
#
# Convention : Reuss Voigt Hill
#
# Bulk Modulus (GPa) = 43.45824 52.08514 47.77169
# Shear Modulus (GPa) = 30.61571 33.41554 32.01562
#
# Velocity S-wave (km/s) = 3.59501 3.75579 3.67628
# Velocity P-wave (km/s) = 5.96469 6.38711 6.17951
#
# Compressibility (1/GPa) = 0.02301060
#
# Stress axis : x y z
#
# Youngs Moduli (GPa) = 45.83161 100.32921 102.05480
#
# Poissons Ratio (x) = 0.60541 0.11138
# Poissons Ratio (y) = 0.27656 0.22059
# Poissons Ratio (z) = 0.05002 0.21686
#
# Static dielectric constant tensor:
#      x y z
#    x 4.375940 0.000000 0.000000 
#    y 0.000000 4.234710 0.000000 
#    z 0.000000 0.000000 4.169690 
# 
# 
# High freq. dielectric constant tensor:
#      x y z
#    x 1.951440 0.000000 0.000000 
#    y 0.000000 1.935750 0.000000 
#    z 0.000000 0.000000 1.929020 
# 
# From -- ./inp_files/1617.got.cif
#   From: 2010.03.12/outbox.cif.g09.slc.cpg/sg45_1_cif.got.tgz:1617.got - 2010.04.14 02:50:11.
