data_PCOD8190759
_publ_section_title
;
Structure prediction by ZEFSAII (Michael W. Deem and Ramdas Pophale) SiO2 
 PCOD8190759
Probable space group: I B A 2
;
_chemical_formula_sum "Si O2"
_cell_formula_units_Z 64
_cell_length_a 17.221875
_cell_length_b 16.233951
_cell_length_c 11.455038
_cell_angle_alpha 90.000000
_cell_angle_beta 90.000000
_cell_angle_gamma 90.000000
_cell_volume 3202.588927
_symmetry_space_group_name_H-M "I B A 2"
_symmetry_group_IT_number 45
_symmetry_cell_setting 'orthorhombic'
loop_
_space_group_symop_operation_xyz
x,y,z
-x,-y,z
-x,y,1/2+z
x,-y,1/2+z
1/2+x,1/2+y,1/2+z
1/2-x,1/2-y,1/2+z
1/2-x,1/2+y,z
1/2+x,1/2-y,z
loop_
_atom_site_type_symbol
_atom_site_label
_atom_site_fract_x
_atom_site_fract_y
_atom_site_fract_z
Si Si1 0.893083 0.222490 0.453690
Si Si2 0.291566 0.942001 0.153763
Si Si3 0.282313 0.195831 0.283797
Si Si4 0.809012 0.930461 0.883210
Si Si5 0.070890 0.744729 0.932101
Si Si6 0.142077 0.716985 0.701367
Si Si7 0.818023 0.105524 0.952278
Si Si8 0.673741 0.885104 0.052774
O O1 0.850971 0.291015 0.375897
O O2 0.878945 0.136142 0.384554
O O3 0.860675 0.225537 0.586342
O O4 0.982697 0.244041 0.467657
O O5 0.233298 0.955516 0.262799
O O6 0.363791 0.880830 0.178817
O O7 0.335876 0.023188 0.106170
O O8 0.241461 0.894105 0.058298
O O9 0.225866 0.274585 0.267561
O O10 0.228009 0.123250 0.332433
O O11 0.316691 0.176309 0.159202
O O12 0.849755 0.012491 0.936225
O O13 0.747562 0.887988 0.969475
O O14 0.074648 0.743271 0.790987
O O15 0.117400 0.825155 0.978949
O O16 0.102057 0.656634 0.982435
#
# Coordination Sequence:
#
# PCOD8190759 Si02
#       8
#     8   8   8   8   8   8   8   8
#     4  12  25  39  66  96 130 178 212 268 343 411
#     4  11  20  37  70  92 119 160 228 283 316 369
#     4  11  20  37  64  91 118 167 220 268 318 389
#     4  11  21  39  65 101 121 163 226 276 326 377
#     4  11  26  41  60  92 142 174 210 262 347 417
#     4  11  22  42  64  91 124 168 219 275 321 397
#     4  10  22  38  63  95 122 165 216 276 319 386
#     4  11  22  39  65  93 124 167 216 281 320 387
#
# _framework density 19.983833000000001
#
# number of rings (size 3 to 8) (size 9 to 14) (size 15 to 20)
#    0.000    1.000    6.250    1.500    1.750    0.500 
#    0.000    0.625    0.000    3.000    0.000    0.000 
#    0.000    0.000    0.000    0.000    0.000    0.000 
#
# Total GULP energy -396508.620901 kJ/mol
# GULP energy per Si atom -12390.894403 kJ/mol
# Density = 1.993835 g / cm^3
# Si number density = 19.983833 Si / 1000 Ang^3
#
#
#
# Elastic Constant Matrix: (Units=GPa)
#
#
# Indices 1 2 3 4 5 6 
#
# 1 87.6457 47.8828 23.2939 0.0000 0.0000 0.0000
# 2 47.8828 123.0347 26.0628 0.0000 0.0000 0.0000
# 3 23.2939 26.0628 107.5244 0.0000 0.0000 0.0000
# 4 0.0000 0.0000 0.0000 33.1305 0.0000 0.0000
# 5 0.0000 0.0000 0.0000 0.0000 16.4914 0.0000
# 6 0.0000 0.0000 0.0000 0.0000 0.0000 20.4842
#
#
#
# Elastic Compliance Matrix: (Units=1/GPa)
#
#
# Indices 1 2 3 4 5 6 
#
# 1 0.014856 -0.005376 -0.001915 0.000000 0.000000 0.000000
# 2 -0.005376 0.010513 -0.001384 0.000000 0.000000 0.000000
# 3 -0.001915 -0.001384 0.010051 0.000000 0.000000 0.000000
# 4 0.000000 0.000000 0.000000 0.030184 0.000000 0.000000
# 5 0.000000 0.000000 0.000000 0.000000 0.060638 0.000000
# 6 0.000000 0.000000 0.000000 0.000000 0.000000 0.048818
#
#
# Mechanical properties :
#
#
# Convention : Reuss Voigt Hill
#
# Bulk Modulus (GPa) = 55.34119 56.96487 56.15303
# Shear Modulus (GPa) = 25.19767 28.75223 26.97495
#
# Velocity S-wave (km/s) = 3.55477 3.79723 3.67800
# Velocity P-wave (km/s) = 6.67845 6.91322 6.79685
#
# Compressibility (1/GPa) = 0.01806972
#
# Stress axis : x y z
#
# Youngs Moduli (GPa) = 67.31509 95.11987 99.49739
#
# Poissons Ratio (x) = 0.51134 0.19056
# Poissons Ratio (y) = 0.36187 0.13767
# Poissons Ratio (z) = 0.12892 0.13161
#
# Static dielectric constant tensor:
#      x y z
#    x 3.182720 0.000000 0.000000 
#    y 0.000000 3.895780 0.000000 
#    z 0.000000 0.000000 3.868710 
# 
# 
# High freq. dielectric constant tensor:
#      x y z
#    x 1.730780 0.000000 0.000000 
#    y 0.000000 1.791950 0.000000 
#    z 0.000000 0.000000 1.800930 
# 
# From -- ./inp_files/4279.got.cif
#   From: 2010.03.12/outbox.cif.g09.slc.cpg/sg45_3_cif.got.tgz:4279.got - 2010.04.14 02:50:11.
