data_PCOD8190174
_publ_section_title
;
Structure prediction by ZEFSAII (Michael W. Deem and Ramdas Pophale) SiO2 
 PCOD8190174
Probable space group: I M M 2
;
_chemical_formula_sum "Si O2"
_cell_formula_units_Z 64
_cell_length_a 8.602869
_cell_length_b 15.412485
_cell_length_c 23.805193
_cell_angle_alpha 90.000000
_cell_angle_beta 90.000000
_cell_angle_gamma 90.000000
_cell_volume 3156.368376
_symmetry_space_group_name_H-M "I M M 2"
_symmetry_group_IT_number 44
_symmetry_cell_setting 'orthorhombic'
loop_
_space_group_symop_operation_xyz
x,y,z
-x,-y,z
-x,y,z
x,-y,z
1/2+x,1/2+y,1/2+z
1/2-x,1/2-y,1/2+z
1/2-x,1/2+y,1/2+z
1/2+x,1/2-y,1/2+z
loop_
_atom_site_type_symbol
_atom_site_label
_atom_site_fract_x
_atom_site_fract_y
_atom_site_fract_z
Si Si1 0.818065 0.647044 0.523040
Si Si2 0.317573 0.748880 0.221819
Si Si3 0.821260 0.903461 0.426327
Si Si4 0.315303 0.095788 0.145810
Si Si5 0.681497 0.831500 0.531817
Si Si6 0.316228 0.097088 0.651611
Si Si7 0.821861 0.902415 0.909552
Si Si8 0.818752 0.247567 0.342990
O O1 0.755160 0.612908 0.582763
O O2 0.785505 0.748590 0.518003
O O3 0.726691 0.596899 0.474612
O O4 0.000000 0.628865 0.515507
O O5 0.500000 0.745143 0.213033
O O6 0.246515 0.830825 0.187340
O O7 0.248001 0.659099 0.199803
O O8 0.278959 0.759871 0.286581
O O9 0.715650 0.898993 0.482049
O O10 0.764120 0.833033 0.381111
O O11 0.000000 0.885404 0.442576
O O12 0.800755 0.000000 0.400687
O O13 0.500000 0.100550 0.146350
O O14 0.258485 0.000000 0.165205
O O15 0.500000 0.807396 0.533735
O O16 0.739331 0.871537 0.590434
O O17 0.500000 0.097522 0.654669
O O18 0.251892 0.000000 0.662135
O O19 0.714590 0.838036 0.873974
O O20 0.000000 0.871975 0.904103
O O21 0.800684 0.000000 0.885987
O O22 0.000000 0.242521 0.328514
#
# Coordination Sequence:
#
# PCOD8190174 Si02
#       8
#     8   8   8   8   8   8   8   8
#     4  11  20  35  61  91 124 162 198 237 294 357
#     4  11  23  40  62  87 117 154 202 253 298 345
#     4  10  22  40  62  89 121 157 198 244 296 358
#     4   9  19  36  59  88 121 156 195 238 288 351
#     4  11  21  35  60  91 125 159 196 243 297 356
#     4  10  22  40  61  87 121 159 197 240 296 360
#     4  11  24  41  62  91 124 156 196 248 301 354
#     4  11  24  42  63  86 117 159 203 246 299 358
#
# _framework density 20.276468000000001
#
# number of rings (size 3 to 8) (size 9 to 14) (size 15 to 20)
#    0.000    1.500    2.500    2.625    0.000    4.500 
#    0.000    0.000    0.000    3.375    0.000    0.000 
#    0.000    0.000    0.000    0.000    0.000    0.000 
#
# Total GULP energy -396917.340606 kJ/mol
# GULP energy per Si atom -12403.666894 kJ/mol
# Density = 2.023032 g / cm^3
# Si number density = 20.276468 Si / 1000 Ang^3
#
#
#
# Elastic Constant Matrix: (Units=GPa)
#
#
# Indices 1 2 3 4 5 6 
#
# 1 22.3448 12.4708 -0.6547 0.0000 0.0000 0.0000
# 2 12.4708 130.3956 37.3109 0.0000 0.0000 0.0000
# 3 -0.6547 37.3109 100.6234 0.0000 0.0000 0.0000
# 4 0.0000 0.0000 0.0000 16.1587 0.0000 0.0000
# 5 0.0000 0.0000 0.0000 0.0000 32.7164 0.0000
# 6 0.0000 0.0000 0.0000 0.0000 0.0000 23.9988
#
#
#
# Elastic Compliance Matrix: (Units=1/GPa)
#
#
# Indices 1 2 3 4 5 6 
#
# 1 0.047724 -0.005205 0.002241 0.000000 0.000000 0.000000
# 2 -0.005205 0.009147 -0.003426 0.000000 0.000000 0.000000
# 3 0.002241 -0.003426 0.011223 0.000000 0.000000 0.000000
# 4 0.000000 0.000000 0.000000 0.061886 0.000000 0.000000
# 5 0.000000 0.000000 0.000000 0.000000 0.030566 0.000000
# 6 0.000000 0.000000 0.000000 0.000000 0.000000 0.041669
#
#
# Mechanical properties :
#
#
# Convention : Reuss Voigt Hill
#
# Bulk Modulus (GPa) = 18.07885 39.06865 28.57375
# Shear Modulus (GPa) = 21.41944 28.19056 24.80500
#
# Velocity S-wave (km/s) = 3.25371 3.73273 3.50142
# Velocity P-wave (km/s) = 4.80115 6.15528 5.51990
#
# Compressibility (1/GPa) = 0.05531324
#
# Stress axis : x y z
#
# Youngs Moduli (GPa) = 20.95381 109.32582 89.10426
#
# Poissons Ratio (x) = 0.56908 -0.19965
# Poissons Ratio (y) = 0.10907 0.30523
# Poissons Ratio (z) = -0.04695 0.37450
#
# Static dielectric constant tensor:
#      x y z
#    x 3.473110 0.000000 0.000000 
#    y 0.000000 3.914780 0.000000 
#    z 0.000000 0.000000 3.639850 
# 
# 
# High freq. dielectric constant tensor:
#      x y z
#    x 1.778830 0.000000 0.000000 
#    y 0.000000 1.806770 0.000000 
#    z 0.000000 0.000000 1.787650 
# 
# From -- ./inp_files/25075.got.cif
#   From: 2010.03.12/outbox.cif.g09.slc.cpg/sg44_13_cif.got.tgz:25075.got - 2010.04.14 02:36:11.
