data_PCOD8190444
_publ_section_title
;
Structure prediction by ZEFSAII (Michael W. Deem and Ramdas Pophale) SiO2 
 PCOD8190444
Probable space group: I B A 2
;
_chemical_formula_sum "Si O2"
_cell_formula_units_Z 64
_cell_length_a 19.199048
_cell_length_b 8.301417
_cell_length_c 18.389119
_cell_angle_alpha 90.000000
_cell_angle_beta 90.000000
_cell_angle_gamma 90.000000
_cell_volume 2930.844977
_symmetry_space_group_name_H-M "I B A 2"
_symmetry_group_IT_number 45
_symmetry_cell_setting 'orthorhombic'
loop_
_space_group_symop_operation_xyz
x,y,z
-x,-y,z
-x,y,1/2+z
x,-y,1/2+z
1/2+x,1/2+y,1/2+z
1/2-x,1/2-y,1/2+z
1/2-x,1/2+y,z
1/2+x,1/2-y,z
loop_
_atom_site_type_symbol
_atom_site_label
_atom_site_fract_x
_atom_site_fract_y
_atom_site_fract_z
Si Si1 0.285232 0.900649 0.474650
Si Si2 0.611615 0.225138 0.574622
Si Si3 0.662619 0.586308 0.575764
Si Si4 0.062966 0.116853 0.862635
Si Si5 0.226512 0.958500 0.729528
Si Si6 0.810872 0.893981 0.385260
Si Si7 0.474173 0.681606 0.013211
Si Si8 0.644534 0.776338 0.234439
O O1 0.342593 0.922321 0.539669
O O2 0.215917 0.842240 0.516525
O O3 0.324282 0.776096 0.421853
O O4 0.262503 0.046023 0.421639
O O5 0.649613 0.396704 0.557426
O O6 0.534317 0.204270 0.543494
O O7 0.600820 0.214602 0.660881
O O8 0.694158 0.616449 0.655890
O O9 0.592551 0.691321 0.566569
O O10 0.090590 0.234131 0.798742
O O11 0.124512 0.012171 0.899591
O O12 0.039583 0.231727 0.929106
O O13 0.000000 0.000000 0.834260
O O14 0.193425 0.869055 0.798951
O O15 0.310670 0.941564 0.738198
O O16 0.206905 0.145754 0.732334
O O17 0.500000 0.500000 0.012393
#
# Coordination Sequence:
#
# PCOD8190444 Si02
#       8
#     8   8   8   8   8   8   8   8
#     4  12  19  35  53  85 108 145 186 231 279 329
#     4  10  20  34  56  85 114 143 189 229 284 334
#     4  10  19  34  57  82 113 148 182 234 283 323
#     4  10  19  34  52  82 115 146 185 239 281 329
#     4  10  21  36  52  85 116 144 188 229 282 332
#     4  11  22  33  55  82 111 144 186 232 282 331
#     4   9  17  33  54  83 114 145 187 238 275 330
#     4  10  21  35  57  86 114 147 183 232 288 331
#
# _framework density 21.836707000000001
#
# number of rings (size 3 to 8) (size 9 to 14) (size 15 to 20)
#    0.000    1.750    3.750    3.000    0.000    3.500 
#    0.000    0.000    0.000    0.750    0.000   14.000 
#    0.000    0.000    0.000    0.000    0.000    0.000 
#
# Total GULP energy -396433.917093 kJ/mol
# GULP energy per Si atom -12388.559909 kJ/mol
# Density = 2.178701 g / cm^3
# Si number density = 21.836707 Si / 1000 Ang^3
#
#
#
# Elastic Constant Matrix: (Units=GPa)
#
#
# Indices 1 2 3 4 5 6 
#
# 1 108.0238 4.5002 46.4376 0.0000 0.0000 0.0000
# 2 4.5002 9.2267 14.6572 0.0000 0.0000 0.0000
# 3 46.4376 14.6572 141.4337 0.0000 0.0000 0.0000
# 4 0.0000 0.0000 0.0000 19.9956 0.0000 0.0000
# 5 0.0000 0.0000 0.0000 0.0000 42.7934 0.0000
# 6 0.0000 0.0000 0.0000 0.0000 0.0000 25.9529
#
#
#
# Elastic Compliance Matrix: (Units=1/GPa)
#
#
# Indices 1 2 3 4 5 6 
#
# 1 0.010780 0.000437 -0.003585 0.000000 0.000000 0.000000
# 2 0.000437 0.129757 -0.013591 0.000000 0.000000 0.000000
# 3 -0.003585 -0.013591 0.009656 0.000000 0.000000 0.000000
# 4 0.000000 0.000000 0.000000 0.050011 0.000000 0.000000
# 5 0.000000 0.000000 0.000000 0.000000 0.023368 0.000000
# 6 0.000000 0.000000 0.000000 0.000000 0.000000 0.038531
#
#
# Mechanical properties :
#
#
# Convention : Reuss Voigt Hill
#
# Bulk Modulus (GPa) = 8.56781 43.31937 25.94359
# Shear Modulus (GPa) = 14.94831 30.62099 22.78465
#
# Velocity S-wave (km/s) = 2.61923 3.74875 3.23369
# Velocity P-wave (km/s) = 3.61652 6.21438 5.08418
#
# Compressibility (1/GPa) = 0.11671596
#
# Stress axis : x y z
#
# Youngs Moduli (GPa) = 92.76402 7.70671 103.56398
#
# Poissons Ratio (x) = -0.00337 0.37125
# Poissons Ratio (y) = -0.04051 1.40749
# Poissons Ratio (z) = 0.33253 0.10474
#
# Static dielectric constant tensor:
#      x y z
#    x 4.087100 0.000000 0.000000 
#    y 0.000000 3.434460 0.000000 
#    z 0.000000 0.000000 4.229710 
# 
# 
# High freq. dielectric constant tensor:
#      x y z
#    x 1.855070 0.000000 0.000000 
#    y 0.000000 1.798960 0.000000 
#    z 0.000000 0.000000 1.882140 
# 
# From -- ./inp_files/8383.got.cif
#   From: 2010.03.12/outbox.cif.g09.slc.cpg/sg45_5_cif.got.tgz:8383.got - 2010.04.14 02:50:11.
