data_PCOD8190905
_publ_section_title
;
Structure prediction by ZEFSAII (Michael W. Deem and Ramdas Pophale) SiO2 
 PCOD8190905
Probable space group: I B A 2
;
_chemical_formula_sum "Si O2"
_cell_formula_units_Z 48
_cell_length_a 11.675549
_cell_length_b 9.484957
_cell_length_c 18.003612
_cell_angle_alpha 90.000000
_cell_angle_beta 90.000000
_cell_angle_gamma 90.000000
_cell_volume 1993.757444
_symmetry_space_group_name_H-M "I B A 2"
_symmetry_group_IT_number 45
_symmetry_cell_setting 'orthorhombic'
loop_
_space_group_symop_operation_xyz
x,y,z
-x,-y,z
-x,y,1/2+z
x,-y,1/2+z
1/2+x,1/2+y,1/2+z
1/2-x,1/2-y,1/2+z
1/2-x,1/2+y,z
1/2+x,1/2-y,z
loop_
_atom_site_type_symbol
_atom_site_label
_atom_site_fract_x
_atom_site_fract_y
_atom_site_fract_z
Si Si1 0.389168 0.849227 0.638720
Si Si2 0.000000 0.000000 0.247184
Si Si3 0.671504 0.965686 0.386642
Si Si4 0.500000 0.000000 0.266208
Si Si5 0.500000 0.500000 0.497353
Si Si6 0.171503 0.034314 0.626750
Si Si7 0.000000 0.500000 0.516039
Si Si8 0.889168 0.849227 0.874672
O O1 0.325681 0.700896 0.643584
O O2 0.459487 0.870434 0.714895
O O3 0.299140 0.976114 0.626784
O O4 0.477807 0.863346 0.569428
O O5 0.897576 0.951986 0.191822
O O6 0.959487 0.129566 0.298497
O O7 0.674319 0.799104 0.369808
O O8 0.602424 0.048014 0.321570
O O9 0.613092 0.983164 0.466553
O O10 0.799140 0.023886 0.386608
O O11 0.386908 0.516836 0.546839
O O12 0.477807 0.363346 0.443964
#
# Coordination Sequence:
#
# PCOD8190905 Si02
#       8
#     8   4   8   4   4   8   4   8
#     4  11  24  42  66  95 128 168 214 264 318 378
#     4  10  24  42  62  90 128 166 208 258 316 378
#     4  11  24  42  66  95 128 168 214 264 318 378
#     4  10  24  42  62  90 128 166 208 258 316 378
#     4  10  24  42  64  94 130 170 214 260 314 380
#     4  11  24  42  66  95 128 168 214 264 318 378
#     4  10  24  42  64  94 130 170 214 260 314 380
#     4  11  24  42  66  95 128 168 214 264 318 378
#
# _framework density 24.075146
#
# number of rings (size 3 to 8) (size 9 to 14) (size 15 to 20)
#    0.000    1.333    0.000    4.000    0.000   18.667 
#    0.000    0.000    0.000    0.000    0.000    0.000 
#    0.000    0.000    0.000    0.000    0.000    0.000 
#
# Total GULP energy -297555.323134 kJ/mol
# GULP energy per Si atom -12398.138464 kJ/mol
# Density = 2.402035 g / cm^3
# Si number density = 24.075146 Si / 1000 Ang^3
#
#
#
# Elastic Constant Matrix: (Units=GPa)
#
#
# Indices 1 2 3 4 5 6 
#
# 1 95.0465 41.0205 52.3724 0.0000 0.0000 0.0000
# 2 41.0205 112.9136 35.1754 0.0000 0.0000 0.0000
# 3 52.3724 35.1754 175.2273 0.0000 0.0000 0.0000
# 4 0.0000 0.0000 0.0000 23.6307 0.0000 0.0000
# 5 0.0000 0.0000 0.0000 0.0000 28.0870 0.0000
# 6 0.0000 0.0000 0.0000 0.0000 0.0000 28.4023
#
#
#
# Elastic Compliance Matrix: (Units=1/GPa)
#
#
# Indices 1 2 3 4 5 6 
#
# 1 0.014164 -0.004082 -0.003414 0.000000 0.000000 0.000000
# 2 -0.004082 0.010624 -0.000913 0.000000 0.000000 0.000000
# 3 -0.003414 -0.000913 0.006910 0.000000 0.000000 0.000000
# 4 0.000000 0.000000 0.000000 0.042318 0.000000 0.000000
# 5 0.000000 0.000000 0.000000 0.000000 0.035604 0.000000
# 6 0.000000 0.000000 0.000000 0.000000 0.000000 0.035208
#
#
# Mechanical properties :
#
#
# Convention : Reuss Voigt Hill
#
# Bulk Modulus (GPa) = 67.20023 71.14709 69.17366
# Shear Modulus (GPa) = 30.01101 32.99862 31.50481
#
# Velocity S-wave (km/s) = 3.53449 3.70625 3.62139
# Velocity P-wave (km/s) = 6.68058 6.92324 6.80299
#
# Compressibility (1/GPa) = 0.01488090
#
# Stress axis : x y z
#
# Youngs Moduli (GPa) = 70.60098 94.12995 144.70898
#
# Poissons Ratio (x) = 0.38425 0.49403
# Poissons Ratio (y) = 0.28820 0.13205
# Poissons Ratio (z) = 0.24103 0.08589
#
# Static dielectric constant tensor:
#      x y z
#    x 4.178340 0.000000 0.000000 
#    y 0.000000 3.888840 0.000000 
#    z 0.000000 0.000000 4.726280 
# 
# 
# High freq. dielectric constant tensor:
#      x y z
#    x 1.951140 0.000000 0.000000 
#    y 0.000000 1.930040 0.000000 
#    z 0.000000 0.000000 1.988810 
# 
# From -- ./inp_files/7910.got.cif
#   From: 2010.03.12/outbox.cif.g09.slc.cpg/sg45_4_cif.got.tgz:7910.got - 2010.04.14 02:50:11.
