data_PCOD8190161
_publ_section_title
;
Structure prediction by ZEFSAII (Michael W. Deem and Ramdas Pophale) SiO2 
 PCOD8190161
Probable space group: I M M 2
;
_chemical_formula_sum "Si O2"
_cell_formula_units_Z 40
_cell_length_a 7.641832
_cell_length_b 9.159009
_cell_length_c 29.538691
_cell_angle_alpha 90.000000
_cell_angle_beta 90.000000
_cell_angle_gamma 90.000000
_cell_volume 2067.460483
_symmetry_space_group_name_H-M "I M M 2"
_symmetry_group_IT_number 44
_symmetry_cell_setting 'orthorhombic'
loop_
_space_group_symop_operation_xyz
x,y,z
-x,-y,z
-x,y,z
x,-y,z
1/2+x,1/2+y,1/2+z
1/2-x,1/2-y,1/2+z
1/2-x,1/2+y,1/2+z
1/2+x,1/2-y,1/2+z
loop_
_atom_site_type_symbol
_atom_site_label
_atom_site_fract_x
_atom_site_fract_y
_atom_site_fract_z
Si Si1 0.293158 0.828495 0.156630
Si Si2 0.500000 0.825967 0.713111
Si Si3 0.199960 0.330487 0.876645
Si Si4 0.500000 0.670731 0.807313
Si Si5 0.800910 0.159852 0.962035
Si Si6 0.194221 0.326742 0.557198
O O1 0.500000 0.795944 0.163612
O O2 0.230000 0.778418 0.106046
O O3 0.177399 0.735510 0.190925
O O4 0.257050 0.000000 0.164503
O O5 0.500000 0.775435 0.764623
O O6 0.500000 0.000000 0.709993
O O7 0.207960 0.500000 0.887139
O O8 0.324903 0.289413 0.835065
O O9 0.280326 0.256907 0.922075
O O10 0.000000 0.282635 0.865029
O O11 0.500000 0.500000 0.793320
O O12 0.000000 0.140676 0.948913
O O13 0.708304 0.000000 0.962525
O O14 0.791399 0.233154 0.012278
O O15 0.199025 0.500000 0.557278
O O16 0.000000 0.265310 0.553234
#
# Coordination Sequence:
#
# PCOD8190161 Si02
#       6
#     8   4   8   4   8   8
#     4   9  19  38  63  86 112 152 200 243 281 335
#     4  12  26  40  58  88 120 150 186 240 311 360
#     4   9  19  36  55  76 106 141 178 226 277 328
#     4  10  22  40  60  80 102 140 196 240 277 338
#     4   9  17  28  47  78 110 142 178 218 269 326
#     4   8  15  28  49  79 108 139 183 229 269 316
#
# _framework density 19.347407
#
# number of rings (size 3 to 8) (size 9 to 14) (size 15 to 20)
#    0.000    2.800    0.000    2.100    2.800    2.000 
#    0.000    3.000    0.000    1.200    0.000    0.000 
#    0.000    0.000    0.000    0.000    0.000    0.000 
#
# Total GULP energy -247762.453169 kJ/mol
# GULP energy per Si atom -12388.122658 kJ/mol
# Density = 1.930337 g / cm^3
# Si number density = 19.347407 Si / 1000 Ang^3
#
#
#
# Elastic Constant Matrix: (Units=GPa)
#
#
# Indices 1 2 3 4 5 6 
#
# 1 89.8729 43.4292 64.4082 0.0000 0.0000 0.0000
# 2 43.4292 71.3962 69.9462 0.0000 0.0000 0.0000
# 3 64.4082 69.9462 170.5021 0.0000 0.0000 0.0000
# 4 0.0000 0.0000 0.0000 29.0255 0.0000 0.0000
# 5 0.0000 0.0000 0.0000 0.0000 24.0546 0.0000
# 6 0.0000 0.0000 0.0000 0.0000 0.0000 16.5908
#
#
#
# Elastic Compliance Matrix: (Units=1/GPa)
#
#
# Indices 1 2 3 4 5 6 
#
# 1 0.017016 -0.006777 -0.003648 0.000000 0.000000 0.000000
# 2 -0.006777 0.026117 -0.008154 0.000000 0.000000 0.000000
# 3 -0.003648 -0.008154 0.010588 0.000000 0.000000 0.000000
# 4 0.000000 0.000000 0.000000 0.034452 0.000000 0.000000
# 5 0.000000 0.000000 0.000000 0.000000 0.041572 0.000000
# 6 0.000000 0.000000 0.000000 0.000000 0.000000 0.060274
#
#
# Mechanical properties :
#
#
# Convention : Reuss Voigt Hill
#
# Bulk Modulus (GPa) = 60.37341 76.37093 68.37217
# Shear Modulus (GPa) = 21.48703 24.20003 22.84353
#
# Velocity S-wave (km/s) = 3.33617 3.54052 3.43986
# Velocity P-wave (km/s) = 6.79063 7.50153 7.15491
#
# Compressibility (1/GPa) = 0.01656358
#
# Stress axis : x y z
#
# Youngs Moduli (GPa) = 58.76922 38.28897 94.44516
#
# Poissons Ratio (x) = 0.25947 0.34451
# Poissons Ratio (y) = 0.39826 0.77013
# Poissons Ratio (z) = 0.21437 0.31222
#
# Static dielectric constant tensor:
#      x y z
#    x 3.659570 0.000000 0.000000 
#    y 0.000000 3.344330 0.000000 
#    z 0.000000 0.000000 3.730720 
# 
# 
# High freq. dielectric constant tensor:
#      x y z
#    x 1.752490 0.000000 0.000000 
#    y 0.000000 1.710810 0.000000 
#    z 0.000000 0.000000 1.763540 
# 
# From -- ./inp_files/25966.got.cif
#   From: 2010.03.12/outbox.cif.g09.slc.cpg/sg44_13_cif.got.tgz:25966.got - 2010.04.14 02:36:11.
