data_PCOD8190203
_publ_section_title
;
Structure prediction by ZEFSAII (Michael W. Deem and Ramdas Pophale) SiO2 
 PCOD8190203
Probable space group: I M M 2
;
_chemical_formula_sum "Si O2"
_cell_formula_units_Z 40
_cell_length_a 8.841349
_cell_length_b 11.476748
_cell_length_c 19.626333
_cell_angle_alpha 90.000000
_cell_angle_beta 90.000000
_cell_angle_gamma 90.000000
_cell_volume 1991.482723
_symmetry_space_group_name_H-M "I M M 2"
_symmetry_group_IT_number 44
_symmetry_cell_setting 'orthorhombic'
loop_
_space_group_symop_operation_xyz
x,y,z
-x,-y,z
-x,y,z
x,-y,z
1/2+x,1/2+y,1/2+z
1/2-x,1/2-y,1/2+z
1/2-x,1/2+y,1/2+z
1/2+x,1/2-y,1/2+z
loop_
_atom_site_type_symbol
_atom_site_label
_atom_site_fract_x
_atom_site_fract_y
_atom_site_fract_z
Si Si1 0.323487 0.634265 0.198480
Si Si2 0.829054 0.500000 0.580387
Si Si3 0.822027 0.239632 0.072085
Si Si4 0.677205 0.277805 0.805376
Si Si5 0.826215 0.865591 0.451111
Si Si6 0.828697 0.500000 0.741601
O O1 0.500000 0.663153 0.197890
O O2 0.291169 0.500000 0.181710
O O3 0.244877 0.714999 0.142809
O O4 0.256697 0.663794 0.273263
O O5 0.745317 0.385755 0.552113
O O6 0.826941 0.500000 0.661014
O O7 0.000000 0.500000 0.552043
O O8 0.000000 0.229499 0.080161
O O9 0.781702 0.330172 0.012681
O O10 0.500000 0.270995 0.792256
O O11 0.713203 0.286647 0.885586
O O12 0.740844 0.388233 0.766471
O O13 0.000000 0.847801 0.473777
O O14 0.796214 0.000000 0.431789
O O15 0.000000 0.500000 0.769806
#
# Coordination Sequence:
#
# PCOD8190203 Si02
#       6
#     8   4   8   8   8   4
#     4  11  24  42  63  89 124 166 205 250 306 364
#     4  11  23  41  65  91 122 163 202 245 308 368
#     4  12  25  40  63  94 124 158 205 258 305 357
#     4  11  22  39  65  94 123 158 203 253 303 360
#     4  10  22  42  64  89 124 165 204 246 304 368
#     4  11  21  35  63  95 124 157 196 247 304 362
#
# _framework density 20.085538
#
# number of rings (size 3 to 8) (size 9 to 14) (size 15 to 20)
#    0.000    1.000    3.000    4.200    0.000    6.800 
#    1.800    0.000    0.000    0.000    0.000    0.000 
#    0.000    0.000    0.000    0.000    0.000    0.000 
#
# Total GULP energy -248106.777411 kJ/mol
# GULP energy per Si atom -12405.338871 kJ/mol
# Density = 2.003982 g / cm^3
# Si number density = 20.085538 Si / 1000 Ang^3
#
#
#
# Elastic Constant Matrix: (Units=GPa)
#
#
# Indices 1 2 3 4 5 6 
#
# 1 134.6230 53.1813 43.9028 0.0000 0.0000 0.0000
# 2 53.1813 85.2313 30.4367 0.0000 0.0000 0.0000
# 3 43.9028 30.4367 84.8597 0.0000 0.0000 0.0000
# 4 0.0000 0.0000 0.0000 39.2361 0.0000 0.0000
# 5 0.0000 0.0000 0.0000 0.0000 35.1062 0.0000
# 6 0.0000 0.0000 0.0000 0.0000 0.0000 44.7108
#
#
#
# Elastic Compliance Matrix: (Units=1/GPa)
#
#
# Indices 1 2 3 4 5 6 
#
# 1 0.010747 -0.005413 -0.003618 0.000000 0.000000 0.000000
# 2 -0.005413 0.016183 -0.003004 0.000000 0.000000 0.000000
# 3 -0.003618 -0.003004 0.014733 0.000000 0.000000 0.000000
# 4 0.000000 0.000000 0.000000 0.025487 0.000000 0.000000
# 5 0.000000 0.000000 0.000000 0.000000 0.028485 0.000000
# 6 0.000000 0.000000 0.000000 0.000000 0.000000 0.022366
#
#
# Mechanical properties :
#
#
# Convention : Reuss Voigt Hill
#
# Bulk Modulus (GPa) = 56.84251 62.19506 59.51879
# Shear Modulus (GPa) = 33.79841 35.62351 34.71096
#
# Velocity S-wave (km/s) = 4.10655 4.21597 4.16162
# Velocity P-wave (km/s) = 7.13069 7.39808 7.26561
#
# Compressibility (1/GPa) = 0.01759247
#
# Stress axis : x y z
#
# Youngs Moduli (GPa) = 93.05247 61.79236 67.87282
#
# Poissons Ratio (x) = 0.33451 0.24558
# Poissons Ratio (y) = 0.50373 0.20387
# Poissons Ratio (z) = 0.33668 0.18561
#
# Static dielectric constant tensor:
#      x y z
#    x 3.789180 0.000000 0.000000 
#    y 0.000000 3.729580 0.000000 
#    z 0.000000 0.000000 3.645220 
# 
# 
# High freq. dielectric constant tensor:
#      x y z
#    x 1.794390 0.000000 0.000000 
#    y 0.000000 1.787110 0.000000 
#    z 0.000000 0.000000 1.781050 
# 
# From -- ./inp_files/22809.got.cif
#   From: 2010.03.12/outbox.cif.g09.slc.cpg/sg44_12_cif.got.tgz:22809.got - 2010.04.14 02:36:11.
