data_PCOD8190651
_publ_section_title
;
Structure prediction by ZEFSAII (Michael W. Deem and Ramdas Pophale) SiO2 
 PCOD8190651
Probable space group: I B A 2
;
_chemical_formula_sum "Si O2"
_cell_formula_units_Z 64
_cell_length_a 11.924270
_cell_length_b 14.776282
_cell_length_c 17.365906
_cell_angle_alpha 90.000000
_cell_angle_beta 90.000000
_cell_angle_gamma 90.000000
_cell_volume 3059.809706
_symmetry_space_group_name_H-M "I B A 2"
_symmetry_group_IT_number 45
_symmetry_cell_setting 'orthorhombic'
loop_
_space_group_symop_operation_xyz
x,y,z
-x,-y,z
-x,y,1/2+z
x,-y,1/2+z
1/2+x,1/2+y,1/2+z
1/2-x,1/2-y,1/2+z
1/2-x,1/2+y,z
1/2+x,1/2-y,z
loop_
_atom_site_type_symbol
_atom_site_label
_atom_site_fract_x
_atom_site_fract_y
_atom_site_fract_z
Si Si1 0.095904 0.380784 0.979770
Si Si2 0.241856 0.566909 0.751849
Si Si3 0.553749 0.700931 0.246098
Si Si4 0.422055 0.208903 0.085537
Si Si5 0.318788 0.705522 0.443777
Si Si6 0.943687 0.347040 0.847834
Si Si7 0.371773 0.987238 0.608247
Si Si8 0.095279 0.932773 0.828811
O O1 0.187853 0.315164 0.943255
O O2 0.010421 0.406469 0.910935
O O3 0.142690 0.471164 0.021661
O O4 0.036036 0.322257 0.045443
O O5 0.324356 0.653644 0.755014
O O6 0.120835 0.588833 0.788364
O O7 0.216750 0.535877 0.664551
O O8 0.294081 0.482660 0.797913
O O9 0.541362 0.738126 0.160949
O O10 0.535656 0.783310 0.305772
O O11 0.453447 0.629514 0.259916
O O12 0.345624 0.120265 0.104150
O O13 0.356281 0.279106 0.031550
O O14 0.345752 0.792094 0.391556
O O15 0.380905 0.619916 0.407159
O O16 0.500000 0.000000 0.637150
O O17 0.000000 0.000000 0.856129
#
# Coordination Sequence:
#
# PCOD8190651 Si02
#       8
#     8   8   8   8   8   8   8   8
#     4  10  21  38  56  84 123 153 192 246 300 357
#     4  11  22  38  64  90 119 162 200 246 307 357
#     4  10  21  42  63  87 119 156 203 250 296 360
#     4  10  22  38  58  84 117 156 199 246 296 358
#     4  10  21  38  60  85 116 159 196 241 304 360
#     4  10  21  37  61  89 116 153 202 248 298 356
#     4  10  22  38  55  86 123 154 197 250 295 356
#     4   9  22  41  60  87 120 149 197 253 295 356
#
# _framework density 20.916333999999999
#
# number of rings (size 3 to 8) (size 9 to 14) (size 15 to 20)
#    0.000    2.000    0.000    3.000    0.000   10.000 
#    0.000    5.625    0.000    0.000    0.000    0.000 
#    0.000    0.000    0.000    0.000    0.000    0.000 
#
# Total GULP energy -396744.944444 kJ/mol
# GULP energy per Si atom -12398.279514 kJ/mol
# Density = 2.086873 g / cm^3
# Si number density = 20.916334 Si / 1000 Ang^3
#
#
#
# Elastic Constant Matrix: (Units=GPa)
#
#
# Indices 1 2 3 4 5 6 
#
# 1 87.2643 44.0825 54.4623 0.0000 0.0000 0.0000
# 2 44.0825 106.8276 66.0355 0.0000 0.0000 0.0000
# 3 54.4623 66.0355 133.8591 0.0000 0.0000 0.0000
# 4 0.0000 0.0000 0.0000 32.3962 0.0000 0.0000
# 5 0.0000 0.0000 0.0000 0.0000 28.8782 0.0000
# 6 0.0000 0.0000 0.0000 0.0000 0.0000 25.8330
#
#
#
# Elastic Compliance Matrix: (Units=1/GPa)
#
#
# Indices 1 2 3 4 5 6 
#
# 1 0.016363 -0.003794 -0.004786 0.000000 0.000000 0.000000
# 2 -0.003794 0.014347 -0.005534 0.000000 0.000000 0.000000
# 3 -0.004786 -0.005534 0.012148 0.000000 0.000000 0.000000
# 4 0.000000 0.000000 0.000000 0.030868 0.000000 0.000000
# 5 0.000000 0.000000 0.000000 0.000000 0.034628 0.000000
# 6 0.000000 0.000000 0.000000 0.000000 0.000000 0.038710
#
#
# Mechanical properties :
#
#
# Convention : Reuss Voigt Hill
#
# Bulk Modulus (GPa) = 68.35161 73.01240 70.68200
# Shear Modulus (GPa) = 27.75171 28.31286 28.03228
#
# Velocity S-wave (km/s) = 3.64647 3.68315 3.66486
# Velocity P-wave (km/s) = 7.10483 7.28493 7.19544
#
# Compressibility (1/GPa) = 0.01463023
#
# Stress axis : x y z
#
# Youngs Moduli (GPa) = 61.11425 69.69892 82.31839
#
# Poissons Ratio (x) = 0.26442 0.39397
# Poissons Ratio (y) = 0.23185 0.45558
# Poissons Ratio (z) = 0.29249 0.38574
#
# Static dielectric constant tensor:
#      x y z
#    x 3.679140 0.000000 0.000000 
#    y 0.000000 3.926860 0.000000 
#    z 0.000000 0.000000 3.816850 
# 
# 
# High freq. dielectric constant tensor:
#      x y z
#    x 1.807200 0.000000 0.000000 
#    y 0.000000 1.822140 0.000000 
#    z 0.000000 0.000000 1.824700 
# 
# From -- ./inp_files/6270.got.cif
#   From: 2010.03.12/outbox.cif.g09.slc.cpg/sg45_4_cif.got.tgz:6270.got - 2010.04.14 02:50:11.
