data_PCOD8190569
_publ_section_title
;
Structure prediction by ZEFSAII (Michael W. Deem and Ramdas Pophale) SiO2 
 PCOD8190569
Probable space group: I B A 2
;
_chemical_formula_sum "Si O2"
_cell_formula_units_Z 52
_cell_length_a 11.113227
_cell_length_b 12.837542
_cell_length_c 17.412300
_cell_angle_alpha 90.000000
_cell_angle_beta 90.000000
_cell_angle_gamma 90.000000
_cell_volume 2484.152218
_symmetry_space_group_name_H-M "I B A 2"
_symmetry_group_IT_number 45
_symmetry_cell_setting 'orthorhombic'
loop_
_space_group_symop_operation_xyz
x,y,z
-x,-y,z
-x,y,1/2+z
x,-y,1/2+z
1/2+x,1/2+y,1/2+z
1/2-x,1/2-y,1/2+z
1/2-x,1/2+y,z
1/2+x,1/2-y,z
loop_
_atom_site_type_symbol
_atom_site_label
_atom_site_fract_x
_atom_site_fract_y
_atom_site_fract_z
Si Si1 0.857105 0.339477 0.419390
Si Si2 0.000000 0.500000 0.337812
Si Si3 0.914077 0.280523 0.155653
Si Si4 0.171232 0.692158 0.597310
Si Si5 0.340653 0.006741 0.199934
Si Si6 0.165485 0.070326 0.311731
Si Si7 0.578937 0.336008 0.812766
O O1 0.846958 0.338290 0.509789
O O2 0.746489 0.403072 0.384707
O O3 0.866970 0.223192 0.386134
O O4 0.976054 0.401212 0.392094
O O5 0.108671 0.464179 0.281506
O O6 0.796373 0.257976 0.102526
O O7 0.930546 0.406942 0.162967
O O8 0.882847 0.224799 0.235820
O O9 0.046958 0.247505 0.123092
O O10 0.194352 0.585933 0.643989
O O11 0.225683 0.076393 0.226688
O O12 0.064674 0.158858 0.313408
O O13 0.124223 0.952275 0.319456
#
# Coordination Sequence:
#
# PCOD8190569 Si02
#       7
#     8   4   8   8   8   8   8
#     4  11  26  41  66  99 137 179 220 291 349 408
#     4  10  20  38  68  96 118 174 230 272 328 394
#     4  12  24  43  70  99 132 181 224 278 337 408
#     4  12  27  43  66 102 140 175 223 286 349 408
#     4  11  20  43  67  96 127 172 236 277 330 402
#     4  10  23  41  69  98 128 182 228 284 337 408
#     4  11  22  43  69  98 135 175 238 280 340 418
#
# _framework density 20.932696
#
# number of rings (size 3 to 8) (size 9 to 14) (size 15 to 20)
#    0.000    0.923    6.154    0.923    4.308    3.692 
#    0.000    0.000    0.000    0.000    0.000    0.000 
#    0.000    0.000    0.000    0.000    0.000    0.000 
#
# Total GULP energy -322213.158976 kJ/mol
# GULP energy per Si atom -12392.813807 kJ/mol
# Density = 2.088505 g / cm^3
# Si number density = 20.932696 Si / 1000 Ang^3
#
#
#
# Elastic Constant Matrix: (Units=GPa)
#
#
# Indices 1 2 3 4 5 6 
#
# 1 112.8063 18.4409 34.0405 0.0000 0.0000 0.0000
# 2 18.4409 76.9132 30.8149 0.0000 0.0000 0.0000
# 3 34.0405 30.8149 140.6930 0.0000 0.0000 0.0000
# 4 0.0000 0.0000 0.0000 18.0108 0.0000 0.0000
# 5 0.0000 0.0000 0.0000 0.0000 23.1396 0.0000
# 6 0.0000 0.0000 0.0000 0.0000 0.0000 28.3328
#
#
#
# Elastic Compliance Matrix: (Units=1/GPa)
#
#
# Indices 1 2 3 4 5 6 
#
# 1 0.009723 -0.001522 -0.002019 0.000000 0.000000 0.000000
# 2 -0.001522 0.014491 -0.002805 0.000000 0.000000 0.000000
# 3 -0.002019 -0.002805 0.008211 0.000000 0.000000 0.000000
# 4 0.000000 0.000000 0.000000 0.055522 0.000000 0.000000
# 5 0.000000 0.000000 0.000000 0.000000 0.043216 0.000000
# 6 0.000000 0.000000 0.000000 0.000000 0.000000 0.035295
#
#
# Mechanical properties :
#
#
# Convention : Reuss Voigt Hill
#
# Bulk Modulus (GPa) = 50.68260 55.22278 52.95269
# Shear Modulus (GPa) = 26.92117 30.37106 28.64611
#
# Velocity S-wave (km/s) = 3.59009 3.81319 3.70332
# Velocity P-wave (km/s) = 6.43815 6.76946 6.60588
#
# Compressibility (1/GPa) = 0.01973064
#
# Stress axis : x y z
#
# Youngs Moduli (GPa) = 102.85033 69.01009 121.79335
#
# Poissons Ratio (x) = 0.10505 0.24590
# Poissons Ratio (y) = 0.15657 0.34169
# Poissons Ratio (z) = 0.20766 0.19360
#
# Static dielectric constant tensor:
#      x y z
#    x 4.554870 0.000000 0.000000 
#    y 0.000000 3.756070 0.000000 
#    z 0.000000 0.000000 3.554290 
# 
# 
# High freq. dielectric constant tensor:
#      x y z
#    x 1.838790 0.000000 0.000000 
#    y 0.000000 1.820340 0.000000 
#    z 0.000000 0.000000 1.799870 
# 
# From -- ./inp_files/7935.got.cif
#   From: 2010.03.12/outbox.cif.g09.slc.cpg/sg45_4_cif.got.tgz:7935.got - 2010.04.14 02:50:11.
