data_PCOD8190603
_publ_section_title
;
Structure prediction by ZEFSAII (Michael W. Deem and Ramdas Pophale) SiO2 
 PCOD8190603
Probable space group: I B A 2
;
_chemical_formula_sum "Si O2"
_cell_formula_units_Z 64
_cell_length_a 9.211992
_cell_length_b 21.320206
_cell_length_c 17.031001
_cell_angle_alpha 90.000000
_cell_angle_beta 90.000000
_cell_angle_gamma 90.000000
_cell_volume 3344.915286
_symmetry_space_group_name_H-M "I B A 2"
_symmetry_group_IT_number 45
_symmetry_cell_setting 'orthorhombic'
loop_
_space_group_symop_operation_xyz
x,y,z
-x,-y,z
-x,y,1/2+z
x,-y,1/2+z
1/2+x,1/2+y,1/2+z
1/2-x,1/2-y,1/2+z
1/2-x,1/2+y,z
1/2+x,1/2-y,z
loop_
_atom_site_type_symbol
_atom_site_label
_atom_site_fract_x
_atom_site_fract_y
_atom_site_fract_z
Si Si1 0.744773 0.671488 0.280200
Si Si2 0.116771 0.446327 0.540935
Si Si3 0.444674 0.268305 0.835533
Si Si4 0.262293 0.386216 0.852368
Si Si5 0.349766 0.532542 0.489119
Si Si6 0.547140 0.143309 0.407612
Si Si7 0.316590 0.437874 0.683106
Si Si8 0.861669 0.920631 0.653626
O O1 0.588109 0.698702 0.303749
O O2 0.861321 0.728117 0.266675
O O3 0.810992 0.629232 0.352206
O O4 0.729718 0.631501 0.200765
O O5 0.231571 0.477992 0.482139
O O6 0.060623 0.384562 0.495242
O O7 0.191261 0.421977 0.620491
O O8 0.000000 0.500000 0.561872
O O9 0.328967 0.318019 0.867202
O O10 0.478813 0.219253 0.907113
O O11 0.273691 0.406431 0.763525
O O12 0.093713 0.390309 0.872227
O O13 0.357190 0.431633 0.907387
O O14 0.500000 0.500000 0.511016
O O15 0.309658 0.578350 0.562704
O O16 0.467169 0.406048 0.656286
O O17 0.331157 0.512409 0.693864
#
# Coordination Sequence:
#
# PCOD8190603 Si02
#       8
#     8   8   8   8   8   8   8   8
#     4  10  21  38  69  87 130 166 212 265 317 367
#     4  11  22  42  59  92 133 164 197 272 323 387
#     4  10  21  39  62  94 123 164 217 263 299 377
#     4  12  23  39  66  92 122 171 214 261 315 386
#     4  11  24  39  64  93 130 158 210 263 325 389
#     4  10  23  40  61  91 128 163 213 256 321 372
#     4  10  23  37  64  95 127 159 214 256 328 386
#     4  10  20  42  60  96 127 162 208 263 320 391
#
# _framework density 19.133519
#
# number of rings (size 3 to 8) (size 9 to 14) (size 15 to 20)
#    0.750    0.750    6.250    0.000    5.250    2.000 
#    0.000    1.250    2.750    0.000    0.000    0.000 
#    0.000    0.000    0.000    0.000    0.000    0.000 
#
# Total GULP energy -396540.521915 kJ/mol
# GULP energy per Si atom -12391.891310 kJ/mol
# Density = 1.908997 g / cm^3
# Si number density = 19.133519 Si / 1000 Ang^3
#
#
#
# Elastic Constant Matrix: (Units=GPa)
#
#
# Indices 1 2 3 4 5 6 
#
# 1 97.1080 19.3267 27.5798 0.0000 0.0000 0.0000
# 2 19.3267 69.2346 48.0729 0.0000 0.0000 0.0000
# 3 27.5798 48.0729 108.1921 0.0000 0.0000 0.0000
# 4 0.0000 0.0000 0.0000 14.8323 0.0000 0.0000
# 5 0.0000 0.0000 0.0000 0.0000 26.6456 0.0000
# 6 0.0000 0.0000 0.0000 0.0000 0.0000 25.5436
#
#
#
# Elastic Compliance Matrix: (Units=1/GPa)
#
#
# Indices 1 2 3 4 5 6 
#
# 1 0.011232 -0.001659 -0.002126 0.000000 0.000000 0.000000
# 2 -0.001659 0.021133 -0.008967 0.000000 0.000000 0.000000
# 3 -0.002126 -0.008967 0.013769 0.000000 0.000000 0.000000
# 4 0.000000 0.000000 0.000000 0.067421 0.000000 0.000000
# 5 0.000000 0.000000 0.000000 0.000000 0.037530 0.000000
# 6 0.000000 0.000000 0.000000 0.000000 0.000000 0.039149
#
#
# Mechanical properties :
#
#
# Convention : Reuss Voigt Hill
#
# Bulk Modulus (GPa) = 48.47418 51.61041 50.04229
# Shear Modulus (GPa) = 22.46041 25.37465 23.91753
#
# Velocity S-wave (km/s) = 3.42991 3.64564 3.53942
# Velocity P-wave (km/s) = 6.40901 6.68979 6.55090
#
# Compressibility (1/GPa) = 0.02062954
#
# Stress axis : x y z
#
# Youngs Moduli (GPa) = 89.03275 47.31921 72.62653
#
# Poissons Ratio (x) = 0.07851 0.15440
# Poissons Ratio (y) = 0.14772 0.65125
# Poissons Ratio (z) = 0.18928 0.42431
#
# Static dielectric constant tensor:
#      x y z
#    x 4.450120 0.000000 0.000000 
#    y 0.000000 3.445770 0.000000 
#    z 0.000000 0.000000 3.299140 
# 
# 
# High freq. dielectric constant tensor:
#      x y z
#    x 1.762290 0.000000 0.000000 
#    y 0.000000 1.731740 0.000000 
#    z 0.000000 0.000000 1.722400 
# 
# From -- ./inp_files/5852.got.cif
#   From: 2010.03.12/outbox.cif.g09.slc.cpg/sg45_3_cif.got.tgz:5852.got - 2010.04.14 02:50:11.
