data_PCOD8190593
_publ_section_title
;
Structure prediction by ZEFSAII (Michael W. Deem and Ramdas Pophale) SiO2 
 PCOD8190593
Probable space group: I B A 2
;
_chemical_formula_sum "Si O2"
_cell_formula_units_Z 52
_cell_length_a 7.260348
_cell_length_b 16.303138
_cell_length_c 18.988180
_cell_angle_alpha 90.000000
_cell_angle_beta 90.000000
_cell_angle_gamma 90.000000
_cell_volume 2247.563561
_symmetry_space_group_name_H-M "I B A 2"
_symmetry_group_IT_number 45
_symmetry_cell_setting 'orthorhombic'
loop_
_space_group_symop_operation_xyz
x,y,z
-x,-y,z
-x,y,1/2+z
x,-y,1/2+z
1/2+x,1/2+y,1/2+z
1/2-x,1/2-y,1/2+z
1/2-x,1/2+y,z
1/2+x,1/2-y,z
loop_
_atom_site_type_symbol
_atom_site_label
_atom_site_fract_x
_atom_site_fract_y
_atom_site_fract_z
Si Si1 0.000000 0.000000 0.390450
Si Si2 0.101329 0.083424 0.630444
Si Si3 0.728100 0.809683 0.987265
Si Si4 0.639561 0.365355 0.483486
Si Si5 0.390823 0.145828 0.717704
Si Si6 0.250965 0.190616 0.147452
Si Si7 0.635665 0.922247 0.864691
O O1 0.148254 0.945260 0.348553
O O2 0.850957 0.943582 0.432589
O O3 0.213891 0.110774 0.560451
O O4 0.258933 0.071680 0.690103
O O5 0.946292 0.148581 0.651911
O O6 0.000000 0.000000 0.613304
O O7 0.738190 0.717237 0.954467
O O8 0.607128 0.871393 0.938157
O O9 0.925460 0.847992 0.991237
O O10 0.660782 0.800508 0.068399
O O11 0.597593 0.138352 0.689230
O O12 0.278434 0.223652 0.687467
O O13 0.410127 0.140804 0.801879
O O14 0.500000 0.000000 0.864210
#
# Coordination Sequence:
#
# PCOD8190593 Si02
#       7
#     4   8   8   8   8   8   8
#     4  10  24  46  64  94 144 180 230 288 344 422
#     4  11  24  41  70 104 142 180 227 299 351 411
#     4  10  22  43  70 101 132 184 236 288 346 413
#     4  10  20  40  69 103 129 178 234 288 350 404
#     4  12  25  44  71 102 140 186 229 290 356 428
#     4  11  23  46  71 104 137 177 247 286 346 421
#     4  11  29  47  65 104 143 187 231 283 366 431
#
# _framework density 23.136163
#
# number of rings (size 3 to 8) (size 9 to 14) (size 15 to 20)
#    0.000    1.231    3.846    0.923    5.385    2.462 
#    0.000    0.000    0.000    0.000    0.000    0.000 
#    0.000    0.000    0.000    0.000    0.000    0.000 
#
# Total GULP energy -322171.903728 kJ/mol
# GULP energy per Si atom -12391.227066 kJ/mol
# Density = 2.308350 g / cm^3
# Si number density = 23.136163 Si / 1000 Ang^3
#
#
#
# Elastic Constant Matrix: (Units=GPa)
#
#
# Indices 1 2 3 4 5 6 
#
# 1 54.3871 -5.1608 20.9544 0.0000 0.0000 0.0000
# 2 -5.1608 89.1904 35.6137 0.0000 0.0000 0.0000
# 3 20.9544 35.6137 129.7906 0.0000 0.0000 0.0000
# 4 0.0000 0.0000 0.0000 31.0116 0.0000 0.0000
# 5 0.0000 0.0000 0.0000 0.0000 26.2186 0.0000
# 6 0.0000 0.0000 0.0000 0.0000 0.0000 19.3781
#
#
#
# Elastic Compliance Matrix: (Units=1/GPa)
#
#
# Indices 1 2 3 4 5 6 
#
# 1 0.020200 0.002775 -0.004023 0.000000 0.000000 0.000000
# 2 0.002775 0.012973 -0.004008 0.000000 0.000000 0.000000
# 3 -0.004023 -0.004008 0.009454 0.000000 0.000000 0.000000
# 4 0.000000 0.000000 0.000000 0.032246 0.000000 0.000000
# 5 0.000000 0.000000 0.000000 0.000000 0.038141 0.000000
# 6 0.000000 0.000000 0.000000 0.000000 0.000000 0.051605
#
#
# Mechanical properties :
#
#
# Convention : Reuss Voigt Hill
#
# Bulk Modulus (GPa) = 31.13712 41.79807 36.46759
# Shear Modulus (GPa) = 26.90574 30.11905 28.51240
#
# Velocity S-wave (km/s) = 3.41388 3.61198 3.51433
# Velocity P-wave (km/s) = 5.38765 5.95824 5.68011
#
# Compressibility (1/GPa) = 0.03211601
#
# Stress axis : x y z
#
# Youngs Moduli (GPa) = 49.50512 77.08424 105.77689
#
# Poissons Ratio (x) = -0.21392 0.42551
# Poissons Ratio (y) = -0.13738 0.42392
# Poissons Ratio (z) = 0.19914 0.30893
#
# Static dielectric constant tensor:
#      x y z
#    x 4.099620 0.000000 0.000000 
#    y 0.000000 4.487080 0.000000 
#    z 0.000000 0.000000 4.274490 
# 
# 
# High freq. dielectric constant tensor:
#      x y z
#    x 1.918060 0.000000 0.000000 
#    y 0.000000 1.918690 0.000000 
#    z 0.000000 0.000000 1.898280 
# 
# From -- ./inp_files/7649.got.cif
#   From: 2010.03.12/outbox.cif.g09.slc.cpg/sg45_4_cif.got.tgz:7649.got - 2010.04.14 02:50:11.
