data_PCOD8190355
_publ_section_title
;
Structure prediction by ZEFSAII (Michael W. Deem and Ramdas Pophale) SiO2 
 PCOD8190355
Probable space group: I B A 2
;
_chemical_formula_sum "Si O2"
_cell_formula_units_Z 48
_cell_length_a 5.234016
_cell_length_b 15.383140
_cell_length_c 28.931447
_cell_angle_alpha 90.000000
_cell_angle_beta 90.000000
_cell_angle_gamma 90.000000
_cell_volume 2329.432840
_symmetry_space_group_name_H-M "I B A 2"
_symmetry_group_IT_number 45
_symmetry_cell_setting 'orthorhombic'
loop_
_space_group_symop_operation_xyz
x,y,z
-x,-y,z
-x,y,1/2+z
x,-y,1/2+z
1/2+x,1/2+y,1/2+z
1/2-x,1/2-y,1/2+z
1/2-x,1/2+y,z
1/2+x,1/2-y,z
loop_
_atom_site_type_symbol
_atom_site_label
_atom_site_fract_x
_atom_site_fract_y
_atom_site_fract_z
Si Si1 0.697151 0.303757 0.680720
Si Si2 0.748706 0.555436 0.106183
Si Si3 0.679364 0.340376 0.788554
Si Si4 0.279262 0.193183 0.527414
Si Si5 0.655325 0.195659 0.925821
Si Si6 0.179213 0.646741 0.327646
O O1 0.953984 0.253684 0.666662
O O2 0.682164 0.392552 0.652590
O O3 0.696548 0.324825 0.734485
O O4 0.500000 0.500000 0.092823
O O5 0.000000 0.500000 0.116669
O O6 0.816671 0.617021 0.063570
O O7 0.922471 0.395955 0.806394
O O8 0.658724 0.249637 0.816144
O O9 0.424085 0.394307 0.801650
O O10 0.001818 0.235904 0.534723
O O11 0.302879 0.151196 0.475902
O O12 0.863904 0.272183 0.921712
O O13 0.698169 0.130079 0.882850
#
# Coordination Sequence:
#
# PCOD8190355 Si02
#       6
#     8   8   8   8   8   8
#     4  12  21  36  60  88 112 145 194 241 279 325
#     4  12  26  43  59  80 114 157 191 231 291 347
#     4  10  16  25  45  76 116 140 167 217 282 323
#     4  10  21  38  60  88 112 143 187 246 284 324
#     4  10  16  25  47  76 114 133 170 217 284 317
#     4  10  14  25  41  76 120 138 159 216 288 326
#
# _framework density 20.605875000000001
#
# number of rings (size 3 to 8) (size 9 to 14) (size 15 to 20)
#    0.000    1.333    6.667    3.000    0.000    0.000 
#    0.000    0.000    0.000    0.000    0.000    7.000 
#    0.000    0.000    0.000    0.000    0.000    0.000 
#
# Total GULP energy -297490.561343 kJ/mol
# GULP energy per Si atom -12395.440056 kJ/mol
# Density = 2.055898 g / cm^3
# Si number density = 20.605875 Si / 1000 Ang^3
#
#
#
# Elastic Constant Matrix: (Units=GPa)
#
#
# Indices 1 2 3 4 5 6 
#
# 1 159.9371 10.6881 23.5082 0.0000 0.0000 0.0000
# 2 10.6881 29.8671 31.7491 0.0000 0.0000 0.0000
# 3 23.5082 31.7491 104.2287 0.0000 0.0000 0.0000
# 4 0.0000 0.0000 0.0000 -0.5534 0.0000 0.0000
# 5 0.0000 0.0000 0.0000 0.0000 14.8166 0.0000
# 6 0.0000 0.0000 0.0000 0.0000 0.0000 -113.5490
#
#
#
# Elastic Compliance Matrix: (Units=1/GPa)
#
#
# Indices 1 2 3 4 5 6 
#
# 1 0.006493 -0.001134 -0.001119 0.000000 0.000000 0.000000
# 2 -0.001134 0.049713 -0.014887 0.000000 0.000000 0.000000
# 3 -0.001119 -0.014887 0.014381 0.000000 0.000000 0.000000
# 4 0.000000 0.000000 0.000000 -1.807040 0.000000 0.000000
# 5 0.000000 0.000000 0.000000 0.000000 0.067492 0.000000
# 6 0.000000 0.000000 0.000000 0.000000 0.000000 -0.008807
#
#
# Mechanical properties :
#
#
# Convention : Reuss Voigt Hill
#
# Bulk Modulus (GPa) = 27.54319 47.32485 37.43402
# Shear Modulus (GPa) = -3.06488 -4.65135 -3.85811
#
# Velocity S-wave (km/s) = -1.22091 -1.50406 -1.36982
# Velocity P-wave (km/s) = 3.37760 4.47217 3.96286
#
# Compressibility (1/GPa) = 0.03630662
#
# Stress axis : x y z
#
# Youngs Moduli (GPa) = 154.01889 20.11550 69.53382
#
# Poissons Ratio (x) = 0.02281 0.07781
# Poissons Ratio (y) = 0.17465 1.03517
# Poissons Ratio (z) = 0.17234 0.29947
#
# Static dielectric constant tensor:
#      x y z
#    x 5.335930 0.000000 0.000000 
#    y 0.000000 3.048190 0.000000 
#    z 0.000000 0.000000 3.989460 
# 
# 
# High freq. dielectric constant tensor:
#      x y z
#    x 1.846150 0.000000 0.000000 
#    y 0.000000 1.726660 0.000000 
#    z 0.000000 0.000000 1.827760 
# 
# From -- ./inp_files/9891.got.cif
#   From: 2010.03.12/outbox.cif.g09.slc.cpg/sg45_5_cif.got.tgz:9891.got - 2010.04.14 02:50:11.
